data_PCOD9208983
_publ_section_title
;
Structure prediction by ZEFSAII (Michael W. Deem and Ramdas Pophale) SiO2 
 PCOD9208983
Probable space group: C 2/M
;
_chemical_formula_sum "Si O2"
_cell_formula_units_Z 56
_cell_length_a 30.573715
_cell_length_b 8.746886
_cell_length_c 19.146534
_cell_angle_alpha 90.000000
_cell_angle_beta 34.163119
_cell_angle_gamma 90.000000
_cell_volume 2875.285366
_symmetry_space_group_name_H-M "C 2/M"
_symmetry_group_IT_number 12
_symmetry_cell_setting 'monoclinic'
loop_
_space_group_symop_operation_xyz
x,y,z
-x,y,-z
-x,-y,-z
x,-y,z
1/2+x,1/2+y,z
1/2-x,1/2+y,-z
1/2-x,1/2-y,-z
1/2+x,1/2-y,z
loop_
_atom_site_type_symbol
_atom_site_label
_atom_site_fract_x
_atom_site_fract_y
_atom_site_fract_z
Si Si1 0.794637 0.180164 0.336960
Si Si2 0.361668 0.678320 0.403954
Si Si3 0.776812 0.816987 0.889648
Si Si4 0.580306 0.816488 0.932442
Si Si5 0.633273 0.319210 0.006985
Si Si6 0.512050 0.821656 0.267567
Si Si7 0.041707 0.183451 0.372076
O O1 0.713349 0.267602 0.453393
O O2 0.838845 0.195389 0.352896
O O3 0.848395 0.252000 0.206899
O O4 0.781410 0.000000 0.342146
O O5 0.379280 0.500000 0.393953
O O6 0.434626 0.781081 0.327410
O O7 0.866221 0.778122 0.753121
O O8 0.770354 0.000000 0.901627
O O9 0.750000 0.750000 0.000000
O O10 0.717589 0.753266 0.909827
O O11 0.582603 0.000000 0.931943
O O12 0.500000 0.770557 0.000000
O O13 0.589970 0.750847 0.997206
O O14 0.639521 0.500000 0.991027
O O15 0.581536 0.276564 0.142488
O O16 0.502078 0.770649 0.360375
O O17 0.531044 0.000000 0.237023
O O18 0.000000 0.221087 0.500000
O O19 0.034789 0.000000 0.370884
#
# Coordination Sequence:
#
# PCOD9208983 Si02
#       7
#     8   8   8   8   8   8   8
#     4  10  21  38  60  88 121 161 207 256 312 372
#     4  10  21  38  62  88 121 163 206 252 308 375
#     4  11  22  40  67  95 127 166 212 264 319 382
#     4  11  24  41  62  90 126 165 209 263 320 377
#     4  12  25  41  64  92 125 167 215 263 317 383
#     4  12  24  39  62  91 124 159 206 259 312 379
#     4  10  23  43  66  92 125 165 207 255 318 384
#
# _framework density 19.476327999999999
#
# number of rings (size 3 to 8) (size 9 to 14) (size 15 to 20)
#    0.000    1.143    1.429    5.143    0.000    7.143 
#    0.000    4.286    0.000    0.000    0.000    0.000 
#    0.000    0.000    0.000    0.000    0.000    0.000 
#
# Total GULP energy -156612.063402 kJ/mol
# GULP energy per Si atom -5593.287979 kJ/mol
# Density = 1.943200 g / cm^3
# Si number density = 19.476328 Si / 1000 Ang^3
#
#
#
# Elastic Constant Matrix: (Units=GPa)
#
#
# Indices 1 2 3 4 5 6 
#
# 1 60.7369 23.6382 9.7737 -0.0051 -0.9275 -0.0006
# 2 23.6382 59.7281 12.3382 -0.0112 9.8206 0.0049
# 3 9.7737 12.3382 79.0791 -0.0161 11.0395 0.0053
# 4 -0.0051 -0.0112 -0.0161 26.5842 0.0018 0.2863
# 5 -0.9275 9.8206 11.0395 0.0018 26.6479 0.0000
# 6 -0.0006 0.0049 0.0053 0.2863 0.0000 31.3331
#
#
#
# Elastic Compliance Matrix: (Units=1/GPa)
#
#
# Indices 1 2 3 4 5 6 
#
# 1 0.020057 -0.008305 -0.001813 -0.000001 0.004510 0.000002
# 2 -0.008305 0.021558 -0.001261 0.000007 -0.007712 -0.000003
# 3 -0.001813 -0.001261 0.013809 0.000008 -0.005319 -0.000002
# 4 -0.000001 0.000007 0.000008 0.037620 -0.000009 -0.000344
# 5 0.004510 -0.007712 -0.005319 -0.000009 0.042729 0.000002
# 6 0.000002 -0.000003 -0.000002 -0.000344 0.000002 0.031918
#
#
# Mechanical properties :
#
#
# Convention : Reuss Voigt Hill
#
# Bulk Modulus (GPa) = 30.61165 32.33827 31.47496
# Shear Modulus (GPa) = 24.83406 27.16599 26.00003
#
# Velocity S-wave (km/s) = 3.57471 3.73878 3.65767
# Velocity P-wave (km/s) = 5.72622 5.93952 5.83385
#
# Compressibility (1/GPa) = 0.03266730
#
# Stress axis : x y z
#
# Youngs Moduli (GPa) = 49.85739 46.38723 72.41740
#
# Poissons Ratio (x) = 0.38524 0.13127
# Poissons Ratio (y) = 0.41406 0.09128
# Poissons Ratio (z) = 0.09038 0.05847
#
# Static dielectric constant tensor:
#      x y z
#    x 1.676010 0.000000 -0.005730 
#    y 0.000000 1.647820 0.000000 
#    z -0.005730 0.000000 1.665150 
# 
# From -- ./inp_files/292435.got.cif
#   From: 2010.05.17/outbox.cif.g08.bks.cpg/sg12_147_cif.got.tgz:292435.got - 2010.06.03 13:09:07.
