data_PCOD9208120
_publ_section_title
;
Structure prediction by ZEFSAII (Michael W. Deem and Ramdas Pophale) SiO2 
 PCOD9208120
Probable space group: C 2/M
;
_chemical_formula_sum "Si O2"
_cell_formula_units_Z 58
_cell_length_a 7.897425
_cell_length_b 18.717617
_cell_length_c 20.375597
_cell_angle_alpha 90.000000
_cell_angle_beta 71.672401
_cell_angle_gamma 90.000000
_cell_volume 2859.157303
_symmetry_space_group_name_H-M "C 2/M"
_symmetry_group_IT_number 12
_symmetry_cell_setting 'monoclinic'
loop_
_space_group_symop_operation_xyz
x,y,z
-x,y,-z
-x,-y,-z
x,-y,z
1/2+x,1/2+y,z
1/2-x,1/2+y,-z
1/2-x,1/2-y,-z
1/2+x,1/2-y,z
loop_
_atom_site_type_symbol
_atom_site_label
_atom_site_fract_x
_atom_site_fract_y
_atom_site_fract_z
Si Si1 0.220453 0.770193 0.610049
Si Si2 0.308540 0.325923 0.858227
Si Si3 0.500000 0.000000 0.500000
Si Si4 0.138022 0.172840 0.301841
Si Si5 0.957720 0.585869 0.873842
Si Si6 0.046493 0.639460 0.575698
Si Si7 0.541953 0.083131 0.715728
Si Si8 0.879013 0.178369 0.077743
O O1 0.250444 0.737823 0.679486
O O2 0.379386 0.818612 0.566241
O O3 0.046241 0.818472 0.637702
O O4 0.196453 0.699110 0.569469
O O5 0.371656 0.322313 0.774960
O O6 0.478858 0.343347 0.883019
O O7 0.138758 0.380117 0.881838
O O8 0.228468 0.249202 0.888210
O O9 0.418891 0.935805 0.462182
O O10 0.248150 0.101689 0.304887
O O11 0.961098 0.500000 0.879438
O O12 0.772869 0.619960 0.920841
O O13 0.963288 0.606129 0.795298
O O14 0.977748 0.622110 0.658521
O O15 0.508889 0.000000 0.712683
O O16 0.000000 0.194279 0.000000
#
# Coordination Sequence:
#
# PCOD9208120 Si02
#       8
#     8   8   2   8   8   8   8   8
#     4   9  19  35  59  90 119 151 196 257 297 348
#     4  11  22  37  64  90 123 165 211 263 317 386
#     4  12  24  40  60  90 120 174 202 228 292 372
#     4   9  18  32  59  90 117 145 202 251 311 354
#     4  10  24  42  62  90 125 162 209 266 329 375
#     4  10  21  37  62  85 122 158 202 238 296 356
#     4   9  18  37  58  86 121 156 188 255 316 356
#     4  12  25  39  62  91 127 167 216 263 316 381
#
# _framework density 20.285698
#
# number of rings (size 3 to 8) (size 9 to 14) (size 15 to 20)
#    0.000    1.931    2.069    1.241    7.724    1.379 
#    1.241    0.690    0.000    7.448    0.000    0.000 
#    0.000    0.000    0.000    0.000    0.000    0.000 
#
# Total GULP energy -161467.802975 kJ/mol
# GULP energy per Si atom -5567.855275 kJ/mol
# Density = 2.023953 g / cm^3
# Si number density = 20.285698 Si / 1000 Ang^3
#
#
#
# Elastic Constant Matrix: (Units=GPa)
#
#
# Indices 1 2 3 4 5 6 
#
# 1 85.0972 31.3679 4.4543 0.0000 -7.1687 0.0000
# 2 31.3679 114.6193 9.2485 0.0000 -8.9140 0.0000
# 3 4.4543 9.2485 28.5499 0.0000 4.7429 0.0000
# 4 0.0000 0.0000 0.0000 4.2240 0.0000 0.8393
# 5 -7.1687 -8.9140 4.7429 0.0000 26.2913 0.0000
# 6 0.0000 0.0000 0.0000 0.8393 0.0000 15.4363
#
#
#
# Elastic Compliance Matrix: (Units=1/GPa)
#
#
# Indices 1 2 3 4 5 6 
#
# 1 0.013277 -0.003301 -0.001462 0.000000 0.002765 0.000000
# 2 -0.003301 0.010137 -0.003289 0.000000 0.003130 0.000000
# 3 -0.001462 -0.003289 0.037701 0.000000 -0.008315 0.000000
# 4 0.000000 0.000000 0.000000 0.239329 0.000000 -0.013013
# 5 0.002765 0.003130 -0.008315 0.000000 0.041351 0.000000
# 6 0.000000 0.000000 0.000000 -0.013013 0.000000 0.065490
#
#
# Mechanical properties :
#
#
# Convention : Reuss Voigt Hill
#
# Bulk Modulus (GPa) = 22.21576 35.37864 28.79720
# Shear Modulus (GPa) = 11.40535 21.40337 16.40436
#
# Velocity S-wave (km/s) = 2.37372 3.25175 2.84679
# Velocity P-wave (km/s) = 4.29976 5.61930 5.00322
#
# Compressibility (1/GPa) = 0.04501310
#
# Stress axis : x y z
#
# Youngs Moduli (GPa) = 75.31617 98.65223 26.52448
#
# Poissons Ratio (x) = 0.32562 0.03877
# Poissons Ratio (y) = 0.24859 0.08723
# Poissons Ratio (z) = 0.11008 0.32444
#
# Static dielectric constant tensor:
#      x y z
#    x 1.754240 0.000000 0.039180 
#    y 0.000000 1.681420 0.000000 
#    z 0.039180 0.000000 1.780040 
# 
# From -- ./inp_files/300742.got.cif
#   From: 2010.05.17/outbox.cif.g08.bks.cpg/sg12_151_cif.got.tgz:300742.got - 2010.06.03 13:09:07.
