data_PCOD9208808
_publ_section_title
;
Structure prediction by ZEFSAII (Michael W. Deem and Ramdas Pophale) SiO2 
 PCOD9208808
Probable space group: C 2/M
;
_chemical_formula_sum "Si O2"
_cell_formula_units_Z 64
_cell_length_a 17.337437
_cell_length_b 21.188130
_cell_length_c 16.534684
_cell_angle_alpha 90.000000
_cell_angle_beta 30.561181
_cell_angle_gamma 90.000000
_cell_volume 3088.364984
_symmetry_space_group_name_H-M "C 2/M"
_symmetry_group_IT_number 12
_symmetry_cell_setting 'monoclinic'
loop_
_space_group_symop_operation_xyz
x,y,z
-x,y,-z
-x,-y,-z
x,-y,z
1/2+x,1/2+y,z
1/2-x,1/2+y,-z
1/2-x,1/2-y,-z
1/2+x,1/2-y,z
loop_
_atom_site_type_symbol
_atom_site_label
_atom_site_fract_x
_atom_site_fract_y
_atom_site_fract_z
Si Si1 0.372626 0.569219 0.684365
Si Si2 0.843912 0.574593 0.761548
Si Si3 0.749059 0.832916 0.293833
Si Si4 0.123342 0.068489 0.592543
Si Si5 0.474953 0.614620 0.874546
Si Si6 0.889127 0.650609 0.402944
Si Si7 0.154423 0.204535 0.308142
Si Si8 0.587070 0.266674 0.182731
O O1 0.500000 0.565624 0.500000
O O2 0.297038 0.500000 0.757199
O O3 0.474486 0.579200 0.672654
O O4 0.280257 0.633189 0.750625
O O5 0.855687 0.500000 0.732724
O O6 0.839327 0.619704 0.686621
O O7 0.982172 0.598761 0.692430
O O8 0.685385 0.589290 0.950491
O O9 0.676312 0.830324 0.449372
O O10 0.750388 0.763004 0.255112
O O11 0.914649 0.862341 0.155021
O O12 0.253481 0.120939 0.472788
O O13 0.067526 0.066479 0.735334
O O14 0.185366 0.000000 0.511921
O O15 0.461297 0.673992 0.826465
O O16 0.967598 0.709538 0.288363
O O17 0.110253 0.219440 0.256130
O O18 0.000000 0.203989 0.500000
O O19 0.750000 0.250000 0.000000
#
# Coordination Sequence:
#
# PCOD9208808 Si02
#       8
#     8   8   8   8   8   8   8   8
#     4   9  19  34  58  89 121 154 196 253 318 371
#     4  12  24  41  63  89 130 182 215 254 320 391
#     4  11  23  39  61  94 127 158 216 270 312 378
#     4  10  21  38  59  92 128 160 208 266 312 375
#     4  11  24  39  61  92 123 167 217 264 320 382
#     4  11  23  39  62  91 129 164 214 262 316 377
#     4  11  19  37  64  87 124 161 202 262 315 374
#     4  12  22  39  62  88 125 165 210 263 316 379
#
# _framework density 20.722939
#
# number of rings (size 3 to 8) (size 9 to 14) (size 15 to 20)
#    0.000    1.125    5.000    1.500    0.000    8.000 
#    0.000    0.000    0.000    0.000    0.000    0.875 
#    0.000   17.250    0.000    0.000    0.000    0.000 
#
# Total GULP energy -178657.954464 kJ/mol
# GULP energy per Si atom -5583.061077 kJ/mol
# Density = 2.067577 g / cm^3
# Si number density = 20.722939 Si / 1000 Ang^3
#
#
#
# Elastic Constant Matrix: (Units=GPa)
#
#
# Indices 1 2 3 4 5 6 
#
# 1 36.6378 15.8440 -0.9113 0.0022 8.0766 0.0009
# 2 15.8440 168.3616 14.6757 -0.0079 -1.8645 0.0078
# 3 -0.9113 14.6757 69.1597 -0.0061 6.1862 0.0076
# 4 0.0022 -0.0079 -0.0061 25.9631 0.0075 -11.9457
# 5 8.0766 -1.8645 6.1862 0.0075 25.3879 -0.0074
# 6 0.0009 0.0078 0.0076 -11.9457 -0.0074 31.6654
#
#
#
# Elastic Compliance Matrix: (Units=1/GPa)
#
#
# Indices 1 2 3 4 5 6 
#
# 1 0.031079 -0.003220 0.002043 -0.000002 -0.010621 -0.000004
# 2 -0.003220 0.006400 -0.001568 0.000001 0.001877 0.000000
# 3 0.002043 -0.001568 0.015219 0.000003 -0.004474 -0.000003
# 4 -0.000002 0.000001 0.000003 0.046606 -0.000009 0.017582
# 5 -0.010621 0.001877 -0.004474 -0.000009 0.043996 0.000008
# 6 -0.000004 0.000000 -0.000003 0.017582 0.000008 0.038213
#
#
# Mechanical properties :
#
#
# Convention : Reuss Voigt Hill
#
# Bulk Modulus (GPa) = 21.18348 37.04177 29.11262
# Shear Modulus (GPa) = 24.66211 32.90666 28.78439
#
# Velocity S-wave (km/s) = 3.45351 3.98921 3.73099
# Velocity P-wave (km/s) = 5.11338 6.25556 5.71309
#
# Compressibility (1/GPa) = 0.04720661
#
# Stress axis : x y z
#
# Youngs Moduli (GPa) = 32.17595 156.24599 65.70659
#
# Poissons Ratio (x) = 0.50318 -0.13424
# Poissons Ratio (y) = 0.10362 0.10306
# Poissons Ratio (z) = -0.06573 0.24506
#
# Static dielectric constant tensor:
#      x y z
#    x 1.777270 0.000010 -0.001620 
#    y 0.000010 1.832520 0.000010 
#    z -0.001620 0.000010 1.741690 
# 
# From -- ./inp_files/279084.got.cif
#   From: 2010.05.17/outbox.cif.g08.bks.cpg/sg12_140_cif.got.tgz:279084.got - 2010.06.03 13:09:07.
