data_PCOD9208853
_publ_section_title
;
Structure prediction by ZEFSAII (Michael W. Deem and Ramdas Pophale) SiO2 
 PCOD9208853
Probable space group: C 2/M
;
_chemical_formula_sum "Si O2"
_cell_formula_units_Z 56
_cell_length_a 18.383047
_cell_length_b 8.412261
_cell_length_c 29.549334
_cell_angle_alpha 90.000000
_cell_angle_beta 38.977888
_cell_angle_gamma 90.000000
_cell_volume 2874.370051
_symmetry_space_group_name_H-M "C 2/M"
_symmetry_group_IT_number 12
_symmetry_cell_setting 'monoclinic'
loop_
_space_group_symop_operation_xyz
x,y,z
-x,y,-z
-x,-y,-z
x,-y,z
1/2+x,1/2+y,z
1/2-x,1/2+y,-z
1/2-x,1/2-y,-z
1/2+x,1/2-y,z
loop_
_atom_site_type_symbol
_atom_site_label
_atom_site_fract_x
_atom_site_fract_y
_atom_site_fract_z
Si Si1 0.203672 0.190516 0.570464
Si Si2 0.487933 0.309373 0.143649
Si Si3 0.867765 0.807615 0.571370
Si Si4 0.559595 0.692295 0.285252
Si Si5 0.152440 0.690623 0.144179
Si Si6 0.228204 0.192273 0.284683
Si Si7 0.084230 0.805965 0.999743
O O1 0.250000 0.250000 0.500000
O O2 0.286021 0.248915 0.570800
O O3 0.071972 0.245753 0.642605
O O4 0.203023 0.000000 0.570348
O O5 0.488316 0.500000 0.143597
O O6 0.569756 0.249866 0.144240
O O7 0.357660 0.251024 0.213992
O O8 0.536685 0.254141 0.071473
O O9 0.819790 0.754998 0.643331
O O10 0.000000 0.755328 0.500000
O O11 0.867159 0.000000 0.571117
O O12 0.559619 0.500000 0.284945
O O13 0.606268 0.750860 0.214712
O O14 0.643440 0.745289 0.285348
O O15 0.152251 0.500000 0.144161
O O16 0.284166 0.745897 0.072178
O O17 0.228869 0.000000 0.284421
O O18 0.084025 0.000000 0.999737
O O19 0.000000 0.753978 0.000000
#
# Coordination Sequence:
#
# PCOD9208853 Si02
#       7
#     8   8   8   8   8   8   8
#     4  11  23  39  60  86 116 150 189 233 281 334
#     4  11  22  37  58  83 115 152 189 233 284 335
#     4  10  21  39  61  84 114 152 189 229 283 338
#     4  10  22  40  60  85 117 150 186 232 285 337
#     4  11  22  37  59  85 114 150 192 234 279 335
#     4  10  21  38  60  85 114 148 188 233 281 338
#     4   9  19  36  57  82 112 147 188 234 283 335
#
# _framework density 19.482531000000002
#
# number of rings (size 3 to 8) (size 9 to 14) (size 15 to 20)
#    0.000    1.714    0.000    4.286    0.000    8.286 
#    0.000    3.571    0.000    5.143    0.000    0.000 
#    0.000    0.000    0.000    0.000    0.000    0.000 
#
# Total GULP energy -156548.130610 kJ/mol
# GULP energy per Si atom -5591.004665 kJ/mol
# Density = 1.943819 g / cm^3
# Si number density = 19.482531 Si / 1000 Ang^3
#
#
#
# Elastic Constant Matrix: (Units=GPa)
#
#
# Indices 1 2 3 4 5 6 
#
# 1 247.0832 29.6780 153.2932 0.0000 0.0719 0.0006
# 2 29.6780 15.4063 31.2161 -0.0002 -0.3944 0.0002
# 3 153.2932 31.2161 247.6786 0.0000 -0.1254 0.0001
# 4 0.0000 -0.0002 0.0000 13.5336 0.0000 4.4710
# 5 0.0719 -0.3944 -0.1254 0.0000 47.4842 0.0000
# 6 0.0006 0.0002 0.0001 4.4710 0.0000 18.8153
#
#
#
# Elastic Compliance Matrix: (Units=1/GPa)
#
#
# Indices 1 2 3 4 5 6 
#
# 1 0.007000 -0.006323 -0.003536 0.000000 -0.000072 0.000000
# 2 -0.006323 0.092903 -0.007795 0.000002 0.000761 -0.000001
# 3 -0.003536 -0.007795 0.007208 0.000000 -0.000040 0.000000
# 4 0.000000 0.000002 0.000000 0.080185 0.000000 -0.019054
# 5 -0.000072 0.000761 -0.000040 0.000000 0.021066 0.000000
# 6 0.000000 -0.000001 0.000000 -0.019054 0.000000 0.057676
#
#
# Mechanical properties :
#
#
# Convention : Reuss Voigt Hill
#
# Bulk Modulus (GPa) = 13.92686 104.28252 59.10469
# Shear Modulus (GPa) = 15.37133 35.69867 25.53500
#
# Velocity S-wave (km/s) = 2.81193 4.28523 3.62423
# Velocity P-wave (km/s) = 4.20791 8.83893 6.92218
#
# Compressibility (1/GPa) = 0.07180368
#
# Stress axis : x y z
#
# Youngs Moduli (GPa) = 142.85017 10.76394 138.72872
#
# Poissons Ratio (x) = 0.06806 0.49052
# Poissons Ratio (y) = 0.90322 1.08143
# Poissons Ratio (z) = 0.50509 0.08391
#
# Static dielectric constant tensor:
#      x y z
#    x 1.640730 0.000000 -0.004480 
#    y 0.000000 1.678010 0.000000 
#    z -0.004480 0.000000 1.652730 
# 
# From -- ./inp_files/275079.got.cif
#   From: 2010.05.17/outbox.cif.g08.bks.cpg/sg12_138_cif.got.tgz:275079.got - 2010.06.03 13:09:07.
