data_PCOD9208087
_publ_section_title
;
Structure prediction by ZEFSAII (Michael W. Deem and Ramdas Pophale) SiO2 
 PCOD9208087
Probable space group: C 2/M
;
_chemical_formula_sum "Si O2"
_cell_formula_units_Z 58
_cell_length_a 6.798506
_cell_length_b 23.582894
_cell_length_c 14.734789
_cell_angle_alpha 90.000000
_cell_angle_beta 86.077421
_cell_angle_gamma 90.000000
_cell_volume 2356.871651
_symmetry_space_group_name_H-M "C 2/M"
_symmetry_group_IT_number 12
_symmetry_cell_setting 'monoclinic'
loop_
_space_group_symop_operation_xyz
x,y,z
-x,y,-z
-x,-y,-z
x,-y,z
1/2+x,1/2+y,z
1/2-x,1/2+y,-z
1/2-x,1/2-y,-z
1/2+x,1/2-y,z
loop_
_atom_site_type_symbol
_atom_site_label
_atom_site_fract_x
_atom_site_fract_y
_atom_site_fract_z
Si Si1 0.690368 0.657568 0.390293
Si Si2 0.787014 0.752144 0.752707
Si Si3 0.838780 0.434629 0.683891
Si Si4 0.279254 0.829029 0.579341
Si Si5 0.000000 0.500000 0.000000
Si Si6 0.126980 0.064613 0.270765
Si Si7 0.562222 0.103199 0.856895
Si Si8 0.016523 0.263097 0.895093
O O1 0.741685 0.687837 0.295472
O O2 0.459211 0.668297 0.411277
O O3 0.811067 0.682737 0.470989
O O4 0.704681 0.591884 0.362465
O O5 0.824213 0.709975 0.664828
O O6 0.532830 0.741801 0.780195
O O7 0.769690 0.748272 0.871300
O O8 0.888824 0.500000 0.664908
O O9 0.857885 0.391447 0.600238
O O10 0.607490 0.432474 0.717683
O O11 0.950080 0.408421 0.766262
O O12 0.998264 0.551164 0.077264
O O13 0.208953 0.094573 0.177632
O O14 0.189790 0.000000 0.262449
O O15 0.521478 0.167041 0.891634
O O16 0.000000 0.242169 0.000000
#
# Coordination Sequence:
#
# PCOD9208087 Si02
#       8
#     8   8   8   8   2   8   8   8
#     4  10  21  37  61  93 126 166 211 256 322 396
#     4  12  22  42  62  90 126 166 206 268 324 382
#     4  10  21  39  63  91 127 170 210 259 325 381
#     4  10  21  37  61  93 126 166 211 256 322 396
#     4  12  24  40  74  92 126 170 224 272 336 380
#     4  10  21  39  63  91 127 170 210 259 325 381
#     4  12  22  42  66  92 127 168 211 273 324 383
#     4  12  26  42  66  91 123 167 220 270 326 385
#
# _framework density 24.608892000000001
#
# number of rings (size 3 to 8) (size 9 to 14) (size 15 to 20)
#    0.000    1.103    6.207    0.828    0.000    0.552 
#    0.000    6.207    0.000    1.655    0.000    0.000 
#    0.000    0.000    0.000    0.000    0.000    0.000 
#
# Total GULP energy -161585.796041 kJ/mol
# GULP energy per Si atom -5571.924001 kJ/mol
# Density = 2.455288 g / cm^3
# Si number density = 24.608892 Si / 1000 Ang^3
#
#
#
# Elastic Constant Matrix: (Units=GPa)
#
#
# Indices 1 2 3 4 5 6 
#
# 1 126.5677 16.7047 53.1467 0.0000 17.5320 0.0000
# 2 16.7047 146.6663 41.4317 0.0000 3.2534 0.0000
# 3 53.1467 41.4317 187.0056 0.0000 18.9961 0.0000
# 4 0.0000 0.0000 0.0000 29.9881 0.0000 -3.2729
# 5 17.5320 3.2534 18.9961 0.0000 34.7262 0.0000
# 6 0.0000 0.0000 0.0000 -3.2729 0.0000 30.8317
#
#
#
# Elastic Compliance Matrix: (Units=1/GPa)
#
#
# Indices 1 2 3 4 5 6 
#
# 1 0.009366 -0.000360 -0.002229 0.000000 -0.003475 0.000000
# 2 -0.000360 0.007289 -0.001548 0.000000 0.000345 0.000000
# 3 -0.002229 -0.001548 0.006559 0.000000 -0.002318 0.000000
# 4 0.000000 0.000000 0.000000 0.033737 0.000000 0.003581
# 5 -0.003475 0.000345 -0.002318 0.000000 0.031787 0.000000
# 6 0.000000 0.000000 0.000000 0.003581 0.000000 0.032814
#
#
# Mechanical properties :
#
#
# Convention : Reuss Voigt Hill
#
# Bulk Modulus (GPa) = 66.93171 75.86733 71.39952
# Shear Modulus (GPa) = 37.09046 42.37298 39.73172
#
# Velocity S-wave (km/s) = 3.88648 4.15403 4.02248
# Velocity P-wave (km/s) = 6.88453 7.34194 7.11691
#
# Compressibility (1/GPa) = 0.01494060
#
# Stress axis : x y z
#
# Youngs Moduli (GPa) = 106.77159 137.19824 152.45722
#
# Poissons Ratio (x) = 0.04939 0.33982
# Poissons Ratio (y) = 0.03844 0.23595
# Poissons Ratio (z) = 0.23799 0.21233
#
# Static dielectric constant tensor:
#      x y z
#    x 2.219950 0.000000 -0.013060 
#    y 0.000000 1.949240 0.000000 
#    z -0.013060 0.000000 1.924530 
# 
# From -- ./inp_files/124308.got.cif
#   From: 2010.05.17/outbox.cif.g08.bks.cpg/sg12_63_cif.got.tgz:124308.got - 2010.06.03 13:09:07.
