data_PCOD9208070
_publ_section_title
;
Structure prediction by ZEFSAII (Michael W. Deem and Ramdas Pophale) SiO2 
 PCOD9208070
Probable space group: C 2/M
;
_chemical_formula_sum "Si O2"
_cell_formula_units_Z 42
_cell_length_a 19.208363
_cell_length_b 7.456541
_cell_length_c 13.886038
_cell_angle_alpha 90.000000
_cell_angle_beta 114.135320
_cell_angle_gamma 90.000000
_cell_volume 1815.006353
_symmetry_space_group_name_H-M "C 2/M"
_symmetry_group_IT_number 12
_symmetry_cell_setting 'monoclinic'
loop_
_space_group_symop_operation_xyz
x,y,z
-x,y,-z
-x,-y,-z
x,-y,z
1/2+x,1/2+y,z
1/2-x,1/2+y,-z
1/2-x,1/2-y,-z
1/2+x,1/2-y,z
loop_
_atom_site_type_symbol
_atom_site_label
_atom_site_fract_x
_atom_site_fract_y
_atom_site_fract_z
Si Si1 0.000000 0.000000 0.000000
Si Si2 0.103254 0.717281 0.305004
Si Si3 0.262417 0.295076 0.313420
Si Si4 0.049388 0.715223 0.892469
Si Si5 0.797234 0.289421 0.122654
Si Si6 0.418526 0.708811 0.484446
O O1 0.056808 0.840578 0.988975
O O2 0.102491 0.500000 0.304498
O O3 0.183976 0.783526 0.309560
O O4 0.090454 0.779740 0.406254
O O5 0.032036 0.770761 0.198486
O O6 0.262751 0.500000 0.350670
O O7 0.264362 0.298975 0.199388
O O8 0.341953 0.211463 0.394174
O O9 0.051725 0.500000 0.913367
O O10 0.115428 0.757411 0.852890
O O11 0.794722 0.500000 0.140123
O O12 0.750000 0.250000 0.000000
O O13 0.500000 0.788431 0.500000
O O14 0.420663 0.500000 0.454232
#
# Coordination Sequence:
#
# PCOD9208070 Si02
#       6
#     2   8   8   8   8   8
#     4  12  26  40  76  90 126 180 214 264 334 382
#     4  10  22  40  62  89 127 164 207 265 319 374
#     4  10  22  39  61  90 125 166 209 259 316 379
#     4  10  25  44  63  98 131 164 220 273 316 386
#     4  11  25  42  64  91 128 167 213 267 318 383
#     4  10  21  37  61  92 124 159 207 261 311 381
#
# _framework density 23.140415999999998
#
# number of rings (size 3 to 8) (size 9 to 14) (size 15 to 20)
#    0.000    1.714    0.000    2.571    6.667    1.905 
#    0.000    0.000    0.000    0.000    0.000    0.000 
#    0.000    0.000    0.000    0.000    0.000    0.000 
#
# Total GULP energy -117160.370640 kJ/mol
# GULP energy per Si atom -5579.065269 kJ/mol
# Density = 2.308775 g / cm^3
# Si number density = 23.140416 Si / 1000 Ang^3
#
#
#
# Elastic Constant Matrix: (Units=GPa)
#
#
# Indices 1 2 3 4 5 6 
#
# 1 214.3879 18.1508 61.4615 0.0000 12.9556 0.0000
# 2 18.1508 79.7315 -8.4797 0.0000 3.3072 0.0000
# 3 61.4615 -8.4797 103.0466 0.0000 12.6308 0.0000
# 4 0.0000 0.0000 0.0000 21.3161 0.0000 -6.2783
# 5 12.9556 3.3072 12.6308 0.0000 46.3052 0.0000
# 6 0.0000 0.0000 0.0000 -6.2783 0.0000 26.3398
#
#
#
# Elastic Compliance Matrix: (Units=1/GPa)
#
#
# Indices 1 2 3 4 5 6 
#
# 1 0.005864 -0.001692 -0.003570 0.000000 -0.000546 0.000000
# 2 -0.001692 0.013209 0.002228 0.000000 -0.001078 0.000000
# 3 -0.003570 0.002228 0.012326 0.000000 -0.002523 0.000000
# 4 0.000000 0.000000 0.000000 0.050455 0.000000 0.012026
# 5 -0.000546 -0.001078 -0.002523 0.000000 0.022514 0.000000
# 6 0.000000 0.000000 0.000000 0.012026 0.000000 0.040832
#
#
# Mechanical properties :
#
#
# Convention : Reuss Voigt Hill
#
# Bulk Modulus (GPa) = 39.47581 59.93678 49.70629
# Shear Modulus (GPa) = 31.30651 40.52778 35.91714
#
# Velocity S-wave (km/s) = 3.68216 4.18950 3.94399
# Velocity P-wave (km/s) = 5.93077 7.02567 6.50131
#
# Compressibility (1/GPa) = 0.02533197
#
# Stress axis : x y z
#
# Youngs Moduli (GPa) = 170.52821 75.70615 81.12816
#
# Poissons Ratio (x) = 0.12809 0.28962
# Poissons Ratio (y) = 0.28853 -0.18077
# Poissons Ratio (z) = 0.60877 -0.16869
#
# Static dielectric constant tensor:
#      x y z
#    x 1.804540 0.000000 0.227810 
#    y 0.000000 1.924180 0.000000 
#    z 0.227810 0.000000 1.368850 
# 
# From -- ./inp_files/221814.got.cif
#   From: 2010.05.17/outbox.cif.g08.bks.cpg/sg12_111_cif.got.tgz:221814.got - 2010.06.03 13:09:07.
