data_PCOD9208856
_publ_section_title
;
Structure prediction by ZEFSAII (Michael W. Deem and Ramdas Pophale) SiO2 
 PCOD9208856
Probable space group: C 2/M
;
_chemical_formula_sum "Si O2"
_cell_formula_units_Z 44
_cell_length_a 18.236820
_cell_length_b 11.584885
_cell_length_c 31.804617
_cell_angle_alpha 90.000000
_cell_angle_beta 160.103232
_cell_angle_gamma 90.000000
_cell_volume 2286.792649
_symmetry_space_group_name_H-M "C 2/M"
_symmetry_group_IT_number 12
_symmetry_cell_setting 'monoclinic'
loop_
_space_group_symop_operation_xyz
x,y,z
-x,y,-z
-x,-y,-z
x,-y,z
1/2+x,1/2+y,z
1/2-x,1/2+y,-z
1/2-x,1/2-y,-z
1/2+x,1/2-y,z
loop_
_atom_site_type_symbol
_atom_site_label
_atom_site_fract_x
_atom_site_fract_y
_atom_site_fract_z
Si Si1 0.200727 0.864554 0.275223
Si Si2 0.135160 0.694122 0.398000
Si Si3 0.851457 0.871954 0.847658
Si Si4 0.974510 0.873209 0.241939
Si Si5 0.500000 0.201711 0.000000
Si Si6 0.454700 0.374931 0.426042
O O1 0.090998 0.856647 0.170294
O O2 0.350494 0.749525 0.358019
O O3 0.049258 0.852550 0.234406
O O4 0.288693 0.000000 0.324546
O O5 0.250000 0.750000 0.500000
O O6 0.319848 0.619001 0.476560
O O7 0.909097 0.638094 0.289742
O O8 0.073108 0.784393 0.328013
O O9 0.916975 0.000000 0.896380
O O10 0.951827 0.780410 0.933355
O O11 0.053092 0.000000 0.296219
O O12 0.717411 0.866760 0.107676
O O13 0.500000 0.369524 0.500000
O O14 0.339235 0.500000 0.355501
#
# Coordination Sequence:
#
# PCOD9208856 Si02
#       6
#     8   8   8   8   4   8
#     4  10  21  39  61  86 115 154 200 242 290 352
#     4  11  21  36  57  87 122 157 191 236 292 351
#     4  10  21  38  60  85 114 153 197 242 290 351
#     4  10  22  39  61  84 114 153 199 245 292 350
#     4  10  22  40  58  84 116 146 194 246 308 346
#     4  11  22  37  56  86 125 160 192 236 290 349
#
# _framework density 19.240922000000001
#
# number of rings (size 3 to 8) (size 9 to 14) (size 15 to 20)
#    0.000    1.636    3.636    1.091    0.000    3.273 
#    0.000    1.818    0.000    0.000    0.000    0.000 
#    0.000    0.000    0.000    0.000    0.000    0.000 
#
# Total GULP energy -122531.371433 kJ/mol
# GULP energy per Si atom -5569.607792 kJ/mol
# Density = 1.919713 g / cm^3
# Si number density = 19.240922 Si / 1000 Ang^3
#
#
#
# Elastic Constant Matrix: (Units=GPa)
#
#
# Indices 1 2 3 4 5 6 
#
# 1 122.2476 40.1114 20.9935 -0.0001 -11.5796 0.0001
# 2 40.1114 131.8341 32.1463 -0.0009 -6.9350 0.0010
# 3 20.9935 32.1463 45.7014 0.0004 -4.9618 0.0023
# 4 -0.0001 -0.0009 0.0004 4.7301 -0.0024 1.9632
# 5 -11.5796 -6.9350 -4.9618 -0.0024 24.5268 0.0017
# 6 0.0001 0.0010 0.0023 1.9632 0.0017 -1.3431
#
#
#
# Elastic Compliance Matrix: (Units=1/GPa)
#
#
# Indices 1 2 3 4 5 6 
#
# 1 0.009644 -0.002129 -0.002559 0.000001 0.003433 0.000001
# 2 -0.002129 0.009668 -0.005761 0.000002 0.000563 0.000001
# 3 -0.002559 -0.005761 0.027403 -0.000013 0.002706 0.000027
# 4 0.000001 0.000002 -0.000013 0.131586 -0.000002 0.192332
# 5 0.003433 0.000563 0.002706 -0.000002 0.043099 0.000058
# 6 0.000001 0.000001 0.000027 0.192332 0.000058 -0.463400
#
#
# Mechanical properties :
#
#
# Convention : Reuss Voigt Hill
#
# Bulk Modulus (GPa) = 38.73763 54.03172 46.38468
# Shear Modulus (GPa) = -23.52981 19.35152 -2.08915
#
# Velocity S-wave (km/s) = -3.50080 3.17479 -1.04314
# Velocity P-wave (km/s) = 1.95853 6.44839 4.76537
#
# Compressibility (1/GPa) = 0.02581469
#
# Stress axis : x y z
#
# Youngs Moduli (GPa) = 103.69657 103.43917 36.49258
#
# Poissons Ratio (x) = 0.22027 0.09340
# Poissons Ratio (y) = 0.22082 0.21023
# Poissons Ratio (z) = 0.26539 0.59590
#
# Static dielectric constant tensor:
#      x y z
#    x 2.176710 0.000020 -0.024360 
#    y 0.000020 1.716150 0.000000 
#    z -0.024360 0.000000 1.643770 
# 
# From -- ./inp_files/222976.got.cif
#   From: 2010.05.17/outbox.cif.g08.bks.cpg/sg12_112_cif.got.tgz:222976.got - 2010.06.03 13:09:07.
