data_PCOD9208819
_publ_section_title
;
Structure prediction by ZEFSAII (Michael W. Deem and Ramdas Pophale) SiO2 
 PCOD9208819
Probable space group: C 2/M
;
_chemical_formula_sum "Si O2"
_cell_formula_units_Z 64
_cell_length_a 15.760002
_cell_length_b 8.298945
_cell_length_c 25.180075
_cell_angle_alpha 90.000000
_cell_angle_beta 101.078138
_cell_angle_gamma 90.000000
_cell_volume 3231.969134
_symmetry_space_group_name_H-M "C 2/M"
_symmetry_group_IT_number 12
_symmetry_cell_setting 'monoclinic'
loop_
_space_group_symop_operation_xyz
x,y,z
-x,y,-z
-x,-y,-z
x,-y,z
1/2+x,1/2+y,z
1/2-x,1/2+y,-z
1/2-x,1/2-y,-z
1/2+x,1/2-y,z
loop_
_atom_site_type_symbol
_atom_site_label
_atom_site_fract_x
_atom_site_fract_y
_atom_site_fract_z
Si Si1 0.458961 0.805481 0.679383
Si Si2 0.703553 0.306895 0.940464
Si Si3 0.167469 0.192799 0.134841
Si Si4 0.340827 0.305909 0.447837
Si Si5 0.685825 0.194797 0.256940
Si Si6 0.863376 0.194176 0.332812
Si Si7 0.489607 0.696572 0.060285
Si Si8 0.640226 0.806376 0.437152
O O1 0.397881 0.750333 0.719959
O O2 0.556828 0.748337 0.693074
O O3 0.417837 0.747827 0.618529
O O4 0.457456 0.000000 0.678688
O O5 0.702555 0.500000 0.940534
O O6 0.758967 0.249179 0.897112
O O7 0.603686 0.250099 0.929263
O O8 0.750000 0.250000 0.000000
O O9 0.184399 0.249734 0.196406
O O10 0.073508 0.251566 0.102912
O O11 0.165833 0.000000 0.133540
O O12 0.342783 0.500000 0.448360
O O13 0.375232 0.248164 0.395115
O O14 0.385702 0.247822 0.507082
O O15 0.239802 0.254550 0.439379
O O16 0.772074 0.249316 0.298098
O O17 0.686256 0.000000 0.257885
O O18 0.861225 0.000000 0.334204
O O19 0.489673 0.500000 0.061093
O O20 0.500000 0.745069 0.000000
O O21 0.639870 0.000000 0.435882
#
# Coordination Sequence:
#
# PCOD9208819 Si02
#       8
#     8   8   8   8   8   8   8   8
#     4  10  21  38  60  83 112 150 193 240 290 344
#     4  11  21  37  62  91 123 159 194 232 282 338
#     4  11  23  40  62  89 118 152 196 242 284 338
#     4   9  17  32  54  80 109 146 188 232 284 349
#     4  10  22  43  62  79 113 156 193 235 291 345
#     4  10  21  38  60  82 111 152 194 234 288 353
#     4   9  18  36  60  85 119 158 187 221 278 340
#     4   9  17  32  54  80 110 146 185 233 291 345
#
# _framework density 19.802168000000002
#
# number of rings (size 3 to 8) (size 9 to 14) (size 15 to 20)
#    0.000    2.125    2.500    0.750    0.000    3.500 
#    0.000    9.375    0.000    0.000    0.000    0.000 
#    0.000    0.000    0.000    0.000    0.000    0.000 
#
# Total GULP energy -178678.099852 kJ/mol
# GULP energy per Si atom -5583.690620 kJ/mol
# Density = 1.975710 g / cm^3
# Si number density = 19.802168 Si / 1000 Ang^3
#
#
#
# Elastic Constant Matrix: (Units=GPa)
#
#
# Indices 1 2 3 4 5 6 
#
# 1 130.1961 14.2075 63.8339 0.0000 -38.8694 0.0000
# 2 14.2075 11.6461 15.5778 0.0000 -3.8190 0.0000
# 3 63.8339 15.5778 145.9274 0.0000 -29.6956 0.0000
# 4 0.0000 0.0000 0.0000 30.8843 0.0000 -1.0363
# 5 -38.8694 -3.8190 -29.6956 0.0000 19.8192 0.0000
# 6 0.0000 0.0000 0.0000 -1.0363 0.0000 24.5769
#
#
#
# Elastic Compliance Matrix: (Units=1/GPa)
#
#
# Indices 1 2 3 4 5 6 
#
# 1 0.020069 -0.012450 0.000103 0.000000 0.037115 0.000000
# 2 -0.012450 0.108200 -0.009826 0.000000 -0.018291 0.000000
# 3 0.000103 -0.009826 0.010808 0.000000 0.014501 0.000000
# 4 0.000000 0.000000 0.000000 0.032425 0.000000 0.001367
# 5 0.037115 -0.018291 0.014501 0.000000 0.141450 0.000000
# 6 0.000000 0.000000 0.000000 0.001367 0.000000 0.040746
#
#
# Mechanical properties :
#
#
# Convention : Reuss Voigt Hill
#
# Bulk Modulus (GPa) = 10.55634 52.77867 31.66750
# Shear Modulus (GPa) = 11.63815 27.99943 19.81879
#
# Velocity S-wave (km/s) = 2.42693 3.76434 3.16704
# Velocity P-wave (km/s) = 3.63260 6.75311 5.42219
#
# Compressibility (1/GPa) = 0.09472978
#
# Stress axis : x y z
#
# Youngs Moduli (GPa) = 49.82686 9.24217 92.52606
#
# Poissons Ratio (x) = 0.11506 -0.00950
# Poissons Ratio (y) = 0.62034 0.90919
# Poissons Ratio (z) = -0.00512 0.09082
#
# Static dielectric constant tensor:
#      x y z
#    x 1.698660 0.000000 0.012550 
#    y 0.000000 1.694120 0.000000 
#    z 0.012550 0.000000 1.661100 
# 
# From -- ./inp_files/338870.got.cif
#   From: 2010.05.17/outbox.cif.g08.bks.cpg/sg12_170_cif.got.tgz:338870.got - 2010.06.03 13:09:07.
