data_PCOD9208967
_publ_section_title
;
Structure prediction by ZEFSAII (Michael W. Deem and Ramdas Pophale) SiO2 
 PCOD9208967
Probable space group: C 2/M
;
_chemical_formula_sum "Si O2"
_cell_formula_units_Z 60
_cell_length_a 19.559510
_cell_length_b 18.562395
_cell_length_c 15.357955
_cell_angle_alpha 90.000000
_cell_angle_beta 34.932533
_cell_angle_gamma 90.000000
_cell_volume 3192.900719
_symmetry_space_group_name_H-M "C 2/M"
_symmetry_group_IT_number 12
_symmetry_cell_setting 'monoclinic'
loop_
_space_group_symop_operation_xyz
x,y,z
-x,y,-z
-x,-y,-z
x,-y,z
1/2+x,1/2+y,z
1/2-x,1/2+y,-z
1/2-x,1/2-y,-z
1/2+x,1/2-y,z
loop_
_atom_site_type_symbol
_atom_site_label
_atom_site_fract_x
_atom_site_fract_y
_atom_site_fract_z
Si Si1 0.766214 0.174601 0.690289
Si Si2 0.500000 0.675960 0.000000
Si Si3 0.706522 0.418824 0.841995
Si Si4 0.028407 0.783026 0.662477
Si Si5 0.971815 0.699972 0.165568
Si Si6 0.111657 0.079242 0.137011
Si Si7 0.378738 0.794382 0.681247
Si Si8 0.313088 0.915824 0.072613
O O1 0.872091 0.190335 0.510691
O O2 0.643524 0.172192 0.765792
O O3 0.780998 0.242967 0.738827
O O4 0.761855 0.108317 0.762924
O O5 0.384574 0.624592 0.124375
O O6 0.511316 0.729099 0.070499
O O7 0.726523 0.500000 0.790116
O O8 0.826013 0.373616 0.732840
O O9 0.647508 0.421406 0.998982
O O10 0.066342 0.728324 0.699225
O O11 0.977884 0.856195 0.754489
O O12 0.919430 0.741138 0.728773
O O13 0.075834 0.639590 0.054437
O O14 0.226307 0.090529 0.079723
O O15 0.062219 0.000000 0.211303
O O16 0.500000 0.792747 0.500000
O O17 0.349784 0.000000 0.041563
#
# Coordination Sequence:
#
# PCOD9208967 Si02
#       8
#     8   4   8   8   8   8   8   8
#     4  11  22  39  59  90 119 156 201 245 296 357
#     4  12  21  36  61  88 112 152 208 248 285 354
#     4  11  22  38  59  85 120 154 192 248 302 348
#     4  11  23  38  63  86 120 160 197 247 301 353
#     4  12  22  39  62  88 120 159 204 248 294 358
#     4  10  22  37  58  89 118 151 197 246 299 355
#     4  10  21  38  60  88 115 149 201 242 290 358
#     4  11  23  39  62  92 125 159 200 250 307 364
#
# _framework density 18.791689000000002
#
# number of rings (size 3 to 8) (size 9 to 14) (size 15 to 20)
#    0.000    1.067    5.333    1.400    0.000    2.933 
#    0.000    1.333    0.000    0.800    0.000    0.000 
#    0.000    0.000    0.000    0.000    0.000    0.000 
#
# Total GULP energy -167288.528894 kJ/mol
# GULP energy per Si atom -5576.284296 kJ/mol
# Density = 1.874892 g / cm^3
# Si number density = 18.791689 Si / 1000 Ang^3
#
#
#
# Elastic Constant Matrix: (Units=GPa)
#
#
# Indices 1 2 3 4 5 6 
#
# 1 47.8811 15.6890 6.0930 0.0001 4.6546 0.0000
# 2 15.6890 112.4873 15.7901 0.0001 -3.1709 0.0000
# 3 6.0930 15.7901 42.6159 0.0002 0.3008 -0.0001
# 4 0.0001 0.0001 0.0002 12.9586 -0.0001 7.7990
# 5 4.6546 -3.1709 0.3008 -0.0001 20.1204 0.0001
# 6 0.0000 0.0000 -0.0001 7.7990 0.0001 13.6158
#
#
#
# Elastic Compliance Matrix: (Units=1/GPa)
#
#
# Indices 1 2 3 4 5 6 
#
# 1 0.022698 -0.003034 -0.002081 0.000000 -0.005698 0.000000
# 2 -0.003034 0.009831 -0.003225 0.000000 0.002299 0.000000
# 3 -0.002081 -0.003225 0.024961 -0.000001 -0.000400 0.000000
# 4 0.000000 0.000000 -0.000001 0.117766 0.000001 -0.067455
# 5 -0.005698 0.002299 -0.000400 0.000001 0.051387 -0.000001
# 6 0.000000 0.000000 0.000000 -0.067455 -0.000001 0.112082
#
#
# Mechanical properties :
#
#
# Convention : Reuss Voigt Hill
#
# Bulk Modulus (GPa) = 24.50416 30.90317 27.70366
# Shear Modulus (GPa) = 13.54984 20.36642 16.95813
#
# Velocity S-wave (km/s) = 2.68816 3.29568 3.00730
# Velocity P-wave (km/s) = 4.76478 5.56443 5.18006
#
# Compressibility (1/GPa) = 0.04080940
#
# Stress axis : x y z
#
# Youngs Moduli (GPa) = 44.05668 101.72320 40.06307
#
# Poissons Ratio (x) = 0.30866 0.08336
# Poissons Ratio (y) = 0.13368 0.12920
# Poissons Ratio (z) = 0.09167 0.32804
#
# Static dielectric constant tensor:
#      x y z
#    x 1.673200 0.000000 0.020520 
#    y 0.000000 1.656070 0.000000 
#    z 0.020520 0.000000 1.662470 
# 
# From -- ./inp_files/226857.got.cif
#   From: 2010.05.17/outbox.cif.g08.bks.cpg/sg12_114_cif.got.tgz:226857.got - 2010.06.03 13:09:07.
