data_PCOD9208104
_publ_section_title
;
Structure prediction by ZEFSAII (Michael W. Deem and Ramdas Pophale) SiO2 
 PCOD9208104
Probable space group: C 2/M
;
_chemical_formula_sum "Si O2"
_cell_formula_units_Z 48
_cell_length_a 26.080552
_cell_length_b 11.109382
_cell_length_c 19.086032
_cell_angle_alpha 90.000000
_cell_angle_beta 24.684111
_cell_angle_gamma 90.000000
_cell_volume 2309.396671
_symmetry_space_group_name_H-M "C 2/M"
_symmetry_group_IT_number 12
_symmetry_cell_setting 'monoclinic'
loop_
_space_group_symop_operation_xyz
x,y,z
-x,y,-z
-x,-y,-z
x,-y,z
1/2+x,1/2+y,z
1/2-x,1/2+y,-z
1/2-x,1/2-y,-z
1/2+x,1/2-y,z
loop_
_atom_site_type_symbol
_atom_site_label
_atom_site_fract_x
_atom_site_fract_y
_atom_site_fract_z
Si Si1 0.175775 0.363370 0.333215
Si Si2 0.575631 0.635472 0.543883
Si Si3 0.887726 0.628866 0.887050
Si Si4 0.391022 0.267595 0.345578
Si Si5 0.030689 0.137870 0.036320
Si Si6 0.655759 0.226582 0.206865
O O1 0.140246 0.500000 0.399804
O O2 0.141098 0.251442 0.426672
O O3 0.126372 0.332790 0.317095
O O4 0.322862 0.363391 0.141447
O O5 0.611446 0.500000 0.476773
O O6 0.595139 0.646905 0.603415
O O7 0.433658 0.661194 0.699729
O O8 0.849938 0.500000 0.961781
O O9 0.867637 0.638146 0.828793
O O10 0.029474 0.652959 0.727990
O O11 0.796099 0.729349 0.030764
O O12 0.250000 0.250000 0.500000
O O13 0.462904 0.308831 0.187176
O O14 0.985612 0.000000 0.089031
O O15 0.000000 0.198477 0.000000
#
# Coordination Sequence:
#
# PCOD9208104 Si02
#       6
#     8   8   8   8   8   8
#     4  11  23  41  66  95 130 174 221 270 321 382
#     4  11  25  41  64  97 135 175 213 266 330 390
#     4  10  21  37  61  95 129 166 212 266 325 385
#     4  11  23  42  66  92 128 168 218 267 325 388
#     4  10  21  40  65  90 120 165 218 267 318 382
#     4  10  21  39  62  93 129 173 214 266 319 393
#
# _framework density 20.784648000000001
#
# number of rings (size 3 to 8) (size 9 to 14) (size 15 to 20)
#    0.000    1.500    1.667    3.000    0.000    7.333 
#    0.000    0.000    0.000    2.000    0.000    0.000 
#    0.000    0.000    0.000    0.000    0.000    0.000 
#
# Total GULP energy -133872.642876 kJ/mol
# GULP energy per Si atom -5578.026786 kJ/mol
# Density = 2.073734 g / cm^3
# Si number density = 20.784648 Si / 1000 Ang^3
#
#
#
# Elastic Constant Matrix: (Units=GPa)
#
#
# Indices 1 2 3 4 5 6 
#
# 1 116.6401 39.7844 42.9227 0.0000 1.2280 0.0000
# 2 39.7844 123.1541 37.8814 0.0000 9.8585 0.0000
# 3 42.9227 37.8814 105.4431 0.0000 -4.6893 0.0000
# 4 0.0000 0.0000 0.0000 14.5721 0.0000 1.3271
# 5 1.2280 9.8585 -4.6893 0.0000 48.6378 0.0000
# 6 0.0000 0.0000 0.0000 1.3271 0.0000 0.8956
#
#
#
# Elastic Compliance Matrix: (Units=1/GPa)
#
#
# Indices 1 2 3 4 5 6 
#
# 1 0.010668 -0.002359 -0.003501 0.000000 -0.000129 0.000000
# 2 -0.002359 0.009886 -0.002689 0.000000 -0.002203 0.000000
# 3 -0.003501 -0.002689 0.011954 0.000000 0.001786 0.000000
# 4 0.000000 0.000000 0.000000 0.079330 0.000000 -0.117550
# 5 -0.000129 -0.002203 0.001786 0.000000 0.021182 0.000000
# 6 0.000000 0.000000 0.000000 -0.117550 0.000000 1.290728
#
#
# Mechanical properties :
#
#
# Convention : Reuss Voigt Hill
#
# Bulk Modulus (GPa) = 64.89410 65.15715 65.02563
# Shear Modulus (GPa) = 3.45786 27.79769 15.62777
#
# Velocity S-wave (km/s) = 1.29123 3.66103 2.74504
# Velocity P-wave (km/s) = 5.78904 7.02052 6.43431
#
# Compressibility (1/GPa) = 0.01540972
#
# Stress axis : x y z
#
# Youngs Moduli (GPa) = 93.74188 101.15788 83.65157
#
# Poissons Ratio (x) = 0.23863 0.29284
# Poissons Ratio (y) = 0.22114 0.22495
# Poissons Ratio (z) = 0.32816 0.27203
#
# Static dielectric constant tensor:
#      x y z
#    x 1.776720 0.000000 -0.002630 
#    y 0.000000 1.749350 0.000000 
#    z -0.002630 0.000000 1.765040 
# 
# From -- ./inp_files/289310.got.cif
#   From: 2010.05.17/outbox.cif.g08.bks.cpg/sg12_145_cif.got.tgz:289310.got - 2010.06.03 13:09:07.
