data_PCOD9208857
_publ_section_title
;
Structure prediction by ZEFSAII (Michael W. Deem and Ramdas Pophale) SiO2 
 PCOD9208857
Probable space group: C 2/M
;
_chemical_formula_sum "Si O2"
_cell_formula_units_Z 48
_cell_length_a 19.986227
_cell_length_b 7.618147
_cell_length_c 14.122342
_cell_angle_alpha 90.000000
_cell_angle_beta 88.784389
_cell_angle_gamma 90.000000
_cell_volume 2149.755831
_symmetry_space_group_name_H-M "C 2/M"
_symmetry_group_IT_number 12
_symmetry_cell_setting 'monoclinic'
loop_
_space_group_symop_operation_xyz
x,y,z
-x,y,-z
-x,-y,-z
x,-y,z
1/2+x,1/2+y,z
1/2-x,1/2+y,-z
1/2-x,1/2-y,-z
1/2+x,1/2-y,z
loop_
_atom_site_type_symbol
_atom_site_label
_atom_site_fract_x
_atom_site_fract_y
_atom_site_fract_z
Si Si1 0.851186 0.298251 0.895931
Si Si2 0.411273 0.204863 0.087007
Si Si3 0.453470 0.285154 0.413884
Si Si4 0.221066 0.785915 0.796376
Si Si5 0.973987 0.201622 0.778990
Si Si6 0.699617 0.710296 0.586147
O O1 0.836427 0.500000 0.922589
O O2 0.782166 0.221405 0.859463
O O3 0.906076 0.294824 0.811514
O O4 0.885290 0.218694 0.988217
O O5 0.349071 0.223916 0.159779
O O6 0.474859 0.290127 0.134683
O O7 0.428862 0.000000 0.073131
O O8 0.500000 0.231954 0.500000
O O9 0.452145 0.500000 0.412124
O O10 0.487161 0.228072 0.314085
O O11 0.376642 0.225167 0.425564
O O12 0.226611 0.728436 0.687314
O O13 0.221467 0.000000 0.798121
O O14 0.956341 0.000000 0.760080
O O15 0.694891 0.500000 0.592305
O O16 0.750000 0.750000 0.500000
#
# Coordination Sequence:
#
# PCOD9208857 Si02
#       6
#     8   8   8   8   8   8
#     4  10  23  39  57  85 120 154 189 239 291 336
#     4  11  22  38  60  85 116 153 194 239 289 341
#     4   9  19  37  59  83 113 147 186 235 284 332
#     4  10  21  40  61  83 118 155 191 238 289 340
#     4  11  22  38  61  86 115 154 195 235 285 344
#     4  10  21  38  60  85 115 148 185 233 287 341
#
# _framework density 22.328119000000001
#
# number of rings (size 3 to 8) (size 9 to 14) (size 15 to 20)
#    0.000    1.833    1.667    2.000    2.333    4.667 
#    0.000    0.000    0.000    2.500    0.000    0.000 
#    0.000    0.000    0.000    0.000    0.000    0.000 
#
# Total GULP energy -134158.609781 kJ/mol
# GULP energy per Si atom -5589.942074 kJ/mol
# Density = 2.227730 g / cm^3
# Si number density = 22.328119 Si / 1000 Ang^3
#
#
#
# Elastic Constant Matrix: (Units=GPa)
#
#
# Indices 1 2 3 4 5 6 
#
# 1 41.8575 -11.9271 -4.0215 0.0000 3.8990 0.0000
# 2 -11.9271 45.8613 -1.1646 0.0000 5.9979 0.0000
# 3 -4.0215 -1.1646 89.1993 0.0000 1.5401 0.0000
# 4 0.0000 0.0000 0.0000 13.5694 0.0000 -4.4729
# 5 3.8990 5.9979 1.5401 0.0000 40.4277 0.0000
# 6 0.0000 0.0000 0.0000 -4.4729 0.0000 14.0067
#
#
#
# Elastic Compliance Matrix: (Units=1/GPa)
#
#
# Indices 1 2 3 4 5 6 
#
# 1 0.026475 0.007404 0.001354 0.000000 -0.003704 0.000000
# 2 0.007404 0.024318 0.000726 0.000000 -0.004350 0.000000
# 3 0.001354 0.000726 0.011293 0.000000 -0.000669 0.000000
# 4 0.000000 0.000000 0.000000 0.082365 0.000000 0.026302
# 5 -0.003704 -0.004350 -0.000669 0.000000 0.025763 0.000000
# 6 0.000000 0.000000 0.000000 0.026302 0.000000 0.079794
#
#
# Mechanical properties :
#
#
# Convention : Reuss Voigt Hill
#
# Bulk Modulus (GPa) = 12.33715 15.85462 14.09588
# Shear Modulus (GPa) = 19.37552 26.53618 22.95585
#
# Velocity S-wave (km/s) = 2.94898 3.45115 3.20990
# Velocity P-wave (km/s) = 4.13916 4.79549 4.47937
#
# Compressibility (1/GPa) = 0.08105599
#
# Stress axis : x y z
#
# Youngs Moduli (GPa) = 37.77078 41.12216 88.55095
#
# Poissons Ratio (x) = -0.30448 -0.11992
# Poissons Ratio (y) = -0.27966 -0.06433
# Poissons Ratio (z) = -0.05115 -0.02987
#
# Static dielectric constant tensor:
#      x y z
#    x 1.772830 0.000000 0.013090 
#    y 0.000000 1.848310 0.000000 
#    z 0.013090 0.000000 1.819590 
# 
# From -- ./inp_files/221555.got.cif
#   From: 2010.05.17/outbox.cif.g08.bks.cpg/sg12_111_cif.got.tgz:221555.got - 2010.06.03 13:09:07.
