data_PCOD9208664
_publ_section_title
;
Structure prediction by ZEFSAII (Michael W. Deem and Ramdas Pophale) SiO2 
 PCOD9208664
Probable space group: C 2/M
;
_chemical_formula_sum "Si O2"
_cell_formula_units_Z 56
_cell_length_a 20.781640
_cell_length_b 7.675612
_cell_length_c 28.864063
_cell_angle_alpha 90.000000
_cell_angle_beta 145.556555
_cell_angle_gamma 90.000000
_cell_volume 2604.077640
_symmetry_space_group_name_H-M "C 2/M"
_symmetry_group_IT_number 12
_symmetry_cell_setting 'monoclinic'
loop_
_space_group_symop_operation_xyz
x,y,z
-x,y,-z
-x,-y,-z
x,-y,z
1/2+x,1/2+y,z
1/2-x,1/2+y,-z
1/2-x,1/2-y,-z
1/2+x,1/2-y,z
loop_
_atom_site_type_symbol
_atom_site_label
_atom_site_fract_x
_atom_site_fract_y
_atom_site_fract_z
Si Si1 0.694469 0.202334 0.740460
Si Si2 0.842221 0.713737 0.178128
Si Si3 0.978615 0.297432 0.436318
Si Si4 0.415760 0.203110 0.824760
Si Si5 0.414781 0.212796 0.718988
Si Si6 0.672582 0.707785 0.998511
Si Si7 0.285710 0.291686 0.468746
O O1 0.670944 0.276892 0.777198
O O2 0.621187 0.280683 0.654731
O O3 0.826491 0.209734 0.805978
O O4 0.658523 0.000000 0.722226
O O5 0.840142 0.500000 0.176781
O O6 0.963221 0.766773 0.228693
O O7 0.740413 0.770839 0.084041
O O8 0.947345 0.500000 0.426061
O O9 0.094287 0.287053 0.475503
O O10 0.000000 0.218830 0.500000
O O11 0.402155 0.272773 0.764334
O O12 0.546518 0.220016 0.917111
O O13 0.385818 0.000000 0.806243
O O14 0.312640 0.268327 0.625012
O O15 0.415235 0.000000 0.719898
O O16 0.662015 0.500000 0.995280
O O17 0.750000 0.750000 0.000000
O O18 0.295890 0.500000 0.470597
O O19 0.250000 0.250000 0.500000
#
# Coordination Sequence:
#
# PCOD9208664 Si02
#       7
#     8   8   8   8   8   8   8
#     4  10  21  38  59  83 114 153 193 231 281 344
#     4   9  18  35  59  81 109 151 193 228 274 343
#     4  10  21  38  60  85 118 154 193 243 293 342
#     4  11  22  38  60  85 116 148 188 238 285 340
#     4   9  18  35  58  82 108 149 194 232 280 343
#     4  11  21  37  61  87 114 147 191 237 285 339
#     4  11  22  36  58  85 116 152 195 242 290 347
#
# _framework density 21.504735
#
# number of rings (size 3 to 8) (size 9 to 14) (size 15 to 20)
#    0.000    1.857    1.429    3.000    0.000    3.714 
#    0.000    6.429    0.000    0.000    0.000    0.000 
#    0.000    0.000    0.000    0.000    0.000    0.000 
#
# Total GULP energy -156500.147512 kJ/mol
# GULP energy per Si atom -5589.290983 kJ/mol
# Density = 2.145579 g / cm^3
# Si number density = 21.504735 Si / 1000 Ang^3
#
#
#
# Elastic Constant Matrix: (Units=GPa)
#
#
# Indices 1 2 3 4 5 6 
#
# 1 86.2828 -6.4439 2.7734 -0.0001 -6.4256 0.0008
# 2 -6.4439 43.1267 -0.9082 0.0000 -12.0692 0.0037
# 3 2.7734 -0.9082 99.0470 -0.0001 -4.3666 -0.0001
# 4 -0.0001 0.0000 -0.0001 16.5659 -0.0001 7.1859
# 5 -6.4256 -12.0692 -4.3666 -0.0001 33.0169 0.0002
# 6 0.0008 0.0037 -0.0001 7.1859 0.0002 20.5874
#
#
#
# Elastic Compliance Matrix: (Units=1/GPa)
#
#
# Indices 1 2 3 4 5 6 
#
# 1 0.012046 0.002725 -0.000166 0.000001 0.003318 -0.000001
# 2 0.002725 0.026489 0.000620 0.000003 0.010295 -0.000006
# 3 -0.000166 0.000620 0.010174 0.000000 0.001540 0.000000
# 4 0.000001 0.000003 0.000000 0.071135 0.000001 -0.024829
# 5 0.003318 0.010295 0.001540 0.000001 0.034900 -0.000003
# 6 -0.000001 -0.000006 0.000000 -0.024829 -0.000003 0.057240
#
#
# Mechanical properties :
#
#
# Convention : Reuss Voigt Hill
#
# Bulk Modulus (GPa) = 18.15930 24.36658 21.26294
# Shear Modulus (GPa) = 22.32325 29.56973 25.94649
#
# Velocity S-wave (km/s) = 3.22539 3.71217 3.47731
# Velocity P-wave (km/s) = 4.72584 5.45243 5.10208
#
# Compressibility (1/GPa) = 0.05506819
#
# Stress axis : x y z
#
# Youngs Moduli (GPa) = 83.01668 37.75157 98.28537
#
# Poissons Ratio (x) = -0.10288 0.01632
# Poissons Ratio (y) = -0.22623 -0.06098
# Poissons Ratio (z) = 0.01378 -0.02342
#
# Static dielectric constant tensor:
#      x y z
#    x 1.727870 0.000000 -0.036690 
#    y 0.000000 1.646800 0.000000 
#    z -0.036690 0.000000 1.758570 
# 
# From -- ./inp_files/380725.got.cif
#   From: 2010.05.17/outbox.cif.g08.bks.cpg/sg12_191_cif.got.tgz:380725.got - 2010.06.03 13:09:07.
