data_PCOD9208795
_publ_section_title
;
Structure prediction by ZEFSAII (Michael W. Deem and Ramdas Pophale) SiO2 
 PCOD9208795
Probable space group: C 2/M
;
_chemical_formula_sum "Si O2"
_cell_formula_units_Z 40
_cell_length_a 16.639596
_cell_length_b 18.126194
_cell_length_c 15.259754
_cell_angle_alpha 90.000000
_cell_angle_beta 27.898141
_cell_angle_gamma 90.000000
_cell_volume 2153.530550
_symmetry_space_group_name_H-M "C 2/M"
_symmetry_group_IT_number 12
_symmetry_cell_setting 'monoclinic'
loop_
_space_group_symop_operation_xyz
x,y,z
-x,y,-z
-x,-y,-z
x,-y,z
1/2+x,1/2+y,z
1/2-x,1/2+y,-z
1/2-x,1/2-y,-z
1/2+x,1/2-y,z
loop_
_atom_site_type_symbol
_atom_site_label
_atom_site_fract_x
_atom_site_fract_y
_atom_site_fract_z
Si Si1 0.294964 0.811933 0.026495
Si Si2 0.024357 0.912855 0.711934
Si Si3 0.201627 0.263634 0.299595
Si Si4 0.187783 0.311402 0.631224
Si Si5 0.843646 0.082897 0.218034
O O1 0.275003 0.771677 0.139816
O O2 0.151491 0.874402 0.149568
O O3 0.250000 0.750000 0.000000
O O4 0.489547 0.834906 0.816042
O O5 0.180788 0.878308 0.506651
O O6 0.076753 0.897947 0.763243
O O7 0.010900 0.000000 0.714781
O O8 0.292481 0.224931 0.293396
O O9 0.228631 0.351062 0.290612
O O10 0.000000 0.247744 0.500000
O O11 0.250000 0.250000 0.500000
O O12 0.765261 0.000000 0.299747
O O13 0.000000 0.078604 0.000000
#
# Coordination Sequence:
#
# PCOD9208795 Si02
#       5
#     8   8   8   8   8
#     4  12  23  40  67  94 126 170 214 262 313 381
#     4  11  24  43  65  95 132 168 210 269 325 373
#     4  12  22  38  65  94 123 165 216 262 313 379
#     4  12  22  41  64  94 127 167 217 259 309 377
#     4  10  21  38  59  89 130 165 202 261 324 380
#
# _framework density 18.574151000000001
#
# number of rings (size 3 to 8) (size 9 to 14) (size 15 to 20)
#    0.000    0.600    6.000    3.000    0.000    1.200 
#    0.000    2.000    0.000    2.400    0.000    0.000 
#    0.000    0.000    0.000    0.000    0.000    0.000 
#
# Total GULP energy -111644.631639 kJ/mol
# GULP energy per Si atom -5582.231582 kJ/mol
# Density = 1.853188 g / cm^3
# Si number density = 18.574151 Si / 1000 Ang^3
#
#
#
# Elastic Constant Matrix: (Units=GPa)
#
#
# Indices 1 2 3 4 5 6 
#
# 1 56.9001 38.0208 30.9451 -0.0058 23.0455 0.0046
# 2 38.0208 114.6864 50.1883 0.0066 -4.7121 -0.0062
# 3 30.9451 50.1883 142.9370 0.0076 -19.4186 -0.0069
# 4 -0.0058 0.0066 0.0076 18.8935 -0.0055 -10.0553
# 5 23.0455 -4.7121 -19.4186 -0.0055 43.5546 0.0040
# 6 0.0046 -0.0062 -0.0069 -10.0553 0.0040 28.7664
#
#
#
# Elastic Compliance Matrix: (Units=1/GPa)
#
#
# Indices 1 2 3 4 5 6 
#
# 1 0.039662 -0.010535 -0.008403 0.000010 -0.025872 -0.000004
# 2 -0.010535 0.013112 -0.001462 -0.000004 0.006341 0.000002
# 3 -0.008403 -0.001462 0.010550 -0.000003 0.008991 0.000001
# 4 0.000010 -0.000004 -0.000003 0.065025 -0.000001 0.022730
# 5 -0.025872 0.006341 0.008991 -0.000001 0.041344 0.000002
# 6 -0.000004 0.000002 0.000001 0.022730 0.000002 0.042708
#
#
# Mechanical properties :
#
#
# Convention : Reuss Voigt Hill
#
# Bulk Modulus (GPa) = 44.39257 61.42578 52.90917
# Shear Modulus (GPa) = 19.17851 31.26752 25.22302
#
# Velocity S-wave (km/s) = 3.21680 4.10736 3.68905
# Velocity P-wave (km/s) = 6.14403 7.45897 6.83321
#
# Compressibility (1/GPa) = 0.02252629
#
# Stress axis : x y z
#
# Youngs Moduli (GPa) = 25.21286 76.26522 94.78695
#
# Poissons Ratio (x) = 0.80344 0.79645
# Poissons Ratio (y) = 0.26561 0.13856
# Poissons Ratio (z) = 0.21185 0.11148
#
# Static dielectric constant tensor:
#      x y z
#    x 1.617890 0.000010 0.030970 
#    y 0.000010 1.591640 -0.000010 
#    z 0.030970 -0.000010 1.613100 
# 
# From -- ./inp_files/216609.got.cif
#   From: 2010.05.17/outbox.cif.g08.bks.cpg/sg12_109_cif.got.tgz:216609.got - 2010.06.03 13:09:07.
