data_PCOD9208461
_publ_section_title
;
Structure prediction by ZEFSAII (Michael W. Deem and Ramdas Pophale) SiO2 
 PCOD9208461
Probable space group: C 2/M
;
_chemical_formula_sum "Si O2"
_cell_formula_units_Z 48
_cell_length_a 22.421437
_cell_length_b 8.480939
_cell_length_c 22.065109
_cell_angle_alpha 90.000000
_cell_angle_beta 32.956453
_cell_angle_gamma 90.000000
_cell_volume 2282.514378
_symmetry_space_group_name_H-M "C 2/M"
_symmetry_group_IT_number 12
_symmetry_cell_setting 'monoclinic'
loop_
_space_group_symop_operation_xyz
x,y,z
-x,y,-z
-x,-y,-z
x,-y,z
1/2+x,1/2+y,z
1/2-x,1/2+y,-z
1/2-x,1/2-y,-z
1/2+x,1/2-y,z
loop_
_atom_site_type_symbol
_atom_site_label
_atom_site_fract_x
_atom_site_fract_y
_atom_site_fract_z
Si Si1 0.333569 0.190937 0.742674
Si Si2 0.392632 0.307622 0.127692
Si Si3 0.418208 0.812924 0.341119
Si Si4 0.430221 0.315323 0.466392
Si Si5 0.798308 0.186868 0.331207
Si Si6 0.161195 0.687900 0.121914
O O1 0.221504 0.240462 0.806134
O O2 0.448531 0.256516 0.619604
O O3 0.324632 0.241981 0.820748
O O4 0.340660 0.000000 0.734729
O O5 0.394864 0.500000 0.124847
O O6 0.381375 0.260579 0.207471
O O7 0.500000 0.252657 0.000000
O O8 0.417733 0.722397 0.405075
O O9 0.327393 0.767627 0.369873
O O10 0.536257 0.774225 0.210850
O O11 0.413697 0.000000 0.358592
O O12 0.420601 0.500000 0.485993
O O13 0.325544 0.226642 0.583372
O O14 0.807489 0.000000 0.331590
O O15 0.171016 0.500000 0.114901
O O16 0.250000 0.750000 0.000000
#
# Coordination Sequence:
#
# PCOD9208461 Si02
#       6
#     8   8   8   8   8   8
#     4   9  19  38  60  83 115 151 192 243 286 334
#     4   9  20  38  61  87 115 152 197 239 283 339
#     4  10  21  38  57  84 120 153 190 237 290 345
#     4  11  22  38  60  86 118 152 192 240 292 349
#     4  11  22  36  60  89 117 153 194 238 288 344
#     4   9  19  32  53  81 111 148 187 234 284 335
#
# _framework density 21.029440999999998
#
# number of rings (size 3 to 8) (size 9 to 14) (size 15 to 20)
#    0.000    2.167    0.000    4.000    2.333    4.000 
#    0.000    5.000    0.000    2.500    0.000    0.000 
#    0.000    0.000    0.000    0.000    0.000    0.000 
#
# Total GULP energy -134051.285107 kJ/mol
# GULP energy per Si atom -5585.470213 kJ/mol
# Density = 2.098158 g / cm^3
# Si number density = 21.029441 Si / 1000 Ang^3
#
#
#
# Elastic Constant Matrix: (Units=GPa)
#
#
# Indices 1 2 3 4 5 6 
#
# 1 71.8699 -4.6906 11.0573 0.0000 -17.4908 0.0000
# 2 -4.6906 20.2076 -6.3278 -0.0003 -1.4898 0.0004
# 3 11.0573 -6.3278 109.4986 0.0000 -4.0312 0.0001
# 4 0.0000 -0.0003 0.0000 27.8242 0.0000 -6.8275
# 5 -17.4908 -1.4898 -4.0312 0.0000 27.4204 0.0000
# 6 0.0000 0.0004 0.0001 -6.8275 0.0000 15.9668
#
#
#
# Elastic Compliance Matrix: (Units=1/GPa)
#
#
# Indices 1 2 3 4 5 6 
#
# 1 0.017031 0.004428 -0.001061 0.000000 0.010948 0.000000
# 2 0.004428 0.051828 0.002771 0.000000 0.006048 -0.000001
# 3 -0.001061 0.002771 0.009431 0.000000 0.000860 0.000000
# 4 0.000000 0.000000 0.000000 0.040153 0.000000 0.017170
# 5 0.010948 0.006048 0.000860 0.000000 0.043908 0.000000
# 6 0.000000 -0.000001 0.000000 0.017170 0.000000 0.069972
#
#
# Mechanical properties :
#
#
# Convention : Reuss Voigt Hill
#
# Bulk Modulus (GPa) = 11.04172 22.40599 16.72386
# Shear Modulus (GPa) = 19.98122 27.67810 23.82966
#
# Velocity S-wave (km/s) = 3.08580 3.63183 3.36989
# Velocity P-wave (km/s) = 4.23772 5.31645 4.80743
#
# Compressibility (1/GPa) = 0.09056556
#
# Stress axis : x y z
#
# Youngs Moduli (GPa) = 58.71773 19.29469 106.02830
#
# Poissons Ratio (x) = -0.08544 0.11248
# Poissons Ratio (y) = -0.26001 -0.29376
# Poissons Ratio (z) = 0.06229 -0.05346
#
# Static dielectric constant tensor:
#      x y z
#    x 1.774360 0.000000 0.004910 
#    y 0.000000 1.723400 0.000000 
#    z 0.004910 0.000000 1.780500 
# 
# From -- ./inp_files/172048.got.cif
#   From: 2010.05.17/outbox.cif.g08.bks.cpg/sg12_87_cif.got.tgz:172048.got - 2010.06.03 13:09:07.
