data_PCOD9208641
_publ_section_title
;
Structure prediction by ZEFSAII (Michael W. Deem and Ramdas Pophale) SiO2 
 PCOD9208641
Probable space group: C 2/M
;
_chemical_formula_sum "Si O2"
_cell_formula_units_Z 64
_cell_length_a 19.670741
_cell_length_b 7.539471
_cell_length_c 16.905647
_cell_angle_alpha 90.000000
_cell_angle_beta 89.457180
_cell_angle_gamma 90.000000
_cell_volume 2507.112955
_symmetry_space_group_name_H-M "C 2/M"
_symmetry_group_IT_number 12
_symmetry_cell_setting 'monoclinic'
loop_
_space_group_symop_operation_xyz
x,y,z
-x,y,-z
-x,-y,-z
x,-y,z
1/2+x,1/2+y,z
1/2-x,1/2+y,-z
1/2-x,1/2-y,-z
1/2+x,1/2-y,z
loop_
_atom_site_type_symbol
_atom_site_label
_atom_site_fract_x
_atom_site_fract_y
_atom_site_fract_z
Si Si1 0.470337 0.296204 0.801661
Si Si2 0.391224 0.283588 0.954762
Si Si3 0.891485 0.294675 0.131227
Si Si4 0.863423 0.796501 0.372733
Si Si5 0.647831 0.794112 0.454183
Si Si6 0.740125 0.707039 0.125952
Si Si7 0.983710 0.783627 0.629953
Si Si8 0.271077 0.784474 0.699936
O O1 0.448028 0.500000 0.798447
O O2 0.435605 0.219195 0.880041
O O3 0.551431 0.292291 0.815282
O O4 0.456004 0.219679 0.715591
O O5 0.393785 0.500000 0.957044
O O6 0.314029 0.223784 0.936575
O O7 0.414309 0.219171 0.039636
O O8 0.888177 0.500000 0.154956
O O9 0.815574 0.213970 0.131424
O O10 0.835341 0.793695 0.462695
O O11 0.938771 0.718468 0.375516
O O12 0.805947 0.719866 0.316508
O O13 0.871736 0.000000 0.347845
O O14 0.567791 0.775139 0.436807
O O15 0.684762 0.722953 0.375289
O O16 0.665397 0.000000 0.462106
O O17 0.749240 0.500000 0.107445
O O18 0.707539 0.723022 0.213643
O O19 0.984375 0.000000 0.627679
O O20 0.272281 0.000000 0.700206
#
# Coordination Sequence:
#
# PCOD9208641 Si02
#       8
#     8   8   8   8   8   8   8   8
#     4  10  21  38  60  83 109 147 191 230 271 325
#     4  10  21  38  59  82 110 148 192 229 267 326
#     4  11  23  37  56  85 117 146 180 228 284 332
#     4  10  21  38  59  82 110 148 192 229 267 326
#     4  11  23  37  56  85 117 146 180 228 284 332
#     4  10  22  39  59  84 112 145 186 230 277 329
#     4  10  21  38  60  83 109 147 191 230 271 325
#     4  10  22  39  59  84 112 145 186 230 277 329
#
# _framework density 25.527370000000001
#
# number of rings (size 3 to 8) (size 9 to 14) (size 15 to 20)
#    0.000    1.750    0.000    3.750    0.000    9.500 
#    0.000    0.000    0.000    0.000    0.000    0.000 
#    0.000    0.000    0.000    0.000    0.000    0.000 
#
# Total GULP energy -179136.229270 kJ/mol
# GULP energy per Si atom -5598.007165 kJ/mol
# Density = 2.546927 g / cm^3
# Si number density = 25.527370 Si / 1000 Ang^3
#
#
#
# Elastic Constant Matrix: (Units=GPa)
#
#
# Indices 1 2 3 4 5 6 
#
# 1 78.7203 -0.5979 -1.7372 0.0000 8.2273 0.0000
# 2 -0.5979 76.3856 -7.0179 0.0000 -3.1358 0.0000
# 3 -1.7372 -7.0179 105.7611 0.0000 12.7863 0.0000
# 4 0.0000 0.0000 0.0000 18.3539 0.0000 -1.7957
# 5 8.2273 -3.1358 12.7863 0.0000 48.7390 0.0000
# 6 0.0000 0.0000 0.0000 -1.7957 0.0000 15.9345
#
#
#
# Elastic Compliance Matrix: (Units=1/GPa)
#
#
# Indices 1 2 3 4 5 6 
#
# 1 0.012956 0.000052 0.000496 0.000000 -0.002314 0.000000
# 2 0.000052 0.013191 0.000800 0.000000 0.000630 0.000000
# 3 0.000496 0.000800 0.009832 0.000000 -0.002612 0.000000
# 4 0.000000 0.000000 0.000000 0.055092 0.000000 0.006209
# 5 -0.002314 0.000630 -0.002612 0.000000 0.021634 0.000000
# 6 0.000000 0.000000 0.000000 0.006209 0.000000 0.063456
#
#
# Mechanical properties :
#
#
# Convention : Reuss Voigt Hill
#
# Bulk Modulus (GPa) = 25.85593 26.90681 26.38137
# Shear Modulus (GPa) = 26.83010 34.62013 30.72511
#
# Velocity S-wave (km/s) = 3.24548 3.68665 3.47308
# Velocity P-wave (km/s) = 4.91883 5.35585 5.14199
#
# Compressibility (1/GPa) = 0.03867584
#
# Stress axis : x y z
#
# Youngs Moduli (GPa) = 77.18213 75.80785 101.70615
#
# Poissons Ratio (x) = -0.00394 -0.05045
# Poissons Ratio (y) = -0.00401 -0.08136
# Poissons Ratio (z) = -0.03828 -0.06065
#
# Static dielectric constant tensor:
#      x y z
#    x 2.055250 0.000000 -0.078960 
#    y 0.000000 1.944890 0.000000 
#    z -0.078960 0.000000 1.955890 
# 
# From -- ./inp_files/281267.got.cif
#   From: 2010.05.17/outbox.cif.g08.bks.cpg/sg12_141_cif.got.tgz:281267.got - 2010.06.03 13:09:07.
