data_PCOD9208534
_publ_section_title
;
Structure prediction by ZEFSAII (Michael W. Deem and Ramdas Pophale) SiO2 
 PCOD9208534
Probable space group: C 2/M
;
_chemical_formula_sum "Si O2"
_cell_formula_units_Z 52
_cell_length_a 8.732265
_cell_length_b 18.599121
_cell_length_c 19.325407
_cell_angle_alpha 90.000000
_cell_angle_beta 124.286709
_cell_angle_gamma 90.000000
_cell_volume 2593.274008
_symmetry_space_group_name_H-M "C 2/M"
_symmetry_group_IT_number 12
_symmetry_cell_setting 'monoclinic'
loop_
_space_group_symop_operation_xyz
x,y,z
-x,y,-z
-x,-y,-z
x,-y,z
1/2+x,1/2+y,z
1/2-x,1/2+y,-z
1/2-x,1/2-y,-z
1/2+x,1/2-y,z
loop_
_atom_site_type_symbol
_atom_site_label
_atom_site_fract_x
_atom_site_fract_y
_atom_site_fract_z
Si Si1 0.650943 0.707401 0.134326
Si Si2 0.124550 0.082994 0.914209
Si Si3 0.257001 0.813867 0.594543
Si Si4 0.388772 0.581919 0.254336
Si Si5 0.570856 0.188073 0.222497
Si Si6 0.000000 0.666754 0.000000
Si Si7 0.870789 0.158565 0.575268
O O1 0.521422 0.638810 0.091696
O O2 0.650491 0.735740 0.214040
O O3 0.851989 0.691090 0.154778
O O4 0.568235 0.777828 0.075861
O O5 0.085009 0.084546 0.821344
O O6 0.328395 0.116487 0.977159
O O7 0.112873 0.000000 0.934207
O O8 0.412552 0.825864 0.691215
O O9 0.252661 0.861894 0.523661
O O10 0.278135 0.730879 0.579319
O O11 0.066355 0.823542 0.587863
O O12 0.353242 0.500000 0.265875
O O13 0.563490 0.609831 0.344088
O O14 0.206241 0.628917 0.224012
#
# Coordination Sequence:
#
# PCOD9208534 Si02
#       7
#     8   8   8   8   8   4   8
#     4  12  23  38  64  90 120 152 202 248 297 360
#     4  11  24  42  63  89 121 159 196 245 306 361
#     4   9  17  29  52  80 110 140 188 240 290 330
#     4  10  21  38  58  82 119 163 200 240 300 358
#     4  11  20  36  58  85 115 154 197 242 294 348
#     4  12  23  42  65  90 114 156 202 252 295 362
#     4   9  17  31  50  82 110 141 188 241 285 340
#
# _framework density 20.051873000000001
#
# number of rings (size 3 to 8) (size 9 to 14) (size 15 to 20)
#    0.000    1.538    3.077    3.462    0.000    0.615 
#    0.000    6.538    0.000    0.000    0.000   10.769 
#    0.000    0.000    0.000    0.000    0.000    0.000 
#
# Total GULP energy -144918.490905 kJ/mol
# GULP energy per Si atom -5573.788112 kJ/mol
# Density = 2.000623 g / cm^3
# Si number density = 20.051873 Si / 1000 Ang^3
#
#
#
# Elastic Constant Matrix: (Units=GPa)
#
#
# Indices 1 2 3 4 5 6 
#
# 1 37.5530 15.9386 3.1172 0.0000 14.4542 0.0000
# 2 15.9386 118.6256 25.6087 0.0000 14.9798 0.0000
# 3 3.1172 25.6087 83.7028 0.0000 -2.4959 0.0000
# 4 0.0000 0.0000 0.0000 16.1966 0.0000 3.4374
# 5 14.4542 14.9798 -2.4959 0.0000 21.2810 0.0000
# 6 0.0000 0.0000 0.0000 3.4374 0.0000 23.6966
#
#
#
# Elastic Compliance Matrix: (Units=1/GPa)
#
#
# Indices 1 2 3 4 5 6 
#
# 1 0.036655 -0.001548 -0.001607 0.000000 -0.023995 0.000000
# 2 -0.001548 0.010156 -0.003243 0.000000 -0.006478 0.000000
# 3 -0.001607 -0.003243 0.013146 0.000000 0.004916 0.000000
# 4 0.000000 0.000000 0.000000 0.063703 0.000000 -0.009241
# 5 -0.023995 -0.006478 0.004916 0.000000 0.068424 0.000000
# 6 0.000000 0.000000 0.000000 -0.009241 0.000000 0.043541
#
#
# Mechanical properties :
#
#
# Convention : Reuss Voigt Hill
#
# Bulk Modulus (GPa) = 21.20382 36.57895 28.89139
# Shear Modulus (GPa) = 18.92937 25.24929 22.08933
#
# Velocity S-wave (km/s) = 3.07582 3.55237 3.32265
# Velocity P-wave (km/s) = 4.81785 5.92516 5.39996
#
# Compressibility (1/GPa) = 0.04716131
#
# Stress axis : x y z
#
# Youngs Moduli (GPa) = 27.28124 98.46497 76.07142
#
# Poissons Ratio (x) = 0.15243 0.12224
# Poissons Ratio (y) = 0.04223 0.24668
# Poissons Ratio (z) = 0.04384 0.31929
#
# Static dielectric constant tensor:
#      x y z
#    x 1.722600 0.000000 -0.074220 
#    y 0.000000 1.673850 0.000000 
#    z -0.074220 0.000000 1.893640 
# 
# From -- ./inp_files/301205.got.cif
#   From: 2010.05.17/outbox.cif.g08.bks.cpg/sg12_151_cif.got.tgz:301205.got - 2010.06.03 13:09:07.
