data_PCOD9208722
_publ_section_title
;
Structure prediction by ZEFSAII (Michael W. Deem and Ramdas Pophale) SiO2 
 PCOD9208722
Probable space group: C 2/M
;
_chemical_formula_sum "Si O2"
_cell_formula_units_Z 44
_cell_length_a 12.262528
_cell_length_b 23.087227
_cell_length_c 7.431855
_cell_angle_alpha 90.000000
_cell_angle_beta 98.092807
_cell_angle_gamma 90.000000
_cell_volume 2083.062697
_symmetry_space_group_name_H-M "C 2/M"
_symmetry_group_IT_number 12
_symmetry_cell_setting 'monoclinic'
loop_
_space_group_symop_operation_xyz
x,y,z
-x,y,-z
-x,-y,-z
x,-y,z
1/2+x,1/2+y,z
1/2-x,1/2+y,-z
1/2-x,1/2-y,-z
1/2+x,1/2-y,z
loop_
_atom_site_type_symbol
_atom_site_label
_atom_site_fract_x
_atom_site_fract_y
_atom_site_fract_z
Si Si1 0.196825 0.377123 0.218247
Si Si2 0.100538 0.500000 0.234210
Si Si3 0.371341 0.803013 0.489211
Si Si4 0.757691 0.120779 0.829775
Si Si5 0.348925 0.000000 0.186879
Si Si6 0.590967 0.320852 0.653549
Si Si7 0.000000 0.162981 0.000000
O O1 0.149503 0.436588 0.287892
O O2 0.150741 0.321888 0.312111
O O3 0.325456 0.372220 0.290071
O O4 0.190976 0.369346 0.002456
O O5 0.975696 0.500000 0.278050
O O6 0.126202 0.500000 0.023402
O O7 0.500000 0.818537 0.500000
O O8 0.291097 0.838076 0.336229
O O9 0.362347 0.735745 0.435024
O O10 0.888537 0.129883 0.901760
O O11 0.721679 0.055628 0.775616
O O12 0.500000 0.344255 0.500000
O O13 0.542367 0.302468 0.835585
#
# Coordination Sequence:
#
# PCOD9208722 Si02
#       7
#     8   4   8   8   4   8   4
#     4  10  21  38  59  85 119 157 192 240 296 348
#     4   9  18  35  60  87 116 150 192 240 293 347
#     4  11  23  36  58  88 117 156 198 241 292 350
#     4  10  22  39  60  87 119 156 198 241 291 347
#     4   9  18  36  59  85 119 152 188 242 292 344
#     4  10  22  39  59  84 120 157 197 244 290 346
#     4  10  22  39  60  86 116 155 200 244 288 344
#
# _framework density 21.122744999999998
#
# number of rings (size 3 to 8) (size 9 to 14) (size 15 to 20)
#    0.000    2.000    0.000    2.727    0.000   10.545 
#    0.000    3.182    0.000    0.000    0.000    0.000 
#    0.000    0.000    0.000    0.000    0.000    0.000 
#
# Total GULP energy -122569.277293 kJ/mol
# GULP energy per Si atom -5571.330786 kJ/mol
# Density = 2.107467 g / cm^3
# Si number density = 21.122745 Si / 1000 Ang^3
#
#
#
# Elastic Constant Matrix: (Units=GPa)
#
#
# Indices 1 2 3 4 5 6 
#
# 1 81.3446 33.9450 18.2557 0.0000 10.3921 0.0000
# 2 33.9450 81.4869 26.6694 0.0000 0.2185 0.0000
# 3 18.2557 26.6694 76.3252 0.0000 -1.0372 0.0000
# 4 0.0000 0.0000 0.0000 34.4651 0.0000 -15.0836
# 5 10.3921 0.2185 -1.0372 0.0000 34.6703 0.0000
# 6 0.0000 0.0000 0.0000 -15.0836 0.0000 36.0250
#
#
#
# Elastic Compliance Matrix: (Units=1/GPa)
#
#
# Indices 1 2 3 4 5 6 
#
# 1 0.015794 -0.005995 -0.001748 0.000000 -0.004749 0.000000
# 2 -0.005995 0.016134 -0.004182 0.000000 0.001570 0.000000
# 3 -0.001748 -0.004182 0.014995 0.000000 0.000999 0.000000
# 4 0.000000 0.000000 0.000000 0.035524 0.000000 0.014874
# 5 -0.004749 0.001570 0.000999 0.000000 0.030286 0.000000
# 6 0.000000 0.000000 0.000000 0.014874 0.000000 0.033986
#
#
# Mechanical properties :
#
#
# Convention : Reuss Voigt Hill
#
# Bulk Modulus (GPa) = 43.33979 44.09965 43.71972
# Shear Modulus (GPa) = 28.04910 31.71785 29.88348
#
# Velocity S-wave (km/s) = 3.64800 3.87925 3.76540
# Velocity P-wave (km/s) = 6.18923 6.40218 6.29660
#
# Compressibility (1/GPa) = 0.02307348
#
# Stress axis : x y z
#
# Youngs Moduli (GPa) = 63.31634 61.98229 66.69013
#
# Poissons Ratio (x) = 0.37155 0.11654
# Poissons Ratio (y) = 0.37955 0.27891
# Poissons Ratio (z) = 0.11065 0.25923
#
# Static dielectric constant tensor:
#      x y z
#    x 1.883870 0.000000 -0.030000 
#    y 0.000000 1.739550 0.000000 
#    z -0.030000 0.000000 1.815650 
# 
# From -- ./inp_files/49415.got.cif
#   From: 2010.05.17/outbox.cif.g08.bks.cpg/sg12_25_cif.got.tgz:49415.got - 2010.06.03 13:09:07.
