data_PCOD9208895
_publ_section_title
;
Structure prediction by ZEFSAII (Michael W. Deem and Ramdas Pophale) SiO2 
 PCOD9208895
Probable space group: C 2/M
;
_chemical_formula_sum "Si O2"
_cell_formula_units_Z 56
_cell_length_a 21.041210
_cell_length_b 8.502926
_cell_length_c 18.209512
_cell_angle_alpha 90.000000
_cell_angle_beta 63.547693
_cell_angle_gamma 90.000000
_cell_volume 2916.813449
_symmetry_space_group_name_H-M "C 2/M"
_symmetry_group_IT_number 12
_symmetry_cell_setting 'monoclinic'
loop_
_space_group_symop_operation_xyz
x,y,z
-x,y,-z
-x,-y,-z
x,-y,z
1/2+x,1/2+y,z
1/2-x,1/2+y,-z
1/2-x,1/2-y,-z
1/2+x,1/2-y,z
loop_
_atom_site_type_symbol
_atom_site_label
_atom_site_fract_x
_atom_site_fract_y
_atom_site_fract_z
Si Si1 0.652599 0.690478 0.752613
Si Si2 0.065016 0.311659 0.660827
Si Si3 0.904216 0.309804 0.781993
Si Si4 0.829755 0.811690 0.965955
Si Si5 0.079748 0.191943 0.940664
Si Si6 0.923460 0.811696 0.508075
Si Si7 0.315857 0.189916 0.684622
O O1 0.651301 0.500000 0.751123
O O2 0.618095 0.753884 0.696246
O O3 0.607161 0.742298 0.846850
O O4 0.734229 0.740613 0.720763
O O5 0.065520 0.500000 0.657458
O O6 0.084125 0.246417 0.571079
O O7 0.984779 0.260463 0.722993
O O8 0.902464 0.500000 0.786361
O O9 0.875785 0.243788 0.872997
O O10 0.853399 0.259007 0.741048
O O11 0.827950 0.000000 0.968012
O O12 0.750000 0.750000 0.000000
O O13 0.866928 0.757868 0.022314
O O14 0.079412 0.000000 0.940524
O O15 0.000000 0.244004 0.000000
O O16 0.862408 0.748912 0.592768
O O17 0.000000 0.757231 0.500000
O O18 0.922619 0.000000 0.509648
O O19 0.316841 0.000000 0.683839
#
# Coordination Sequence:
#
# PCOD9208895 Si02
#       7
#     8   8   8   8   8   8   8
#     4  10  21  38  60  86 118 155 199 244 288 345
#     4  11  23  39  62  88 119 155 191 239 296 355
#     4  10  21  38  60  86 115 152 198 241 290 351
#     4  11  22  36  58  86 117 153 195 244 296 348
#     4   9  18  35  59  84 113 154 198 239 285 339
#     4  11  23  39  62  91 119 148 193 248 294 347
#     4  10  21  39  62  85 118 162 198 240 295 352
#
# _framework density 19.199031999999999
#
# number of rings (size 3 to 8) (size 9 to 14) (size 15 to 20)
#    0.000    1.714    1.429    3.000    0.000    6.857 
#    0.000    2.857    0.000    3.857    0.000    0.000 
#    0.000    0.000    0.000    0.000    0.000    0.000 
#
# Total GULP energy -156506.467563 kJ/mol
# GULP energy per Si atom -5589.516699 kJ/mol
# Density = 1.915533 g / cm^3
# Si number density = 19.199032 Si / 1000 Ang^3
#
#
#
# Elastic Constant Matrix: (Units=GPa)
#
#
# Indices 1 2 3 4 5 6 
#
# 1 121.1401 13.7350 31.7184 0.0000 11.6430 0.0000
# 2 13.7350 9.5745 8.7715 0.0001 1.0550 0.0000
# 3 31.7184 8.7715 111.8355 0.0000 14.7189 0.0000
# 4 0.0000 0.0001 0.0000 28.7217 0.0000 3.7916
# 5 11.6430 1.0550 14.7189 0.0000 39.5726 0.0000
# 6 0.0000 0.0000 0.0000 3.7916 0.0000 19.2666
#
#
#
# Elastic Compliance Matrix: (Units=1/GPa)
#
#
# Indices 1 2 3 4 5 6 
#
# 1 0.010376 -0.013156 -0.001635 0.000000 -0.002094 0.000000
# 2 -0.013156 0.129213 -0.006792 0.000000 0.002952 0.000000
# 3 -0.001635 -0.006792 0.010358 0.000000 -0.003190 0.000000
# 4 0.000000 0.000000 0.000000 0.035745 0.000000 -0.007035
# 5 -0.002094 0.002952 -0.003190 0.000000 0.026994 0.000000
# 6 0.000000 0.000000 0.000000 -0.007035 0.000000 0.053288
#
#
# Mechanical properties :
#
#
# Convention : Reuss Voigt Hill
#
# Bulk Modulus (GPa) = 9.36495 38.99998 24.18247
# Shear Modulus (GPa) = 14.50395 30.06721 22.28558
#
# Velocity S-wave (km/s) = 2.75153 3.96167 3.41070
# Velocity P-wave (km/s) = 3.87079 6.42526 5.30410
#
# Compressibility (1/GPa) = 0.10678112
#
# Stress axis : x y z
#
# Youngs Moduli (GPa) = 96.37669 7.73917 96.54262
#
# Poissons Ratio (x) = 0.10181 0.15788
# Poissons Ratio (y) = 1.26791 0.65570
# Poissons Ratio (z) = 0.15761 0.05256
#
# Static dielectric constant tensor:
#      x y z
#    x 1.653720 0.000000 -0.005230 
#    y 0.000000 1.660580 0.000000 
#    z -0.005230 0.000000 1.626860 
# 
# From -- ./inp_files/275160.got.cif
#   From: 2010.05.17/outbox.cif.g08.bks.cpg/sg12_138_cif.got.tgz:275160.got - 2010.06.03 13:09:07.
