data_PCOD9208043
_publ_section_title
;
Structure prediction by ZEFSAII (Michael W. Deem and Ramdas Pophale) SiO2 
 PCOD9208043
Probable space group: C 2/M
;
_chemical_formula_sum "Si O2"
_cell_formula_units_Z 40
_cell_length_a 20.993974
_cell_length_b 11.164048
_cell_length_c 9.183275
_cell_angle_alpha 90.000000
_cell_angle_beta 118.356603
_cell_angle_gamma 90.000000
_cell_volume 1894.091000
_symmetry_space_group_name_H-M "C 2/M"
_symmetry_group_IT_number 12
_symmetry_cell_setting 'monoclinic'
loop_
_space_group_symop_operation_xyz
x,y,z
-x,y,-z
-x,-y,-z
x,-y,z
1/2+x,1/2+y,z
1/2-x,1/2+y,-z
1/2-x,1/2-y,-z
1/2+x,1/2-y,z
loop_
_atom_site_type_symbol
_atom_site_label
_atom_site_fract_x
_atom_site_fract_y
_atom_site_fract_z
Si Si1 0.436665 0.360750 0.549593
Si Si2 0.069000 0.734874 0.159858
Si Si3 0.169667 0.865514 0.037572
Si Si4 0.804065 0.761747 0.244693
Si Si5 0.717126 0.869282 0.385312
O O1 0.500000 0.356633 0.500000
O O2 0.412237 0.500000 0.532652
O O3 0.457137 0.313163 0.730915
O O4 0.373447 0.274931 0.421258
O O5 0.114169 0.817929 0.096948
O O6 0.130813 0.644336 0.281945
O O7 0.000000 0.683928 0.000000
O O8 0.252143 0.853315 0.186368
O O9 0.151383 0.000000 0.978078
O O10 0.170622 0.789297 0.890705
O O11 0.749226 0.858973 0.256246
O O12 0.750000 0.750000 0.500000
O O13 0.737579 0.000000 0.468208
#
# Coordination Sequence:
#
# PCOD9208043 Si02
#       5
#     8   8   8   8   8
#     4  11  22  37  59  86 124 169 213 264 321 379
#     4  11  24  40  60  94 129 165 211 266 315 383
#     4  10  21  37  61  90 125 166 208 262 319 377
#     4  10  21  38  59  90 124 160 210 261 316 382
#     4  11  23  41  68  96 127 170 216 265 319 382
#
# _framework density 21.118310000000001
#
# number of rings (size 3 to 8) (size 9 to 14) (size 15 to 20)
#    0.000    1.400    2.000    3.600    0.000    6.800 
#    0.000    0.000    0.000    4.800    0.000    0.000 
#    0.000    0.000    0.000    0.000    0.000    0.000 
#
# Total GULP energy -111556.158962 kJ/mol
# GULP energy per Si atom -5577.807948 kJ/mol
# Density = 2.107024 g / cm^3
# Si number density = 21.118310 Si / 1000 Ang^3
#
#
#
# Elastic Constant Matrix: (Units=GPa)
#
#
# Indices 1 2 3 4 5 6 
#
# 1 97.1540 22.0390 38.0084 0.0000 -9.3558 0.0000
# 2 22.0390 71.0183 23.8770 0.0000 -5.4915 0.0000
# 3 38.0084 23.8770 107.4518 0.0000 -4.6034 0.0000
# 4 0.0000 0.0000 0.0000 17.1399 0.0000 4.0144
# 5 -9.3558 -5.4915 -4.6034 0.0000 56.5021 0.0000
# 6 0.0000 0.0000 0.0000 4.0144 0.0000 -0.8728
#
#
#
# Elastic Compliance Matrix: (Units=1/GPa)
#
#
# Indices 1 2 3 4 5 6 
#
# 1 0.012489 -0.002480 -0.003802 0.000000 0.001517 0.000000
# 2 -0.002480 0.015793 -0.002593 0.000000 0.000913 0.000000
# 3 -0.003802 -0.002593 0.011229 0.000000 0.000033 0.000000
# 4 0.000000 0.000000 0.000000 0.028087 0.000000 0.129185
# 5 0.001517 0.000913 0.000033 0.000000 0.018041 0.000000
# 6 0.000000 0.000000 0.000000 0.129185 0.000000 -0.551572
#
#
# Mechanical properties :
#
#
# Convention : Reuss Voigt Hill
#
# Bulk Modulus (GPa) = 45.95321 49.27478 47.61400
# Shear Modulus (GPa) = -11.33967 27.33381 7.99707
#
# Velocity S-wave (km/s) = -2.31975 3.60157 1.94808
# Velocity P-wave (km/s) = 3.82520 6.37796 5.25883
#
# Compressibility (1/GPa) = 0.02176126
#
# Stress axis : x y z
#
# Youngs Moduli (GPa) = 80.07114 63.31943 89.05676
#
# Poissons Ratio (x) = 0.15705 0.33855
# Poissons Ratio (y) = 0.19860 0.23092
# Poissons Ratio (z) = 0.30439 0.16418
#
# Static dielectric constant tensor:
#      x y z
#    x 1.774470 0.000000 0.007210 
#    y 0.000000 1.761950 0.000000 
#    z 0.007210 0.000000 1.841570 
# 
# From -- ./inp_files/83744.got.cif
#   From: 2010.05.17/outbox.cif.g08.bks.cpg/sg12_42_cif.got.tgz:83744.got - 2010.06.03 13:09:07.
