data_PCOD9208292
_publ_section_title
;
Structure prediction by ZEFSAII (Michael W. Deem and Ramdas Pophale) SiO2 
 PCOD9208292
Probable space group: C 2/M
;
_chemical_formula_sum "Si O2"
_cell_formula_units_Z 58
_cell_length_a 21.631211
_cell_length_b 22.604207
_cell_length_c 5.586733
_cell_angle_alpha 90.000000
_cell_angle_beta 109.250138
_cell_angle_gamma 90.000000
_cell_volume 2578.936252
_symmetry_space_group_name_H-M "C 2/M"
_symmetry_group_IT_number 12
_symmetry_cell_setting 'monoclinic'
loop_
_space_group_symop_operation_xyz
x,y,z
-x,y,-z
-x,-y,-z
x,-y,z
1/2+x,1/2+y,z
1/2-x,1/2+y,-z
1/2-x,1/2-y,-z
1/2+x,1/2-y,z
loop_
_atom_site_type_symbol
_atom_site_label
_atom_site_fract_x
_atom_site_fract_y
_atom_site_fract_z
Si Si1 0.937999 0.902401 0.567417
Si Si2 0.687746 0.433420 0.879805
Si Si3 0.420077 0.931363 0.899852
Si Si4 0.646105 0.241289 0.872131
Si Si5 0.846592 0.842242 0.789852
Si Si6 0.500000 0.500000 0.000000
Si Si7 0.252293 0.319578 0.291778
Si Si8 0.921323 0.370216 0.402500
O O1 0.883933 0.933543 0.332398
O O2 0.897236 0.851361 0.643033
O O3 0.000000 0.880625 0.500000
O O4 0.964759 0.948656 0.792123
O O5 0.713794 0.500000 0.919861
O O6 0.731508 0.384855 0.795533
O O7 0.672474 0.404680 0.117092
O O8 0.398465 0.897040 0.629212
O O9 0.400645 0.000000 0.855290
O O10 0.500000 0.928945 0.000000
O O11 0.399783 0.906147 0.134965
O O12 0.699603 0.272952 0.775307
O O13 0.601723 0.197058 0.666357
O O14 0.619905 0.298237 0.980376
O O15 0.681362 0.201450 0.121663
O O16 0.777402 0.819637 0.595645
O O17 0.000000 0.372588 0.500000
#
# Coordination Sequence:
#
# PCOD9208292 Si02
#       8
#     8   8   8   8   8   2   8   8
#     4  11  23  36  57  88 122 167 219 265 322 385
#     4  10  21  39  59  89 125 162 212 273 328 380
#     4   9  18  36  62  92 126 166 205 243 305 396
#     4  10  21  41  66  89 123 165 222 264 317 389
#     4  10  22  38  62  87 119 168 221 274 321 380
#     4  12  22  36  60  82 124 172 218 260 308 402
#     4   9  21  41  65  89 115 167 222 267 316 384
#     4  10  21  37  64  96 131 168 204 259 328 386
#
# _framework density 22.489889999999999
#
# number of rings (size 3 to 8) (size 9 to 14) (size 15 to 20)
#    0.000    2.069    0.690    1.862    4.828    2.207 
#    0.000   13.103    0.000    0.000    0.000    0.000 
#    0.000    0.000    0.000    0.000    0.000    0.000 
#
# Total GULP energy -161662.970910 kJ/mol
# GULP energy per Si atom -5574.585204 kJ/mol
# Density = 2.243870 g / cm^3
# Si number density = 22.489890 Si / 1000 Ang^3
#
#
#
# Elastic Constant Matrix: (Units=GPa)
#
#
# Indices 1 2 3 4 5 6 
#
# 1 17.5425 21.6039 3.8473 0.0000 -7.8282 0.0000
# 2 21.6039 130.1008 37.1630 0.0000 -18.2467 0.0000
# 3 3.8473 37.1630 115.0497 0.0000 -5.8801 0.0000
# 4 0.0000 0.0000 0.0000 -76.9936 0.0000 62.1233
# 5 -7.8282 -18.2467 -5.8801 0.0000 21.3981 0.0000
# 6 0.0000 0.0000 0.0000 62.1233 0.0000 -16.0816
#
#
#
# Elastic Compliance Matrix: (Units=1/GPa)
#
#
# Indices 1 2 3 4 5 6 
#
# 1 0.078905 -0.010813 0.001885 0.000000 0.020164 0.000000
# 2 -0.010813 0.010967 -0.002946 0.000000 0.004586 0.000000
# 3 0.001885 -0.002946 0.009623 0.000000 0.000821 0.000000
# 4 0.000000 0.000000 0.000000 0.006135 0.000000 0.023701
# 5 0.020164 0.004586 0.000821 0.000000 0.058246 0.000000
# 6 0.000000 0.000000 0.000000 0.023701 0.000000 0.029374
#
#
# Mechanical properties :
#
#
# Convention : Reuss Voigt Hill
#
# Bulk Modulus (GPa) = 13.20218 43.10237 28.15228
# Shear Modulus (GPa) = 20.63999 -0.99683 9.82158
#
# Velocity S-wave (km/s) = 3.03272 -0.66648 2.09203
# Velocity P-wave (km/s) = 4.25983 4.31446 4.28723
#
# Compressibility (1/GPa) = 0.07574507
#
# Stress axis : x y z
#
# Youngs Moduli (GPa) = 12.67343 91.18459 103.92205
#
# Poissons Ratio (x) = 0.98598 -0.19586
# Poissons Ratio (y) = 0.13704 0.30620
# Poissons Ratio (z) = -0.02389 0.26867
#
# Static dielectric constant tensor:
#      x y z
#    x 1.850550 0.000000 -0.021560 
#    y 0.000000 1.836050 0.000000 
#    z -0.021560 0.000000 1.901450 
# 
# From -- ./inp_files/32355.got.cif
#   From: 2010.05.17/outbox.cif.g08.bks.cpg/sg12_17_cif.got.tgz:32355.got - 2010.06.03 13:09:07.
