data_PCOD9208423
_publ_section_title
;
Structure prediction by ZEFSAII (Michael W. Deem and Ramdas Pophale) SiO2 
 PCOD9208423
Probable space group: C 2/M
;
_chemical_formula_sum "Si O2"
_cell_formula_units_Z 48
_cell_length_a 22.023154
_cell_length_b 11.305717
_cell_length_c 28.628078
_cell_angle_alpha 90.000000
_cell_angle_beta 156.898868
_cell_angle_gamma 90.000000
_cell_volume 2796.722199
_symmetry_space_group_name_H-M "C 2/M"
_symmetry_group_IT_number 12
_symmetry_cell_setting 'monoclinic'
loop_
_space_group_symop_operation_xyz
x,y,z
-x,y,-z
-x,-y,-z
x,-y,z
1/2+x,1/2+y,z
1/2-x,1/2+y,-z
1/2-x,1/2-y,-z
1/2+x,1/2-y,z
loop_
_atom_site_type_symbol
_atom_site_label
_atom_site_fract_x
_atom_site_fract_y
_atom_site_fract_z
Si Si1 0.324423 0.358394 0.880794
Si Si2 0.778283 0.500000 0.681199
Si Si3 0.470861 0.500000 0.410836
Si Si4 0.007486 0.274396 0.181763
Si Si5 0.732615 0.642365 0.053187
Si Si6 0.799776 0.638597 0.386245
Si Si7 0.402967 0.234804 0.358950
O O1 0.332294 0.500000 0.883533
O O2 0.262927 0.329213 0.888852
O O3 0.213394 0.317739 0.760901
O O4 0.500000 0.312002 0.000000
O O5 0.655371 0.500000 0.551612
O O6 0.651391 0.500000 0.632413
O O7 0.890627 0.387530 0.760879
O O8 0.433863 0.369996 0.365541
O O9 0.132787 0.177571 0.286187
O O10 0.886868 0.316782 0.135558
O O11 0.908153 0.213634 0.070354
O O12 0.711574 0.500000 0.032810
O O13 0.807294 0.500000 0.380182
O O14 0.832948 0.712319 0.361726
O O15 0.931539 0.671574 0.516805
#
# Coordination Sequence:
#
# PCOD9208423 Si02
#       7
#     8   4   4   8   8   8   8
#     4  10  21  38  57  79 113 150 185 229 282 334
#     4  11  18  36  57  84 112 152 182 233 292 330
#     4  11  20  34  58  87 116 147 186 231 276 349
#     4  11  20  35  58  82 112 145 191 235 281 334
#     4  10  22  37  57  83 112 152 193 231 278 339
#     4  11  20  32  57  87 112 140 188 243 285 320
#     4  11  20  35  56  85 114 146 187 231 283 334
#
# _framework density 17.162949000000001
#
# number of rings (size 3 to 8) (size 9 to 14) (size 15 to 20)
#    0.000    1.333    4.167    4.500    0.000    1.333 
#    0.000    2.083    0.000    0.000    0.000    0.000 
#    0.000    0.000    0.000    0.000    0.000    0.000 
#
# Total GULP energy -133705.493066 kJ/mol
# GULP energy per Si atom -5571.062211 kJ/mol
# Density = 1.712389 g / cm^3
# Si number density = 17.162949 Si / 1000 Ang^3
#
#
#
# Elastic Constant Matrix: (Units=GPa)
#
#
# Indices 1 2 3 4 5 6 
#
# 1 54.2600 28.2109 67.2836 -0.0037 -6.0885 0.0106
# 2 28.2109 80.5916 40.2711 0.0125 4.0090 -0.0204
# 3 67.2836 40.2711 156.3442 0.0103 0.1631 -0.0329
# 4 -0.0037 0.0125 0.0103 -13.7621 0.0000 51.2067
# 5 -6.0885 4.0090 0.1631 0.0000 27.6419 0.0016
# 6 0.0106 -0.0204 -0.0329 51.2067 0.0016 -28.3148
#
#
#
# Elastic Compliance Matrix: (Units=1/GPa)
#
#
# Indices 1 2 3 4 5 6 
#
# 1 0.045569 -0.007697 -0.017640 -0.000023 0.011258 0.000003
# 2 -0.007697 0.015658 -0.000717 0.000006 -0.003962 -0.000003
# 3 -0.017640 -0.000717 0.014176 0.000012 -0.003865 -0.000001
# 4 -0.000023 0.000006 0.000012 0.012683 -0.000007 0.022937
# 5 0.011258 -0.003962 -0.003865 -0.000007 0.039254 0.000001
# 6 0.000003 -0.000003 -0.000001 0.022937 0.000001 0.006165
#
#
# Mechanical properties :
#
#
# Convention : Reuss Voigt Hill
#
# Bulk Modulus (GPa) = 42.92587 62.52520 52.72554
# Shear Modulus (GPa) = 25.85637 7.47503 16.66570
#
# Velocity S-wave (km/s) = 3.88561 2.08921 3.11951
# Velocity P-wave (km/s) = 6.72277 6.50608 6.61532
#
# Compressibility (1/GPa) = 0.02329597
#
# Stress axis : x y z
#
# Youngs Moduli (GPa) = 21.94496 63.86669 70.54061
#
# Poissons Ratio (x) = 0.49156 1.24433
# Poissons Ratio (y) = 0.16890 0.05056
# Poissons Ratio (z) = 0.38711 0.04577
#
# Static dielectric constant tensor:
#      x y z
#    x 1.578040 0.000000 0.020690 
#    y 0.000000 1.610270 0.000000 
#    z 0.020690 0.000000 1.575470 
# 
# From -- ./inp_files/165219.got.cif
#   From: 2010.05.17/outbox.cif.g08.bks.cpg/sg12_83_cif.got.tgz:165219.got - 2010.06.03 13:09:07.
