data_PCOD9208616
_publ_section_title
;
Structure prediction by ZEFSAII (Michael W. Deem and Ramdas Pophale) SiO2 
 PCOD9208616
Probable space group: C 2/M
;
_chemical_formula_sum "Si O2"
_cell_formula_units_Z 64
_cell_length_a 17.360266
_cell_length_b 14.795863
_cell_length_c 14.740871
_cell_angle_alpha 90.000000
_cell_angle_beta 53.648923
_cell_angle_gamma 90.000000
_cell_volume 3049.520506
_symmetry_space_group_name_H-M "C 2/M"
_symmetry_group_IT_number 12
_symmetry_cell_setting 'monoclinic'
loop_
_space_group_symop_operation_xyz
x,y,z
-x,y,-z
-x,-y,-z
x,-y,z
1/2+x,1/2+y,z
1/2-x,1/2+y,-z
1/2-x,1/2-y,-z
1/2+x,1/2-y,z
loop_
_atom_site_type_symbol
_atom_site_label
_atom_site_fract_x
_atom_site_fract_y
_atom_site_fract_z
Si Si1 0.234096 0.851711 0.483334
Si Si2 0.111892 0.895401 0.067327
Si Si3 0.819403 0.211993 0.145844
Si Si4 0.129125 0.390098 0.316825
Si Si5 0.919018 0.604219 0.445420
Si Si6 0.895342 0.898383 0.258464
Si Si7 0.765109 0.894819 0.846981
Si Si8 0.104753 0.106354 0.410435
O O1 0.250000 0.750000 0.500000
O O2 0.339568 0.891811 0.423550
O O3 0.160507 0.892874 0.607853
O O4 0.185960 0.856432 0.419758
O O5 0.197204 0.876412 0.078159
O O6 0.009061 0.888287 0.187751
O O7 0.121189 0.000000 0.031065
O O8 0.116779 0.831117 0.977736
O O9 0.715076 0.164266 0.212010
O O10 0.858426 0.177735 0.215210
O O11 0.807130 0.318479 0.137624
O O12 0.143400 0.500000 0.297913
O O13 0.124684 0.364513 0.427560
O O14 0.024934 0.359391 0.352471
O O15 0.939178 0.500000 0.450571
O O16 0.876391 0.000000 0.233698
O O17 0.857719 0.886193 0.717266
O O18 0.733103 0.000000 0.863029
O O19 0.000000 0.146699 0.500000
O O20 0.099270 0.000000 0.437382
#
# Coordination Sequence:
#
# PCOD9208616 Si02
#       8
#     8   8   8   8   8   8   8   8
#     4  12  23  35  54  89 122 161 204 241 298 363
#     4  10  22  40  64  91 121 155 199 255 313 366
#     4  12  21  36  62  94 121 156 200 253 307 366
#     4   9  18  32  55  86 120 155 192 235 299 368
#     4   9  18  34  52  78 120 163 191 233 296 362
#     4  11  22  38  62  94 128 155 190 255 322 367
#     4  10  23  42  58  81 118 162 205 247 297 354
#     4  10  21  38  59  80 110 157 206 247 289 347
#
# _framework density 20.986906000000001
#
# number of rings (size 3 to 8) (size 9 to 14) (size 15 to 20)
#    0.000    1.625    1.250    5.250    0.000    5.000 
#    0.000    0.000    0.000    1.500    0.000    3.500 
#    0.000    0.000    0.000    0.000    0.000    0.000 
#
# Total GULP energy -178707.113715 kJ/mol
# GULP energy per Si atom -5584.597304 kJ/mol
# Density = 2.093914 g / cm^3
# Si number density = 20.986906 Si / 1000 Ang^3
#
#
#
# Elastic Constant Matrix: (Units=GPa)
#
#
# Indices 1 2 3 4 5 6 
#
# 1 67.3439 7.4170 9.8584 0.0000 -3.5026 0.0000
# 2 7.4170 82.8098 -0.2148 0.0000 1.5336 0.0000
# 3 9.8584 -0.2148 33.3022 0.0000 0.0750 0.0000
# 4 0.0000 0.0000 0.0000 12.8719 0.0000 52.9247
# 5 -3.5026 1.5336 0.0750 0.0000 25.7594 0.0000
# 6 0.0000 0.0000 0.0000 52.9247 0.0000 -637.5064
#
#
#
# Elastic Compliance Matrix: (Units=1/GPa)
#
#
# Indices 1 2 3 4 5 6 
#
# 1 0.015816 -0.001470 -0.004696 0.000000 0.002252 0.000000
# 2 -0.001470 0.012226 0.000516 0.000000 -0.000929 0.000000
# 3 -0.004696 0.000516 0.031423 0.000000 -0.000761 0.000000
# 4 0.000000 0.000000 0.000000 0.057918 0.000000 0.004808
# 5 0.002252 -0.000929 -0.000761 0.000000 0.039184 0.000000
# 6 0.000000 0.000000 0.000000 0.004808 0.000000 -0.001169
#
#
# Mechanical properties :
#
#
# Convention : Reuss Voigt Hill
#
# Bulk Modulus (GPa) = 20.76244 24.17524 22.46884
# Shear Modulus (GPa) = 27.35908 -108.68200 -40.66146
#
# Velocity S-wave (km/s) = 3.61449 -7.20403 -4.40644
# Velocity P-wave (km/s) = 5.22819 7.59297 3.89354
#
# Compressibility (1/GPa) = 0.04816391
#
# Stress axis : x y z
#
# Youngs Moduli (GPa) = 63.22827 81.79206 31.82344
#
# Poissons Ratio (x) = 0.12027 0.14946
# Poissons Ratio (y) = 0.09297 -0.01643
# Poissons Ratio (z) = 0.29695 -0.04222
#
# Static dielectric constant tensor:
#      x y z
#    x 1.886580 0.000000 -0.060670 
#    y 0.000000 1.772070 0.000000 
#    z -0.060670 0.000000 1.753820 
# 
# From -- ./inp_files/225708.got.cif
#   From: 2010.05.17/outbox.cif.g08.bks.cpg/sg12_113_cif.got.tgz:225708.got - 2010.06.03 13:09:07.
