data_PCOD9208901
_publ_section_title
;
Structure prediction by ZEFSAII (Michael W. Deem and Ramdas Pophale) SiO2 
 PCOD9208901
Probable space group: C 2/M
;
_chemical_formula_sum "Si O2"
_cell_formula_units_Z 56
_cell_length_a 11.892482
_cell_length_b 15.496360
_cell_length_c 13.872506
_cell_angle_alpha 90.000000
_cell_angle_beta 68.395919
_cell_angle_gamma 90.000000
_cell_volume 2376.968525
_symmetry_space_group_name_H-M "C 2/M"
_symmetry_group_IT_number 12
_symmetry_cell_setting 'monoclinic'
loop_
_space_group_symop_operation_xyz
x,y,z
-x,y,-z
-x,-y,-z
x,-y,z
1/2+x,1/2+y,z
1/2-x,1/2+y,-z
1/2-x,1/2-y,-z
1/2+x,1/2-y,z
loop_
_atom_site_type_symbol
_atom_site_label
_atom_site_fract_x
_atom_site_fract_y
_atom_site_fract_z
Si Si1 0.983774 0.395396 0.162195
Si Si2 0.027440 0.322880 0.351083
Si Si3 0.547709 0.597918 0.176763
Si Si4 0.727995 0.147651 0.520174
Si Si5 0.084107 0.127269 0.386922
Si Si6 0.210120 0.900899 0.704662
Si Si7 0.198228 0.604309 0.949588
O O1 0.978915 0.500000 0.184468
O O2 0.984304 0.337012 0.255825
O O3 0.874918 0.373000 0.124126
O O4 0.109351 0.378188 0.066039
O O5 0.040920 0.225631 0.382866
O O6 0.162297 0.359239 0.312119
O O7 0.915391 0.367309 0.442334
O O8 0.536591 0.500000 0.142178
O O9 0.577759 0.590939 0.281692
O O10 0.413590 0.637703 0.213293
O O11 0.665640 0.640438 0.092061
O O12 0.750000 0.250000 0.500000
O O13 0.784296 0.122408 0.604986
O O14 0.796400 0.104009 0.409640
O O15 0.000000 0.093286 0.500000
O O16 0.216393 0.000000 0.732555
O O17 0.209598 0.500000 0.942515
#
# Coordination Sequence:
#
# PCOD9208901 Si02
#       7
#     8   8   8   8   8   8   8
#     4   9  18  35  61  91 119 149 195 243 290 348
#     4  12  23  36  57  83 119 154 194 239 290 353
#     4  10  21  38  60  86 116 151 196 246 290 339
#     4  12  22  39  55  78 113 162 199 232 288 344
#     4  12  22  37  59  81 112 155 198 238 285 344
#     4  11  23  37  56  85 121 156 195 242 288 345
#     4   8  16  36  63  88 115 151 192 242 296 342
#
# _framework density 23.559419999999999
#
# number of rings (size 3 to 8) (size 9 to 14) (size 15 to 20)
#    0.000    1.429    4.286    2.571    0.000    2.571 
#    0.000    1.429    0.000    3.429    0.000    0.000 
#    0.000    0.000    0.000    0.000    0.000    0.000 
#
# Total GULP energy -156409.322751 kJ/mol
# GULP energy per Si atom -5586.047241 kJ/mol
# Density = 2.350580 g / cm^3
# Si number density = 23.559420 Si / 1000 Ang^3
#
#
#
# Elastic Constant Matrix: (Units=GPa)
#
#
# Indices 1 2 3 4 5 6 
#
# 1 124.5094 7.2769 26.3684 0.0000 -52.0864 0.0000
# 2 7.2769 52.5740 0.0766 0.0000 -6.3400 0.0000
# 3 26.3684 0.0766 59.5225 0.0000 -32.2000 0.0000
# 4 0.0000 0.0000 0.0000 14.5950 0.0000 5.5503
# 5 -52.0864 -6.3400 -32.2000 0.0000 54.0100 0.0000
# 6 0.0000 0.0000 0.0000 5.5503 0.0000 16.7022
#
#
#
# Elastic Compliance Matrix: (Units=1/GPa)
#
#
# Indices 1 2 3 4 5 6 
#
# 1 0.013564 -0.000193 0.001558 0.000000 0.013987 0.000000
# 2 -0.000193 0.019424 0.001761 0.000000 0.003144 0.000000
# 3 0.001558 0.001761 0.025141 0.000000 0.016698 0.000000
# 4 0.000000 0.000000 0.000000 0.078428 0.000000 -0.026062
# 5 0.013987 0.003144 0.016698 0.000000 0.042329 0.000000
# 6 0.000000 0.000000 0.000000 -0.026062 0.000000 0.068533
#
#
# Mechanical properties :
#
#
# Convention : Reuss Voigt Hill
#
# Bulk Modulus (GPa) = 15.53220 33.78332 24.65776
# Shear Modulus (GPa) = 19.03843 30.58703 24.81273
#
# Velocity S-wave (km/s) = 2.84580 3.60709 3.24882
# Velocity P-wave (km/s) = 4.17195 5.63195 4.95601
#
# Compressibility (1/GPa) = 0.06438239
#
# Stress axis : x y z
#
# Youngs Moduli (GPa) = 73.72337 51.48247 39.77547
#
# Poissons Ratio (x) = 0.00993 -0.06197
# Poissons Ratio (y) = 0.01423 -0.07006
# Poissons Ratio (z) = -0.11487 -0.09068
#
# Static dielectric constant tensor:
#      x y z
#    x 1.953180 0.000000 -0.042100 
#    y 0.000000 1.886540 0.000000 
#    z -0.042100 0.000000 1.918120 
# 
# From -- ./inp_files/206565.got.cif
#   From: 2010.05.17/outbox.cif.g08.bks.cpg/sg12_104_cif.got.tgz:206565.got - 2010.06.03 13:09:07.
