data_PCOD9208813
_publ_section_title
;
Structure prediction by ZEFSAII (Michael W. Deem and Ramdas Pophale) SiO2 
 PCOD9208813
Probable space group: C 2/M
;
_chemical_formula_sum "Si O2"
_cell_formula_units_Z 58
_cell_length_a 24.539250
_cell_length_b 22.163274
_cell_length_c 8.122972
_cell_angle_alpha 90.000000
_cell_angle_beta 39.637056
_cell_angle_gamma 90.000000
_cell_volume 2818.239275
_symmetry_space_group_name_H-M "C 2/M"
_symmetry_group_IT_number 12
_symmetry_cell_setting 'monoclinic'
loop_
_space_group_symop_operation_xyz
x,y,z
-x,y,-z
-x,-y,-z
x,-y,z
1/2+x,1/2+y,z
1/2-x,1/2+y,-z
1/2-x,1/2-y,-z
1/2+x,1/2-y,z
loop_
_atom_site_type_symbol
_atom_site_label
_atom_site_fract_x
_atom_site_fract_y
_atom_site_fract_z
Si Si1 0.646596 0.409073 0.083529
Si Si2 0.766242 0.565522 0.111153
Si Si3 0.411040 0.834630 0.147180
Si Si4 0.500000 0.500000 0.500000
Si Si5 0.913162 0.337679 0.757507
Si Si6 0.344711 0.281517 0.779053
Si Si7 0.729063 0.607907 0.557523
Si Si8 0.596459 0.698873 0.721710
O O1 0.695408 0.431367 0.134333
O O2 0.559967 0.446319 0.279462
O O3 0.644893 0.336175 0.115307
O O4 0.695115 0.422476 0.801091
O O5 0.808920 0.500000 0.003862
O O6 0.729748 0.573429 0.380938
O O7 0.831986 0.619398 0.924332
O O8 0.326119 0.872909 0.368028
O O9 0.400373 0.770578 0.259667
O O10 0.500000 0.862979 0.000000
O O11 0.418002 0.822344 0.937679
O O12 0.903517 0.275602 0.682165
O O13 0.000000 0.369092 0.500000
O O14 0.374288 0.309328 0.535579
O O15 0.250000 0.250000 0.000000
O O16 0.667083 0.664935 0.666159
O O17 0.500000 0.679586 0.000000
#
# Coordination Sequence:
#
# PCOD9208813 Si02
#       8
#     8   8   8   2   8   8   8   8
#     4  12  26  46  70 100 145 183 239 287 352 418
#     4  11  25  48  68  95 135 180 238 288 341 428
#     4  10  21  38  60 100 143 175 229 285 352 439
#     4  12  32  48  70 112 136 202 242 280 350 436
#     4  11  23  39  68 102 134 180 228 287 364 413
#     4  12  22  41  71 102 140 183 231 297 359 420
#     4  11  24  42  71  96 133 190 233 290 354 415
#     4  11  22  37  62 103 142 180 226 287 364 422
#
# _framework density 20.580224999999999
#
# number of rings (size 3 to 8) (size 9 to 14) (size 15 to 20)
#    0.000    0.828    3.448    4.552    5.793    0.276 
#    0.000    0.690    0.000    1.655    0.000    0.000 
#    0.000    0.000    0.000    0.000    0.000    0.000 
#
# Total GULP energy -161679.606732 kJ/mol
# GULP energy per Si atom -5575.158853 kJ/mol
# Density = 2.053338 g / cm^3
# Si number density = 20.580225 Si / 1000 Ang^3
#
#
#
# Elastic Constant Matrix: (Units=GPa)
#
#
# Indices 1 2 3 4 5 6 
#
# 1 31.0833 5.2197 27.7393 0.0000 7.2198 0.0000
# 2 5.2197 83.9081 20.6164 0.0000 10.6563 0.0000
# 3 27.7393 20.6164 135.4437 0.0000 3.6231 0.0000
# 4 0.0000 0.0000 0.0000 9.7699 0.0000 -11.9931
# 5 7.2198 10.6563 3.6231 0.0000 20.4031 0.0000
# 6 0.0000 0.0000 0.0000 -11.9931 0.0000 -17.4845
#
#
#
# Elastic Compliance Matrix: (Units=1/GPa)
#
#
# Indices 1 2 3 4 5 6 
#
# 1 0.042973 0.001263 -0.008610 0.000000 -0.014337 0.000000
# 2 0.001263 0.013240 -0.002087 0.000000 -0.006991 0.000000
# 3 -0.008610 -0.002087 0.009398 0.000000 0.002468 0.000000
# 4 0.000000 0.000000 0.000000 0.055567 0.000000 -0.038115
# 5 -0.014337 -0.006991 0.002468 0.000000 0.057299 0.000000
# 6 0.000000 0.000000 0.000000 -0.038115 0.000000 -0.031049
#
#
# Mechanical properties :
#
#
# Convention : Reuss Voigt Hill
#
# Bulk Modulus (GPa) = 21.39328 39.73179 30.56254
# Shear Modulus (GPa) = 27.49128 15.66169 21.57649
#
# Velocity S-wave (km/s) = 3.65884 2.76163 3.24143
# Velocity P-wave (km/s) = 5.31668 5.43291 5.37511
#
# Compressibility (1/GPa) = 0.04674364
#
# Stress axis : x y z
#
# Youngs Moduli (GPa) = 23.27037 75.52930 106.40450
#
# Poissons Ratio (x) = -0.09539 0.91612
# Poissons Ratio (y) = -0.02939 0.22206
# Poissons Ratio (z) = 0.20035 0.15762
#
# Static dielectric constant tensor:
#      x y z
#    x 1.774370 0.000000 0.013480 
#    y 0.000000 1.753870 0.000000 
#    z 0.013480 0.000000 1.774230 
# 
# From -- ./inp_files/106893.got.cif
#   From: 2010.05.17/outbox.cif.g08.bks.cpg/sg12_54_cif.got.tgz:106893.got - 2010.06.03 13:09:07.
