data_PCOD9208563
_publ_section_title
;
Structure prediction by ZEFSAII (Michael W. Deem and Ramdas Pophale) SiO2 
 PCOD9208563
Probable space group: C 2/M
;
_chemical_formula_sum "Si O2"
_cell_formula_units_Z 56
_cell_length_a 18.235685
_cell_length_b 28.121467
_cell_length_c 9.306040
_cell_angle_alpha 90.000000
_cell_angle_beta 35.343318
_cell_angle_gamma 90.000000
_cell_volume 2760.636231
_symmetry_space_group_name_H-M "C 2/M"
_symmetry_group_IT_number 12
_symmetry_cell_setting 'monoclinic'
loop_
_space_group_symop_operation_xyz
x,y,z
-x,y,-z
-x,-y,-z
x,-y,z
1/2+x,1/2+y,z
1/2-x,1/2+y,-z
1/2-x,1/2-y,-z
1/2+x,1/2-y,z
loop_
_atom_site_type_symbol
_atom_site_label
_atom_site_fract_x
_atom_site_fract_y
_atom_site_fract_z
Si Si1 0.865254 0.375787 0.937935
Si Si2 0.854212 0.298880 0.183985
Si Si3 0.763156 0.054069 0.657972
Si Si4 0.962811 0.947306 0.726916
Si Si5 0.903427 0.444769 0.358925
Si Si6 0.757334 0.611892 0.811199
Si Si7 0.652334 0.686777 0.756942
O O1 0.850892 0.374249 0.790560
O O2 0.989634 0.404942 0.788833
O O3 0.848861 0.325156 0.039889
O O4 0.759786 0.409388 0.178514
O O5 0.738879 0.316774 0.472601
O O6 0.841726 0.241956 0.204439
O O7 0.000000 0.309409 0.000000
O O8 0.669000 0.062460 0.675938
O O9 0.909776 0.057154 0.382329
O O10 0.742596 0.000000 0.741939
O O11 0.000000 0.946355 0.500000
O O12 0.907586 0.000000 0.841259
O O13 0.871152 0.905143 0.910793
O O14 0.946540 0.500000 0.294321
O O15 0.808956 0.432893 0.639110
O O16 0.725323 0.653770 0.753076
O O17 0.500000 0.674788 0.000000
#
# Coordination Sequence:
#
# PCOD9208563 Si02
#       7
#     8   8   8   8   8   8   8
#     4  12  23  38  64  90 127 163 207 256 313 378
#     4  10  22  45  69  92 124 169 214 261 324 384
#     4  10  21  38  60  86 118 164 212 251 296 363
#     4  10  21  38  58  84 125 166 204 248 306 374
#     4  11  25  41  61  93 128 169 217 263 310 370
#     4  12  25  37  61  94 127 163 204 258 325 369
#     4  10  24  43  68  96 126 164 213 268 321 384
#
# _framework density 20.28518
#
# number of rings (size 3 to 8) (size 9 to 14) (size 15 to 20)
#    0.000    1.286    1.429    4.286    4.000    4.000 
#    0.000    2.143    0.000    5.143    0.000    0.000 
#    0.000    0.000    0.000    0.000    0.000    0.000 
#
# Total GULP energy -156272.459995 kJ/mol
# GULP energy per Si atom -5581.159286 kJ/mol
# Density = 2.023901 g / cm^3
# Si number density = 20.285180 Si / 1000 Ang^3
#
#
#
# Elastic Constant Matrix: (Units=GPa)
#
#
# Indices 1 2 3 4 5 6 
#
# 1 96.5903 31.9769 27.1320 0.0000 -4.7934 0.0000
# 2 31.9769 49.1681 21.6220 0.0000 -0.5090 0.0000
# 3 27.1320 21.6220 80.1718 0.0000 -6.7192 0.0000
# 4 0.0000 0.0000 0.0000 34.2614 0.0000 -3.2767
# 5 -4.7934 -0.5090 -6.7192 0.0000 26.9816 0.0000
# 6 0.0000 0.0000 0.0000 -3.2767 0.0000 60.4337
#
#
#
# Elastic Compliance Matrix: (Units=1/GPa)
#
#
# Indices 1 2 3 4 5 6 
#
# 1 0.013704 -0.007849 -0.002379 0.000000 0.001694 0.000000
# 2 -0.007849 0.027605 -0.004966 0.000000 -0.002110 0.000000
# 3 -0.002379 -0.004966 0.014885 0.000000 0.003190 0.000000
# 4 0.000000 0.000000 0.000000 0.029339 0.000000 0.001591
# 5 0.001694 -0.002110 0.003190 0.000000 0.038118 0.000000
# 6 0.000000 0.000000 0.000000 0.001591 0.000000 0.016633
#
#
# Mechanical properties :
#
#
# Convention : Reuss Voigt Hill
#
# Bulk Modulus (GPa) = 38.74923 43.04356 40.89639
# Shear Modulus (GPa) = 27.89052 34.01530 30.95291
#
# Velocity S-wave (km/s) = 3.71202 4.09938 3.91050
# Velocity P-wave (km/s) = 6.12501 6.60847 6.37133
#
# Compressibility (1/GPa) = 0.02580697
#
# Stress axis : x y z
#
# Youngs Moduli (GPa) = 72.97324 36.22580 67.18225
#
# Poissons Ratio (x) = 0.28432 0.15982
# Poissons Ratio (y) = 0.57274 0.33360
# Poissons Ratio (z) = 0.17360 0.17988
#
# Static dielectric constant tensor:
#      x y z
#    x 1.739080 0.000000 -0.051880 
#    y 0.000000 1.707490 0.000000 
#    z -0.051880 0.000000 1.793500 
# 
# From -- ./inp_files/80008.got.cif
#   From: 2010.05.17/outbox.cif.g08.bks.cpg/sg12_41_cif.got.tgz:80008.got - 2010.06.03 13:09:07.
