data_PCOD9208754
_publ_section_title
;
Structure prediction by ZEFSAII (Michael W. Deem and Ramdas Pophale) SiO2 
 PCOD9208754
Probable space group: C 2/M
;
_chemical_formula_sum "Si O2"
_cell_formula_units_Z 40
_cell_length_a 10.616764
_cell_length_b 21.617670
_cell_length_c 8.636281
_cell_angle_alpha 90.000000
_cell_angle_beta 89.522926
_cell_angle_gamma 90.000000
_cell_volume 1982.041557
_symmetry_space_group_name_H-M "C 2/M"
_symmetry_group_IT_number 12
_symmetry_cell_setting 'monoclinic'
loop_
_space_group_symop_operation_xyz
x,y,z
-x,y,-z
-x,-y,-z
x,-y,z
1/2+x,1/2+y,z
1/2-x,1/2+y,-z
1/2-x,1/2-y,-z
1/2+x,1/2-y,z
loop_
_atom_site_type_symbol
_atom_site_label
_atom_site_fract_x
_atom_site_fract_y
_atom_site_fract_z
Si Si1 0.962091 0.810787 0.676862
Si Si2 0.879808 0.326407 0.615735
Si Si3 0.874708 0.744666 0.102329
Si Si4 0.490261 0.930526 0.815107
Si Si5 0.780098 0.366107 0.311260
O O1 0.885212 0.744222 0.674907
O O2 0.864969 0.862283 0.738212
O O3 0.000000 0.821378 0.500000
O O4 0.082874 0.800794 0.785632
O O5 0.775855 0.346992 0.492492
O O6 0.000000 0.330547 0.500000
O O7 0.900005 0.377684 0.746107
O O8 0.850552 0.687963 0.216242
O O9 0.750000 0.750000 0.000000
O O10 0.000000 0.734180 0.000000
O O11 0.628075 0.922335 0.732213
O O12 0.444395 0.000000 0.782710
O O13 0.500000 0.923235 0.000000
#
# Coordination Sequence:
#
# PCOD9208754 Si02
#       5
#     8   8   8   8   8
#     4  11  21  37  54  83 127 162 197 238 302 372
#     4   9  18  32  53  81 113 155 189 241 294 351
#     4  12  23  35  54  86 123 164 200 248 300 364
#     4  10  21  38  59  87 121 157 205 262 311 355
#     4  11  21  35  56  84 121 161 196 248 302 362
#
# _framework density 20.181211000000001
#
# number of rings (size 3 to 8) (size 9 to 14) (size 15 to 20)
#    0.000    1.400    8.000    1.200    0.000    3.600 
#    0.000    0.000    0.000    0.600    0.000    2.800 
#    0.000    0.000    0.000    0.000    0.000    0.000 
#
# Total GULP energy -111514.970606 kJ/mol
# GULP energy per Si atom -5575.748530 kJ/mol
# Density = 2.013528 g / cm^3
# Si number density = 20.181211 Si / 1000 Ang^3
#
#
#
# Elastic Constant Matrix: (Units=GPa)
#
#
# Indices 1 2 3 4 5 6 
#
# 1 100.8237 9.0795 38.5628 0.0000 12.1060 0.0000
# 2 9.0795 51.1768 16.6324 0.0000 -1.3001 0.0000
# 3 38.5628 16.6324 108.1528 0.0000 6.9575 0.0000
# 4 0.0000 0.0000 0.0000 18.9477 0.0000 -2.8867
# 5 12.1060 -1.3001 6.9575 0.0000 37.5468 0.0000
# 6 0.0000 0.0000 0.0000 -2.8867 0.0000 19.1859
#
#
#
# Elastic Compliance Matrix: (Units=1/GPa)
#
#
# Indices 1 2 3 4 5 6 
#
# 1 0.011865 -0.000921 -0.003887 0.000000 -0.003137 0.000000
# 2 -0.000921 0.020704 -0.002956 0.000000 0.001562 0.000000
# 3 -0.003887 -0.002956 0.011145 0.000000 -0.000914 0.000000
# 4 0.000000 0.000000 0.000000 0.054015 0.000000 0.008127
# 5 -0.003137 0.001562 -0.000914 0.000000 0.027868 0.000000
# 6 0.000000 0.000000 0.000000 0.008127 0.000000 0.053344
#
#
# Mechanical properties :
#
#
# Convention : Reuss Voigt Hill
#
# Bulk Modulus (GPa) = 35.47917 43.18918 39.33417
# Shear Modulus (GPa) = 24.52601 28.19467 26.36034
#
# Velocity S-wave (km/s) = 3.48988 3.74180 3.61803
# Velocity P-wave (km/s) = 5.81872 6.33366 6.08164
#
# Compressibility (1/GPa) = 0.02818555
#
# Stress axis : x y z
#
# Youngs Moduli (GPa) = 84.28428 48.30011 89.72240
#
# Poissons Ratio (x) = 0.04450 0.34874
# Poissons Ratio (y) = 0.07766 0.26521
# Poissons Ratio (z) = 0.32761 0.14277
#
# Static dielectric constant tensor:
#      x y z
#    x 1.863480 0.000000 0.067010 
#    y 0.000000 1.698600 0.000000 
#    z 0.067010 0.000000 1.804140 
# 
# From -- ./inp_files/48697.got.cif
#   From: 2010.05.17/outbox.cif.g08.bks.cpg/sg12_25_cif.got.tgz:48697.got - 2010.06.03 13:09:07.
