data_PCOD9208506
_publ_section_title
;
Structure prediction by ZEFSAII (Michael W. Deem and Ramdas Pophale) SiO2 
 PCOD9208506
Probable space group: C 2/M
;
_chemical_formula_sum "Si O2"
_cell_formula_units_Z 56
_cell_length_a 5.296326
_cell_length_b 24.315134
_cell_length_c 21.495870
_cell_angle_alpha 90.000000
_cell_angle_beta 60.289888
_cell_angle_gamma 90.000000
_cell_volume 2404.353150
_symmetry_space_group_name_H-M "C 2/M"
_symmetry_group_IT_number 12
_symmetry_cell_setting 'monoclinic'
loop_
_space_group_symop_operation_xyz
x,y,z
-x,y,-z
-x,-y,-z
x,-y,z
1/2+x,1/2+y,z
1/2-x,1/2+y,-z
1/2-x,1/2-y,-z
1/2+x,1/2-y,z
loop_
_atom_site_type_symbol
_atom_site_label
_atom_site_fract_x
_atom_site_fract_y
_atom_site_fract_z
Si Si1 0.388633 0.719180 0.202653
Si Si2 0.649042 0.678417 0.045489
Si Si3 0.684133 0.688350 0.531778
Si Si4 0.791571 0.938754 0.923652
Si Si5 0.663672 0.623192 0.347196
Si Si6 0.646978 0.060738 0.359040
Si Si7 0.103477 0.897506 0.220478
O O1 0.067811 0.739847 0.225420
O O2 0.547822 0.714115 0.116268
O O3 0.434105 0.658769 0.225125
O O4 0.543940 0.615036 0.070334
O O5 0.500000 0.696901 0.000000
O O6 0.000000 0.677340 0.000000
O O7 0.500000 0.660889 0.500000
O O8 0.750000 0.750000 0.500000
O O9 0.477623 0.681720 0.616785
O O10 0.000000 0.663101 0.500000
O O11 0.732859 0.921015 0.859164
O O12 0.927452 0.000000 0.909440
O O13 0.500000 0.941979 0.000000
O O14 0.373913 0.584663 0.381488
O O15 0.777698 0.616760 0.262515
O O16 0.895530 0.601520 0.367773
O O17 0.860865 0.059865 0.272702
O O18 0.540758 0.000000 0.386822
#
# Coordination Sequence:
#
# PCOD9208506 Si02
#       7
#     8   8   8   8   8   8   8
#     4  11  24  39  57  84 118 155 211 269 324 393
#     4  10  21  38  58  80 111 151 199 262 324 396
#     4  10  21  41  68 102 138 178 216 265 333 392
#     4   9  18  37  62  93 126 165 216 279 348 405
#     4  10  22  40  65  97 135 173 225 274 316 401
#     4  10  21  39  67  96 130 177 229 274 324 387
#     4   9  23  40  64  90 135 173 225 281 339 397
#
# _framework density 23.291084999999999
#
# number of rings (size 3 to 8) (size 9 to 14) (size 15 to 20)
#    0.857    1.286    0.000    2.571    2.000    2.000 
#   10.286    0.000    0.000    8.571    0.000    0.000 
#    0.000    0.000    0.000    0.000    0.000    0.000 
#
# Total GULP energy -156014.772250 kJ/mol
# GULP energy per Si atom -5571.956152 kJ/mol
# Density = 2.323807 g / cm^3
# Si number density = 23.291085 Si / 1000 Ang^3
#
#
#
# Elastic Constant Matrix: (Units=GPa)
#
#
# Indices 1 2 3 4 5 6 
#
# 1 131.9566 -0.5052 1.3098 0.0000 2.8217 0.0000
# 2 -0.5052 94.4424 2.4081 0.0000 -7.5593 0.0000
# 3 1.3098 2.4081 63.4671 0.0000 -9.9919 0.0000
# 4 0.0000 0.0000 0.0000 -243.5264 0.0000 61.9181
# 5 2.8217 -7.5593 -9.9919 0.0000 17.6360 0.0000
# 6 0.0000 0.0000 0.0000 61.9181 0.0000 0.7666
#
#
#
# Elastic Compliance Matrix: (Units=1/GPa)
#
#
# Indices 1 2 3 4 5 6 
#
# 1 0.007613 -0.000067 -0.000385 0.000000 -0.001465 0.000000
# 2 -0.000067 0.010973 0.000359 0.000000 0.004917 0.000000
# 3 -0.000385 0.000359 0.017330 0.000000 0.010034 0.000000
# 4 0.000000 0.000000 0.000000 -0.000191 0.000000 0.015400
# 5 -0.001465 0.004917 0.010034 0.000000 0.064729 0.000000
# 6 0.000000 0.000000 0.000000 0.015400 0.000000 0.060571
#
#
# Mechanical properties :
#
#
# Convention : Reuss Voigt Hill
#
# Bulk Modulus (GPa) = 27.98727 32.92126 30.45426
# Shear Modulus (GPa) = 28.88160 -25.91453 1.48353
#
# Velocity S-wave (km/s) = 3.52522 -3.33924 0.79896
# Velocity P-wave (km/s) = 5.34902 0.83784 3.73564
#
# Compressibility (1/GPa) = 0.03573053
#
# Stress axis : x y z
#
# Youngs Moduli (GPa) = 131.35183 91.13662 57.70257
#
# Poissons Ratio (x) = 0.00608 0.02223
# Poissons Ratio (y) = 0.00876 -0.02073
# Poissons Ratio (z) = 0.05060 -0.03274
#
# Static dielectric constant tensor:
#      x y z
#    x 1.810010 0.000000 -0.054850 
#    y 0.000000 1.912870 0.000000 
#    z -0.054850 0.000000 1.853760 
# 
# From -- ./inp_files/298268.got.cif
#   From: 2010.05.17/outbox.cif.g08.bks.cpg/sg12_150_cif.got.tgz:298268.got - 2010.06.03 13:09:07.
