data_PCOD9208628
_publ_section_title
;
Structure prediction by ZEFSAII (Michael W. Deem and Ramdas Pophale) SiO2 
 PCOD9208628
Probable space group: C 2/M
;
_chemical_formula_sum "Si O2"
_cell_formula_units_Z 32
_cell_length_a 13.766538
_cell_length_b 13.414104
_cell_length_c 12.026137
_cell_angle_alpha 90.000000
_cell_angle_beta 30.615625
_cell_angle_gamma 90.000000
_cell_volume 1131.008511
_symmetry_space_group_name_H-M "C 2/M"
_symmetry_group_IT_number 12
_symmetry_cell_setting 'monoclinic'
loop_
_space_group_symop_operation_xyz
x,y,z
-x,y,-z
-x,-y,-z
x,-y,z
1/2+x,1/2+y,z
1/2-x,1/2+y,-z
1/2-x,1/2-y,-z
1/2+x,1/2-y,z
loop_
_atom_site_type_symbol
_atom_site_label
_atom_site_fract_x
_atom_site_fract_y
_atom_site_fract_z
Si Si1 0.688399 0.175803 0.864192
Si Si2 0.339637 0.886684 0.505765
Si Si3 0.567144 0.383427 0.580085
Si Si4 0.739712 0.385041 0.864936
O O1 0.825329 0.180616 0.620272
O O2 0.624187 0.281598 0.978347
O O3 0.837871 0.127537 0.803224
O O4 0.500000 0.124350 0.000000
O O5 0.173133 0.853966 0.588107
O O6 0.277631 0.893585 0.694681
O O7 0.556473 0.849607 0.285490
O O8 0.371416 0.000000 0.437125
O O9 0.602220 0.500000 0.518704
O O10 0.680705 0.500000 0.955980
#
# Coordination Sequence:
#
# PCOD9208628 Si02
#       4
#     8   8   8   8
#     4  11  23  36  55  83 111 146 188 224 266 322
#     4   8  15  32  59  83 105 142 183 220 273 330
#     4  10  21  38  59  81 110 146 181 225 276 321
#     4   9  18  34  56  82 112 142 177 225 275 325
#
# _framework density 28.293330999999998
#
# number of rings (size 3 to 8) (size 9 to 14) (size 15 to 20)
#    0.000    2.500    0.000    6.000    0.000    6.500 
#    0.000    5.000    0.000    9.000    0.000    0.000 
#    0.000    0.000    0.000    0.000    0.000    0.000 
#
# Total GULP energy -89340.661356 kJ/mol
# GULP energy per Si atom -5583.791335 kJ/mol
# Density = 2.822893 g / cm^3
# Si number density = 28.293331 Si / 1000 Ang^3
#
#
#
# Elastic Constant Matrix: (Units=GPa)
#
#
# Indices 1 2 3 4 5 6 
#
# 1 153.6515 15.2041 68.6168 -0.0005 -58.7591 -0.0001
# 2 15.2041 166.7550 20.3870 -0.0002 -1.6877 -0.0003
# 3 68.6168 20.3870 120.3679 -0.0033 -32.5038 0.0007
# 4 -0.0005 -0.0002 -0.0033 22.5674 0.0007 -7.4160
# 5 -58.7591 -1.6877 -32.5038 0.0007 71.9082 0.0004
# 6 -0.0001 -0.0003 0.0007 -7.4160 0.0004 32.4008
#
#
#
# Elastic Compliance Matrix: (Units=1/GPa)
#
#
# Indices 1 2 3 4 5 6 
#
# 1 0.011277 -0.000416 -0.004411 -0.000001 0.007211 0.000000
# 2 -0.000416 0.006148 -0.000976 0.000000 -0.000637 0.000000
# 3 -0.004411 -0.000976 0.011400 0.000002 0.001526 0.000000
# 4 -0.000001 0.000000 0.000002 0.047916 0.000000 0.010967
# 5 0.007211 -0.000637 0.001526 0.000000 0.020474 0.000000
# 6 0.000000 0.000000 0.000000 0.010967 0.000000 0.033374
#
#
# Mechanical properties :
#
#
# Convention : Reuss Voigt Hill
#
# Bulk Modulus (GPa) = 58.07690 72.13223 65.10457
# Shear Modulus (GPa) = 33.79925 47.81304 40.80615
#
# Velocity S-wave (km/s) = 3.46005 4.11531 3.80182
# Velocity P-wave (km/s) = 6.04433 6.93763 6.50633
#
# Compressibility (1/GPa) = 0.01721855
#
# Stress axis : x y z
#
# Youngs Moduli (GPa) = 88.67749 162.66423 87.72284
#
# Poissons Ratio (x) = 0.06766 0.38692
# Poissons Ratio (y) = 0.03689 0.08562
# Poissons Ratio (z) = 0.39113 0.15877
#
# Static dielectric constant tensor:
#      x y z
#    x 2.431260 0.000000 0.047730 
#    y 0.000000 2.257080 0.000000 
#    z 0.047730 0.000000 2.225050 
# 
# From -- ./inp_files/95212.got.cif
#   From: 2010.05.17/outbox.cif.g08.bks.cpg/sg12_48_cif.got.tgz:95212.got - 2010.06.03 13:09:07.
