data_PCOD9208210
_publ_section_title
;
Structure prediction by ZEFSAII (Michael W. Deem and Ramdas Pophale) SiO2 
 PCOD9208210
Probable space group: C 2/M
;
_chemical_formula_sum "Si O2"
_cell_formula_units_Z 44
_cell_length_a 17.968808
_cell_length_b 25.960697
_cell_length_c 5.869027
_cell_angle_alpha 90.000000
_cell_angle_beta 126.996472
_cell_angle_gamma 90.000000
_cell_volume 2186.605774
_symmetry_space_group_name_H-M "C 2/M"
_symmetry_group_IT_number 12
_symmetry_cell_setting 'monoclinic'
loop_
_space_group_symop_operation_xyz
x,y,z
-x,y,-z
-x,-y,-z
x,-y,z
1/2+x,1/2+y,z
1/2-x,1/2+y,-z
1/2-x,1/2-y,-z
1/2+x,1/2-y,z
loop_
_atom_site_type_symbol
_atom_site_label
_atom_site_fract_x
_atom_site_fract_y
_atom_site_fract_z
Si Si1 0.095887 0.060159 0.822416
Si Si2 0.000000 0.871823 0.000000
Si Si3 0.650418 0.303516 0.406442
Si Si4 0.230178 0.619266 0.074836
Si Si5 0.044676 0.437912 0.834514
Si Si6 0.722243 0.209006 0.758349
O O1 0.183646 0.085295 0.857287
O O2 0.000000 0.063639 0.500000
O O3 0.073449 0.091845 0.009300
O O4 0.113434 0.000000 0.900949
O O5 0.054696 0.833226 0.266735
O O6 0.727279 0.338739 0.673437
O O7 0.652671 0.243737 0.481178
O O8 0.683945 0.303030 0.208222
O O9 0.148807 0.584778 0.024331
O O10 0.188864 0.655433 0.798046
O O11 0.045992 0.500000 0.838749
O O12 0.000000 0.423903 0.500000
O O13 0.000000 0.422164 0.000000
O O14 0.750000 0.250000 0.000000
#
# Coordination Sequence:
#
# PCOD9208210 Si02
#       6
#     8   4   8   8   8   8
#     4  11  23  38  58  95 133 170 216 256 311 400
#     4  12  21  38  62  94 134 174 213 264 328 392
#     4  10  21  37  63  90 125 169 214 265 334 397
#     4  11  21  40  68  89 130 175 215 273 342 393
#     4  10  24  45  69  99 134 174 228 288 345 405
#     4   9  20  39  60  85 118 162 212 271 323 392
#
# _framework density 20.122509999999998
#
# number of rings (size 3 to 8) (size 9 to 14) (size 15 to 20)
#    0.000    1.636    3.636    0.818    2.545    0.000 
#    0.000    5.455    0.000    0.000    0.000    0.000 
#    0.000    0.000    0.000    0.000    0.000    0.000 
#
# Total GULP energy -122552.209235 kJ/mol
# GULP energy per Si atom -5570.554965 kJ/mol
# Density = 2.007671 g / cm^3
# Si number density = 20.122510 Si / 1000 Ang^3
#
#
#
# Elastic Constant Matrix: (Units=GPa)
#
#
# Indices 1 2 3 4 5 6 
#
# 1 146.5085 60.4867 30.8008 0.0000 -4.9694 0.0000
# 2 60.4867 97.8100 20.3906 0.0000 3.7922 0.0000
# 3 30.8008 20.3906 48.0933 0.0000 0.9878 0.0000
# 4 0.0000 0.0000 0.0000 24.1540 0.0000 -2.3126
# 5 -4.9694 3.7922 0.9878 0.0000 25.8503 0.0000
# 6 0.0000 0.0000 0.0000 -2.3126 0.0000 23.7597
#
#
#
# Elastic Compliance Matrix: (Units=1/GPa)
#
#
# Indices 1 2 3 4 5 6 
#
# 1 0.010058 -0.005459 -0.004186 0.000000 0.002894 0.000000
# 2 -0.005459 0.014234 -0.002476 0.000000 -0.003043 0.000000
# 3 -0.004186 -0.002476 0.024552 0.000000 -0.001380 0.000000
# 4 0.000000 0.000000 0.000000 0.041791 0.000000 0.004068
# 5 0.002894 -0.003043 -0.001380 0.000000 0.039740 0.000000
# 6 0.000000 0.000000 0.000000 0.004068 0.000000 0.042484
#
#
# Mechanical properties :
#
#
# Convention : Reuss Voigt Hill
#
# Bulk Modulus (GPa) = 40.64921 57.30754 48.97837
# Shear Modulus (GPa) = 24.35440 26.80169 25.57805
#
# Velocity S-wave (km/s) = 3.48272 3.65352 3.56914
# Velocity P-wave (km/s) = 6.03466 6.80725 6.43257
#
# Compressibility (1/GPa) = 0.02460073
#
# Stress axis : x y z
#
# Youngs Moduli (GPa) = 99.42665 70.25344 40.72975
#
# Poissons Ratio (x) = 0.38353 0.17050
# Poissons Ratio (y) = 0.54280 0.10085
# Poissons Ratio (z) = 0.41621 0.17396
#
# Static dielectric constant tensor:
#      x y z
#    x 1.699460 0.000000 -0.045180 
#    y 0.000000 1.698140 0.000000 
#    z -0.045180 0.000000 1.832480 
# 
# From -- ./inp_files/12065.got.cif
#   From: 2010.05.17/outbox.cif.g08.bks.cpg/sg12_7_cif.got.tgz:12065.got - 2010.06.03 13:09:07.
