data_PCOD9208785
_publ_section_title
;
Structure prediction by ZEFSAII (Michael W. Deem and Ramdas Pophale) SiO2 
 PCOD9208785
Probable space group: C 2/M
;
_chemical_formula_sum "Si O2"
_cell_formula_units_Z 40
_cell_length_a 16.991081
_cell_length_b 19.044662
_cell_length_c 5.692505
_cell_angle_alpha 90.000000
_cell_angle_beta 87.509445
_cell_angle_gamma 90.000000
_cell_volume 1840.294259
_symmetry_space_group_name_H-M "C 2/M"
_symmetry_group_IT_number 12
_symmetry_cell_setting 'monoclinic'
loop_
_space_group_symop_operation_xyz
x,y,z
-x,y,-z
-x,-y,-z
x,-y,z
1/2+x,1/2+y,z
1/2-x,1/2+y,-z
1/2-x,1/2-y,-z
1/2+x,1/2-y,z
loop_
_atom_site_type_symbol
_atom_site_label
_atom_site_fract_x
_atom_site_fract_y
_atom_site_fract_z
Si Si1 0.547003 0.919786 0.246415
Si Si2 0.142132 0.311156 0.963120
Si Si3 0.081065 0.788447 0.633725
Si Si4 0.306531 0.675078 0.764788
Si Si5 0.592775 0.576865 0.954464
O O1 0.500000 0.906800 0.500000
O O2 0.578073 0.000000 0.268056
O O3 0.500000 0.920456 0.000000
O O4 0.611879 0.861016 0.174473
O O5 0.076340 0.281518 0.793163
O O6 0.215358 0.343715 0.810618
O O7 0.172373 0.237012 0.057089
O O8 0.161243 0.789154 0.473874
O O9 0.093082 0.861377 0.766480
O O10 0.000000 0.792049 0.500000
O O11 0.361016 0.608803 0.828020
O O12 0.625060 0.500000 0.885573
O O13 0.500000 0.569092 0.000000
#
# Coordination Sequence:
#
# PCOD9208785 Si02
#       5
#     8   8   8   8   8
#     4  10  24  45  68  97 129 170 225 281 345 415
#     4  10  24  39  64  92 130 167 214 282 337 397
#     4  11  22  37  63  95 129 173 224 271 330 403
#     4  10  22  41  59  93 128 168 221 272 333 401
#     4  10  21  38  59  88 128 171 218 267 321 393
#
# _framework density 21.735655000000001
#
# number of rings (size 3 to 8) (size 9 to 14) (size 15 to 20)
#    0.000    1.800    2.000    0.600    5.600    2.000 
#    0.000    0.000    0.000    0.000    0.000    0.000 
#    0.000    0.000    0.000    0.000    0.000    0.000 
#
# Total GULP energy -111356.749522 kJ/mol
# GULP energy per Si atom -5567.837476 kJ/mol
# Density = 2.168618 g / cm^3
# Si number density = 21.735655 Si / 1000 Ang^3
#
#
#
# Elastic Constant Matrix: (Units=GPa)
#
#
# Indices 1 2 3 4 5 6 
#
# 1 54.5864 52.5741 35.3579 0.0000 -24.7144 0.0000
# 2 52.5741 137.0375 44.8261 0.0000 -2.8035 0.0000
# 3 35.3579 44.8261 103.7954 0.0000 -19.3543 0.0000
# 4 0.0000 0.0000 0.0000 41.5877 0.0000 2.2063
# 5 -24.7144 -2.8035 -19.3543 0.0000 27.9867 0.0000
# 6 0.0000 0.0000 0.0000 2.2063 0.0000 16.2357
#
#
#
# Elastic Compliance Matrix: (Units=1/GPa)
#
#
# Indices 1 2 3 4 5 6 
#
# 1 0.069812 -0.024847 -0.002318 0.000000 0.057557 0.000000
# 2 -0.024847 0.017434 -0.003250 0.000000 -0.022443 0.000000
# 3 -0.002318 -0.003250 0.013071 0.000000 0.006666 0.000000
# 4 0.000000 0.000000 0.000000 0.024220 0.000000 -0.003291
# 5 0.057557 -0.022443 0.006666 0.000000 0.088920 0.000000
# 6 0.000000 0.000000 0.000000 -0.003291 0.000000 0.062040
#
#
# Mechanical properties :
#
#
# Convention : Reuss Voigt Hill
#
# Bulk Modulus (GPa) = 25.32570 62.32615 43.82593
# Shear Modulus (GPa) = 14.30662 28.00610 21.15636
#
# Velocity S-wave (km/s) = 2.56834 3.59344 3.12324
# Velocity P-wave (km/s) = 4.52462 6.77894 5.76308
#
# Compressibility (1/GPa) = 0.03948558
#
# Stress axis : x y z
#
# Youngs Moduli (GPa) = 14.32424 57.36006 76.50810
#
# Poissons Ratio (x) = 1.42524 0.17736
# Poissons Ratio (y) = 0.35592 0.24863
# Poissons Ratio (z) = 0.03321 0.18640
#
# Static dielectric constant tensor:
#      x y z
#    x 1.856350 0.000000 -0.012640 
#    y 0.000000 1.851850 0.000000 
#    z -0.012640 0.000000 2.007310 
# 
# From -- ./inp_files/15135.got.cif
#   From: 2010.05.17/outbox.cif.g08.bks.cpg/sg12_8_cif.got.tgz:15135.got - 2010.06.03 13:09:07.
