data_PCOD9208361
_publ_section_title
;
Structure prediction by ZEFSAII (Michael W. Deem and Ramdas Pophale) SiO2 
 PCOD9208361
Probable space group: C 2/M
;
_chemical_formula_sum "Si O2"
_cell_formula_units_Z 36
_cell_length_a 5.057109
_cell_length_b 34.759077
_cell_length_c 15.070220
_cell_angle_alpha 90.000000
_cell_angle_beta 125.205360
_cell_angle_gamma 90.000000
_cell_volume 2164.514768
_symmetry_space_group_name_H-M "C 2/M"
_symmetry_group_IT_number 12
_symmetry_cell_setting 'monoclinic'
loop_
_space_group_symop_operation_xyz
x,y,z
-x,y,-z
-x,-y,-z
x,-y,z
1/2+x,1/2+y,z
1/2-x,1/2+y,-z
1/2-x,1/2-y,-z
1/2+x,1/2-y,z
loop_
_atom_site_type_symbol
_atom_site_label
_atom_site_fract_x
_atom_site_fract_y
_atom_site_fract_z
Si Si1 0.355093 0.336495 0.198435
Si Si2 0.500000 0.222341 0.000000
Si Si3 0.291463 0.224894 0.370341
Si Si4 0.240486 0.880782 0.132013
Si Si5 0.385160 0.042555 0.077669
O O1 0.213716 0.305263 0.102786
O O2 0.613381 0.313894 0.307529
O O3 0.523542 0.370896 0.175243
O O4 0.038261 0.351429 0.187358
O O5 0.250000 0.250000 0.000000
O O6 0.500000 0.219171 0.500000
O O7 0.526211 0.242362 0.341330
O O8 0.409750 0.922488 0.151546
O O9 0.000000 0.875823 0.000000
O O10 0.525832 0.000000 0.125509
O O11 0.500000 0.053408 0.000000
O O12 0.000000 0.038043 0.000000
#
# Coordination Sequence:
#
# PCOD9208361 Si02
#       5
#     8   4   8   8   8
#     4  12  21  33  49  71  97 127 160 201 243 292
#     4  12  22  32  44  64  93 126 157 188 232 290
#     4  10  21  38  55  69  89 123 167 214 253 283
#     4  11  19  32  46  71 103 131 156 190 244 286
#     4   9  17  29  46  67  95 134 169 192 221 280
#
# _framework density 16.631903000000001
#
# number of rings (size 3 to 8) (size 9 to 14) (size 15 to 20)
#    0.000    1.333    2.222    6.667    0.000    0.000 
#    0.000    0.000    0.000    0.000    0.000    0.000 
#    0.000    5.333    0.000    0.000    0.000    0.000 
#
# Total GULP energy -100346.460091 kJ/mol
# GULP energy per Si atom -5574.803338 kJ/mol
# Density = 1.659405 g / cm^3
# Si number density = 16.631903 Si / 1000 Ang^3
#
#
#
# Elastic Constant Matrix: (Units=GPa)
#
#
# Indices 1 2 3 4 5 6 
#
# 1 92.8020 6.9283 5.4665 0.0000 6.3341 0.0000
# 2 6.9283 79.1506 16.5116 0.0000 6.3363 0.0000
# 3 5.4665 16.5116 31.4403 0.0000 11.5332 0.0000
# 4 0.0000 0.0000 0.0000 14.5186 0.0000 2.7455
# 5 6.3341 6.3363 11.5332 0.0000 14.6757 0.0000
# 6 0.0000 0.0000 0.0000 2.7455 0.0000 37.1197
#
#
#
# Elastic Compliance Matrix: (Units=1/GPa)
#
#
# Indices 1 2 3 4 5 6 
#
# 1 0.011131 -0.000623 0.000078 0.000000 -0.004597 0.000000
# 2 -0.000623 0.014225 -0.007317 0.000000 -0.000122 0.000000
# 3 0.000078 -0.007317 0.048459 0.000000 -0.034957 0.000000
# 4 0.000000 0.000000 0.000000 0.069854 0.000000 -0.005167
# 5 -0.004597 -0.000122 -0.034957 0.000000 0.097648 0.000000
# 6 0.000000 0.000000 0.000000 -0.005167 0.000000 0.027322
#
#
# Mechanical properties :
#
#
# Convention : Reuss Voigt Hill
#
# Bulk Modulus (GPa) = 17.21451 29.02287 23.11869
# Shear Modulus (GPa) = 16.46213 24.89523 20.67868
#
# Velocity S-wave (km/s) = 3.14951 3.87309 3.52989
# Velocity P-wave (km/s) = 4.85784 6.12284 5.52665
#
# Compressibility (1/GPa) = 0.05809054
#
# Stress axis : x y z
#
# Youngs Moduli (GPa) = 89.83707 70.29914 20.63609
#
# Poissons Ratio (x) = 0.04377 -0.00160
# Poissons Ratio (y) = 0.05593 0.15100
# Poissons Ratio (z) = -0.00699 0.51441
#
# Static dielectric constant tensor:
#      x y z
#    x 1.576030 0.000000 -0.012440 
#    y 0.000000 1.591150 0.000000 
#    z -0.012440 0.000000 1.533940 
# 
# From -- ./inp_files/115726.got.cif
#   From: 2010.05.17/outbox.cif.g08.bks.cpg/sg12_58_cif.got.tgz:115726.got - 2010.06.03 13:09:07.
