data_PCOD9208928
_publ_section_title
;
Structure prediction by ZEFSAII (Michael W. Deem and Ramdas Pophale) SiO2 
 PCOD9208928
Probable space group: C 2/M
;
_chemical_formula_sum "Si O2"
_cell_formula_units_Z 48
_cell_length_a 5.027565
_cell_length_b 13.440772
_cell_length_c 33.369511
_cell_angle_alpha 90.000000
_cell_angle_beta 78.660908
_cell_angle_gamma 90.000000
_cell_volume 2210.908745
_symmetry_space_group_name_H-M "C 2/M"
_symmetry_group_IT_number 12
_symmetry_cell_setting 'monoclinic'
loop_
_space_group_symop_operation_xyz
x,y,z
-x,y,-z
-x,-y,-z
x,-y,z
1/2+x,1/2+y,z
1/2-x,1/2+y,-z
1/2-x,1/2-y,-z
1/2+x,1/2-y,z
loop_
_atom_site_type_symbol
_atom_site_label
_atom_site_fract_x
_atom_site_fract_y
_atom_site_fract_z
Si Si1 0.842682 0.000000 0.669144
Si Si2 0.617883 0.320026 0.956981
Si Si3 0.601204 0.318133 0.871155
Si Si4 0.412399 0.309187 0.381168
Si Si5 0.275661 0.615848 0.472243
Si Si6 0.678251 0.180000 0.218137
Si Si7 0.226125 0.500000 0.277873
O O1 0.952485 0.095933 0.642835
O O2 0.520247 0.000000 0.683201
O O3 0.986211 0.000000 0.708331
O O4 0.413145 0.225495 0.957071
O O5 0.613196 0.371877 0.913761
O O6 0.500000 0.372671 0.000000
O O7 0.299650 0.277913 0.871617
O O8 0.719986 0.365359 0.827390
O O9 0.124471 0.280932 0.370997
O O10 0.367355 0.329423 0.429576
O O11 0.500000 0.616182 0.500000
O O12 0.224300 0.500000 0.462230
O O13 0.000000 0.655839 0.500000
O O14 0.384356 0.229411 0.221647
O O15 0.692921 0.097467 0.251610
#
# Coordination Sequence:
#
# PCOD9208928 Si02
#       7
#     4   8   8   8   8   8   4
#     4  12  28  48  62  93 126 152 203 252 292 360
#     4   8  12  18  31  55  89 129 170 209 257 320
#     4   8  14  25  42  66  99 134 170 223 276 326
#     4  12  26  44  69  95 127 169 205 244 298 347
#     4  10  21  39  65  95 131 167 202 248 290 331
#     4  10  21  38  60  87 115 144 189 242 296 355
#     4  12  26  42  68  87 115 156 194 244 306 360
#
# _framework density 21.710528
#
# number of rings (size 3 to 8) (size 9 to 14) (size 15 to 20)
#    0.000    2.000    0.833    3.000    0.000    6.000 
#    0.000    0.000    0.000    0.000    0.000    0.583 
#    0.000    0.000    0.000   57.500    0.000    4.000 
#
# Total GULP energy -134086.713501 kJ/mol
# GULP energy per Si atom -5586.946396 kJ/mol
# Density = 2.166111 g / cm^3
# Si number density = 21.710528 Si / 1000 Ang^3
#
#
#
# Elastic Constant Matrix: (Units=GPa)
#
#
# Indices 1 2 3 4 5 6 
#
# 1 84.0237 -6.5629 -2.3657 0.0000 -3.2594 0.0000
# 2 -6.5629 55.3913 21.9590 0.0000 -8.9719 0.0000
# 3 -2.3657 21.9590 81.4821 0.0000 -8.4538 0.0000
# 4 0.0000 0.0000 0.0000 0.8200 0.0000 -17.3910
# 5 -3.2594 -8.9719 -8.4538 0.0000 36.2086 0.0000
# 6 0.0000 0.0000 0.0000 -17.3910 0.0000 24.9979
#
#
#
# Elastic Compliance Matrix: (Units=1/GPa)
#
#
# Indices 1 2 3 4 5 6 
#
# 1 0.012091 0.001653 0.000063 0.000000 0.001513 0.000000
# 2 0.001653 0.020971 -0.005174 0.000000 0.004137 0.000000
# 3 0.000063 -0.005174 0.013872 0.000000 0.001962 0.000000
# 4 0.000000 0.000000 0.000000 -0.088661 0.000000 -0.061681
# 5 0.001513 0.004137 0.001962 0.000000 0.029237 0.000000
# 6 0.000000 0.000000 0.000000 -0.061681 0.000000 -0.002908
#
#
# Mechanical properties :
#
#
# Convention : Reuss Voigt Hill
#
# Bulk Modulus (GPa) = 24.98999 27.43978 26.21488
# Shear Modulus (GPa) = 1029.15837 26.26307 527.71072
#
# Velocity S-wave (km/s) = 21.79600 3.48184 15.60751
# Velocity P-wave (km/s) = 25.39599 5.36942 18.35466
#
# Compressibility (1/GPa) = 0.04001602
#
# Stress axis : x y z
#
# Youngs Moduli (GPa) = 82.70664 47.68600 72.08515
#
# Poissons Ratio (x) = -0.07881 -0.00451
# Poissons Ratio (y) = -0.13669 0.37299
# Poissons Ratio (z) = -0.00517 0.24674
#
# Static dielectric constant tensor:
#      x y z
#    x 1.613330 0.000000 -0.066980 
#    y 0.000000 1.794220 0.000000 
#    z -0.066980 0.000000 1.810470 
# 
# From -- ./inp_files/371443.got.cif
#   From: 2010.05.17/outbox.cif.g08.bks.cpg/sg12_186_cif.got.tgz:371443.got - 2010.06.03 13:09:07.
