data_PCOD9208670
_publ_section_title
;
Structure prediction by ZEFSAII (Michael W. Deem and Ramdas Pophale) SiO2 
 PCOD9208670
Probable space group: C 2/M
;
_chemical_formula_sum "Si O2"
_cell_formula_units_Z 56
_cell_length_a 14.673464
_cell_length_b 10.645935
_cell_length_c 18.741758
_cell_angle_alpha 90.000000
_cell_angle_beta 109.963589
_cell_angle_gamma 90.000000
_cell_volume 2751.775226
_symmetry_space_group_name_H-M "C 2/M"
_symmetry_group_IT_number 12
_symmetry_cell_setting 'monoclinic'
loop_
_space_group_symop_operation_xyz
x,y,z
-x,y,-z
-x,-y,-z
x,-y,z
1/2+x,1/2+y,z
1/2-x,1/2+y,-z
1/2-x,1/2-y,-z
1/2+x,1/2-y,z
loop_
_atom_site_type_symbol
_atom_site_label
_atom_site_fract_x
_atom_site_fract_y
_atom_site_fract_z
Si Si1 0.909360 0.360587 0.175944
Si Si2 0.157768 0.137854 0.255718
Si Si3 0.400184 0.643221 0.517896
Si Si4 0.699770 0.355007 0.652371
Si Si5 0.100352 0.645658 0.984694
Si Si6 0.000641 0.792546 0.322556
Si Si7 0.318721 0.359139 0.895621
O O1 0.946651 0.500000 0.173468
O O2 0.794101 0.358454 0.156580
O O3 0.960771 0.314919 0.260679
O O4 0.918832 0.301811 0.099868
O O5 0.226737 0.252492 0.297253
O O6 0.065812 0.133426 0.283191
O O7 0.127386 0.158023 0.165412
O O8 0.206721 0.000000 0.272531
O O9 0.500000 0.637842 0.500000
O O10 0.381093 0.500000 0.538834
O O11 0.322099 0.676489 0.436806
O O12 0.425494 0.730117 0.591839
O O13 0.733859 0.500000 0.665649
O O14 0.596782 0.349459 0.667700
O O15 0.139748 0.500000 0.991335
O O16 0.163252 0.746587 0.044988
O O17 0.000000 0.638262 0.000000
O O18 0.341073 0.500000 0.929833
#
# Coordination Sequence:
#
# PCOD9208670 Si02
#       7
#     8   8   8   8   8   8   8
#     4  10  21  38  59  83 119 157 190 242 302 346
#     4  11  23  38  59  88 123 157 194 247 302 350
#     4   8  16  33  56  82 115 151 193 249 297 337
#     4  10  21  39  61  86 117 156 202 248 294 350
#     4  10  21  38  59  85 115 149 194 243 288 343
#     4  11  20  37  62  86 115 157 203 240 291 355
#     4  10  21  39  57  81 118 156 191 236 295 351
#
# _framework density 20.3505
#
# number of rings (size 3 to 8) (size 9 to 14) (size 15 to 20)
#    0.000    2.000    1.429    3.429    0.000    2.000 
#    0.000    2.857    0.000    2.571    0.000    0.000 
#    0.000    0.000    0.000    0.000    0.000    0.000 
#
# Total GULP energy -155869.325636 kJ/mol
# GULP energy per Si atom -5566.761630 kJ/mol
# Density = 2.030418 g / cm^3
# Si number density = 20.350500 Si / 1000 Ang^3
#
#
#
# Elastic Constant Matrix: (Units=GPa)
#
#
# Indices 1 2 3 4 5 6 
#
# 1 59.8561 10.2878 11.8170 0.0000 -12.4984 0.0000
# 2 10.2878 112.7123 73.2145 0.0000 17.8479 0.0000
# 3 11.8170 73.2145 127.0589 0.0000 -17.4781 0.0000
# 4 0.0000 0.0000 0.0000 26.6484 0.0000 1.8348
# 5 -12.4984 17.8479 -17.4781 0.0000 31.5207 0.0000
# 6 0.0000 0.0000 0.0000 1.8348 0.0000 4.3550
#
#
#
# Elastic Compliance Matrix: (Units=1/GPa)
#
#
# Indices 1 2 3 4 5 6 
#
# 1 0.019889 -0.006321 0.003648 0.000000 0.013488 0.000000
# 2 -0.006321 0.024864 -0.017344 0.000000 -0.026202 0.000000
# 3 0.003648 -0.017344 0.020650 0.000000 0.022717 0.000000
# 4 0.000000 0.000000 0.000000 0.038647 0.000000 -0.016282
# 5 0.013488 -0.026202 0.022717 0.000000 0.064506 0.000000
# 6 0.000000 0.000000 0.000000 -0.016282 0.000000 0.236478
#
#
# Mechanical properties :
#
#
# Convention : Reuss Voigt Hill
#
# Bulk Modulus (GPa) = 39.41664 54.47398 46.94531
# Shear Modulus (GPa) = 11.02476 26.12539 18.57507
#
# Velocity S-wave (km/s) = 2.33006 3.58686 3.02447
# Velocity P-wave (km/s) = 5.16235 6.63175 5.94264
#
# Compressibility (1/GPa) = 0.02537000
#
# Stress axis : x y z
#
# Youngs Moduli (GPa) = 50.27823 40.21860 48.42615
#
# Poissons Ratio (x) = 0.25421 -0.17664
# Poissons Ratio (y) = 0.31779 0.83989
# Poissons Ratio (z) = -0.18340 0.69754
#
# Static dielectric constant tensor:
#      x y z
#    x 1.767890 0.000000 -0.026900 
#    y 0.000000 1.764640 0.000000 
#    z -0.026900 0.000000 1.761190 
# 
# From -- ./inp_files/269375.got.cif
#   From: 2010.05.17/outbox.cif.g08.bks.cpg/sg12_135_cif.got.tgz:269375.got - 2010.06.03 13:09:07.
