data_PCOD9208914
_publ_section_title
;
Structure prediction by ZEFSAII (Michael W. Deem and Ramdas Pophale) SiO2 
 PCOD9208914
Probable space group: C 2/M
;
_chemical_formula_sum "Si O2"
_cell_formula_units_Z 32
_cell_length_a 21.465095
_cell_length_b 14.085878
_cell_length_c 16.903243
_cell_angle_alpha 90.000000
_cell_angle_beta 163.837882
_cell_angle_gamma 90.000000
_cell_volume 1422.615595
_symmetry_space_group_name_H-M "C 2/M"
_symmetry_group_IT_number 12
_symmetry_cell_setting 'monoclinic'
loop_
_space_group_symop_operation_xyz
x,y,z
-x,y,-z
-x,-y,-z
x,-y,z
1/2+x,1/2+y,z
1/2-x,1/2+y,-z
1/2-x,1/2-y,-z
1/2+x,1/2-y,z
loop_
_atom_site_type_symbol
_atom_site_label
_atom_site_fract_x
_atom_site_fract_y
_atom_site_fract_z
Si Si1 0.298066 0.143465 0.032771
Si Si2 0.734547 0.105326 0.828771
Si Si3 0.308273 0.608866 0.386673
Si Si4 0.982724 0.698442 0.105372
O O1 0.485574 0.147403 0.194098
O O2 0.073752 0.109628 0.715620
O O3 0.250000 0.250000 0.000000
O O4 0.323474 0.097531 0.148906
O O5 0.500000 0.128214 0.500000
O O6 0.906800 0.191942 0.023288
O O7 0.812689 0.000000 0.897956
O O8 0.236519 0.500000 0.312689
O O9 0.203824 0.648904 0.178572
O O10 0.209314 0.677138 0.334427
#
# Coordination Sequence:
#
# PCOD9208914 Si02
#       4
#     8   8   8   8
#     4  10  21  38  62  87 117 157 194 239 295 349
#     4  10  21  38  60  86 117 158 206 246 286 347
#     4  11  23  38  61  93 122 150 194 246 297 359
#     4  10  21  39  62  89 122 155 189 243 305 354
#
# _framework density 22.493777999999999
#
# number of rings (size 3 to 8) (size 9 to 14) (size 15 to 20)
#    0.000    1.750    0.000    6.000    0.000    9.000 
#    0.000    2.500    0.000   13.500    0.000    0.000 
#    0.000    0.000    0.000    0.000    0.000    0.000 
#
# Total GULP energy -89312.495560 kJ/mol
# GULP energy per Si atom -5582.030972 kJ/mol
# Density = 2.244258 g / cm^3
# Si number density = 22.493778 Si / 1000 Ang^3
#
#
#
# Elastic Constant Matrix: (Units=GPa)
#
#
# Indices 1 2 3 4 5 6 
#
# 1 129.7977 30.8401 2.9908 -0.0056 -5.8233 -0.0038
# 2 30.8401 155.9857 -0.0164 -0.0054 11.6979 -0.0068
# 3 2.9908 -0.0164 44.8910 -0.0121 -3.5645 -0.0010
# 4 -0.0056 -0.0054 -0.0121 47.7541 -0.0077 -3.5246
# 5 -5.8233 11.6979 -3.5645 -0.0077 17.6916 0.0001
# 6 -0.0038 -0.0068 -0.0010 -3.5246 0.0001 23.6526
#
#
#
# Elastic Compliance Matrix: (Units=1/GPa)
#
#
# Indices 1 2 3 4 5 6 
#
# 1 0.008352 -0.001951 -0.000240 0.000001 0.003991 0.000001
# 2 -0.001951 0.007207 -0.000302 0.000000 -0.005468 0.000002
# 3 -0.000240 -0.000302 0.022664 0.000007 0.004687 0.000002
# 4 0.000001 0.000000 0.000007 0.021174 0.000011 0.003155
# 5 0.003991 -0.005468 0.004687 0.000011 0.062397 0.000001
# 6 0.000001 0.000002 0.000002 0.003155 0.000001 0.042749
#
#
# Mechanical properties :
#
#
# Convention : Reuss Voigt Hill
#
# Bulk Modulus (GPa) = 30.08598 44.25592 37.17095
# Shear Modulus (GPa) = 27.68439 37.61031 32.64735
#
# Velocity S-wave (km/s) = 3.51202 4.09348 3.81385
# Velocity P-wave (km/s) = 5.46352 6.48534 5.99623
#
# Compressibility (1/GPa) = 0.03323807
#
# Stress axis : x y z
#
# Youngs Moduli (GPa) = 119.72686 138.76309 44.12237
#
# Poissons Ratio (x) = 0.27068 0.01060
# Poissons Ratio (y) = 0.23354 0.01331
# Poissons Ratio (z) = 0.02877 0.04185
#
# Static dielectric constant tensor:
#      x y z
#    x 1.837740 0.000000 -0.012460 
#    y 0.000000 1.886500 0.000000 
#    z -0.012460 0.000000 1.844770 
# 
# From -- ./inp_files/57891.got.cif
#   From: 2010.05.17/outbox.cif.g08.bks.cpg/sg12_29_cif.got.tgz:57891.got - 2010.06.03 13:09:07.
