data_PCOD9208470
_publ_section_title
;
Structure prediction by ZEFSAII (Michael W. Deem and Ramdas Pophale) SiO2 
 PCOD9208470
Probable space group: C 2/M
;
_chemical_formula_sum "Si O2"
_cell_formula_units_Z 50
_cell_length_a 24.521032
_cell_length_b 8.531483
_cell_length_c 15.074899
_cell_angle_alpha 90.000000
_cell_angle_beta 54.051398
_cell_angle_gamma 90.000000
_cell_volume 2553.042923
_symmetry_space_group_name_H-M "C 2/M"
_symmetry_group_IT_number 12
_symmetry_cell_setting 'monoclinic'
loop_
_space_group_symop_operation_xyz
x,y,z
-x,y,-z
-x,-y,-z
x,-y,z
1/2+x,1/2+y,z
1/2-x,1/2+y,-z
1/2-x,1/2-y,-z
1/2+x,1/2-y,z
loop_
_atom_site_type_symbol
_atom_site_label
_atom_site_fract_x
_atom_site_fract_y
_atom_site_fract_z
Si Si1 0.000000 0.000000 0.500000
Si Si2 0.095468 0.690889 0.179764
Si Si3 0.424133 0.314552 0.104187
Si Si4 0.824072 0.686060 0.729978
Si Si5 0.183265 0.314321 0.928657
Si Si6 0.555533 0.814409 0.724350
Si Si7 0.114093 0.170759 0.497853
O O1 0.044872 0.866123 0.510802
O O2 0.094635 0.500000 0.182037
O O3 0.120519 0.746258 0.251781
O O4 0.020763 0.742393 0.224342
O O5 0.149129 0.738196 0.053555
O O6 0.413559 0.500000 0.100920
O O7 0.371284 0.220894 0.095270
O O8 0.418930 0.271073 0.212208
O O9 0.500000 0.275685 0.000000
O O10 0.831367 0.500000 0.715049
O O11 0.751843 0.727073 0.839689
O O12 0.835730 0.761986 0.623501
O O13 0.196441 0.500000 0.921434
O O14 0.599248 0.778307 0.595851
O O15 0.553006 0.000000 0.743966
O O16 0.138370 0.000000 0.506653
#
# Coordination Sequence:
#
# PCOD9208470 Si02
#       7
#     2   8   8   8   8   8   8
#     4   8  20  36  62  84 126 160 204 248 296 348
#     4   9  20  35  58  89 123 159 202 247 305 363
#     4  11  23  40  61  91 121 158 204 258 310 359
#     4  11  22  39  60  88 126 167 207 250 302 370
#     4  11  22  40  61  88 123 165 208 253 306 367
#     4  11  21  38  64  92 121 159 204 256 306 361
#     4  10  21  38  57  88 122 160 203 245 303 357
#
# _framework density 19.584472000000002
#
# number of rings (size 3 to 8) (size 9 to 14) (size 15 to 20)
#    0.480    1.120    1.600    3.840    0.000    0.640 
#    0.000    6.400    0.000    0.000    0.000    0.000 
#    0.000    0.000    0.000    0.000    0.000    0.000 
#
# Total GULP energy -139354.224862 kJ/mol
# GULP energy per Si atom -5574.168994 kJ/mol
# Density = 1.953990 g / cm^3
# Si number density = 19.584472 Si / 1000 Ang^3
#
#
#
# Elastic Constant Matrix: (Units=GPa)
#
#
# Indices 1 2 3 4 5 6 
#
# 1 21.8919 -10.3366 -2.8705 0.0000 7.4748 0.0000
# 2 -10.3366 21.1757 -9.9602 0.0000 -2.8271 0.0001
# 3 -2.8705 -9.9602 96.9528 0.0000 9.0829 0.0000
# 4 0.0000 0.0000 0.0000 26.1539 0.0000 2.0158
# 5 7.4748 -2.8271 9.0829 0.0000 20.9249 0.0000
# 6 0.0000 0.0001 0.0000 2.0158 0.0000 21.7983
#
#
#
# Elastic Compliance Matrix: (Units=1/GPa)
#
#
# Indices 1 2 3 4 5 6 
#
# 1 0.071881 0.035631 0.008071 0.000000 -0.024367 0.000000
# 2 0.035631 0.067728 0.008702 0.000000 -0.007355 0.000000
# 3 0.008071 0.008702 0.012099 0.000000 -0.006960 0.000000
# 4 0.000000 0.000000 0.000000 0.038510 0.000000 -0.003561
# 5 -0.024367 -0.007355 -0.006960 0.000000 0.058522 0.000000
# 6 0.000000 0.000000 0.000000 -0.003561 0.000000 0.046205
#
#
# Mechanical properties :
#
#
# Convention : Reuss Voigt Hill
#
# Bulk Modulus (GPa) = 3.89840 10.40954 7.15397
# Shear Modulus (GPa) = 18.13956 24.65460 21.39708
#
# Velocity S-wave (km/s) = 3.04669 3.55193 3.30897
# Velocity P-wave (km/s) = 3.79095 4.70620 4.27315
#
# Compressibility (1/GPa) = 0.25651580
#
# Stress axis : x y z
#
# Youngs Moduli (GPa) = 13.91193 14.76499 82.64995
#
# Poissons Ratio (x) = -0.52609 -0.66710
# Poissons Ratio (y) = -0.49569 -0.71920
# Poissons Ratio (z) = -0.11229 -0.12848
#
# Static dielectric constant tensor:
#      x y z
#    x 1.668710 0.000000 -0.004430 
#    y 0.000000 1.675250 0.000000 
#    z -0.004430 0.000000 1.673330 
# 
# From -- ./inp_files/237255.got.cif
#   From: 2010.05.17/outbox.cif.g08.bks.cpg/sg12_119_cif.got.tgz:237255.got - 2010.06.03 13:09:07.
