data_PCOD9208609
_publ_section_title
;
Structure prediction by ZEFSAII (Michael W. Deem and Ramdas Pophale) SiO2 
 PCOD9208609
Probable space group: C 2/M
;
_chemical_formula_sum "Si O2"
_cell_formula_units_Z 64
_cell_length_a 15.013034
_cell_length_b 8.668675
_cell_length_c 22.516076
_cell_angle_alpha 90.000000
_cell_angle_beta 102.429380
_cell_angle_gamma 90.000000
_cell_volume 2861.631667
_symmetry_space_group_name_H-M "C 2/M"
_symmetry_group_IT_number 12
_symmetry_cell_setting 'monoclinic'
loop_
_space_group_symop_operation_xyz
x,y,z
-x,y,-z
-x,-y,-z
x,-y,z
1/2+x,1/2+y,z
1/2-x,1/2+y,-z
1/2-x,1/2-y,-z
1/2+x,1/2-y,z
loop_
_atom_site_type_symbol
_atom_site_label
_atom_site_fract_x
_atom_site_fract_y
_atom_site_fract_z
Si Si1 0.697720 0.317269 0.864780
Si Si2 0.356240 0.185687 0.451393
Si Si3 0.378343 0.180899 0.325349
Si Si4 0.302303 0.680373 0.768181
Si Si5 0.858950 0.184881 0.951332
Si Si6 0.459128 0.314262 0.710750
Si Si7 0.641157 0.685200 0.424083
Si Si8 0.466862 0.314681 0.089709
O O1 0.690416 0.500000 0.858680
O O2 0.750032 0.254271 0.815377
O O3 0.765328 0.272895 0.928346
O O4 0.596831 0.255023 0.866408
O O5 0.395895 0.242524 0.394297
O O6 0.394413 0.248364 0.518681
O O7 0.248347 0.226566 0.434986
O O8 0.363227 0.000000 0.452586
O O9 0.270963 0.191174 0.295937
O O10 0.437418 0.263745 0.283622
O O11 0.401841 0.000000 0.326954
O O12 0.314769 0.500000 0.784559
O O13 0.398422 0.742138 0.757374
O O14 0.931320 0.238406 0.910850
O O15 0.844510 0.000000 0.943664
O O16 0.909059 0.210446 0.020989
O O17 0.455461 0.500000 0.712743
O O18 0.410633 0.261995 0.642415
O O19 0.635492 0.500000 0.425346
O O20 0.475176 0.500000 0.098367
#
# Coordination Sequence:
#
# PCOD9208609 Si02
#       8
#     8   8   8   8   8   8   8   8
#     4  11  22  35  54  84 115 141 178 233 276 308
#     4   9  17  32  54  79 107 139 172 214 268 325
#     4  10  21  38  59  80 106 140 181 226 273 323
#     4  10  22  42  59  73 103 149 189 222 267 327
#     4   9  17  35  60  83 110 151 188 213 258 326
#     4  10  21  38  59  79 104 140 182 224 270 324
#     4   9  17  32  54  79 106 138 174 215 264 324
#     4   8  17  34  57  83 114 148 183 219 261 319
#
# _framework density 22.364861999999999
#
# number of rings (size 3 to 8) (size 9 to 14) (size 15 to 20)
#    0.000    2.500    1.250    1.500    0.000    3.500 
#    0.000    9.375    0.000    0.000    0.000    0.000 
#    0.000    0.000    0.000    0.000    0.000    0.000 
#
# Total GULP energy -178665.234359 kJ/mol
# GULP energy per Si atom -5583.288574 kJ/mol
# Density = 2.231396 g / cm^3
# Si number density = 22.364862 Si / 1000 Ang^3
#
#
#
# Elastic Constant Matrix: (Units=GPa)
#
#
# Indices 1 2 3 4 5 6 
#
# 1 110.5602 11.9004 26.8160 0.0000 -37.2047 0.0000
# 2 11.9004 5.6539 10.2724 0.0000 -13.1628 0.0000
# 3 26.8160 10.2724 72.9507 0.0000 -26.7292 0.0000
# 4 0.0000 0.0000 0.0000 26.9906 0.0000 -1.5873
# 5 -37.2047 -13.1628 -26.7292 0.0000 45.0083 0.0000
# 6 0.0000 0.0000 0.0000 -1.5873 0.0000 20.5851
#
#
#
# Elastic Compliance Matrix: (Units=1/GPa)
#
#
# Indices 1 2 3 4 5 6 
#
# 1 0.012655 -0.006084 -0.000785 0.000000 0.008215 0.000000
# 2 -0.006084 0.591574 -0.024945 0.000000 0.153164 0.000000
# 3 -0.000785 -0.024945 0.018658 0.000000 0.003136 0.000000
# 4 0.000000 0.000000 0.000000 0.037219 0.000000 0.002870
# 5 0.008215 0.153164 0.003136 0.000000 0.075665 0.000000
# 6 0.000000 0.000000 0.000000 0.002870 0.000000 0.048800
#
#
# Mechanical properties :
#
#
# Convention : Reuss Voigt Hill
#
# Bulk Modulus (GPa) = 1.78808 31.90474 16.84641
# Shear Modulus (GPa) = 4.83270 27.86187 16.34728
#
# Velocity S-wave (km/s) = 1.47158 3.53340 2.70652
# Velocity P-wave (km/s) = 1.92058 5.56265 4.16123
#
# Compressibility (1/GPa) = 0.55925797
#
# Stress axis : x y z
#
# Youngs Moduli (GPa) = 79.02301 1.69041 53.59556
#
# Poissons Ratio (x) = 0.01028 0.04207
# Poissons Ratio (y) = 0.48075 1.33697
# Poissons Ratio (z) = 0.06203 0.04217
#
# Static dielectric constant tensor:
#      x y z
#    x 1.855830 0.000000 -0.004970 
#    y 0.000000 1.751760 0.000000 
#    z -0.004970 0.000000 1.892260 
# 
# From -- ./inp_files/338812.got.cif
#   From: 2010.05.17/outbox.cif.g08.bks.cpg/sg12_170_cif.got.tgz:338812.got - 2010.06.03 13:09:07.
