data_PCOD9208527
_publ_section_title
;
Structure prediction by ZEFSAII (Michael W. Deem and Ramdas Pophale) SiO2 
 PCOD9208527
Probable space group: C 2/M
;
_chemical_formula_sum "Si O2"
_cell_formula_units_Z 56
_cell_length_a 21.716094
_cell_length_b 7.385697
_cell_length_c 20.156979
_cell_angle_alpha 90.000000
_cell_angle_beta 48.704793
_cell_angle_gamma 90.000000
_cell_volume 2428.975938
_symmetry_space_group_name_H-M "C 2/M"
_symmetry_group_IT_number 12
_symmetry_cell_setting 'monoclinic'
loop_
_space_group_symop_operation_xyz
x,y,z
-x,y,-z
-x,-y,-z
x,-y,z
1/2+x,1/2+y,z
1/2-x,1/2+y,-z
1/2-x,1/2-y,-z
1/2+x,1/2-y,z
loop_
_atom_site_type_symbol
_atom_site_label
_atom_site_fract_x
_atom_site_fract_y
_atom_site_fract_z
Si Si1 0.305655 0.286268 0.895976
Si Si2 0.608285 0.279768 0.715202
Si Si3 0.656646 0.284951 0.541767
Si Si4 0.058156 0.778707 0.106332
Si Si5 0.908816 0.708604 0.557185
Si Si6 0.239567 0.777606 0.722392
Si Si7 0.837161 0.796239 0.092290
O O1 0.308934 0.500000 0.879521
O O2 0.392720 0.224181 0.861906
O O3 0.253988 0.196687 0.874857
O O4 0.250000 0.250000 0.000000
O O5 0.606669 0.500000 0.715281
O O6 0.603148 0.220509 0.642911
O O7 0.534430 0.223876 0.815490
O O8 0.693931 0.226172 0.687193
O O9 0.647968 0.500000 0.541364
O O10 0.750000 0.250000 0.500000
O O11 0.624892 0.209335 0.494533
O O12 0.063706 0.000000 0.100168
O O13 0.103368 0.715656 0.006711
O O14 0.916417 0.500000 0.573570
O O15 0.833194 0.786367 0.653771
O O16 0.000000 0.788620 0.500000
O O17 0.182041 0.712454 0.823195
O O18 0.240681 0.000000 0.724891
O O19 0.868538 0.000000 0.081855
#
# Coordination Sequence:
#
# PCOD9208527 Si02
#       7
#     8   8   8   8   8   8   8
#     4   9  16  28  46  68  96 129 167 208 254 305
#     4   9  17  30  51  76 102 132 171 219 265 313
#     4  11  21  36  60  83 108 143 184 227 276 331
#     4   8  15  27  44  72 100 125 164 212 253 299
#     4  10  21  38  58  82 114 147 183 228 276 327
#     4   9  17  31  50  74 103 138 175 212 263 320
#     4   9  17  29  48  72 100 133 169 207 255 312
#
# _framework density 23.054984999999999
#
# number of rings (size 3 to 8) (size 9 to 14) (size 15 to 20)
#    0.000    2.714    1.429    1.714    0.000    2.000 
#    0.000    3.571    0.000    7.714    0.000    4.000 
#    0.000    0.000    0.000    0.000    0.000    0.000 
#
# Total GULP energy -156063.519245 kJ/mol
# GULP energy per Si atom -5573.697116 kJ/mol
# Density = 2.300251 g / cm^3
# Si number density = 23.054985 Si / 1000 Ang^3
#
#
#
# Elastic Constant Matrix: (Units=GPa)
#
#
# Indices 1 2 3 4 5 6 
#
# 1 72.6128 -14.5977 33.0082 -0.0004 -15.8832 0.0015
# 2 -14.5977 84.4131 -4.9967 -0.0012 -3.8945 -0.0014
# 3 33.0082 -4.9967 132.7306 0.0002 -12.0824 0.0005
# 4 -0.0004 -0.0012 0.0002 1.5530 0.0002 3.7089
# 5 -15.8832 -3.8945 -12.0824 0.0002 44.6531 -0.0002
# 6 0.0015 -0.0014 0.0005 3.7089 -0.0002 13.3091
#
#
#
# Elastic Compliance Matrix: (Units=1/GPa)
#
#
# Indices 1 2 3 4 5 6 
#
# 1 0.017230 0.003011 -0.003680 0.000028 0.005396 -0.000009
# 2 0.003011 0.012461 -0.000085 0.000024 0.002135 -0.000006
# 3 -0.003680 -0.000085 0.008537 -0.000008 0.000993 0.000002
# 4 0.000028 0.000024 -0.000008 1.925191 -0.000002 -0.536503
# 5 0.005396 0.002135 0.000993 -0.000002 0.024769 0.000000
# 6 -0.000009 -0.000006 0.000002 -0.536503 0.000000 0.224646
#
#
# Mechanical properties :
#
#
# Convention : Reuss Voigt Hill
#
# Bulk Modulus (GPa) = 27.23518 35.17604 31.20561
# Shear Modulus (GPa) = 2.24559 30.32590 16.28575
#
# Velocity S-wave (km/s) = 0.98799 3.63074 2.66068
# Velocity P-wave (km/s) = 3.62495 5.73297 4.79621
#
# Compressibility (1/GPa) = 0.03671722
#
# Stress axis : x y z
#
# Youngs Moduli (GPa) = 58.03777 80.25305 117.14366
#
# Poissons Ratio (x) = -0.24162 0.43114
# Poissons Ratio (y) = -0.17473 0.01000
# Poissons Ratio (z) = 0.21360 0.00685
#
# Static dielectric constant tensor:
#      x y z
#    x 1.893590 0.000000 -0.007710 
#    y 0.000000 1.871300 0.000000 
#    z -0.007710 0.000000 1.861850 
# 
# From -- ./inp_files/319709.got.cif
#   From: 2010.05.17/outbox.cif.g08.bks.cpg/sg12_160_cif.got.tgz:319709.got - 2010.06.03 13:09:07.
