data_PCOD9208256
_publ_section_title
;
Structure prediction by ZEFSAII (Michael W. Deem and Ramdas Pophale) SiO2 
 PCOD9208256
Probable space group: C 2/M
;
_chemical_formula_sum "Si O2"
_cell_formula_units_Z 60
_cell_length_a 14.132361
_cell_length_b 9.598590
_cell_length_c 21.679031
_cell_angle_alpha 90.000000
_cell_angle_beta 71.016822
_cell_angle_gamma 90.000000
_cell_volume 2780.839858
_symmetry_space_group_name_H-M "C 2/M"
_symmetry_group_IT_number 12
_symmetry_cell_setting 'monoclinic'
loop_
_space_group_symop_operation_xyz
x,y,z
-x,y,-z
-x,-y,-z
x,-y,z
1/2+x,1/2+y,z
1/2-x,1/2+y,-z
1/2-x,1/2-y,-z
1/2+x,1/2-y,z
loop_
_atom_site_type_symbol
_atom_site_label
_atom_site_fract_x
_atom_site_fract_y
_atom_site_fract_z
Si Si1 0.200227 0.658967 0.096840
Si Si2 0.283544 0.500000 0.506015
Si Si3 0.011949 0.339368 0.426058
Si Si4 0.696165 0.760034 0.590962
Si Si5 0.812785 0.166689 0.265528
Si Si6 0.883019 0.340332 0.025886
Si Si7 0.127314 0.840178 0.303765
Si Si8 0.031766 0.841332 0.195766
O O1 0.211510 0.500000 0.115811
O O2 0.160734 0.656535 0.034406
O O3 0.112901 0.739571 0.150646
O O4 0.305849 0.739783 0.077341
O O5 0.283662 0.621467 0.452141
O O6 0.278620 0.376339 0.559654
O O7 0.047344 0.500000 0.417533
O O8 0.082411 0.240765 0.371475
O O9 0.000000 0.298033 0.500000
O O10 0.903737 0.330103 0.416760
O O11 0.682610 0.720535 0.664737
O O12 0.720465 0.252475 0.258610
O O13 0.916800 0.197091 0.209287
O O14 0.797443 0.000000 0.268463
O O15 0.879805 0.500000 0.050592
O O16 0.000000 0.296669 0.000000
O O17 0.045707 0.842275 0.266757
O O18 0.153959 0.000000 0.311324
O O19 0.050015 0.000000 0.170075
#
# Coordination Sequence:
#
# PCOD9208256 Si02
#       8
#     8   4   8   8   8   8   8   8
#     4  10  21  37  63  97 131 169 216 260 306 359
#     4  10  24  34  60  84 112 146 196 246 314 388
#     4  11  25  40  59  86 120 155 195 255 327 387
#     4  11  22  40  59  87 117 155 198 253 318 385
#     4  11  24  43  65  85 121 163 205 259 321 380
#     4   9  19  38  64  97 136 175 210 255 305 357
#     4  11  26  43  64  91 118 156 212 263 316 385
#     4  10  23  45  64  86 125 174 212 257 315 375
#
# _framework density 21.576217
#
# number of rings (size 3 to 8) (size 9 to 14) (size 15 to 20)
#    0.000    1.600    2.667    0.800    5.600    3.733 
#    0.000    4.000    0.000    0.000    0.000    0.000 
#    0.000    0.000    0.000    0.000    0.000    0.000 
#
# Total GULP energy -167191.455176 kJ/mol
# GULP energy per Si atom -5573.048506 kJ/mol
# Density = 2.152711 g / cm^3
# Si number density = 21.576217 Si / 1000 Ang^3
#
#
#
# Elastic Constant Matrix: (Units=GPa)
#
#
# Indices 1 2 3 4 5 6 
#
# 1 72.0645 15.3048 -7.1438 0.0000 -13.4973 0.0000
# 2 15.3048 135.4563 42.8949 0.0000 -36.3828 0.0000
# 3 -7.1438 42.8949 43.2625 0.0000 -19.7967 0.0000
# 4 0.0000 0.0000 0.0000 22.2874 0.0000 -5.2163
# 5 -13.4973 -36.3828 -19.7967 0.0000 30.0983 0.0000
# 6 0.0000 0.0000 0.0000 -5.2163 0.0000 26.0944
#
#
#
# Elastic Compliance Matrix: (Units=1/GPa)
#
#
# Indices 1 2 3 4 5 6 
#
# 1 0.017700 -0.002010 0.010637 0.000000 0.012504 0.000000
# 2 -0.002010 0.012794 -0.009088 0.000000 0.008586 0.000000
# 3 0.010637 -0.009088 0.044402 0.000000 0.022989 0.000000
# 4 0.000000 0.000000 0.000000 0.047071 0.000000 0.009409
# 5 0.012504 0.008586 0.022989 0.000000 0.064332 0.000000
# 6 0.000000 0.000000 0.000000 0.009409 0.000000 0.040203
#
#
# Mechanical properties :
#
#
# Convention : Reuss Voigt Hill
#
# Bulk Modulus (GPa) = 13.51815 39.21059 26.36437
# Shear Modulus (GPa) = 19.83504 29.01118 24.42311
#
# Velocity S-wave (km/s) = 3.03529 3.67084 3.36809
# Velocity P-wave (km/s) = 4.30846 6.01492 5.23174
#
# Compressibility (1/GPa) = 0.07397463
#
# Stress axis : x y z
#
# Youngs Moduli (GPa) = 56.49791 78.16441 22.52176
#
# Poissons Ratio (x) = 0.15709 -0.23957
# Poissons Ratio (y) = 0.11355 0.20467
# Poissons Ratio (z) = -0.60099 0.71033
#
# Static dielectric constant tensor:
#      x y z
#    x 1.842970 0.000000 -0.000610 
#    y 0.000000 1.736290 0.000000 
#    z -0.000610 0.000000 1.778910 
# 
# From -- ./inp_files/338623.got.cif
#   From: 2010.05.17/outbox.cif.g08.bks.cpg/sg12_170_cif.got.tgz:338623.got - 2010.06.03 13:09:07.
