data_PCOD9208154
_publ_section_title
;
Structure prediction by ZEFSAII (Michael W. Deem and Ramdas Pophale) SiO2 
 PCOD9208154
Probable space group: C 2/M
;
_chemical_formula_sum "Si O2"
_cell_formula_units_Z 32
_cell_length_a 5.370341
_cell_length_b 37.097947
_cell_length_c 7.896959
_cell_angle_alpha 90.000000
_cell_angle_beta 61.056454
_cell_angle_gamma 90.000000
_cell_volume 1376.790315
_symmetry_space_group_name_H-M "C 2/M"
_symmetry_group_IT_number 12
_symmetry_cell_setting 'monoclinic'
loop_
_space_group_symop_operation_xyz
x,y,z
-x,y,-z
-x,-y,-z
x,-y,z
1/2+x,1/2+y,z
1/2-x,1/2+y,-z
1/2-x,1/2-y,-z
1/2+x,1/2-y,z
loop_
_atom_site_type_symbol
_atom_site_label
_atom_site_fract_x
_atom_site_fract_y
_atom_site_fract_z
Si Si1 0.835807 0.581210 0.732757
Si Si2 0.167252 0.338588 0.122435
Si Si3 0.934910 0.735418 0.281743
Si Si4 0.833311 0.041303 0.736798
O O1 0.838977 0.622381 0.789925
O O2 0.522217 0.566034 0.797780
O O3 0.000000 0.579280 0.500000
O O4 0.023335 0.557056 0.797902
O O5 0.012145 0.306369 0.272743
O O6 0.500000 0.328686 0.000000
O O7 0.000000 0.341264 0.000000
O O8 0.750000 0.750000 0.500000
O O9 0.726598 0.742152 0.192888
O O10 0.000000 0.041336 0.500000
O O11 0.825198 0.000000 0.797777
#
# Coordination Sequence:
#
# PCOD9208154 Si02
#       4
#     8   8   8   8
#     4  10  21  37  62  92 123 170 213 258 313 375
#     4  12  26  43  65  94 132 169 206 261 320 379
#     4  10  23  43  67  94 121 164 205 265 306 377
#     4   9  17  33  59  94 126 159 213 272 311 351
#
# _framework density 23.242464999999999
#
# number of rings (size 3 to 8) (size 9 to 14) (size 15 to 20)
#    0.000    1.750    0.000    3.750    3.500    6.000 
#    9.000    0.000    0.000   15.000    0.000    0.000 
#    0.000    0.000    0.000    0.000    0.000    0.000 
#
# Total GULP energy -89585.495250 kJ/mol
# GULP energy per Si atom -5599.093453 kJ/mol
# Density = 2.318956 g / cm^3
# Si number density = 23.242465 Si / 1000 Ang^3
#
#
#
# Elastic Constant Matrix: (Units=GPa)
#
#
# Indices 1 2 3 4 5 6 
#
# 1 232.1060 89.7765 47.8134 0.0000 5.6503 0.0000
# 2 89.7765 221.0552 30.4235 0.0000 8.5022 0.0000
# 3 47.8134 30.4235 79.0549 0.0000 5.9172 0.0000
# 4 0.0000 0.0000 0.0000 13.3867 0.0000 1.9445
# 5 5.6503 8.5022 5.9172 0.0000 34.4684 0.0000
# 6 0.0000 0.0000 0.0000 1.9445 0.0000 44.9504
#
#
#
# Elastic Compliance Matrix: (Units=1/GPa)
#
#
# Indices 1 2 3 4 5 6 
#
# 1 0.005591 -0.001907 -0.002649 0.000000 0.000008 0.000000
# 2 -0.001907 0.005453 -0.000879 0.000000 -0.000882 0.000000
# 3 -0.002649 -0.000879 0.014730 0.000000 -0.001878 0.000000
# 4 0.000000 0.000000 0.000000 0.075173 0.000000 -0.003252
# 5 0.000008 -0.000882 -0.001878 0.000000 0.029550 0.000000
# 6 0.000000 0.000000 0.000000 -0.003252 0.000000 0.022387
#
#
# Mechanical properties :
#
#
# Convention : Reuss Voigt Hill
#
# Bulk Modulus (GPa) = 67.08964 96.47144 81.78054
# Shear Modulus (GPa) = 29.63431 42.84128 36.23780
#
# Velocity S-wave (km/s) = 3.57460 4.29795 3.95285
# Velocity P-wave (km/s) = 6.77973 8.13796 7.48970
#
# Compressibility (1/GPa) = 0.01490543
#
# Stress axis : x y z
#
# Youngs Moduli (GPa) = 178.85239 183.38531 67.88726
#
# Poissons Ratio (x) = 0.34963 0.17980
# Poissons Ratio (y) = 0.34099 0.05970
# Poissons Ratio (z) = 0.47370 0.16128
#
# Static dielectric constant tensor:
#      x y z
#    x 1.858680 0.000000 -0.018810 
#    y 0.000000 1.793660 0.000000 
#    z -0.018810 0.000000 1.887730 
# 
# From -- ./inp_files/34325.got.cif
#   From: 2010.05.17/outbox.cif.g08.bks.cpg/sg12_18_cif.got.tgz:34325.got - 2010.06.03 13:09:07.
