data_PCOD9208352
_publ_section_title
;
Structure prediction by ZEFSAII (Michael W. Deem and Ramdas Pophale) SiO2 
 PCOD9208352
Probable space group: C 2/M
;
_chemical_formula_sum "Si O2"
_cell_formula_units_Z 42
_cell_length_a 5.245400
_cell_length_b 14.141848
_cell_length_c 25.717937
_cell_angle_alpha 90.000000
_cell_angle_beta 100.054638
_cell_angle_gamma 90.000000
_cell_volume 1878.447816
_symmetry_space_group_name_H-M "C 2/M"
_symmetry_group_IT_number 12
_symmetry_cell_setting 'monoclinic'
loop_
_space_group_symop_operation_xyz
x,y,z
-x,y,-z
-x,-y,-z
x,-y,z
1/2+x,1/2+y,z
1/2-x,1/2+y,-z
1/2-x,1/2-y,-z
1/2+x,1/2-y,z
loop_
_atom_site_type_symbol
_atom_site_label
_atom_site_fract_x
_atom_site_fract_y
_atom_site_fract_z
Si Si1 0.496780 0.612258 0.296520
Si Si2 0.451797 0.885184 0.645063
Si Si3 0.616260 0.682758 0.934458
Si Si4 0.052498 0.192909 0.185519
Si Si5 0.770390 0.355243 0.523758
Si Si6 0.500000 0.500000 0.000000
O O1 0.495639 0.500000 0.302399
O O2 0.232564 0.645634 0.313997
O O3 0.520693 0.634029 0.236669
O O4 0.754141 0.646480 0.335332
O O5 0.333659 0.852330 0.586540
O O6 0.452829 0.000000 0.643407
O O7 0.377178 0.752961 0.942458
O O8 0.550444 0.652417 0.872643
O O9 0.626385 0.586542 0.967972
O O10 0.352676 0.220014 0.188128
O O11 0.500000 0.400617 0.500000
O O12 0.750000 0.250000 0.500000
O O13 0.000000 0.401015 0.500000
#
# Coordination Sequence:
#
# PCOD9208352 Si02
#       6
#     8   8   8   8   8   2
#     4  10  21  38  61  86 120 152 203 249 304 379
#     4  10  21  38  58  85 113 151 192 250 303 362
#     4  10  24  43  66  99 146 177 234 293 331 405
#     4  10  21  41  60  92 128 168 206 262 325 366
#     4  10  21  38  53  77 110 145 185 235 293 360
#     4  12  24  42  76 104 132 206 232 274 356 388
#
# _framework density 22.358885000000001
#
# number of rings (size 3 to 8) (size 9 to 14) (size 15 to 20)
#    0.000    1.905    0.000    2.857    1.333    2.286 
#   20.571    0.000    0.000    0.000    0.000    0.000 
#    0.000    0.000    0.000    0.000    0.000    0.000 
#
# Total GULP energy -117039.716713 kJ/mol
# GULP energy per Si atom -5573.319843 kJ/mol
# Density = 2.230800 g / cm^3
# Si number density = 22.358885 Si / 1000 Ang^3
#
#
#
# Elastic Constant Matrix: (Units=GPa)
#
#
# Indices 1 2 3 4 5 6 
#
# 1 114.5775 -2.6334 14.2438 0.0000 -2.1903 0.0000
# 2 -2.6334 112.9472 4.1649 0.0000 -1.6361 0.0000
# 3 14.2438 4.1649 94.2531 0.0000 -8.2393 0.0000
# 4 0.0000 0.0000 0.0000 56.8991 0.0000 -22.4812
# 5 -2.1903 -1.6361 -8.2393 0.0000 38.5175 0.0000
# 6 0.0000 0.0000 0.0000 -22.4812 0.0000 -15.2975
#
#
#
# Elastic Compliance Matrix: (Units=1/GPa)
#
#
# Indices 1 2 3 4 5 6 
#
# 1 0.008904 0.000260 -0.001337 0.000000 0.000231 0.000000
# 2 0.000260 0.008879 -0.000405 0.000000 0.000305 0.000000
# 3 -0.001337 -0.000405 0.011028 0.000000 0.002266 0.000000
# 4 0.000000 0.000000 0.000000 0.011119 0.000000 -0.016340
# 5 0.000231 0.000305 0.002266 0.000000 0.026473 0.000000
# 6 0.000000 0.000000 0.000000 -0.016340 0.000000 -0.041356
#
#
# Mechanical properties :
#
#
# Convention : Reuss Voigt Hill
#
# Bulk Modulus (GPa) = 38.68794 39.25872 38.97333
# Shear Modulus (GPa) = 136.51569 36.42397 86.46983
#
# Velocity S-wave (km/s) = 7.82235 4.04054 6.22556
# Velocity P-wave (km/s) = 9.94617 6.27411 8.31537
#
# Compressibility (1/GPa) = 0.02584785
#
# Stress axis : x y z
#
# Youngs Moduli (GPa) = 112.30496 112.62381 90.68056
#
# Poissons Ratio (x) = -0.02931 0.12123
# Poissons Ratio (y) = -0.02923 0.03673
# Poissons Ratio (z) = 0.15014 0.04561
#
# Static dielectric constant tensor:
#      x y z
#    x 1.840880 0.000000 -0.008760 
#    y 0.000000 1.797090 0.000000 
#    z -0.008760 0.000000 1.810600 
# 
# From -- ./inp_files/330886.got.cif
#   From: 2010.05.17/outbox.cif.g08.bks.cpg/sg12_166_cif.got.tgz:330886.got - 2010.06.03 13:09:07.
