data_PCOD9208829
_publ_section_title
;
Structure prediction by ZEFSAII (Michael W. Deem and Ramdas Pophale) SiO2 
 PCOD9208829
Probable space group: C 2/M
;
_chemical_formula_sum "Si O2"
_cell_formula_units_Z 56
_cell_length_a 8.375588
_cell_length_b 19.124833
_cell_length_c 22.622370
_cell_angle_alpha 90.000000
_cell_angle_beta 123.735136
_cell_angle_gamma 90.000000
_cell_volume 3013.510445
_symmetry_space_group_name_H-M "C 2/M"
_symmetry_group_IT_number 12
_symmetry_cell_setting 'monoclinic'
loop_
_space_group_symop_operation_xyz
x,y,z
-x,y,-z
-x,-y,-z
x,-y,z
1/2+x,1/2+y,z
1/2-x,1/2+y,-z
1/2-x,1/2-y,-z
1/2+x,1/2-y,z
loop_
_atom_site_type_symbol
_atom_site_label
_atom_site_fract_x
_atom_site_fract_y
_atom_site_fract_z
Si Si1 0.323826 0.419540 0.421807
Si Si2 0.928176 0.918894 0.155061
Si Si3 0.743805 0.829170 0.289902
Si Si4 0.315107 0.914935 1.000000
Si Si5 0.941594 0.419540 0.421807
Si Si6 0.537006 0.918894 0.155061
Si Si7 0.625899 0.670830 0.289902
O O1 0.500000 0.398028 0.500000
O O2 0.360947 0.500000 0.410060
O O3 0.293181 0.370192 0.359816
O O4 0.132090 0.418871 0.421394
O O5 0.729178 0.918153 0.152786
O O6 0.078283 0.870599 0.219717
O O7 0.991491 0.000000 0.166566
O O8 0.869212 0.895068 0.076789
O O9 0.580866 0.870599 0.219716
O O10 0.685310 0.750000 0.290208
O O11 0.932650 0.829519 0.288434
O O12 0.361154 0.895068 0.076788
O O13 0.316666 0.000000 1.000000
O O14 0.500000 0.891664 0.000000
O O15 0.869230 0.500000 0.410059
O O16 0.000000 0.398029 0.500000
O O17 0.786265 0.370192 0.359816
O O18 0.508204 0.000000 0.166565
#
# Coordination Sequence:
#
# PCOD9208829 Si02
#       7
#     8   8   8   8   8   8   8
#     4  10  21  38  60  84 107 132 166 209 257 309
#     4   8  14  26  47  73  99 130 170 216 262 307
#     4  11  22  35  51  74 107 143 179 216 257 306
#     4   7  10  20  41  70  99 125 162 213 262 305
#     4  10  21  38  60  84 107 132 166 209 257 309
#     4   8  14  26  47  73  99 130 170 216 262 307
#     4  11  22  35  51  74 107 143 179 216 257 306
#
# _framework density 18.582979999999999
#
# number of rings (size 3 to 8) (size 9 to 14) (size 15 to 20)
#    0.000    2.714    0.000    4.286    0.000    3.429 
#    0.000    3.571    0.000    0.000    0.000    3.000 
#    0.000   16.000    0.000    0.000    0.000    0.000 
#
# Total GULP energy -156132.234395 kJ/mol
# GULP energy per Si atom -5576.151228 kJ/mol
# Density = 1.854068 g / cm^3
# Si number density = 18.582980 Si / 1000 Ang^3
#
#
#
# Elastic Constant Matrix: (Units=GPa)
#
#
# Indices 1 2 3 4 5 6 
#
# 1 26.7737 20.3962 31.7064 0.0000 1.2613 0.0000
# 2 20.3962 107.8474 122.2031 0.0000 8.0011 0.0000
# 3 31.7064 122.2031 228.2848 0.0000 14.5752 0.0000
# 4 0.0000 0.0000 0.0000 -4.2327 0.0000 -1.2406
# 5 1.2613 8.0011 14.5752 0.0000 6.6066 0.0000
# 6 0.0000 0.0000 0.0000 -1.2406 0.0000 11.5508
#
#
#
# Elastic Compliance Matrix: (Units=1/GPa)
#
#
# Indices 1 2 3 4 5 6 
#
# 1 0.045482 -0.003699 -0.004736 0.000000 0.006244 0.000000
# 2 -0.003699 0.023872 -0.012180 0.000000 -0.001334 0.000000
# 3 -0.004736 -0.012180 0.012290 0.000000 -0.011458 0.000000
# 4 0.000000 0.000000 0.000000 -0.229045 0.000000 -0.024600
# 5 0.006244 -0.001334 -0.011458 0.000000 0.177067 0.000000
# 6 0.000000 0.000000 0.000000 -0.024600 0.000000 0.083932
#
#
# Mechanical properties :
#
#
# Convention : Reuss Voigt Hill
#
# Bulk Modulus (GPa) = 24.74340 79.05747 51.90044
# Shear Modulus (GPa) = 29.70916 15.35830 22.53373
#
# Velocity S-wave (km/s) = 4.00275 2.87796 3.48602
# Velocity P-wave (km/s) = 5.89124 7.32658 6.64776
#
# Compressibility (1/GPa) = 0.04041481
#
# Stress axis : x y z
#
# Youngs Moduli (GPa) = 21.98684 41.88935 81.36691
#
# Poissons Ratio (x) = 0.15494 0.38532
# Poissons Ratio (y) = 0.08133 0.99107
# Poissons Ratio (z) = 0.10412 0.51022
#
# Static dielectric constant tensor:
#      x y z
#    x 1.636280 0.000000 0.001850 
#    y 0.000000 1.610310 0.000000 
#    z 0.001850 0.000000 1.659800 
# 
# From -- ./inp_files/300889.got.cif
#   From: 2010.05.17/outbox.cif.g08.bks.cpg/sg12_151_cif.got.tgz:300889.got - 2010.06.03 13:09:07.
