data_PCOD9208604
_publ_section_title
;
Structure prediction by ZEFSAII (Michael W. Deem and Ramdas Pophale) SiO2 
 PCOD9208604
Probable space group: C 2/M
;
_chemical_formula_sum "Si O2"
_cell_formula_units_Z 64
_cell_length_a 29.649323
_cell_length_b 19.373736
_cell_length_c 9.276002
_cell_angle_alpha 90.000000
_cell_angle_beta 140.447849
_cell_angle_gamma 90.000000
_cell_volume 3392.958970
_symmetry_space_group_name_H-M "C 2/M"
_symmetry_group_IT_number 12
_symmetry_cell_setting 'monoclinic'
loop_
_space_group_symop_operation_xyz
x,y,z
-x,y,-z
-x,-y,-z
x,-y,z
1/2+x,1/2+y,z
1/2-x,1/2+y,-z
1/2-x,1/2-y,-z
1/2+x,1/2-y,z
loop_
_atom_site_type_symbol
_atom_site_label
_atom_site_fract_x
_atom_site_fract_y
_atom_site_fract_z
Si Si1 0.214159 0.417878 0.218639
Si Si2 0.412534 0.159126 0.941629
Si Si3 0.918603 0.791987 0.455568
Si Si4 0.073573 0.649652 0.361377
Si Si5 0.421317 0.306753 0.116319
Si Si6 0.318382 0.578522 0.727865
Si Si7 0.284446 0.924398 0.265329
Si Si8 0.231707 0.173056 0.900569
O O1 0.208028 0.500000 0.168657
O O2 0.147178 0.392075 0.146973
O O3 0.285535 0.408771 0.489741
O O4 0.220492 0.365375 0.099864
O O5 0.410335 0.171875 0.764185
O O6 0.491313 0.129522 0.166130
O O7 0.405952 0.232951 0.004496
O O8 0.916895 0.712865 0.504771
O O9 0.911486 0.798576 0.264822
O O10 0.849342 0.826993 0.350454
O O11 0.994438 0.820894 0.692086
O O12 0.132924 0.593121 0.538161
O O13 0.373082 0.365341 0.924168
O O14 0.347274 0.500000 0.806554
O O15 0.248661 0.579310 0.657907
O O16 0.271636 0.000000 0.174565
O O17 0.240661 0.871224 0.065062
O O18 0.250000 0.250000 0.000000
#
# Coordination Sequence:
#
# PCOD9208604 Si02
#       8
#     8   8   8   8   8   8   8   8
#     4  11  25  42  60  89 126 161 200 248 302 366
#     4  10  22  37  62  89 120 157 201 248 301 356
#     4  10  21  38  59  90 120 151 198 253 307 350
#     4  10  21  38  58  92 120 154 200 247 301 360
#     4  10  21  39  62  88 119 155 200 257 300 358
#     4  10  22  40  60  86 120 160 206 249 304 364
#     4  11  22  38  59  87 122 156 198 247 298 360
#     4  12  23  39  64  90 118 157 202 249 299 357
#
# _framework density 18.862591999999999
#
# number of rings (size 3 to 8) (size 9 to 14) (size 15 to 20)
#    0.000    1.500    3.750    1.125    1.750    1.000 
#    0.000    3.750    0.000    3.000    0.000    0.000 
#    0.000    0.000    0.000    0.000    0.000    0.000 
#
# Total GULP energy -178433.478342 kJ/mol
# GULP energy per Si atom -5576.046198 kJ/mol
# Density = 1.881966 g / cm^3
# Si number density = 18.862592 Si / 1000 Ang^3
#
#
#
# Elastic Constant Matrix: (Units=GPa)
#
#
# Indices 1 2 3 4 5 6 
#
# 1 76.2554 40.2975 24.4431 0.0000 11.1786 0.0000
# 2 40.2975 117.4155 54.2487 0.0000 9.8993 0.0000
# 3 24.4431 54.2487 71.9491 0.0000 10.8897 0.0000
# 4 0.0000 0.0000 0.0000 18.4750 0.0000 -2.6988
# 5 11.1786 9.8993 10.8897 0.0000 30.6892 0.0000
# 6 0.0000 0.0000 0.0000 -2.6988 0.0000 19.2575
#
#
#
# Elastic Compliance Matrix: (Units=1/GPa)
#
#
# Indices 1 2 3 4 5 6 
#
# 1 0.016663 -0.004674 -0.001529 0.000000 -0.004020 0.000000
# 2 -0.004674 0.014397 -0.009323 0.000000 0.000366 0.000000
# 3 -0.001529 -0.009323 0.022095 0.000000 -0.004276 0.000000
# 4 0.000000 0.000000 0.000000 0.055259 0.000000 0.007744
# 5 -0.004020 0.000366 -0.004276 0.000000 0.035448 0.000000
# 6 0.000000 0.000000 0.000000 0.007744 0.000000 0.053013
#
#
# Mechanical properties :
#
#
# Convention : Reuss Voigt Hill
#
# Bulk Modulus (GPa) = 45.24030 55.95540 50.59785
# Shear Modulus (GPa) = 21.25008 23.45973 22.35490
#
# Velocity S-wave (km/s) = 3.36009 3.53046 3.44633
# Velocity P-wave (km/s) = 6.25218 6.80794 6.53597
#
# Compressibility (1/GPa) = 0.02210418
#
# Stress axis : x y z
#
# Youngs Moduli (GPa) = 60.01375 69.45716 45.25973
#
# Poissons Ratio (x) = 0.32462 0.06918
# Poissons Ratio (y) = 0.28048 0.42196
# Poissons Ratio (z) = 0.09174 0.64756
#
# Static dielectric constant tensor:
#      x y z
#    x 1.679880 0.000000 0.010000 
#    y 0.000000 1.604650 0.000000 
#    z 0.010000 0.000000 1.691150 
# 
# From -- ./inp_files/112856.got.cif
#   From: 2010.05.17/outbox.cif.g08.bks.cpg/sg12_57_cif.got.tgz:112856.got - 2010.06.03 13:09:07.
