data_PCOD9208827
_publ_section_title
;
Structure prediction by ZEFSAII (Michael W. Deem and Ramdas Pophale) SiO2 
 PCOD9208827
Probable space group: C 2/M
;
_chemical_formula_sum "Si O2"
_cell_formula_units_Z 56
_cell_length_a 9.629322
_cell_length_b 14.245335
_cell_length_c 23.381781
_cell_angle_alpha 90.000000
_cell_angle_beta 120.793894
_cell_angle_gamma 90.000000
_cell_volume 2755.157556
_symmetry_space_group_name_H-M "C 2/M"
_symmetry_group_IT_number 12
_symmetry_cell_setting 'monoclinic'
loop_
_space_group_symop_operation_xyz
x,y,z
-x,y,-z
-x,-y,-z
x,-y,z
1/2+x,1/2+y,z
1/2-x,1/2+y,-z
1/2-x,1/2-y,-z
1/2+x,1/2-y,z
loop_
_atom_site_type_symbol
_atom_site_label
_atom_site_fract_x
_atom_site_fract_y
_atom_site_fract_z
Si Si1 0.906123 0.597408 0.285221
Si Si2 0.790095 0.597116 0.876209
Si Si3 0.322666 0.716620 0.955068
Si Si4 0.023798 0.356049 0.828265
Si Si5 0.890689 0.239448 0.633139
Si Si6 0.076954 0.114407 0.579067
Si Si7 0.438511 0.344997 0.767684
O O1 0.962359 0.500000 0.323621
O O2 0.970315 0.605434 0.234368
O O3 0.714199 0.600567 0.241419
O O4 0.964486 0.685499 0.333221
O O5 0.803868 0.500000 0.912955
O O6 0.837416 0.687958 0.921778
O O7 0.609416 0.607272 0.814084
O O8 0.905773 0.594728 0.846459
O O9 0.198870 0.651803 0.894275
O O10 0.500000 0.674433 0.000000
O O11 0.250000 0.750000 0.000000
O O12 0.953815 0.251416 0.805935
O O13 0.732228 0.311188 0.605019
O O14 0.945117 0.166773 0.593755
O O15 0.904281 0.180092 0.694524
O O16 0.000000 0.110607 0.500000
O O17 0.109196 0.000000 0.601466
#
# Coordination Sequence:
#
# PCOD9208827 Si02
#       7
#     8   8   8   8   8   8   8
#     4  11  22  37  61  93 126 162 206 265 330 391
#     4  11  23  38  59  89 119 151 198 259 316 378
#     4  11  22  40  61  80 108 159 203 249 309 378
#     4  10  21  38  60  83 117 159 200 252 323 383
#     4  11  22  44  67  96 135 176 221 276 328 391
#     4  11  25  45  70 100 137 183 230 276 329 390
#     4  10  21  38  60  88 125 161 200 256 321 383
#
# _framework density 20.325517999999999
#
# number of rings (size 3 to 8) (size 9 to 14) (size 15 to 20)
#    0.000    1.286    2.857    4.286    4.000    1.429 
#    0.000    0.000    0.000    5.143    0.000    0.000 
#    0.000    0.000    0.000    0.000    0.000    0.000 
#
# Total GULP energy -155972.738888 kJ/mol
# GULP energy per Si atom -5570.454960 kJ/mol
# Density = 2.027926 g / cm^3
# Si number density = 20.325518 Si / 1000 Ang^3
#
#
#
# Elastic Constant Matrix: (Units=GPa)
#
#
# Indices 1 2 3 4 5 6 
#
# 1 82.8554 39.0386 9.7972 0.0000 -1.8965 0.0000
# 2 39.0386 108.6902 9.9853 0.0000 -7.2696 0.0000
# 3 9.7972 9.9853 50.7381 0.0000 -7.7363 0.0000
# 4 0.0000 0.0000 0.0000 -89.0167 0.0000 5.7243
# 5 -1.8965 -7.2696 -7.7363 0.0000 31.5314 0.0000
# 6 0.0000 0.0000 0.0000 5.7243 0.0000 28.3484
#
#
#
# Elastic Compliance Matrix: (Units=1/GPa)
#
#
# Indices 1 2 3 4 5 6 
#
# 1 0.014711 -0.005158 -0.001945 0.000000 -0.000781 0.000000
# 2 -0.005158 0.011275 -0.000908 0.000000 0.002066 0.000000
# 3 -0.001945 -0.000908 0.020999 0.000000 0.004826 0.000000
# 4 0.000000 0.000000 0.000000 -0.011090 0.000000 0.002239
# 5 -0.000781 0.002066 0.004826 0.000000 0.033328 0.000000
# 6 0.000000 0.000000 0.000000 0.002239 0.000000 0.034823
#
#
# Mechanical properties :
#
#
# Convention : Reuss Voigt Hill
#
# Bulk Modulus (GPa) = 32.29498 39.99176 36.14337
# Shear Modulus (GPa) = 38.34706 6.40345 22.37525
#
# Velocity S-wave (km/s) = 4.34827 1.77688 3.32150
# Velocity P-wave (km/s) = 6.41352 4.89163 5.70357
#
# Compressibility (1/GPa) = 0.03096456
#
# Stress axis : x y z
#
# Youngs Moduli (GPa) = 67.97478 88.69558 47.62109
#
# Poissons Ratio (x) = 0.45745 0.09261
# Poissons Ratio (y) = 0.35058 0.04323
# Poissons Ratio (z) = 0.13220 0.08053
#
# Static dielectric constant tensor:
#      x y z
#    x 1.753690 0.000000 0.027470 
#    y 0.000000 1.604920 0.000000 
#    z 0.027470 0.000000 1.696520 
# 
# From -- ./inp_files/300141.got.cif
#   From: 2010.05.17/outbox.cif.g08.bks.cpg/sg12_151_cif.got.tgz:300141.got - 2010.06.03 13:09:07.
