data_PCOD9208906
_publ_section_title
;
Structure prediction by ZEFSAII (Michael W. Deem and Ramdas Pophale) SiO2 
 PCOD9208906
Probable space group: C 2/M
;
_chemical_formula_sum "Si O2"
_cell_formula_units_Z 64
_cell_length_a 19.229367
_cell_length_b 8.883746
_cell_length_c 30.486920
_cell_angle_alpha 90.000000
_cell_angle_beta 40.105933
_cell_angle_gamma 90.000000
_cell_volume 3355.036918
_symmetry_space_group_name_H-M "C 2/M"
_symmetry_group_IT_number 12
_symmetry_cell_setting 'monoclinic'
loop_
_space_group_symop_operation_xyz
x,y,z
-x,y,-z
-x,-y,-z
x,-y,z
1/2+x,1/2+y,z
1/2-x,1/2+y,-z
1/2-x,1/2-y,-z
1/2+x,1/2-y,z
loop_
_atom_site_type_symbol
_atom_site_label
_atom_site_fract_x
_atom_site_fract_y
_atom_site_fract_z
Si Si1 0.530722 0.819327 0.306611
Si Si2 0.649945 0.672899 0.073271
Si Si3 0.578223 0.171036 0.832573
Si Si4 0.781879 0.317925 0.437822
Si Si5 0.829688 0.174472 0.832375
Si Si6 0.696488 0.818799 0.304383
Si Si7 0.373728 0.681623 0.568644
Si Si8 0.599100 0.826729 0.926216
O O1 0.406285 0.771667 0.370257
O O2 0.578558 0.760102 0.238014
O O3 0.608958 0.769932 0.309224
O O4 0.532634 0.000000 0.305988
O O5 0.643007 0.500000 0.061619
O O6 0.535438 0.753339 0.123019
O O7 0.666978 0.674633 0.117161
O O8 0.750000 0.750000 0.000000
O O9 0.684628 0.258277 0.765362
O O10 0.578640 0.165452 0.884954
O O11 0.582670 0.000000 0.813247
O O12 0.777601 0.500000 0.442371
O O13 0.750000 0.250000 0.500000
O O14 0.701763 0.273261 0.436463
O O15 0.714735 0.246837 0.876139
O O16 0.833242 0.000000 0.815262
O O17 0.664135 0.755748 0.367628
O O18 0.697621 0.000000 0.304780
O O19 0.500000 0.718992 0.500000
O O20 0.365639 0.500000 0.576691
O O21 0.609910 0.000000 0.938488
O O22 0.500000 0.755976 0.000000
#
# Coordination Sequence:
#
# PCOD9208906 Si02
#       8
#     8   8   8   8   8   8   8   8
#     4  10  22  39  59  86 123 159 196 248 305 355
#     4  11  24  41  61  88 122 159 204 254 308 369
#     4  11  22  38  62  87 119 161 201 251 309 361
#     4  10  22  40  62  91 122 158 199 243 297 357
#     4  10  21  38  60  86 116 156 205 248 292 356
#     4  11  23  39  60  88 124 160 201 251 302 362
#     4  10  22  40  63  92 124 159 204 251 297 359
#     4   9  17  33  58  85 111 146 197 248 295 349
#
# _framework density 19.075797000000001
#
# number of rings (size 3 to 8) (size 9 to 14) (size 15 to 20)
#    0.000    1.750    1.250    2.625    1.750    4.750 
#    0.000    0.000    0.000    1.875    0.000    0.000 
#    0.000    0.000    0.000    0.000    0.000    0.000 
#
# Total GULP energy -178578.290174 kJ/mol
# GULP energy per Si atom -5580.571568 kJ/mol
# Density = 1.903238 g / cm^3
# Si number density = 19.075797 Si / 1000 Ang^3
#
#
#
# Elastic Constant Matrix: (Units=GPa)
#
#
# Indices 1 2 3 4 5 6 
#
# 1 117.0214 40.6495 74.3677 0.0001 -22.6406 -0.0015
# 2 40.6495 47.0148 48.2111 0.0001 -8.4028 -0.0045
# 3 74.3677 48.2111 199.3972 0.0000 -20.7534 -0.0001
# 4 0.0001 0.0001 0.0000 32.4115 0.0002 4.0148
# 5 -22.6406 -8.4028 -20.7534 0.0002 40.3045 0.0000
# 6 -0.0015 -0.0045 -0.0001 4.0148 0.0000 20.5763
#
#
#
# Elastic Compliance Matrix: (Units=1/GPa)
#
#
# Indices 1 2 3 4 5 6 
#
# 1 0.014191 -0.008641 -0.002706 0.000000 0.004777 -0.000001
# 2 -0.008641 0.033786 -0.004985 -0.000001 -0.000377 0.000007
# 3 -0.002706 -0.004985 0.007358 0.000000 0.001229 -0.000001
# 4 0.000000 -0.000001 0.000000 0.031617 0.000000 -0.006169
# 5 0.004777 -0.000377 0.001229 0.000000 0.028049 0.000000
# 6 -0.000001 0.000007 -0.000001 -0.006169 0.000000 0.049803
#
#
# Mechanical properties :
#
#
# Convention : Reuss Voigt Hill
#
# Bulk Modulus (GPa) = 44.11238 76.65446 60.38342
# Shear Modulus (GPa) = 24.38723 32.00546 28.19634
#
# Velocity S-wave (km/s) = 3.57940 4.10054 3.84881
# Velocity P-wave (km/s) = 6.34491 7.91774 7.17456
#
# Compressibility (1/GPa) = 0.02266937
#
# Stress axis : x y z
#
# Youngs Moduli (GPa) = 70.46704 29.59840 135.91011
#
# Poissons Ratio (x) = 0.25575 0.36782
# Poissons Ratio (y) = 0.60889 0.67757
# Poissons Ratio (z) = 0.19071 0.14756
#
# Static dielectric constant tensor:
#      x y z
#    x 1.632000 0.000000 -0.029150 
#    y 0.000000 1.679720 0.000000 
#    z -0.029150 0.000000 1.628760 
# 
# From -- ./inp_files/378224.got.cif
#   From: 2010.05.17/outbox.cif.g08.bks.cpg/sg12_190_cif.got.tgz:378224.got - 2010.06.03 13:09:07.
