data_PCOD9208843
_publ_section_title
;
Structure prediction by ZEFSAII (Michael W. Deem and Ramdas Pophale) SiO2 
 PCOD9208843
Probable space group: C 2/M
;
_chemical_formula_sum "Si O2"
_cell_formula_units_Z 56
_cell_length_a 29.623952
_cell_length_b 8.760944
_cell_length_c 11.339718
_cell_angle_alpha 90.000000
_cell_angle_beta 77.049068
_cell_angle_gamma 90.000000
_cell_volume 2868.175923
_symmetry_space_group_name_H-M "C 2/M"
_symmetry_group_IT_number 12
_symmetry_cell_setting 'monoclinic'
loop_
_space_group_symop_operation_xyz
x,y,z
-x,y,-z
-x,-y,-z
x,-y,z
1/2+x,1/2+y,z
1/2-x,1/2+y,-z
1/2-x,1/2-y,-z
1/2+x,1/2-y,z
loop_
_atom_site_type_symbol
_atom_site_label
_atom_site_fract_x
_atom_site_fract_y
_atom_site_fract_z
Si Si1 0.270249 0.681095 0.868232
Si Si2 0.554534 0.814376 0.215314
Si Si3 0.859591 0.181596 0.442947
Si Si4 0.689259 0.317957 0.771523
Si Si5 0.449634 0.181634 0.276749
Si Si6 0.642921 0.182378 0.303166
Si Si7 0.099907 0.318589 0.941814
O O1 0.272286 0.500000 0.875687
O O2 0.235044 0.732600 0.786207
O O3 0.320313 0.748264 0.808847
O O4 0.250000 0.750000 0.000000
O O5 0.501961 0.762651 0.263998
O O6 0.591214 0.770744 0.293879
O O7 0.552333 0.000000 0.213557
O O8 0.575713 0.767870 0.076583
O O9 0.827052 0.223605 0.351009
O O10 0.911127 0.233563 0.375797
O O11 0.846390 0.260684 0.572258
O O12 0.857817 0.000000 0.457789
O O13 0.695993 0.500000 0.774255
O O14 0.646827 0.269042 0.881421
O O15 0.434731 0.199993 0.148659
O O16 0.447089 0.000000 0.304772
O O17 0.645784 0.000000 0.296260
O O18 0.110636 0.500000 0.945247
#
# Coordination Sequence:
#
# PCOD9208843 Si02
#       7
#     8   8   8   8   8   8   8
#     4  12  25  42  64  90 119 148 182 225 278 339
#     4   9  18  32  53  82 113 147 188 234 283 337
#     4  10  22  40  58  81 114 150 192 239 286 337
#     4  10  21  38  60  84 113 150 190 235 286 338
#     4   9  17  32  56  83 111 147 190 234 282 339
#     4  11  23  39  59  83 114 152 194 238 283 335
#     4   9  16  30  55  85 115 146 184 233 288 344
#
# _framework density 19.524605000000001
#
# number of rings (size 3 to 8) (size 9 to 14) (size 15 to 20)
#    0.000    2.000    0.000    3.857    0.000    5.714 
#    0.000    5.714    0.000    3.429    0.000    0.000 
#    0.000    0.000    0.000    0.000    0.000    0.000 
#
# Total GULP energy -156461.848311 kJ/mol
# GULP energy per Si atom -5587.923154 kJ/mol
# Density = 1.948017 g / cm^3
# Si number density = 19.524605 Si / 1000 Ang^3
#
#
#
# Elastic Constant Matrix: (Units=GPa)
#
#
# Indices 1 2 3 4 5 6 
#
# 1 72.8187 22.2255 -3.0135 0.0000 4.4442 0.0000
# 2 22.2255 54.8598 23.1101 0.0000 7.8688 0.0000
# 3 -3.0135 23.1101 67.4933 0.0000 8.4973 0.0000
# 4 0.0000 0.0000 0.0000 26.5342 0.0000 -2.3189
# 5 4.4442 7.8688 8.4973 0.0000 10.7543 0.0000
# 6 0.0000 0.0000 0.0000 -2.3189 0.0000 25.0725
#
#
#
# Elastic Compliance Matrix: (Units=1/GPa)
#
#
# Indices 1 2 3 4 5 6 
#
# 1 0.016515 -0.007731 0.003922 0.000000 -0.004267 0.000000
# 2 -0.007731 0.026138 -0.008095 0.000000 -0.009534 0.000000
# 3 0.003922 -0.008095 0.019124 0.000000 -0.010808 0.000000
# 4 0.000000 0.000000 0.000000 0.037994 0.000000 0.003514
# 5 -0.004267 -0.009534 -0.010808 0.000000 0.110265 0.000000
# 6 0.000000 0.000000 0.000000 0.003514 0.000000 0.040209
#
#
# Mechanical properties :
#
#
# Convention : Reuss Voigt Hill
#
# Bulk Modulus (GPa) = 26.33726 31.09067 28.71397
# Shear Modulus (GPa) = 17.43931 22.66219 20.05075
#
# Velocity S-wave (km/s) = 2.99188 3.41060 3.20808
# Velocity P-wave (km/s) = 5.04517 5.60963 5.33487
#
# Compressibility (1/GPa) = 0.03796902
#
# Stress axis : x y z
#
# Youngs Moduli (GPa) = 60.55104 38.25899 52.29100
#
# Poissons Ratio (x) = 0.29577 -0.20507
# Poissons Ratio (y) = 0.46811 0.42327
# Poissons Ratio (z) = -0.23746 0.30969
#
# Static dielectric constant tensor:
#      x y z
#    x 1.685690 0.000000 0.018210 
#    y 0.000000 1.655480 0.000000 
#    z 0.018210 0.000000 1.667360 
# 
# From -- ./inp_files/180714.got.cif
#   From: 2010.05.17/outbox.cif.g08.bks.cpg/sg12_91_cif.got.tgz:180714.got - 2010.06.03 13:09:07.
