data_PCOD9208257
_publ_section_title
;
Structure prediction by ZEFSAII (Michael W. Deem and Ramdas Pophale) SiO2 
 PCOD9208257
Probable space group: C 2/M
;
_chemical_formula_sum "Si O2"
_cell_formula_units_Z 56
_cell_length_a 21.259425
_cell_length_b 28.594126
_cell_length_c 8.830552
_cell_angle_alpha 90.000000
_cell_angle_beta 30.603206
_cell_angle_gamma 90.000000
_cell_volume 2732.816047
_symmetry_space_group_name_H-M "C 2/M"
_symmetry_group_IT_number 12
_symmetry_cell_setting 'monoclinic'
loop_
_space_group_symop_operation_xyz
x,y,z
-x,y,-z
-x,-y,-z
x,-y,z
1/2+x,1/2+y,z
1/2-x,1/2+y,-z
1/2-x,1/2-y,-z
1/2+x,1/2-y,z
loop_
_atom_site_type_symbol
_atom_site_label
_atom_site_fract_x
_atom_site_fract_y
_atom_site_fract_z
Si Si1 0.122853 0.552288 0.842821
Si Si2 0.252496 0.375436 0.762704
Si Si3 0.616223 0.126361 0.346844
Si Si4 0.969056 0.054194 0.241619
Si Si5 0.255916 0.552717 0.260087
Si Si6 0.256631 0.226690 0.321925
Si Si7 0.027476 0.728786 0.615212
O O1 0.121590 0.500000 0.911523
O O2 0.144486 0.592371 0.917364
O O3 0.229125 0.555101 0.495270
O O4 0.000000 0.558330 0.000000
O O5 0.371299 0.408663 0.504836
O O6 0.263547 0.329134 0.639304
O O7 0.215640 0.361490 0.009339
O O8 0.500000 0.104369 0.500000
O O9 0.678001 0.091330 0.335598
O O10 0.564886 0.173964 0.526878
O O11 0.926277 0.000000 0.345000
O O12 0.000000 0.061987 0.000000
O O13 0.098288 0.058697 0.062267
O O14 0.220117 0.500000 0.286867
O O15 0.250000 0.250000 0.500000
O O16 0.145117 0.246759 0.449332
O O17 0.396390 0.234714 0.971397
O O18 0.000000 0.744628 0.500000
#
# Coordination Sequence:
#
# PCOD9208257 Si02
#       7
#     8   8   8   8   8   8   8
#     4  10  21  37  63  97 134 181 228 278 337 398
#     4  12  24  41  68 101 132 177 229 277 346 409
#     4  11  24  44  68  97 133 183 224 274 346 415
#     4  10  21  41  66  95 139 182 222 279 340 400
#     4  10  22  40  64  97 138 185 228 276 340 402
#     4  12  28  47  74 109 138 178 239 301 356 418
#     4  11  25  51  74  98 144 188 226 287 366 435
#
# _framework density 20.491682999999998
#
# number of rings (size 3 to 8) (size 9 to 14) (size 15 to 20)
#    0.000    1.143    4.286    2.143    2.000    4.286 
#    0.000    1.429    0.000    0.000    0.000    0.000 
#    0.000    0.000    0.000    0.000    0.000    0.000 
#
# Total GULP energy -156454.913537 kJ/mol
# GULP energy per Si atom -5587.675483 kJ/mol
# Density = 2.044504 g / cm^3
# Si number density = 20.491683 Si / 1000 Ang^3
#
#
#
# Elastic Constant Matrix: (Units=GPa)
#
#
# Indices 1 2 3 4 5 6 
#
# 1 103.4766 67.9892 44.2192 0.0000 -12.5919 0.0000
# 2 67.9892 114.4150 59.3982 0.0000 -2.4034 0.0000
# 3 44.2192 59.3982 149.6126 0.0000 -6.3913 0.0000
# 4 0.0000 0.0000 0.0000 -38.2179 0.0000 4.1484
# 5 -12.5919 -2.4034 -6.3913 0.0000 37.6355 0.0000
# 6 0.0000 0.0000 0.0000 4.1484 0.0000 38.1458
#
#
#
# Elastic Compliance Matrix: (Units=1/GPa)
#
#
# Indices 1 2 3 4 5 6 
#
# 1 0.016865 -0.009371 -0.001056 0.000000 0.004865 0.000000
# 2 -0.009371 0.016216 -0.003786 0.000000 -0.002743 0.000000
# 3 -0.001056 -0.003786 0.008536 0.000000 0.000854 0.000000
# 4 0.000000 0.000000 0.000000 -0.025861 0.000000 0.002812
# 5 0.004865 -0.002743 0.000854 0.000000 0.028168 0.000000
# 6 0.000000 0.000000 0.000000 0.002812 0.000000 0.025909
#
#
# Mechanical properties :
#
#
# Convention : Reuss Voigt Hill
#
# Bulk Modulus (GPa) = 75.81026 78.96858 77.38942
# Shear Modulus (GPa) = 48.70642 20.57254 34.63948
#
# Velocity S-wave (km/s) = 4.88062 3.17195 4.11593
# Velocity P-wave (km/s) = 8.29678 7.21357 7.77406
#
# Compressibility (1/GPa) = 0.01319083
#
# Stress axis : x y z
#
# Youngs Moduli (GPa) = 59.29608 61.66640 117.15722
#
# Poissons Ratio (x) = 0.57787 0.12375
# Poissons Ratio (y) = 0.55566 0.44351
# Poissons Ratio (z) = 0.06263 0.23344
#
# Static dielectric constant tensor:
#      x y z
#    x 1.728750 0.000000 -0.008420 
#    y 0.000000 1.702970 0.000000 
#    z -0.008420 0.000000 1.794070 
# 
# From -- ./inp_files/91554.got.cif
#   From: 2010.05.17/outbox.cif.g08.bks.cpg/sg12_46_cif.got.tgz:91554.got - 2010.06.03 13:09:07.
