data_PCOD9208348
_publ_section_title
;
Structure prediction by ZEFSAII (Michael W. Deem and Ramdas Pophale) SiO2 
 PCOD9208348
Probable space group: C 2/M
;
_chemical_formula_sum "Si O2"
_cell_formula_units_Z 40
_cell_length_a 13.058488
_cell_length_b 10.024014
_cell_length_c 15.655656
_cell_angle_alpha 90.000000
_cell_angle_beta 58.623413
_cell_angle_gamma 90.000000
_cell_volume 1749.618967
_symmetry_space_group_name_H-M "C 2/M"
_symmetry_group_IT_number 12
_symmetry_cell_setting 'monoclinic'
loop_
_space_group_symop_operation_xyz
x,y,z
-x,y,-z
-x,-y,-z
x,-y,z
1/2+x,1/2+y,z
1/2-x,1/2+y,-z
1/2-x,1/2-y,-z
1/2+x,1/2-y,z
loop_
_atom_site_type_symbol
_atom_site_label
_atom_site_fract_x
_atom_site_fract_y
_atom_site_fract_z
Si Si1 0.007307 0.793446 0.395648
Si Si2 0.546411 0.000000 0.621507
Si Si3 0.354893 0.223646 0.887420
Si Si4 0.035849 0.500000 0.830630
Si Si5 0.960895 0.000000 0.877051
Si Si6 0.810987 0.000000 0.480931
Si Si7 0.198967 0.000000 0.878463
Si Si8 0.797966 0.000000 0.695863
O O1 0.012571 0.639272 0.374458
O O2 0.000000 0.810488 0.500000
O O3 0.887200 0.871519 0.417451
O O4 0.124324 0.871278 0.315847
O O5 0.554742 0.000000 0.720098
O O6 0.673025 0.000000 0.515679
O O7 0.421499 0.365118 0.845137
O O8 0.286640 0.129435 0.847418
O O9 0.456950 0.128836 0.884787
O O10 0.250000 0.250000 0.000000
O O11 0.172808 0.500000 0.800006
O O12 0.101182 0.000000 0.844692
O O13 0.882392 0.000000 0.999412
O O14 0.798276 0.000000 0.590721
#
# Coordination Sequence:
#
# PCOD9208348 Si02
#       8
#     8   4   8   4   4   4   4   4
#     4   9  17  32  53  80 110 147 186 215 257 330
#     4  11  19  30  53  82 112 140 176 236 278 310
#     4   9  18  36  59  80 107 143 189 242 290 353
#     4  10  21  38  52  76 112 145 179 233 305 336
#     4   9  16  32  58  81 102 141 178 230 288 342
#     4   8  16  31  54  74 104 147 180 211 256 321
#     4   8  16  32  56  83 109 128 178 235 288 347
#     4   8  17  35  51  70 108 147 177 213 274 335
#
# _framework density 22.862120000000001
#
# number of rings (size 3 to 8) (size 9 to 14) (size 15 to 20)
#    0.000    3.000    0.000    2.700    0.000    0.000 
#    7.200    4.000    0.000   15.600    0.000    0.000 
#    0.000    0.000    0.000    0.000    0.000    0.000 
#
# Total GULP energy -111548.129818 kJ/mol
# GULP energy per Si atom -5577.406491 kJ/mol
# Density = 2.281008 g / cm^3
# Si number density = 22.862120 Si / 1000 Ang^3
#
#
#
# Elastic Constant Matrix: (Units=GPa)
#
#
# Indices 1 2 3 4 5 6 
#
# 1 106.5372 84.2561 41.2401 0.0000 -36.3717 0.0000
# 2 84.2561 232.2953 35.0626 0.0000 -45.8758 0.0000
# 3 41.2401 35.0626 84.2467 0.0000 -36.1744 0.0000
# 4 0.0000 0.0000 0.0000 10.9957 0.0000 -16.2611
# 5 -36.3717 -45.8758 -36.1744 0.0000 46.2385 0.0000
# 6 0.0000 0.0000 0.0000 -16.2611 0.0000 9.2237
#
#
#
# Elastic Compliance Matrix: (Units=1/GPa)
#
#
# Indices 1 2 3 4 5 6 
#
# 1 0.016004 -0.004144 -0.003719 0.000000 0.005568 0.000000
# 2 -0.004144 0.006427 0.001042 0.000000 0.003932 0.000000
# 3 -0.003719 0.001042 0.018740 0.000000 0.012770 0.000000
# 4 0.000000 0.000000 0.000000 -0.056586 0.000000 -0.099760
# 5 0.005568 0.003932 0.012770 0.000000 0.039899 0.000000
# 6 0.000000 0.000000 0.000000 -0.099760 0.000000 -0.067457
#
#
# Mechanical properties :
#
#
# Convention : Reuss Voigt Hill
#
# Bulk Modulus (GPa) = 36.32383 82.68853 59.50618
# Shear Modulus (GPa) = -248.06957 30.79296 -108.63831
#
# Velocity S-wave (km/s) = -10.42796 3.67399 -6.90087
# Velocity P-wave (km/s) = 11.36077 7.36509 6.11648
#
# Compressibility (1/GPa) = 0.02753014
#
# Stress axis : x y z
#
# Youngs Moduli (GPa) = 62.48373 155.58811 53.36283
#
# Poissons Ratio (x) = 0.64474 0.19844
# Poissons Ratio (y) = 0.25893 -0.05561
# Poissons Ratio (z) = 0.23236 -0.16214
#
# Static dielectric constant tensor:
#      x y z
#    x 1.915200 0.000000 -0.004210 
#    y 0.000000 1.811870 0.000000 
#    z -0.004210 0.000000 1.832780 
# 
# From -- ./inp_files/308202.got.cif
#   From: 2010.05.17/outbox.cif.g08.bks.cpg/sg12_155_cif.got.tgz:308202.got - 2010.06.03 13:09:07.
