data_PCOD9208902
_publ_section_title
;
Structure prediction by ZEFSAII (Michael W. Deem and Ramdas Pophale) SiO2 
 PCOD9208902
Probable space group: C 2/M
;
_chemical_formula_sum "Si O2"
_cell_formula_units_Z 50
_cell_length_a 29.557413
_cell_length_b 7.745010
_cell_length_c 30.421431
_cell_angle_alpha 90.000000
_cell_angle_beta 161.034393
_cell_angle_gamma 90.000000
_cell_volume 2263.352039
_symmetry_space_group_name_H-M "C 2/M"
_symmetry_group_IT_number 12
_symmetry_cell_setting 'monoclinic'
loop_
_space_group_symop_operation_xyz
x,y,z
-x,y,-z
-x,-y,-z
x,-y,z
1/2+x,1/2+y,z
1/2-x,1/2+y,-z
1/2-x,1/2-y,-z
1/2+x,1/2-y,z
loop_
_atom_site_type_symbol
_atom_site_label
_atom_site_fract_x
_atom_site_fract_y
_atom_site_fract_z
Si Si1 0.546079 0.288018 0.243396
Si Si2 0.461831 0.699072 0.417956
Si Si3 0.500000 0.000000 0.000000
Si Si4 0.732187 0.699945 0.055572
Si Si5 0.452763 0.698923 0.658722
Si Si6 0.208435 0.307233 0.129615
Si Si7 0.686855 0.801883 0.558112
O O1 0.546121 0.500000 0.243734
O O2 0.589589 0.232857 0.332204
O O3 0.659957 0.233296 0.312320
O O4 0.391808 0.230593 0.088731
O O5 0.500000 0.778044 0.500000
O O6 0.417794 0.500000 0.386577
O O7 0.333238 0.776035 0.272540
O O8 0.596213 0.702929 0.510454
O O9 0.420487 0.851384 0.957381
O O10 0.755770 0.500000 0.065988
O O11 0.681048 0.711573 0.059131
O O12 0.879720 0.791941 0.187442
O O13 0.409164 0.500000 0.614272
O O14 0.393776 0.796616 0.562515
O O15 0.261116 0.500000 0.163825
O O16 0.696972 0.000000 0.582254
#
# Coordination Sequence:
#
# PCOD9208902 Si02
#       7
#     8   8   2   8   8   8   8
#     4   9  22  39  56  87 125 158 198 248 297 352
#     4  10  21  38  60  86 116 151 197 246 290 356
#     4   8  20  36  60  80 112 160 194 242 292 352
#     4  11  21  37  61  88 121 159 198 247 300 357
#     4  11  21  38  62  85 119 162 202 246 294 358
#     4   9  19  38  59  83 115 154 193 239 295 347
#     4  11  22  39  61  87 120 160 199 249 304 352
#
# _framework density 22.09113
#
# number of rings (size 3 to 8) (size 9 to 14) (size 15 to 20)
#    0.480    1.440    1.600    2.400    0.000    1.600 
#    0.000    7.600    0.000    0.000    0.000    0.000 
#    0.000    0.000    0.000    0.000    0.000    0.000 
#
# Total GULP energy -139311.740332 kJ/mol
# GULP energy per Si atom -5572.469613 kJ/mol
# Density = 2.204085 g / cm^3
# Si number density = 22.091130 Si / 1000 Ang^3
#
#
#
# Elastic Constant Matrix: (Units=GPa)
#
#
# Indices 1 2 3 4 5 6 
#
# 1 95.0141 -6.2009 -3.4182 -0.0038 6.2275 -0.0023
# 2 -6.2009 45.7945 -5.1631 -0.0029 -3.3074 -0.0022
# 3 -3.4182 -5.1631 46.6826 -0.0105 -2.7544 -0.0122
# 4 -0.0038 -0.0029 -0.0105 6.2141 -0.0033 5.5413
# 5 6.2275 -3.3074 -2.7544 -0.0033 36.1611 -0.0043
# 6 -0.0023 -0.0022 -0.0122 5.5413 -0.0043 -10.7832
#
#
#
# Elastic Compliance Matrix: (Units=1/GPa)
#
#
# Indices 1 2 3 4 5 6 
#
# 1 0.010757 0.001433 0.000848 0.000007 -0.001657 0.000001
# 2 0.001433 0.022482 0.002710 0.000017 0.002016 0.000000
# 3 0.000848 0.002710 0.021888 0.000043 0.001769 -0.000004
# 4 0.000007 0.000017 0.000043 0.110355 0.000021 0.056709
# 5 -0.001657 0.002016 0.001769 0.000021 0.028259 -0.000003
# 6 0.000001 0.000000 -0.000004 0.056709 -0.000003 -0.063595
#
#
# Mechanical properties :
#
#
# Convention : Reuss Voigt Hill
#
# Bulk Modulus (GPa) = 15.35878 17.54743 16.45310
# Shear Modulus (GPa) = 35.24444 19.80328 27.52386
#
# Velocity S-wave (km/s) = 3.99859 2.99730 3.53359
# Velocity P-wave (km/s) = 5.31845 4.46530 4.91044
#
# Compressibility (1/GPa) = 0.06510935
#
# Stress axis : x y z
#
# Youngs Moduli (GPa) = 92.95951 44.48031 45.68816
#
# Poissons Ratio (x) = -0.06372 -0.03876
# Poissons Ratio (y) = -0.13318 -0.12383
# Poissons Ratio (z) = -0.07886 -0.12056
#
# Static dielectric constant tensor:
#      x y z
#    x 1.798700 0.000000 -0.016900 
#    y 0.000000 1.854100 0.000000 
#    z -0.016900 0.000000 1.839170 
# 
# From -- ./inp_files/384828.got.cif
#   From: 2010.05.17/outbox.cif.g08.bks.cpg/sg12_193_cif.got.tgz:384828.got - 2010.06.03 13:09:07.
