data_PCOD9208917
_publ_section_title
;
Structure prediction by ZEFSAII (Michael W. Deem and Ramdas Pophale) SiO2 
 PCOD9208917
Probable space group: C 2/M
;
_chemical_formula_sum "Si O2"
_cell_formula_units_Z 56
_cell_length_a 26.048899
_cell_length_b 7.847768
_cell_length_c 13.700384
_cell_angle_alpha 90.000000
_cell_angle_beta 68.777663
_cell_angle_gamma 90.000000
_cell_volume 2610.774302
_symmetry_space_group_name_H-M "C 2/M"
_symmetry_group_IT_number 12
_symmetry_cell_setting 'monoclinic'
loop_
_space_group_symop_operation_xyz
x,y,z
-x,y,-z
-x,-y,-z
x,-y,z
1/2+x,1/2+y,z
1/2-x,1/2+y,-z
1/2-x,1/2-y,-z
1/2+x,1/2-y,z
loop_
_atom_site_type_symbol
_atom_site_label
_atom_site_fract_x
_atom_site_fract_y
_atom_site_fract_z
Si Si1 0.081364 0.203413 0.201224
Si Si2 0.515316 0.793796 0.880740
Si Si3 0.438801 0.198982 0.564382
Si Si4 0.865255 0.698836 0.264129
Si Si5 0.747430 0.290441 0.287562
Si Si6 0.659835 0.696990 0.502636
Si Si7 0.796844 0.795647 0.891088
O O1 0.032307 0.244538 0.161705
O O2 0.071525 0.283494 0.313827
O O3 0.141668 0.262159 0.123376
O O4 0.082990 0.000000 0.213820
O O5 0.575430 0.728377 0.806148
O O6 0.517172 0.000000 0.880065
O O7 0.500000 0.735509 0.000000
O O8 0.500000 0.264891 0.500000
O O9 0.391723 0.291202 0.535389
O O10 0.436865 0.000000 0.536986
O O11 0.867052 0.500000 0.235557
O O12 0.810316 0.769824 0.251307
O O13 0.854905 0.711711 0.386888
O O14 0.746671 0.500000 0.289762
O O15 0.712019 0.234894 0.405822
O O16 0.719045 0.234475 0.206619
O O17 0.670265 0.500000 0.519985
O O18 0.798255 0.000000 0.885012
O O19 0.750000 0.750000 0.000000
#
# Coordination Sequence:
#
# PCOD9208917 Si02
#       7
#     8   8   8   8   8   8   8
#     4  11  23  41  63  89 123 157 194 246 303 356
#     4  10  23  41  62  88 117 157 206 247 290 349
#     4  11  23  38  59  87 120 158 202 247 290 350
#     4  10  21  38  60  86 118 157 201 247 292 350
#     4   9  19  38  61  85 119 156 193 241 296 352
#     4  11  21  37  59  87 122 155 193 243 302 360
#     4  10  22  40  62  90 120 155 198 245 299 356
#
# _framework density 21.449573999999998
#
# number of rings (size 3 to 8) (size 9 to 14) (size 15 to 20)
#    0.000    1.714    1.429    2.571    2.000    6.571 
#    0.000    1.429    0.000    0.000    0.000    0.000 
#    0.000    0.000    0.000    0.000    0.000    0.000 
#
# Total GULP energy -156514.951411 kJ/mol
# GULP energy per Si atom -5589.819693 kJ/mol
# Density = 2.140075 g / cm^3
# Si number density = 21.449574 Si / 1000 Ang^3
#
#
#
# Elastic Constant Matrix: (Units=GPa)
#
#
# Indices 1 2 3 4 5 6 
#
# 1 173.2764 5.6678 45.9890 0.0000 -29.6844 0.0000
# 2 5.6678 29.2045 -2.1516 0.0000 -4.5636 0.0000
# 3 45.9890 -2.1516 76.3480 0.0000 -29.7772 0.0000
# 4 0.0000 0.0000 0.0000 16.7433 0.0000 -0.6229
# 5 -29.6844 -4.5636 -29.7772 0.0000 43.3394 0.0000
# 6 0.0000 0.0000 0.0000 -0.6229 0.0000 21.0973
#
#
#
# Elastic Compliance Matrix: (Units=1/GPa)
#
#
# Indices 1 2 3 4 5 6 
#
# 1 0.007125 -0.001253 -0.003381 0.000000 0.002425 0.000000
# 2 -0.001253 0.035651 0.003946 0.000000 0.005607 0.000000
# 3 -0.003381 0.003946 0.019814 0.000000 0.011713 0.000000
# 4 0.000000 0.000000 0.000000 0.059791 0.000000 0.001765
# 5 0.002425 0.005607 0.011713 0.000000 0.033373 0.000000
# 6 0.000000 0.000000 0.000000 0.001765 0.000000 0.047451
#
#
# Mechanical properties :
#
#
# Convention : Reuss Voigt Hill
#
# Bulk Modulus (GPa) = 16.33583 41.98213 29.15898
# Shear Modulus (GPa) = 22.22350 31.52426 26.87388
#
# Velocity S-wave (km/s) = 3.22231 3.83781 3.54345
# Velocity P-wave (km/s) = 4.63431 6.26525 5.51046
#
# Compressibility (1/GPa) = 0.06121515
#
# Stress axis : x y z
#
# Youngs Moduli (GPa) = 140.35154 28.04935 50.46832
#
# Poissons Ratio (x) = 0.03514 0.17065
# Poissons Ratio (y) = 0.17585 -0.19917
# Poissons Ratio (z) = 0.47458 -0.11069
#
# Static dielectric constant tensor:
#      x y z
#    x 1.776030 0.000000 -0.028630 
#    y 0.000000 1.801770 0.000000 
#    z -0.028630 0.000000 1.733910 
# 
# From -- ./inp_files/180813.got.cif
#   From: 2010.05.17/outbox.cif.g08.bks.cpg/sg12_91_cif.got.tgz:180813.got - 2010.06.03 13:09:07.
