data_PCOD9208768
_publ_section_title
;
Structure prediction by ZEFSAII (Michael W. Deem and Ramdas Pophale) SiO2 
 PCOD9208768
Probable space group: C 2/M
;
_chemical_formula_sum "Si O2"
_cell_formula_units_Z 56
_cell_length_a 20.719190
_cell_length_b 7.910422
_cell_length_c 19.820708
_cell_angle_alpha 90.000000
_cell_angle_beta 123.416191
_cell_angle_gamma 90.000000
_cell_volume 2711.552275
_symmetry_space_group_name_H-M "C 2/M"
_symmetry_group_IT_number 12
_symmetry_cell_setting 'monoclinic'
loop_
_space_group_symop_operation_xyz
x,y,z
-x,y,-z
-x,-y,-z
x,-y,z
1/2+x,1/2+y,z
1/2-x,1/2+y,-z
1/2-x,1/2-y,-z
1/2+x,1/2-y,z
loop_
_atom_site_type_symbol
_atom_site_label
_atom_site_fract_x
_atom_site_fract_y
_atom_site_fract_z
Si Si1 0.517095 0.704667 0.934198
Si Si2 0.662343 0.296644 0.934957
Si Si3 0.452879 0.699452 0.637317
Si Si4 0.084759 0.303373 0.526956
Si Si5 0.126191 0.207367 0.763416
Si Si6 0.891747 0.297589 0.748462
Si Si7 0.725462 0.698935 0.699017
O O1 0.518396 0.500000 0.937192
O O2 0.599989 0.764596 0.953653
O O3 0.452463 0.754153 0.842295
O O4 0.500000 0.766241 0.000000
O O5 0.656987 0.500000 0.930867
O O6 0.638974 0.235780 0.847053
O O7 0.750000 0.250000 0.000000
O O8 0.453105 0.500000 0.623404
O O9 0.409487 0.785497 0.550269
O O10 0.541736 0.760931 0.689679
O O11 0.418529 0.727688 0.691668
O O12 0.086674 0.500000 0.547353
O O13 0.156104 0.217895 0.605725
O O14 0.000000 0.234609 0.500000
O O15 0.192107 0.267969 0.750251
O O16 0.126041 0.000000 0.763082
O O17 0.888907 0.500000 0.739774
O O18 0.806790 0.230739 0.720033
O O19 0.738986 0.500000 0.717867
#
# Coordination Sequence:
#
# PCOD9208768 Si02
#       7
#     8   8   8   8   8   8   8
#     4  10  22  41  62  85 120 162 202 241 295 366
#     4  10  21  38  59  88 119 153 196 245 294 349
#     4  11  21  39  67  87 115 164 203 240 295 361
#     4  11  23  38  59  93 127 152 193 255 304 346
#     4   9  18  36  61  84 112 153 203 242 283 353
#     4  11  24  40  61  90 123 155 199 253 301 351
#     4  10  22  40  61  87 118 159 202 244 297 362
#
# _framework density 20.652377000000001
#
# number of rings (size 3 to 8) (size 9 to 14) (size 15 to 20)
#    0.000    1.714    2.857    1.286    2.000    3.143 
#    0.000    0.714    0.000    0.000    0.000    0.000 
#    0.000    0.000    0.000    0.000    0.000    0.000 
#
# Total GULP energy -156443.766369 kJ/mol
# GULP energy per Si atom -5587.277370 kJ/mol
# Density = 2.060537 g / cm^3
# Si number density = 20.652377 Si / 1000 Ang^3
#
#
#
# Elastic Constant Matrix: (Units=GPa)
#
#
# Indices 1 2 3 4 5 6 
#
# 1 158.7336 -2.4809 50.9533 0.0000 1.6460 0.0000
# 2 -2.4809 22.9231 -13.0550 0.0000 0.4958 0.0000
# 3 50.9533 -13.0550 83.6784 0.0000 -10.4226 0.0000
# 4 0.0000 0.0000 0.0000 23.2656 0.0000 2.9691
# 5 1.6460 0.4958 -10.4226 0.0000 40.4287 0.0000
# 6 0.0000 0.0000 0.0000 2.9691 0.0000 19.3743
#
#
#
# Elastic Compliance Matrix: (Units=1/GPa)
#
#
# Indices 1 2 3 4 5 6 
#
# 1 0.008031 -0.002195 -0.005445 0.000000 -0.001704 0.000000
# 2 -0.002195 0.048553 0.009142 0.000000 0.001851 0.000000
# 3 -0.005445 0.009142 0.017260 0.000000 0.004559 0.000000
# 4 0.000000 0.000000 0.000000 0.043839 0.000000 -0.006718
# 5 -0.001704 0.001851 0.004559 0.000000 0.025957 0.000000
# 6 0.000000 0.000000 0.000000 -0.006718 0.000000 0.052644
#
#
# Mechanical properties :
#
#
# Convention : Reuss Voigt Hill
#
# Bulk Modulus (GPa) = 13.01258 37.35220 25.18239
# Shear Modulus (GPa) = 22.84184 31.94158 27.39171
#
# Velocity S-wave (km/s) = 3.32929 3.93699 3.64582
# Velocity P-wave (km/s) = 4.59275 6.22832 5.47198
#
# Compressibility (1/GPa) = 0.07684868
#
# Stress axis : x y z
#
# Youngs Moduli (GPa) = 124.51706 20.59602 57.93690
#
# Poissons Ratio (x) = 0.04521 0.31546
# Poissons Ratio (y) = 0.27331 -0.52966
# Poissons Ratio (z) = 0.67798 -0.18829
#
# Static dielectric constant tensor:
#      x y z
#    x 1.753270 0.000000 -0.007720 
#    y 0.000000 1.750740 0.000000 
#    z -0.007720 0.000000 1.697800 
# 
# From -- ./inp_files/320262.got.cif
#   From: 2010.05.17/outbox.cif.g08.bks.cpg/sg12_161_cif.got.tgz:320262.got - 2010.06.03 13:09:07.
