data_PCOD9208966
_publ_section_title
;
Structure prediction by ZEFSAII (Michael W. Deem and Ramdas Pophale) SiO2 
 PCOD9208966
Probable space group: C 2/M
;
_chemical_formula_sum "Si O2"
_cell_formula_units_Z 58
_cell_length_a 9.110366
_cell_length_b 19.606030
_cell_length_c 16.297211
_cell_angle_alpha 90.000000
_cell_angle_beta 122.436101
_cell_angle_gamma 90.000000
_cell_volume 2456.835906
_symmetry_space_group_name_H-M "C 2/M"
_symmetry_group_IT_number 12
_symmetry_cell_setting 'monoclinic'
loop_
_space_group_symop_operation_xyz
x,y,z
-x,y,-z
-x,-y,-z
x,-y,z
1/2+x,1/2+y,z
1/2-x,1/2+y,-z
1/2-x,1/2-y,-z
1/2+x,1/2-y,z
loop_
_atom_site_type_symbol
_atom_site_label
_atom_site_fract_x
_atom_site_fract_y
_atom_site_fract_z
Si Si1 0.792179 0.663338 0.943868
Si Si2 0.037505 0.897988 0.159887
Si Si3 0.551164 0.921165 0.280823
Si Si4 0.164179 0.426163 0.623151
Si Si5 0.787682 0.791324 0.594562
Si Si6 0.880307 0.833683 0.381301
Si Si7 0.770613 0.687851 0.129701
Si Si8 0.000000 0.000000 0.000000
O O1 0.663648 0.604148 0.875000
O O2 0.728604 0.730594 0.877214
O O3 0.745385 0.668950 0.026343
O O4 0.000000 0.654663 0.000000
O O5 0.164617 0.922847 0.268374
O O6 0.119132 0.827573 0.150292
O O7 0.054246 0.942685 0.083848
O O8 0.492740 0.921315 0.358733
O O9 0.748725 0.895906 0.331384
O O10 0.428752 0.862229 0.204351
O O11 0.523340 0.000000 0.243180
O O12 0.165884 0.500000 0.581981
O O13 0.177928 0.359720 0.571854
O O14 0.750000 0.750000 0.500000
O O15 0.733993 0.735116 0.644190
O O16 0.984102 0.817105 0.649492
O O17 0.000000 0.842933 0.500000
#
# Coordination Sequence:
#
# PCOD9208966 Si02
#       8
#     8   8   8   8   8   8   8   2
#     4  11  22  37  57  94 134 172 233 292 336 387
#     4  11  22  39  67  91 130 188 230 275 339 415
#     4  10  23  41  66 100 137 181 229 282 349 420
#     4  10  22  41  67 102 137 177 237 293 342 424
#     4  10  22  42  69  96 133 175 225 284 357 415
#     4  10  22  42  68  97 132 177 225 284 353 435
#     4  10  21  38  60  87 131 179 227 276 334 399
#     4  12  20  40  70  88 128 196 238 256 348 430
#
# _framework density 23.607600000000001
#
# number of rings (size 3 to 8) (size 9 to 14) (size 15 to 20)
#    0.000    1.655    2.069    2.483    2.897    3.034 
#    0.000    2.414    0.000   10.345    0.000    0.000 
#    0.000    0.000    0.000    0.000    0.000    0.000 
#
# Total GULP energy -161677.018013 kJ/mol
# GULP energy per Si atom -5575.069587 kJ/mol
# Density = 2.355387 g / cm^3
# Si number density = 23.607600 Si / 1000 Ang^3
#
#
#
# Elastic Constant Matrix: (Units=GPa)
#
#
# Indices 1 2 3 4 5 6 
#
# 1 120.3957 43.5246 26.7434 0.0000 36.9551 0.0000
# 2 43.5246 112.3092 40.8143 0.0000 -1.4384 0.0000
# 3 26.7434 40.8143 115.4773 0.0000 27.1648 0.0000
# 4 0.0000 0.0000 0.0000 5.1197 0.0000 5.7584
# 5 36.9551 -1.4384 27.1648 0.0000 35.6721 0.0000
# 6 0.0000 0.0000 0.0000 5.7584 0.0000 -24.8308
#
#
#
# Elastic Compliance Matrix: (Units=1/GPa)
#
#
# Indices 1 2 3 4 5 6 
#
# 1 0.016702 -0.008132 0.003842 0.000000 -0.020556 0.000000
# 2 -0.008132 0.014629 -0.006588 0.000000 0.014032 0.000000
# 3 0.003842 -0.006588 0.013519 0.000000 -0.014541 0.000000
# 4 0.000000 0.000000 0.000000 0.154917 0.000000 0.035926
# 5 -0.020556 0.014032 -0.014541 0.000000 0.060968 0.000000
# 6 0.000000 0.000000 0.000000 0.035926 0.000000 -0.031941
#
#
# Mechanical properties :
#
#
# Convention : Reuss Voigt Hill
#
# Bulk Modulus (GPa) = 43.30173 63.37186 53.33680
# Shear Modulus (GPa) = 19.36117 18.99885 19.18001
#
# Velocity S-wave (km/s) = 2.86689 2.83994 2.85344
# Velocity P-wave (km/s) = 5.41672 6.13643 5.78777
#
# Compressibility (1/GPa) = 0.02309377
#
# Stress axis : x y z
#
# Youngs Moduli (GPa) = 59.87231 68.35519 73.97019
#
# Poissons Ratio (x) = 0.55588 -0.28419
# Poissons Ratio (y) = 0.48690 0.48732
# Poissons Ratio (z) = -0.23002 0.45033
#
# Static dielectric constant tensor:
#      x y z
#    x 1.927150 0.000000 0.015680 
#    y 0.000000 1.828550 0.000000 
#    z 0.015680 0.000000 1.965020 
# 
# From -- ./inp_files/258516.got.cif
#   From: 2010.05.17/outbox.cif.g08.bks.cpg/sg12_130_cif.got.tgz:258516.got - 2010.06.03 13:09:07.
