data_PCOD9208443
_publ_section_title
;
Structure prediction by ZEFSAII (Michael W. Deem and Ramdas Pophale) SiO2 
 PCOD9208443
Probable space group: C 2/M
;
_chemical_formula_sum "Si O2"
_cell_formula_units_Z 56
_cell_length_a 19.631057
_cell_length_b 8.874127
_cell_length_c 21.625221
_cell_angle_alpha 90.000000
_cell_angle_beta 54.534059
_cell_angle_gamma 90.000000
_cell_volume 3068.314987
_symmetry_space_group_name_H-M "C 2/M"
_symmetry_group_IT_number 12
_symmetry_cell_setting 'monoclinic'
loop_
_space_group_symop_operation_xyz
x,y,z
-x,y,-z
-x,-y,-z
x,-y,z
1/2+x,1/2+y,z
1/2-x,1/2+y,-z
1/2-x,1/2-y,-z
1/2+x,1/2-y,z
loop_
_atom_site_type_symbol
_atom_site_label
_atom_site_fract_x
_atom_site_fract_y
_atom_site_fract_z
Si Si1 0.164963 0.320543 0.868184
Si Si2 0.341497 0.321157 0.449879
Si Si3 0.902356 0.176893 0.286904
Si Si4 0.098032 0.326398 0.459488
Si Si5 0.001233 0.679762 0.874496
Si Si6 0.323640 0.680086 0.003215
Si Si7 0.763526 0.323999 0.707456
O O1 0.165201 0.500000 0.877973
O O2 0.074252 0.279925 0.885876
O O3 0.182323 0.236738 0.922931
O O4 0.233412 0.273574 0.781087
O O5 0.333402 0.500000 0.448267
O O6 0.250000 0.250000 0.500000
O O7 0.392896 0.269752 0.362278
O O8 0.383533 0.274905 0.491438
O O9 0.962762 0.271400 0.211036
O O10 0.810214 0.186991 0.304731
O O11 0.926927 0.000000 0.272314
O O12 0.125243 0.500000 0.458132
O O13 0.151508 0.278005 0.371566
O O14 0.000000 0.326412 0.500000
O O15 0.989384 0.500000 0.883918
O O16 0.914422 0.762280 0.932973
O O17 0.319251 0.500000 0.002656
O O18 0.250000 0.750000 0.000000
O O19 0.769305 0.500000 0.723126
#
# Coordination Sequence:
#
# PCOD9208443 Si02
#       7
#     8   8   8   8   8   8   8
#     4  10  21  38  62  91 118 150 193 239 286 341
#     4  11  21  35  58  85 116 153 197 245 294 345
#     4   9  18  34  56  84 115 149 193 245 293 340
#     4  10  21  38  57  81 116 158 199 243 293 347
#     4  10  21  38  62  91 120 151 191 238 285 341
#     4  12  25  42  63  87 119 156 192 233 288 345
#     4   9  17  34  57  82 114 151 195 242 290 342
#
# _framework density 18.251059000000001
#
# number of rings (size 3 to 8) (size 9 to 14) (size 15 to 20)
#    0.000    1.857    1.429    3.000    0.000    5.429 
#    2.571    0.000    0.000    0.000    0.000    0.000 
#    0.000    0.000    0.000    0.000    0.000    0.000 
#
# Total GULP energy -156343.583108 kJ/mol
# GULP energy per Si atom -5583.699397 kJ/mol
# Density = 1.820952 g / cm^3
# Si number density = 18.251059 Si / 1000 Ang^3
#
#
#
# Elastic Constant Matrix: (Units=GPa)
#
#
# Indices 1 2 3 4 5 6 
#
# 1 87.5465 53.4317 74.4351 0.0000 2.4554 0.0003
# 2 53.4317 84.7273 59.3432 0.0000 6.1610 0.0005
# 3 74.4351 59.3432 147.5663 0.0000 0.2529 0.0000
# 4 0.0000 0.0000 0.0000 32.7385 0.0000 3.2551
# 5 2.4554 6.1610 0.2529 0.0000 21.2363 0.0000
# 6 0.0003 0.0005 0.0000 3.2551 0.0000 27.9673
#
#
#
# Elastic Compliance Matrix: (Units=1/GPa)
#
#
# Indices 1 2 3 4 5 6 
#
# 1 0.024433 -0.009435 -0.008530 0.000000 0.000014 0.000000
# 2 -0.009435 0.020554 -0.003498 0.000000 -0.004830 0.000000
# 3 -0.008530 -0.003498 0.012483 0.000000 0.001853 0.000000
# 4 0.000000 0.000000 0.000000 0.030903 0.000000 -0.003597
# 5 0.000014 -0.004830 0.001853 0.000000 0.048467 0.000000
# 6 0.000000 0.000000 0.000000 -0.003597 0.000000 0.036175
#
#
# Mechanical properties :
#
#
# Convention : Reuss Voigt Hill
#
# Bulk Modulus (GPa) = 68.75992 77.14003 72.94997
# Shear Modulus (GPa) = 22.64604 25.23043 23.93823
#
# Velocity S-wave (km/s) = 3.52633 3.72211 3.62554
# Velocity P-wave (km/s) = 7.37131 7.79936 7.58835
#
# Compressibility (1/GPa) = 0.01454336
#
# Stress axis : x y z
#
# Youngs Moduli (GPa) = 40.92802 48.65267 80.10741
#
# Poissons Ratio (x) = 0.45902 0.68335
# Poissons Ratio (y) = 0.38614 0.28025
# Poissons Ratio (z) = 0.34914 0.17021
#
# Static dielectric constant tensor:
#      x y z
#    x 1.606370 0.000000 0.003020 
#    y 0.000000 1.624790 0.000000 
#    z 0.003020 0.000000 1.624540 
# 
# From -- ./inp_files/319703.got.cif
#   From: 2010.05.17/outbox.cif.g08.bks.cpg/sg12_160_cif.got.tgz:319703.got - 2010.06.03 13:09:07.
