data_PCOD9208965
_publ_section_title
;
Structure prediction by ZEFSAII (Michael W. Deem and Ramdas Pophale) SiO2 
 PCOD9208965
Probable space group: C 2/M
;
_chemical_formula_sum "Si O2"
_cell_formula_units_Z 64
_cell_length_a 29.368720
_cell_length_b 8.631244
_cell_length_c 25.293012
_cell_angle_alpha 90.000000
_cell_angle_beta 150.094119
_cell_angle_gamma 90.000000
_cell_volume 3196.619594
_symmetry_space_group_name_H-M "C 2/M"
_symmetry_group_IT_number 12
_symmetry_cell_setting 'monoclinic'
loop_
_space_group_symop_operation_xyz
x,y,z
-x,y,-z
-x,-y,-z
x,-y,z
1/2+x,1/2+y,z
1/2-x,1/2+y,-z
1/2-x,1/2-y,-z
1/2+x,1/2-y,z
loop_
_atom_site_type_symbol
_atom_site_label
_atom_site_fract_x
_atom_site_fract_y
_atom_site_fract_z
Si Si1 0.491090 0.811077 0.658905
Si Si2 0.397670 0.186361 0.880572
Si Si3 0.913963 0.180937 0.785534
Si Si4 0.851272 0.313865 0.609908
Si Si5 0.047172 0.312289 0.602191
Si Si6 0.348284 0.819189 0.109912
Si Si7 0.884453 0.819700 0.040462
Si Si8 0.749017 0.813795 0.177348
O O1 0.414960 0.760477 0.624621
O O2 0.488012 0.766147 0.594443
O O3 0.589219 0.756176 0.780235
O O4 0.490414 0.000000 0.659841
O O5 0.374058 0.245250 0.798300
O O6 0.319934 0.231250 0.844386
O O7 0.400823 0.000000 0.882840
O O8 0.500000 0.240694 0.000000
O O9 0.885669 0.256791 0.701694
O O10 0.023812 0.195350 0.901089
O O11 0.890551 0.000000 0.759376
O O12 0.851307 0.500000 0.609615
O O13 0.750000 0.250000 0.500000
O O14 0.054004 0.500000 0.609196
O O15 0.148964 0.245119 0.710069
O O16 0.000000 0.264189 0.500000
O O17 0.400508 0.783582 0.108195
O O18 0.337474 0.000000 0.107683
O O19 0.250000 0.750000 0.000000
O O20 0.874162 0.000000 0.045166
O O21 0.796598 0.761729 0.920399
O O22 0.747996 0.000000 0.171002
#
# Coordination Sequence:
#
# PCOD9208965 Si02
#       8
#     8   8   8   8   8   8   8   8
#     4   9  20  39  62  87 120 161 203 245 301 368
#     4  10  21  38  60  87 126 170 207 247 309 381
#     4  11  23  38  60  90 122 159 208 259 309 364
#     4  11  23  42  65  90 124 165 210 258 309 370
#     4  10  22  42  66  90 120 162 207 256 310 364
#     4  11  21  35  57  87 122 164 206 250 306 367
#     4  11  22  36  57  87 124 159 200 254 309 370
#     4  11  23  39  62  92 124 163 210 257 310 370
#
# _framework density 20.021149999999999
#
# number of rings (size 3 to 8) (size 9 to 14) (size 15 to 20)
#    0.000    1.500    2.500    2.625    0.000    4.500 
#    0.000    3.125    0.000    0.000    0.000    0.000 
#    0.000    0.000    0.000    0.000    0.000    0.000 
#
# Total GULP energy -178709.761608 kJ/mol
# GULP energy per Si atom -5584.680050 kJ/mol
# Density = 1.997558 g / cm^3
# Si number density = 20.021150 Si / 1000 Ang^3
#
#
#
# Elastic Constant Matrix: (Units=GPa)
#
#
# Indices 1 2 3 4 5 6 
#
# 1 116.4275 7.8204 50.6579 0.0000 -15.4562 0.0000
# 2 7.8204 11.3704 18.7069 0.0000 2.2844 0.0000
# 3 50.6579 18.7069 127.1964 0.0000 -13.4866 0.0000
# 4 0.0000 0.0000 0.0000 27.9769 0.0000 4.4764
# 5 -15.4562 2.2844 -13.4866 0.0000 34.2715 0.0000
# 6 0.0000 0.0000 0.0000 4.4764 0.0000 20.7812
#
#
#
# Elastic Compliance Matrix: (Units=1/GPa)
#
#
# Indices 1 2 3 4 5 6 
#
# 1 0.010775 -0.002246 -0.003579 0.000000 0.003601 0.000000
# 2 -0.002246 0.124468 -0.019199 0.000000 -0.016865 0.000000
# 3 -0.003579 -0.019199 0.012601 0.000000 0.004624 0.000000
# 4 0.000000 0.000000 0.000000 0.037020 0.000000 -0.007974
# 5 0.003601 -0.016865 0.004624 0.000000 0.033747 0.000000
# 6 0.000000 0.000000 0.000000 -0.007974 0.000000 0.049838
#
#
# Mechanical properties :
#
#
# Convention : Reuss Voigt Hill
#
# Bulk Modulus (GPa) = 10.22536 45.48498 27.85517
# Shear Modulus (GPa) = 14.24108 28.45986 21.35047
#
# Velocity S-wave (km/s) = 2.66992 3.77435 3.26911
# Velocity P-wave (km/s) = 3.82400 6.46236 5.30967
#
# Compressibility (1/GPa) = 0.09779602
#
# Stress axis : x y z
#
# Youngs Moduli (GPa) = 92.80509 8.03417 79.35617
#
# Poissons Ratio (x) = 0.01804 0.28405
# Poissons Ratio (y) = 0.20840 1.52360
# Poissons Ratio (z) = 0.33218 0.15425
#
# Static dielectric constant tensor:
#      x y z
#    x 1.758900 0.000000 0.005870 
#    y 0.000000 1.682430 0.000000 
#    z 0.005870 0.000000 1.695730 
# 
# From -- ./inp_files/353463.got.cif
#   From: 2010.05.17/outbox.cif.g08.bks.cpg/sg12_177_cif.got.tgz:353463.got - 2010.06.03 13:09:07.
