data_PCOD9208962
_publ_section_title
;
Structure prediction by ZEFSAII (Michael W. Deem and Ramdas Pophale) SiO2 
 PCOD9208962
Probable space group: C 2/M
;
_chemical_formula_sum "Si O2"
_cell_formula_units_Z 48
_cell_length_a 12.314689
_cell_length_b 20.941703
_cell_length_c 11.814738
_cell_angle_alpha 90.000000
_cell_angle_beta 47.783961
_cell_angle_gamma 90.000000
_cell_volume 2256.591463
_symmetry_space_group_name_H-M "C 2/M"
_symmetry_group_IT_number 12
_symmetry_cell_setting 'monoclinic'
loop_
_space_group_symop_operation_xyz
x,y,z
-x,y,-z
-x,-y,-z
x,-y,z
1/2+x,1/2+y,z
1/2-x,1/2+y,-z
1/2-x,1/2-y,-z
1/2+x,1/2-y,z
loop_
_atom_site_type_symbol
_atom_site_label
_atom_site_fract_x
_atom_site_fract_y
_atom_site_fract_z
Si Si1 0.930978 0.173462 0.430351
Si Si2 0.294213 0.295211 0.076867
Si Si3 0.085082 0.244018 0.787668
Si Si4 0.837018 0.569544 0.849746
Si Si5 0.680165 0.570292 0.202582
Si Si6 0.871551 0.383730 0.269224
O O1 0.898034 0.223644 0.353903
O O2 0.776522 0.138577 0.563571
O O3 0.000000 0.199345 0.500000
O O4 0.053542 0.122627 0.304572
O O5 0.292526 0.259067 0.199202
O O6 0.216812 0.362149 0.158451
O O7 0.250000 0.250000 0.000000
O O8 0.461796 0.303826 0.920038
O O9 0.042024 0.318193 0.819987
O O10 0.802460 0.500000 0.820045
O O11 0.011665 0.574589 0.745588
O O12 0.755311 0.570235 0.028124
O O13 0.617176 0.500000 0.269735
O O14 0.809986 0.583629 0.200340
#
# Coordination Sequence:
#
# PCOD9208962 Si02
#       6
#     8   8   8   8   8   8
#     4  10  23  40  61  90 130 166 202 250 313 377
#     4  11  22  40  67  91 124 163 209 262 307 370
#     4  11  23  39  63  95 121 161 215 251 311 367
#     4  11  22  38  61  92 124 161 210 266 314 364
#     4  10  21  38  60  87 124 166 209 255 307 370
#     4  11  22  35  60  93 124 159 202 262 312 372
#
# _framework density 21.271018000000002
#
# number of rings (size 3 to 8) (size 9 to 14) (size 15 to 20)
#    0.000    1.333    3.333    2.500    4.667    5.000 
#    0.000    3.333    0.000    1.000    0.000    0.000 
#    0.000    0.000    0.000    0.000    0.000    0.000 
#
# Total GULP energy -133677.172816 kJ/mol
# GULP energy per Si atom -5569.882201 kJ/mol
# Density = 2.122260 g / cm^3
# Si number density = 21.271018 Si / 1000 Ang^3
#
#
#
# Elastic Constant Matrix: (Units=GPa)
#
#
# Indices 1 2 3 4 5 6 
#
# 1 70.2101 37.4010 34.9301 0.0000 11.9952 0.0000
# 2 37.4010 108.3404 -1.5189 0.0000 12.2210 0.0000
# 3 34.9301 -1.5189 48.7309 0.0000 -2.5213 0.0000
# 4 0.0000 0.0000 0.0000 19.8991 0.0000 -0.9555
# 5 11.9952 12.2210 -2.5213 0.0000 46.5690 0.0000
# 6 0.0000 0.0000 0.0000 -0.9555 0.0000 28.3835
#
#
#
# Elastic Compliance Matrix: (Units=1/GPa)
#
#
# Indices 1 2 3 4 5 6 
#
# 1 0.033903 -0.011250 -0.025022 0.000000 -0.007135 0.000000
# 2 -0.011250 0.013246 0.008471 0.000000 -0.000120 0.000000
# 3 -0.025022 0.008471 0.039048 0.000000 0.006336 0.000000
# 4 0.000000 0.000000 0.000000 0.050335 0.000000 0.001695
# 5 -0.007135 -0.000120 0.006336 0.000000 0.023686 0.000000
# 6 0.000000 0.000000 0.000000 0.001695 0.000000 0.035289
#
#
# Mechanical properties :
#
#
# Convention : Reuss Voigt Hill
#
# Bulk Modulus (GPa) = 32.68436 40.98951 36.83693
# Shear Modulus (GPa) = 19.13456 29.40161 24.26808
#
# Velocity S-wave (km/s) = 3.00252 3.72188 3.38138
# Velocity P-wave (km/s) = 5.23634 6.14669 5.70969
#
# Compressibility (1/GPa) = 0.03059567
#
# Stress axis : x y z
#
# Youngs Moduli (GPa) = 29.49571 75.49384 25.60945
#
# Poissons Ratio (x) = 0.84930 0.64079
# Poissons Ratio (y) = 0.33182 -0.21693
# Poissons Ratio (z) = 0.73803 -0.63948
#
# Static dielectric constant tensor:
#      x y z
#    x 1.916800 0.000000 -0.031590 
#    y 0.000000 1.781420 0.000000 
#    z -0.031590 0.000000 1.796880 
# 
# From -- ./inp_files/133735.got.cif
#   From: 2010.05.17/outbox.cif.g08.bks.cpg/sg12_67_cif.got.tgz:133735.got - 2010.06.03 13:09:07.
