data_PCOD9208584
_publ_section_title
;
Structure prediction by ZEFSAII (Michael W. Deem and Ramdas Pophale) SiO2 
 PCOD9208584
Probable space group: C 2/M
;
_chemical_formula_sum "Si O2"
_cell_formula_units_Z 56
_cell_length_a 17.721556
_cell_length_b 18.403294
_cell_length_c 9.050205
_cell_angle_alpha 90.000000
_cell_angle_beta 126.014358
_cell_angle_gamma 90.000000
_cell_volume 2387.450551
_symmetry_space_group_name_H-M "C 2/M"
_symmetry_group_IT_number 12
_symmetry_cell_setting 'monoclinic'
loop_
_space_group_symop_operation_xyz
x,y,z
-x,y,-z
-x,-y,-z
x,-y,z
1/2+x,1/2+y,z
1/2-x,1/2+y,-z
1/2-x,1/2-y,-z
1/2+x,1/2-y,z
loop_
_atom_site_type_symbol
_atom_site_label
_atom_site_fract_x
_atom_site_fract_y
_atom_site_fract_z
Si Si1 0.594747 0.913342 0.704657
Si Si2 0.455160 0.683970 0.603452
Si Si3 0.620058 0.582626 0.241118
Si Si4 0.685662 0.082223 0.360210
Si Si5 0.271276 0.679356 0.224204
Si Si6 0.505718 0.172944 0.181937
Si Si7 0.792814 0.835827 0.914810
O O1 0.500000 0.898230 0.500000
O O2 0.567919 0.883829 0.835900
O O3 0.689230 0.870686 0.770254
O O4 0.611192 0.000000 0.717153
O O5 0.500000 0.661053 0.500000
O O6 0.444052 0.622512 0.713462
O O7 0.350585 0.704026 0.430394
O O8 0.501768 0.753824 0.731709
O O9 0.592617 0.500000 0.186514
O O10 0.723864 0.582697 0.432130
O O11 0.633245 0.625361 0.104441
O O12 0.720616 0.112619 0.243962
O O13 0.606393 0.136273 0.323713
O O14 0.649077 0.000000 0.310533
O O15 0.209044 0.750404 0.125193
O O16 0.310781 0.657179 0.110089
O O17 0.500000 0.185140 0.000000
#
# Coordination Sequence:
#
# PCOD9208584 Si02
#       7
#     8   8   8   8   8   8   8
#     4  11  23  38  60  93 135 177 206 239 299 367
#     4  11  24  43  64  85 118 157 203 258 318 377
#     4  10  22  40  64  90 117 156 203 252 306 360
#     4  10  21  38  58  86 126 165 201 242 293 360
#     4  10  22  38  61  89 119 165 208 250 307 362
#     4  12  24  37  60  92 125 163 206 252 304 365
#     4  11  21  37  61  91 125 158 208 258 295 354
#
# _framework density 23.455984000000001
#
# number of rings (size 3 to 8) (size 9 to 14) (size 15 to 20)
#    0.000    1.286    0.000    6.429    0.000   11.714 
#    0.000    0.000    0.000    3.000    0.000    0.000 
#    0.000    0.000    0.000    0.000    0.000    0.000 
#
# Total GULP energy -156816.687999 kJ/mol
# GULP energy per Si atom -5600.596000 kJ/mol
# Density = 2.340260 g / cm^3
# Si number density = 23.455984 Si / 1000 Ang^3
#
#
#
# Elastic Constant Matrix: (Units=GPa)
#
#
# Indices 1 2 3 4 5 6 
#
# 1 96.5994 43.9374 41.9556 0.0000 -28.1039 0.0000
# 2 43.9374 110.6344 42.5410 0.0000 -32.6028 0.0000
# 3 41.9556 42.5410 131.9545 0.0000 -10.4852 0.0000
# 4 0.0000 0.0000 0.0000 3.7930 0.0000 -4.6526
# 5 -28.1039 -32.6028 -10.4852 0.0000 55.3365 0.0000
# 6 0.0000 0.0000 0.0000 -4.6526 0.0000 20.0483
#
#
#
# Elastic Compliance Matrix: (Units=1/GPa)
#
#
# Indices 1 2 3 4 5 6 
#
# 1 0.014622 -0.003083 -0.003259 0.000000 0.004992 0.000000
# 2 -0.003083 0.012957 -0.002756 0.000000 0.005546 0.000000
# 3 -0.003259 -0.002756 0.009384 0.000000 -0.001501 0.000000
# 4 0.000000 0.000000 0.000000 0.368561 0.000000 0.085532
# 5 0.004992 0.005546 -0.001501 0.000000 0.023590 0.000000
# 6 0.000000 0.000000 0.000000 0.085532 0.000000 0.069729
#
#
# Mechanical properties :
#
#
# Convention : Reuss Voigt Hill
#
# Bulk Modulus (GPa) = 53.28348 66.22849 59.75599
# Shear Modulus (GPa) = 9.55484 29.88585 19.72034
#
# Velocity S-wave (km/s) = 2.02049 3.57336 2.90269
# Velocity P-wave (km/s) = 5.31120 6.73214 6.06344
#
# Compressibility (1/GPa) = 0.01876754
#
# Stress axis : x y z
#
# Youngs Moduli (GPa) = 68.39041 77.17605 106.56623
#
# Poissons Ratio (x) = 0.23792 0.34725
# Poissons Ratio (y) = 0.21083 0.29374
# Poissons Ratio (z) = 0.22285 0.21273
#
# Static dielectric constant tensor:
#      x y z
#    x 1.917280 0.000000 0.051980 
#    y 0.000000 1.803350 0.000000 
#    z 0.051980 0.000000 1.905750 
# 
# From -- ./inp_files/75997.got.cif
#   From: 2010.05.17/outbox.cif.g08.bks.cpg/sg12_38_cif.got.tgz:75997.got - 2010.06.03 13:09:07.
