data_PCOD9208226
_publ_section_title
;
Structure prediction by ZEFSAII (Michael W. Deem and Ramdas Pophale) SiO2 
 PCOD9208226
Probable space group: C 2/M
;
_chemical_formula_sum "Si O2"
_cell_formula_units_Z 56
_cell_length_a 26.728310
_cell_length_b 17.707911
_cell_length_c 16.913637
_cell_angle_alpha 90.000000
_cell_angle_beta 161.643890
_cell_angle_gamma 90.000000
_cell_volume 2521.035430
_symmetry_space_group_name_H-M "C 2/M"
_symmetry_group_IT_number 12
_symmetry_cell_setting 'monoclinic'
loop_
_space_group_symop_operation_xyz
x,y,z
-x,y,-z
-x,-y,-z
x,-y,z
1/2+x,1/2+y,z
1/2-x,1/2+y,-z
1/2-x,1/2-y,-z
1/2+x,1/2-y,z
loop_
_atom_site_type_symbol
_atom_site_label
_atom_site_fract_x
_atom_site_fract_y
_atom_site_fract_z
Si Si1 0.796212 0.356653 0.460479
Si Si2 0.736702 0.414625 0.954102
Si Si3 0.611383 0.589025 0.330118
Si Si4 0.656190 0.842043 0.033274
Si Si5 0.815805 0.310562 0.743450
Si Si6 0.330904 0.672918 0.998968
Si Si7 0.892489 0.414512 0.440111
O O1 0.836550 0.112581 0.679654
O O2 0.771597 0.267036 0.411813
O O3 0.796023 0.396875 0.375529
O O4 0.973189 0.369841 0.760657
O O5 0.682572 0.500000 0.887452
O O6 0.736753 0.395005 0.861479
O O7 0.923633 0.409391 0.259018
O O8 0.650748 0.357610 0.884682
O O9 0.587601 0.500000 0.300172
O O10 0.752350 0.619914 0.597220
O O11 0.461312 0.634197 0.138404
O O12 0.656146 0.762021 0.987912
O O13 0.709612 0.827385 0.202459
O O14 0.000000 0.298433 0.000000
O O15 0.166953 0.643422 0.714748
O O16 0.861588 0.500000 0.365745
#
# Coordination Sequence:
#
# PCOD9208226 Si02
#       7
#     8   8   8   8   8   8   8
#     4  11  22  42  63  92 126 159 211 258 310 371
#     4  10  23  42  65  92 127 166 211 261 308 367
#     4  12  26  40  62  94 131 168 206 255 313 373
#     4  11  23  42  68  93 122 167 212 259 308 370
#     4  12  23  42  65  91 125 166 208 257 310 372
#     4  12  22  41  64  93 131 165 208 256 316 372
#     4  10  21  37  63  93 125 162 206 258 314 369
#
# _framework density 22.213094999999999
#
# number of rings (size 3 to 8) (size 9 to 14) (size 15 to 20)
#    0.000    0.857    4.286    3.857    0.000    2.571 
#    0.000    2.143    0.000    1.714    0.000    0.000 
#    0.000    0.000    0.000    0.000    0.000    0.000 
#
# Total GULP energy -156721.802113 kJ/mol
# GULP energy per Si atom -5597.207218 kJ/mol
# Density = 2.216254 g / cm^3
# Si number density = 22.213095 Si / 1000 Ang^3
#
#
#
# Elastic Constant Matrix: (Units=GPa)
#
#
# Indices 1 2 3 4 5 6 
#
# 1 130.3708 1.1315 -7.8731 0.0000 0.7557 0.0000
# 2 1.1315 50.3032 -7.4153 0.0000 -0.4278 0.0000
# 3 -7.8731 -7.4153 15.1427 0.0000 5.9987 0.0000
# 4 0.0000 0.0000 0.0000 -52.3767 0.0000 -0.0461
# 5 0.7557 -0.4278 5.9987 0.0000 23.5327 0.0000
# 6 0.0000 0.0000 0.0000 -0.0461 0.0000 -168.3096
#
#
#
# Elastic Compliance Matrix: (Units=1/GPa)
#
#
# Indices 1 2 3 4 5 6 
#
# 1 0.007978 0.000548 0.005021 0.000000 -0.001526 0.000000
# 2 0.000548 0.021601 0.011918 0.000000 -0.002663 0.000000
# 3 0.005021 0.011918 0.082827 0.000000 -0.021058 0.000000
# 4 0.000000 0.000000 0.000000 -0.019092 0.000000 0.000005
# 5 -0.001526 -0.002663 -0.021058 0.000000 0.047862 0.000000
# 6 0.000000 0.000000 0.000000 0.000005 0.000000 -0.005941
#
#
# Mechanical properties :
#
#
# Convention : Reuss Voigt Hill
#
# Bulk Modulus (GPa) = 6.78531 18.61143 12.69837
# Shear Modulus (GPa) = 33.46980 -25.43247 4.01867
#
# Velocity S-wave (km/s) = 3.88591 -3.38735 1.34650
# Velocity P-wave (km/s) = 4.81612 2.62719 2.85420
#
# Compressibility (1/GPa) = 0.14737726
#
# Stress axis : x y z
#
# Youngs Moduli (GPa) = 125.34916 46.29353 12.07341
#
# Poissons Ratio (x) = -0.02535 -0.06062
# Poissons Ratio (y) = -0.06865 -0.14389
# Poissons Ratio (z) = -0.62932 -0.55171
#
# Static dielectric constant tensor:
#      x y z
#    x 1.821260 0.000000 0.010790 
#    y 0.000000 1.764450 0.000000 
#    z 0.010790 0.000000 1.848030 
# 
# From -- ./inp_files/296944.got.cif
#   From: 2010.05.17/outbox.cif.g08.bks.cpg/sg12_149_cif.got.tgz:296944.got - 2010.06.03 13:09:07.
