data_PCOD9208495
_publ_section_title
;
Structure prediction by ZEFSAII (Michael W. Deem and Ramdas Pophale) SiO2 
 PCOD9208495
Probable space group: C 2/M
;
_chemical_formula_sum "Si O2"
_cell_formula_units_Z 28
_cell_length_a 7.786663
_cell_length_b 5.779911
_cell_length_c 20.917687
_cell_angle_alpha 90.000000
_cell_angle_beta 72.118631
_cell_angle_gamma 90.000000
_cell_volume 895.949760
_symmetry_space_group_name_H-M "C 2/M"
_symmetry_group_IT_number 12
_symmetry_cell_setting 'monoclinic'
loop_
_space_group_symop_operation_xyz
x,y,z
-x,y,-z
-x,-y,-z
x,-y,z
1/2+x,1/2+y,z
1/2-x,1/2+y,-z
1/2-x,1/2-y,-z
1/2+x,1/2-y,z
loop_
_atom_site_type_symbol
_atom_site_label
_atom_site_fract_x
_atom_site_fract_y
_atom_site_fract_z
Si Si1 0.418512 0.000000 0.654497
Si Si2 0.834601 0.500000 0.068440
Si Si3 0.805831 0.500000 0.464675
Si Si4 0.551678 0.000000 0.796814
Si Si5 0.873474 0.000000 0.657753
Si Si6 0.834678 0.000000 0.069535
Si Si7 0.071581 0.000000 0.789526
O O1 0.482489 0.265829 0.657250
O O2 0.476033 0.000000 0.572797
O O3 0.238805 0.000000 0.719953
O O4 0.894949 0.500000 0.135243
O O5 0.742638 0.249971 0.068909
O O6 0.000000 0.500000 0.000000
O O7 0.750000 0.750000 0.500000
O O8 0.710171 0.500000 0.403962
O O9 0.713768 0.000000 0.727602
O O10 0.469607 0.254873 0.793590
O O11 0.875843 0.000000 0.140916
O O12 0.000000 0.000000 0.000000
#
# Coordination Sequence:
#
# PCOD9208495 Si02
#       7
#     4   4   4   4   4   4   4
#     4  10  21  38  58  79 108 141 177 222 271 322
#     4   8  12  18  31  55  88 119 153 199 239 283
#     4  12  26  40  58  84 108 138 182 224 274 332
#     4   8  14  25  42  64  92 126 163 203 247 299
#     4  10  21  38  58  79 108 141 177 222 271 322
#     4   8  12  18  31  55  88 119 153 199 239 283
#     4   8  14  25  42  64  92 126 163 203 247 299
#
# _framework density 31.251753999999998
#
# number of rings (size 3 to 8) (size 9 to 14) (size 15 to 20)
#    0.000    2.857    0.000    1.714    0.000    3.429 
#    0.000    0.000    0.000    0.000    0.000    0.000 
#    0.000   82.286    0.000    0.000    0.000   64.286 
#
# Total GULP energy -78128.663960 kJ/mol
# GULP energy per Si atom -5580.618854 kJ/mol
# Density = 3.118062 g / cm^3
# Si number density = 31.251754 Si / 1000 Ang^3
#
#
#
# Elastic Constant Matrix: (Units=GPa)
#
#
# Indices 1 2 3 4 5 6 
#
# 1 69.7781 78.3526 85.5942 0.0000 6.0663 0.0000
# 2 78.3526 480.0035 52.9150 0.0000 2.6643 0.0000
# 3 85.5942 52.9150 323.2675 0.0000 -16.8721 0.0000
# 4 0.0000 0.0000 0.0000 53.5233 0.0000 -8.0299
# 5 6.0663 2.6643 -16.8721 0.0000 88.5400 0.0000
# 6 0.0000 0.0000 0.0000 -8.0299 0.0000 29.7546
#
#
#
# Elastic Compliance Matrix: (Units=1/GPa)
#
#
# Indices 1 2 3 4 5 6 
#
# 1 0.026855 -0.003631 -0.006673 0.000000 -0.003002 0.000000
# 2 -0.003631 0.002614 0.000548 0.000000 0.000275 0.000000
# 3 -0.006673 0.000548 0.004842 0.000000 0.001363 0.000000
# 4 0.000000 0.000000 0.000000 0.019472 0.000000 0.005255
# 5 -0.003002 0.000275 0.001363 0.000000 0.011752 0.000000
# 6 0.000000 0.000000 0.000000 0.005255 0.000000 0.035026
#
#
# Mechanical properties :
#
#
# Convention : Reuss Voigt Hill
#
# Bulk Modulus (GPa) = 67.57528 145.19696 106.38612
# Shear Modulus (GPa) = 39.99789 78.10940 59.05365
#
# Velocity S-wave (km/s) = 3.58140 5.00478 4.35168
# Velocity P-wave (km/s) = 6.22669 8.94195 7.70487
#
# Compressibility (1/GPa) = 0.01479831
#
# Stress axis : x y z
#
# Youngs Moduli (GPa) = 37.23663 382.53285 206.53749
#
# Poissons Ratio (x) = 1.38913 1.37822
# Poissons Ratio (y) = 0.13522 -0.11317
# Poissons Ratio (z) = 0.24848 -0.20960
#
# Static dielectric constant tensor:
#      x y z
#    x 2.476300 0.000000 0.017550 
#    y 0.000000 2.258340 0.000000 
#    z 0.017550 0.000000 2.398490 
# 
# From -- ./inp_files/303159.got.cif
#   From: 2010.05.17/outbox.cif.g08.bks.cpg/sg12_152_cif.got.tgz:303159.got - 2010.06.03 13:09:07.
