data_PCOD9208061
_publ_section_title
;
Structure prediction by ZEFSAII (Michael W. Deem and Ramdas Pophale) SiO2 
 PCOD9208061
Probable space group: C 2/M
;
_chemical_formula_sum "Si O2"
_cell_formula_units_Z 64
_cell_length_a 14.494047
_cell_length_b 19.031193
_cell_length_c 12.223612
_cell_angle_alpha 90.000000
_cell_angle_beta 117.978302
_cell_angle_gamma 90.000000
_cell_volume 2977.676895
_symmetry_space_group_name_H-M "C 2/M"
_symmetry_group_IT_number 12
_symmetry_cell_setting 'monoclinic'
loop_
_space_group_symop_operation_xyz
x,y,z
-x,y,-z
-x,-y,-z
x,-y,z
1/2+x,1/2+y,z
1/2-x,1/2+y,-z
1/2-x,1/2-y,-z
1/2+x,1/2-y,z
loop_
_atom_site_type_symbol
_atom_site_label
_atom_site_fract_x
_atom_site_fract_y
_atom_site_fract_z
Si Si1 0.255870 0.581834 0.212904
Si Si2 0.278054 0.183974 0.130209
Si Si3 0.973659 0.326470 0.360708
Si Si4 0.974871 0.157852 0.359119
Si Si5 0.882544 0.919762 0.937230
Si Si6 0.878218 0.700348 0.958976
Si Si7 0.343047 0.918878 0.603192
Si Si8 0.659598 0.418924 0.341609
O O1 0.264065 0.500000 0.185037
O O2 0.365837 0.622293 0.264383
O O3 0.164395 0.624363 0.100490
O O4 0.223763 0.584090 0.323180
O O5 0.358417 0.151661 0.260486
O O6 0.197698 0.126359 0.039697
O O7 0.201531 0.242837 0.138599
O O8 0.350911 0.210770 0.071960
O O9 0.973369 0.242129 0.349547
O O10 0.000000 0.344489 0.500000
O O11 0.060355 0.365900 0.337496
O O12 0.000000 0.140183 0.500000
O O13 0.066951 0.128232 0.335834
O O14 0.842425 0.917547 0.790239
O O15 0.887444 0.000000 0.978747
O O16 0.000000 0.891162 0.000000
O O17 0.000000 0.709680 0.000000
O O18 0.267340 0.898915 0.460558
O O19 0.378263 0.000000 0.607762
O O20 0.639432 0.500000 0.363831
#
# Coordination Sequence:
#
# PCOD9208061 Si02
#       8
#     8   8   8   8   8   8   8   8
#     4  11  23  41  66  96 130 168 216 269 324 386
#     4  11  24  44  66  92 129 174 214 262 332 386
#     4  11  24  41  63  97 128 166 218 267 319 382
#     4  11  22  39  62  98 134 168 215 269 329 385
#     4  10  23  40  61  92 124 164 220 273 322 381
#     4  11  25  44  67  93 128 173 218 263 323 396
#     4  10  22  40  63  93 129 172 213 261 327 391
#     4  10  21  37  61  91 127 172 213 259 328 389
#
# _framework density 21.493265999999998
#
# number of rings (size 3 to 8) (size 9 to 14) (size 15 to 20)
#    0.000    1.375    2.500    2.250    1.750    4.500 
#    0.000    0.000    0.000    0.000    0.000    0.000 
#    0.000    0.000    0.000    0.000    0.000    0.000 
#
# Total GULP energy -178877.653577 kJ/mol
# GULP energy per Si atom -5589.926674 kJ/mol
# Density = 2.144435 g / cm^3
# Si number density = 21.493266 Si / 1000 Ang^3
#
#
#
# Elastic Constant Matrix: (Units=GPa)
#
#
# Indices 1 2 3 4 5 6 
#
# 1 118.8314 49.1165 29.0340 0.0000 35.7040 0.0000
# 2 49.1165 70.4288 14.4429 0.0000 27.5387 0.0000
# 3 29.0340 14.4429 88.1730 0.0000 26.7111 0.0000
# 4 0.0000 0.0000 0.0000 27.0095 0.0000 8.8707
# 5 35.7040 27.5387 26.7111 0.0000 41.3998 0.0000
# 6 0.0000 0.0000 0.0000 8.8707 0.0000 28.7509
#
#
#
# Elastic Compliance Matrix: (Units=1/GPa)
#
#
# Indices 1 2 3 4 5 6 
#
# 1 0.013356 -0.006593 -0.001438 0.000000 -0.006205 0.000000
# 2 -0.006593 0.022503 0.001612 0.000000 -0.010322 0.000000
# 3 -0.001438 0.001612 0.014294 0.000000 -0.009054 0.000000
# 4 0.000000 0.000000 0.000000 0.041199 0.000000 -0.012711
# 5 -0.006205 -0.010322 -0.009054 0.000000 0.042214 0.000000
# 6 0.000000 0.000000 0.000000 -0.012711 0.000000 0.038703
#
#
# Mechanical properties :
#
#
# Convention : Reuss Voigt Hill
#
# Bulk Modulus (GPa) = 26.79992 51.40222 39.10107
# Shear Modulus (GPa) = 25.31059 31.75470 28.53265
#
# Velocity S-wave (km/s) = 3.43535 3.84790 3.64746
# Velocity P-wave (km/s) = 5.31334 6.61129 5.99753
#
# Compressibility (1/GPa) = 0.03731355
#
# Stress axis : x y z
#
# Youngs Moduli (GPa) = 74.87132 44.43941 69.96052
#
# Poissons Ratio (x) = 0.29301 0.10063
# Poissons Ratio (y) = 0.49366 -0.11279
# Poissons Ratio (z) = 0.10769 -0.07165
#
# Static dielectric constant tensor:
#      x y z
#    x 1.758300 0.000000 -0.024070 
#    y 0.000000 1.805350 0.000000 
#    z -0.024070 0.000000 1.809190 
# 
# From -- ./inp_files/216830.got.cif
#   From: 2010.05.17/outbox.cif.g08.bks.cpg/sg12_109_cif.got.tgz:216830.got - 2010.06.03 13:09:07.
