data_PCOD9208839
_publ_section_title
;
Structure prediction by ZEFSAII (Michael W. Deem and Ramdas Pophale) SiO2 
 PCOD9208839
Probable space group: C 2/M
;
_chemical_formula_sum "Si O2"
_cell_formula_units_Z 56
_cell_length_a 16.537404
_cell_length_b 7.608905
_cell_length_c 18.481451
_cell_angle_alpha 90.000000
_cell_angle_beta 67.706993
_cell_angle_gamma 90.000000
_cell_volume 2151.728562
_symmetry_space_group_name_H-M "C 2/M"
_symmetry_group_IT_number 12
_symmetry_cell_setting 'monoclinic'
loop_
_space_group_symop_operation_xyz
x,y,z
-x,y,-z
-x,-y,-z
x,-y,z
1/2+x,1/2+y,z
1/2-x,1/2+y,-z
1/2-x,1/2-y,-z
1/2+x,1/2-y,z
loop_
_atom_site_type_symbol
_atom_site_label
_atom_site_fract_x
_atom_site_fract_y
_atom_site_fract_z
Si Si1 0.300794 0.798583 0.330455
Si Si2 0.010524 0.214171 0.384482
Si Si3 0.995281 0.797871 0.233233
Si Si4 0.599880 0.213561 0.957299
Si Si5 0.644725 0.200937 0.095124
Si Si6 0.748878 0.295729 0.805617
Si Si7 0.142442 0.214227 0.467687
O O1 0.391698 0.708793 0.280362
O O2 0.246202 0.794376 0.273751
O O3 0.238964 0.721741 0.414471
O O4 0.320948 0.000000 0.340493
O O5 0.031398 0.275669 0.297258
O O6 0.913618 0.269831 0.443809
O O7 0.079579 0.264799 0.421892
O O8 0.009528 0.000000 0.382669
O O9 0.042066 0.700402 0.152078
O O10 0.019888 0.000000 0.215588
O O11 0.650172 0.275942 0.012970
O O12 0.601650 0.000000 0.955401
O O13 0.500000 0.270013 0.000000
O O14 0.650399 0.280555 0.870209
O O15 0.694142 0.281271 0.147384
O O16 0.674564 0.000000 0.081077
O O17 0.770556 0.500000 0.787541
O O18 0.146711 0.000000 0.467058
#
# Coordination Sequence:
#
# PCOD9208839 Si02
#       7
#     8   8   8   8   8   8   8
#     4  11  22  36  55  79 110 149 189 228 277 333
#     4   8  15  30  52  79 108 138 181 232 274 320
#     4  11  22  35  55  83 113 146 185 230 278 326
#     4  10  21  38  60  84 112 148 185 221 267 325
#     4  10  22  39  58  83 115 148 183 225 272 324
#     4  11  23  38  58  84 113 145 184 231 276 320
#     4   8  15  30  53  78 105 142 185 226 271 325
#
# _framework density 26.025589
#
# number of rings (size 3 to 8) (size 9 to 14) (size 15 to 20)
#    0.000    2.143    0.000    4.286    0.000    4.857 
#    0.000    0.000    0.000    2.571    0.000   10.000 
#    0.000    0.000    0.000    0.000    0.000    0.000 
#
# Total GULP energy -156678.577827 kJ/mol
# GULP energy per Si atom -5595.663494 kJ/mol
# Density = 2.596635 g / cm^3
# Si number density = 26.025589 Si / 1000 Ang^3
#
#
#
# Elastic Constant Matrix: (Units=GPa)
#
#
# Indices 1 2 3 4 5 6 
#
# 1 77.1389 7.5304 -2.2830 0.0000 -17.3830 0.0000
# 2 7.5304 83.8302 2.7016 0.0000 -3.3644 -0.0001
# 3 -2.2830 2.7016 121.9269 0.0000 -21.2097 0.0000
# 4 0.0000 0.0000 0.0000 10.5458 0.0000 -1.1787
# 5 -17.3830 -3.3644 -21.2097 0.0000 52.3337 0.0000
# 6 0.0000 -0.0001 0.0000 -1.1787 0.0000 19.7267
#
#
#
# Elastic Compliance Matrix: (Units=1/GPa)
#
#
# Indices 1 2 3 4 5 6 
#
# 1 0.014268 -0.001113 0.001187 0.000000 0.005149 0.000000
# 2 -0.001113 0.012049 -0.000234 0.000000 0.000310 0.000000
# 3 0.001187 -0.000234 0.008924 0.000000 0.003996 0.000000
# 4 0.000000 0.000000 0.000000 0.095462 0.000000 0.005704
# 5 0.005149 0.000310 0.003996 0.000000 0.022458 0.000000
# 6 0.000000 0.000000 0.000000 0.005704 0.000000 0.051034
#
#
# Mechanical properties :
#
#
# Convention : Reuss Voigt Hill
#
# Bulk Modulus (GPa) = 28.63572 33.19933 30.91753
# Shear Modulus (GPa) = 23.13167 34.85105 28.99136
#
# Velocity S-wave (km/s) = 2.98452 3.66335 3.34122
# Velocity P-wave (km/s) = 4.78573 5.53874 5.17595
#
# Compressibility (1/GPa) = 0.03492141
#
# Stress axis : x y z
#
# Youngs Moduli (GPa) = 70.08828 82.99542 112.05477
#
# Poissons Ratio (x) = 0.09240 -0.13306
# Poissons Ratio (y) = 0.07803 0.02621
# Poissons Ratio (z) = -0.08323 0.01941
#
# Static dielectric constant tensor:
#      x y z
#    x 2.166940 0.000000 0.002240 
#    y 0.000000 1.936790 0.000000 
#    z 0.002240 0.000000 1.984760 
# 
# From -- ./inp_files/275331.got.cif
#   From: 2010.05.17/outbox.cif.g08.bks.cpg/sg12_138_cif.got.tgz:275331.got - 2010.06.03 13:09:07.
