data_PCOD9208353
_publ_section_title
;
Structure prediction by ZEFSAII (Michael W. Deem and Ramdas Pophale) SiO2 
 PCOD9208353
Probable space group: C 2/M
;
_chemical_formula_sum "Si O2"
_cell_formula_units_Z 52
_cell_length_a 14.809636
_cell_length_b 17.987789
_cell_length_c 15.379103
_cell_angle_alpha 90.000000
_cell_angle_beta 40.688189
_cell_angle_gamma 90.000000
_cell_volume 2670.928158
_symmetry_space_group_name_H-M "C 2/M"
_symmetry_group_IT_number 12
_symmetry_cell_setting 'monoclinic'
loop_
_space_group_symop_operation_xyz
x,y,z
-x,y,-z
-x,-y,-z
x,-y,z
1/2+x,1/2+y,z
1/2-x,1/2+y,-z
1/2-x,1/2-y,-z
1/2+x,1/2-y,z
loop_
_atom_site_type_symbol
_atom_site_label
_atom_site_fract_x
_atom_site_fract_y
_atom_site_fract_z
Si Si1 0.795716 0.412653 0.987333
Si Si2 0.665471 0.086914 0.381972
Si Si3 0.256964 0.726021 0.395268
Si Si4 0.000000 0.188733 0.500000
Si Si5 0.947330 0.318500 0.134060
Si Si6 0.687763 0.413776 0.257548
Si Si7 0.653171 0.590192 0.915204
O O1 0.834578 0.500000 0.945185
O O2 0.708459 0.385276 0.968452
O O3 0.929827 0.362957 0.908252
O O4 0.706914 0.409947 0.140171
O O5 0.500000 0.096408 0.500000
O O6 0.738138 0.137937 0.400212
O O7 0.735057 0.110164 0.239875
O O8 0.693918 0.000000 0.375065
O O9 0.250000 0.750000 0.500000
O O10 0.385309 0.757383 0.245079
O O11 0.123016 0.761059 0.445910
O O12 0.059999 0.135193 0.382034
O O13 0.824268 0.376778 0.200952
O O14 0.000000 0.291782 0.000000
O O15 0.675965 0.500000 0.291620
O O16 0.647574 0.500000 0.922780
O O17 0.500000 0.615466 0.000000
#
# Coordination Sequence:
#
# PCOD9208353 Si02
#       7
#     8   8   8   4   8   8   8
#     4   9  17  31  57  88 121 159 208 254 296 356
#     4  10  22  42  66  88 118 161 208 255 306 364
#     4  11  24  40  61  87 122 158 199 253 315 367
#     4  10  21  38  53  78 122 160 198 252 311 374
#     4   9  19  35  56  86 120 159 201 247 305 367
#     4   9  17  32  55  83 118 160 203 246 297 360
#     4   9  19  35  58  88 118 151 196 256 309 348
#
# _framework density 19.468886999999999
#
# number of rings (size 3 to 8) (size 9 to 14) (size 15 to 20)
#    0.000    2.462    0.769    0.692    2.154    3.692 
#    0.000    5.385    0.000    6.462    0.000    0.000 
#    0.000    0.000    0.000    0.000    0.000    0.769 
#
# Total GULP energy -145118.025287 kJ/mol
# GULP energy per Si atom -5581.462511 kJ/mol
# Density = 1.942457 g / cm^3
# Si number density = 19.468887 Si / 1000 Ang^3
#
#
#
# Elastic Constant Matrix: (Units=GPa)
#
#
# Indices 1 2 3 4 5 6 
#
# 1 109.9505 26.5790 50.4042 -0.0001 12.5786 0.0001
# 2 26.5790 77.5353 39.6179 -0.0001 8.0736 0.0001
# 3 50.4042 39.6179 109.9066 -0.0002 -6.2255 0.0001
# 4 -0.0001 -0.0001 -0.0002 15.5937 0.0001 4.8168
# 5 12.5786 8.0736 -6.2255 0.0001 26.2180 -0.0001
# 6 0.0001 0.0001 0.0001 4.8168 -0.0001 19.8497
#
#
#
# Elastic Compliance Matrix: (Units=1/GPa)
#
#
# Indices 1 2 3 4 5 6 
#
# 1 0.012897 -0.000491 -0.006162 0.000000 -0.007499 0.000000
# 2 -0.000491 0.016928 -0.006243 0.000000 -0.006459 0.000000
# 3 -0.006162 -0.006243 0.014648 0.000000 0.008357 0.000000
# 4 0.000000 0.000000 0.000000 0.069325 -0.000001 -0.016823
# 5 -0.007499 -0.006459 0.008357 -0.000001 0.045713 0.000000
# 6 0.000000 0.000000 0.000000 -0.016823 0.000000 0.054461
#
#
# Mechanical properties :
#
#
# Convention : Reuss Voigt Hill
#
# Bulk Modulus (GPa) = 53.53102 58.95496 56.24299
# Shear Modulus (GPa) = 20.32592 24.38502 22.35547
#
# Velocity S-wave (km/s) = 3.23464 3.54292 3.39228
# Velocity P-wave (km/s) = 6.44250 6.86176 6.65544
#
# Compressibility (1/GPa) = 0.01868076
#
# Stress axis : x y z
#
# Youngs Moduli (GPa) = 77.53971 59.07311 68.26733
#
# Poissons Ratio (x) = 0.02903 0.42067
# Poissons Ratio (y) = 0.03810 0.42617
# Poissons Ratio (z) = 0.47781 0.36877
#
# Static dielectric constant tensor:
#      x y z
#    x 1.640480 0.000000 0.004740 
#    y 0.000000 1.696730 0.000000 
#    z 0.004740 0.000000 1.682030 
# 
# From -- ./inp_files/216718.got.cif
#   From: 2010.05.17/outbox.cif.g08.bks.cpg/sg12_109_cif.got.tgz:216718.got - 2010.06.03 13:09:07.
