data_PCOD9208080
_publ_section_title
;
Structure prediction by ZEFSAII (Michael W. Deem and Ramdas Pophale) SiO2 
 PCOD9208080
Probable space group: C 2/M
;
_chemical_formula_sum "Si O2"
_cell_formula_units_Z 56
_cell_length_a 15.919138
_cell_length_b 22.238150
_cell_length_c 14.278476
_cell_angle_alpha 90.000000
_cell_angle_beta 31.651172
_cell_angle_gamma 90.000000
_cell_volume 2652.464128
_symmetry_space_group_name_H-M "C 2/M"
_symmetry_group_IT_number 12
_symmetry_cell_setting 'monoclinic'
loop_
_space_group_symop_operation_xyz
x,y,z
-x,y,-z
-x,-y,-z
x,-y,z
1/2+x,1/2+y,z
1/2-x,1/2+y,-z
1/2-x,1/2-y,-z
1/2+x,1/2-y,z
loop_
_atom_site_type_symbol
_atom_site_label
_atom_site_fract_x
_atom_site_fract_y
_atom_site_fract_z
Si Si1 0.123382 0.228580 0.969306
Si Si2 0.391730 0.566416 0.023201
Si Si3 0.830423 0.430634 0.212238
Si Si4 0.156498 0.572523 0.576017
Si Si5 0.481048 0.644512 0.248763
Si Si6 0.102137 0.372826 0.313256
Si Si7 0.125987 0.170882 0.308484
O O1 0.267801 0.179820 0.825157
O O2 0.224502 0.289876 0.871004
O O3 0.016805 0.206979 0.159528
O O4 0.000000 0.230045 0.000000
O O5 0.454108 0.500000 0.951434
O O6 0.213542 0.569879 0.230003
O O7 0.500000 0.597233 0.000000
O O8 0.401023 0.597998 0.914840
O O9 0.782406 0.500000 0.241139
O O10 0.851573 0.422750 0.303629
O O11 0.701705 0.385147 0.291938
O O12 0.000000 0.420677 0.000000
O O13 0.165147 0.500000 0.545623
O O14 0.310574 0.611915 0.398267
O O15 0.008072 0.605983 0.667525
O O16 0.524882 0.651924 0.314282
O O17 0.000000 0.356856 0.500000
O O18 0.000000 0.201842 0.500000
#
# Coordination Sequence:
#
# PCOD9208080 Si02
#       7
#     8   8   8   8   8   8   8
#     4  11  25  47  70  95 135 179 230 291 348 411
#     4  10  21  37  61  92 130 176 222 273 340 405
#     4  10  24  44  68  99 141 187 228 282 342 408
#     4  11  23  41  67 105 146 182 227 279 340 411
#     4  11  23  42  66  98 134 176 227 283 339 408
#     4  11  22  39  64  95 136 177 224 277 336 403
#     4  12  25  46  70 102 133 180 237 286 348 406
#
# _framework density 21.112442000000001
#
# number of rings (size 3 to 8) (size 9 to 14) (size 15 to 20)
#    0.000    1.143    1.429    5.571    4.000    3.714 
#    2.571    1.429    0.000    0.000    0.000    0.000 
#    0.000    0.000    0.000    0.000    0.000    0.000 
#
# Total GULP energy -156171.015074 kJ/mol
# GULP energy per Si atom -5577.536253 kJ/mol
# Density = 2.106439 g / cm^3
# Si number density = 21.112442 Si / 1000 Ang^3
#
#
#
# Elastic Constant Matrix: (Units=GPa)
#
#
# Indices 1 2 3 4 5 6 
#
# 1 118.5508 30.6820 31.0904 -0.0042 -16.4721 0.0122
# 2 30.6820 65.7087 21.2674 -0.0288 -12.4051 -0.0225
# 3 31.0904 21.2674 103.5047 -0.0058 -7.1705 -0.0270
# 4 -0.0042 -0.0288 -0.0058 23.3340 0.0149 -8.1457
# 5 -16.4721 -12.4051 -7.1705 0.0149 42.8825 0.0497
# 6 0.0122 -0.0225 -0.0270 -8.1457 0.0497 1.9549
#
#
#
# Elastic Compliance Matrix: (Units=1/GPa)
#
#
# Indices 1 2 3 4 5 6 
#
# 1 0.010296 -0.003624 -0.002172 0.000164 0.002543 0.000485
# 2 -0.003624 0.018364 -0.002441 -0.000128 0.003512 -0.000420
# 3 -0.002172 -0.002441 0.010834 -0.000096 0.000272 -0.000274
# 4 0.000164 -0.000128 -0.000096 -0.094253 0.000498 -0.392755
# 5 0.002543 0.003512 0.000272 0.000498 0.025356 0.001459
# 6 0.000485 -0.000420 -0.000274 -0.392755 0.001459 -1.125069
#
#
# Mechanical properties :
#
#
# Convention : Reuss Voigt Hill
#
# Bulk Modulus (GPa) = 43.44198 50.42708 46.93453
# Shear Modulus (GPa) = -4.42351 27.28257 11.42953
#
# Velocity S-wave (km/s) = -1.44906 3.59869 2.32925
# Velocity P-wave (km/s) = 4.22155 6.41906 5.43257
#
# Compressibility (1/GPa) = 0.02301921
#
# Stress axis : x y z
#
# Youngs Moduli (GPa) = 97.12480 54.45376 92.30125
#
# Poissons Ratio (x) = 0.19737 0.20045
# Poissons Ratio (y) = 0.35203 0.22535
# Poissons Ratio (z) = 0.21092 0.13294
#
# Static dielectric constant tensor:
#      x y z
#    x 1.684310 -0.000010 -0.007220 
#    y -0.000010 1.847540 0.000010 
#    z -0.007220 0.000010 1.817750 
# 
# From -- ./inp_files/218682.got.cif
#   From: 2010.05.17/outbox.cif.g08.bks.cpg/sg12_110_cif.got.tgz:218682.got - 2010.06.03 13:09:07.
