data_PCOD9208743
_publ_section_title
;
Structure prediction by ZEFSAII (Michael W. Deem and Ramdas Pophale) SiO2 
 PCOD9208743
Probable space group: C 2/M
;
_chemical_formula_sum "Si O2"
_cell_formula_units_Z 50
_cell_length_a 10.416204
_cell_length_b 7.712568
_cell_length_c 32.835701
_cell_angle_alpha 90.000000
_cell_angle_beta 122.401699
_cell_angle_gamma 90.000000
_cell_volume 2227.192502
_symmetry_space_group_name_H-M "C 2/M"
_symmetry_group_IT_number 12
_symmetry_cell_setting 'monoclinic'
loop_
_space_group_symop_operation_xyz
x,y,z
-x,y,-z
-x,-y,-z
x,-y,z
1/2+x,1/2+y,z
1/2-x,1/2+y,-z
1/2-x,1/2-y,-z
1/2+x,1/2-y,z
loop_
_atom_site_type_symbol
_atom_site_label
_atom_site_fract_x
_atom_site_fract_y
_atom_site_fract_z
Si Si1 0.538412 0.291840 0.852893
Si Si2 0.572971 0.791319 0.470512
Si Si3 0.696580 0.797473 0.798514
Si Si4 0.354361 0.203765 0.362708
Si Si5 0.515150 0.297780 0.308952
Si Si6 0.919332 0.207003 0.044974
Si Si7 0.500000 0.000000 0.000000
O O1 0.538443 0.500000 0.848220
O O2 0.652031 0.221171 0.838226
O O3 0.364888 0.227134 0.817664
O O4 0.579224 0.257161 0.906661
O O5 0.500000 0.726025 0.500000
O O6 0.750000 0.750000 0.500000
O O7 0.477582 0.724299 0.415539
O O8 0.561750 0.000000 0.468563
O O9 0.566109 0.718008 0.748324
O O10 0.699996 0.000000 0.789092
O O11 0.413182 0.217782 0.326891
O O12 0.184978 0.278471 0.337758
O O13 0.340911 0.000000 0.369633
O O14 0.524430 0.500000 0.320552
O O15 0.951316 0.000000 0.044319
O O16 0.750000 0.250000 0.000000
O O17 0.022177 0.344669 0.038434
#
# Coordination Sequence:
#
# PCOD9208743 Si02
#       7
#     8   8   8   8   8   8   2
#     4  10  25  44  65  94 129 168 211 262 318 384
#     4  10  21  38  59  86 121 159 200 250 304 363
#     4  11  24  42  65  93 126 163 207 259 317 377
#     4  10  22  39  60  86 121 160 202 250 305 364
#     4  11  23  40  62  89 120 159 205 254 306 368
#     4  11  25  45  69 100 134 176 223 275 329 400
#     4  12  26  44  72  96 136 180 218 276 334 390
#
# _framework density 22.449787000000001
#
# number of rings (size 3 to 8) (size 9 to 14) (size 15 to 20)
#    0.000    1.440    0.800    3.120    3.360    8.640 
#    0.000    0.000    0.000    0.000    0.000    0.000 
#    0.000    0.000    0.000    0.000    0.000    0.000 
#
# Total GULP energy -139515.579372 kJ/mol
# GULP energy per Si atom -5580.623175 kJ/mol
# Density = 2.239869 g / cm^3
# Si number density = 22.449787 Si / 1000 Ang^3
#
#
#
# Elastic Constant Matrix: (Units=GPa)
#
#
# Indices 1 2 3 4 5 6 
#
# 1 81.3851 -5.7091 -2.2764 0.0000 3.1019 0.0000
# 2 -5.7091 74.3564 3.1303 0.0000 -2.5527 0.0000
# 3 -2.2764 3.1303 81.5873 0.0000 3.1450 0.0000
# 4 0.0000 0.0000 0.0000 20.1201 0.0000 17.8531
# 5 3.1019 -2.5527 3.1450 0.0000 41.9285 0.0000
# 6 0.0000 0.0000 0.0000 17.8531 0.0000 -34.6838
#
#
#
# Elastic Compliance Matrix: (Units=1/GPa)
#
#
# Indices 1 2 3 4 5 6 
#
# 1 0.012394 0.000907 0.000345 0.000000 -0.000888 0.000000
# 2 0.000907 0.013568 -0.000526 0.000000 0.000798 0.000000
# 3 0.000345 -0.000526 0.012324 0.000000 -0.000982 0.000000
# 4 0.000000 0.000000 0.000000 0.034118 0.000000 0.017562
# 5 -0.000888 0.000798 -0.000982 0.000000 0.024038 0.000000
# 6 0.000000 0.000000 0.000000 0.017562 0.000000 -0.019792
#
#
# Mechanical properties :
#
#
# Convention : Reuss Voigt Hill
#
# Bulk Modulus (GPa) = 25.16459 25.29095 25.22777
# Shear Modulus (GPa) = 56.53195 21.61855 39.07525
#
# Velocity S-wave (km/s) = 5.02356 3.10655 4.17653
# Velocity P-wave (km/s) = 6.69939 4.91503 5.87535
#
# Compressibility (1/GPa) = 0.03973838
#
# Stress axis : x y z
#
# Youngs Moduli (GPa) = 80.68192 73.70335 81.13931
#
# Poissons Ratio (x) = -0.06682 -0.02801
# Poissons Ratio (y) = -0.07315 0.04268
# Poissons Ratio (z) = -0.02786 0.03877
#
# Static dielectric constant tensor:
#      x y z
#    x 1.858740 0.000000 0.044050 
#    y 0.000000 1.843770 0.000000 
#    z 0.044050 0.000000 1.820420 
# 
# From -- ./inp_files/373491.got.cif
#   From: 2010.05.17/outbox.cif.g08.bks.cpg/sg12_187_cif.got.tgz:373491.got - 2010.06.03 13:09:07.
