data_PCOD9208229
_publ_section_title
;
Structure prediction by ZEFSAII (Michael W. Deem and Ramdas Pophale) SiO2 
 PCOD9208229
Probable space group: C 2/M
;
_chemical_formula_sum "Si O2"
_cell_formula_units_Z 58
_cell_length_a 18.273101
_cell_length_b 14.152430
_cell_length_c 12.273850
_cell_angle_alpha 90.000000
_cell_angle_beta 75.470774
_cell_angle_gamma 90.000000
_cell_volume 3072.616237
_symmetry_space_group_name_H-M "C 2/M"
_symmetry_group_IT_number 12
_symmetry_cell_setting 'monoclinic'
loop_
_space_group_symop_operation_xyz
x,y,z
-x,y,-z
-x,-y,-z
x,-y,z
1/2+x,1/2+y,z
1/2-x,1/2+y,-z
1/2-x,1/2-y,-z
1/2+x,1/2-y,z
loop_
_atom_site_type_symbol
_atom_site_label
_atom_site_fract_x
_atom_site_fract_y
_atom_site_fract_z
Si Si1 0.297881 0.748438 0.722678
Si Si2 0.415961 0.113077 0.070099
Si Si3 0.998306 0.107032 0.130733
Si Si4 0.197028 0.612732 0.087125
Si Si5 0.419977 0.300360 0.494910
Si Si6 0.500000 0.500000 0.500000
Si Si7 0.333401 0.386610 0.892263
Si Si8 0.126185 0.756733 0.730828
O O1 0.322650 0.830258 0.797570
O O2 0.356846 0.726051 0.606335
O O3 0.294580 0.656000 0.800824
O O4 0.215268 0.772978 0.709598
O O5 0.394174 0.164740 0.189795
O O6 0.414911 0.000000 0.084917
O O7 0.500000 0.141866 0.000000
O O8 0.358275 0.135789 0.993129
O O9 0.079802 0.146837 0.136596
O O10 0.926076 0.163231 0.195789
O O11 0.994041 0.000000 0.175710
O O12 0.000000 0.103783 0.000000
O O13 0.194172 0.500000 0.105224
O O14 0.281935 0.639233 0.015258
O O15 0.500000 0.255891 0.500000
O O16 0.439227 0.413523 0.489318
O O17 0.396169 0.260803 0.386875
O O18 0.334624 0.500000 0.888055
#
# Coordination Sequence:
#
# PCOD9208229 Si02
#       8
#     8   8   8   8   8   2   8   8
#     4  12  24  38  65  93 129 167 213 264 319 388
#     4  10  23  40  61  90 126 172 218 260 310 376
#     4  10  22  36  58  95 131 167 206 262 329 388
#     4  10  22  41  60  93 131 169 214 265 325 381
#     4  10  25  45  67  94 123 164 212 260 324 388
#     4   8  24  48  72  96 120 164 212 272 326 386
#     4  10  21  37  63  93 128 166 212 265 327 387
#     4  12  24  39  65  92 132 166 214 261 319 381
#
# _framework density 18.876422999999999
#
# number of rings (size 3 to 8) (size 9 to 14) (size 15 to 20)
#    0.414    1.103    1.379    2.897    7.724    1.655 
#    0.000    0.690    0.000    0.828    0.000    0.000 
#    0.000    0.000    0.000    0.000    0.000    0.000 
#
# Total GULP energy -161642.612514 kJ/mol
# GULP energy per Si atom -5573.883190 kJ/mol
# Density = 1.883346 g / cm^3
# Si number density = 18.876423 Si / 1000 Ang^3
#
#
#
# Elastic Constant Matrix: (Units=GPa)
#
#
# Indices 1 2 3 4 5 6 
#
# 1 140.0098 46.6611 55.5167 0.0000 3.6997 0.0000
# 2 46.6611 71.1664 50.0995 0.0000 -1.0310 0.0000
# 3 55.5167 50.0995 135.9909 0.0000 2.8949 0.0000
# 4 0.0000 0.0000 0.0000 -19.5159 0.0000 30.6379
# 5 3.6997 -1.0310 2.8949 0.0000 29.8992 0.0000
# 6 0.0000 0.0000 0.0000 30.6379 0.0000 25.0983
#
#
#
# Elastic Compliance Matrix: (Units=1/GPa)
#
#
# Indices 1 2 3 4 5 6 
#
# 1 0.009626 -0.004832 -0.002125 0.000000 -0.001152 0.000000
# 2 -0.004832 0.021451 -0.005971 0.000000 0.001916 0.000000
# 3 -0.002125 -0.005971 0.010441 0.000000 -0.000954 0.000000
# 4 0.000000 0.000000 0.000000 -0.017570 0.000000 0.021448
# 5 -0.001152 0.001916 -0.000954 0.000000 0.033747 0.000000
# 6 0.000000 0.000000 0.000000 0.021448 0.000000 0.013662
#
#
# Mechanical properties :
#
#
# Convention : Reuss Voigt Hill
#
# Bulk Modulus (GPa) = 63.84873 72.41353 68.13113
# Shear Modulus (GPa) = 48.81285 20.08897 34.45091
#
# Velocity S-wave (km/s) = 5.09071 3.26580 4.27673
# Velocity P-wave (km/s) = 8.27356 7.25712 7.78195
#
# Compressibility (1/GPa) = 0.01566202
#
# Stress axis : x y z
#
# Youngs Moduli (GPa) = 103.88801 46.61853 95.77779
#
# Poissons Ratio (x) = 0.22526 0.20352
# Poissons Ratio (y) = 0.50199 0.57186
# Poissons Ratio (z) = 0.22076 0.27834
#
# Static dielectric constant tensor:
#      x y z
#    x 1.690860 0.000000 0.017260 
#    y 0.000000 1.671730 0.000000 
#    z 0.017260 0.000000 1.680600 
# 
# From -- ./inp_files/156058.got.cif
#   From: 2010.05.17/outbox.cif.g08.bks.cpg/sg12_79_cif.got.tgz:156058.got - 2010.06.03 13:09:07.
