data_PCOD9208017
_publ_section_title
;
Structure prediction by ZEFSAII (Michael W. Deem and Ramdas Pophale) SiO2 
 PCOD9208017
Probable space group: C 2/M
;
_chemical_formula_sum "Si O2"
_cell_formula_units_Z 48
_cell_length_a 20.432492
_cell_length_b 13.047348
_cell_length_c 12.153250
_cell_angle_alpha 90.000000
_cell_angle_beta 133.400171
_cell_angle_gamma 90.000000
_cell_volume 2354.046534
_symmetry_space_group_name_H-M "C 2/M"
_symmetry_group_IT_number 12
_symmetry_cell_setting 'monoclinic'
loop_
_space_group_symop_operation_xyz
x,y,z
-x,y,-z
-x,-y,-z
x,-y,z
1/2+x,1/2+y,z
1/2-x,1/2+y,-z
1/2-x,1/2-y,-z
1/2+x,1/2-y,z
loop_
_atom_site_type_symbol
_atom_site_label
_atom_site_fract_x
_atom_site_fract_y
_atom_site_fract_z
Si Si1 0.339190 0.000000 0.777407
Si Si2 0.469178 0.208857 0.084790
Si Si3 0.777608 0.796105 0.413548
Si Si4 0.667938 0.611332 0.866307
Si Si5 0.267053 0.289428 0.852711
Si Si6 0.524945 0.000000 0.861956
Si Si7 0.960923 0.881803 0.699535
O O1 0.282576 0.104059 0.689646
O O2 0.423659 0.000000 0.792394
O O3 0.389505 0.000000 0.954197
O O4 0.531183 0.303855 0.189482
O O5 0.470546 0.116581 0.175574
O O6 0.500000 0.171547 0.000000
O O7 0.368245 0.247205 0.961373
O O8 0.750000 0.750000 0.500000
O O9 0.766601 0.705983 0.310690
O O10 0.879407 0.838582 0.533776
O O11 0.685951 0.500000 0.836907
O O12 0.704847 0.703701 0.837369
O O13 0.560548 0.621347 0.760803
O O14 0.719545 0.620110 0.043704
O O15 0.943329 0.000000 0.709514
#
# Coordination Sequence:
#
# PCOD9208017 Si02
#       7
#     4   8   8   8   8   4   8
#     4  11  20  34  54  82 113 156 194 230 290 347
#     4  11  19  34  57  85 117 152 194 247 297 348
#     4  12  23  38  57  90 124 155 191 241 299 367
#     4   9  21  40  62  86 113 155 207 250 291 340
#     4  10  21  37  61  89 115 155 200 247 293 346
#     4  11  18  32  54  83 109 145 203 242 280 341
#     4  10  22  38  55  84 122 156 194 240 297 357
#
# _framework density 20.390421
#
# number of rings (size 3 to 8) (size 9 to 14) (size 15 to 20)
#    0.000    1.500    4.167    2.000    2.333    1.000 
#    1.500    3.333    0.000    0.000    0.000    3.500 
#    0.000    0.000    0.000    0.000    0.000    0.000 
#
# Total GULP energy -133703.422303 kJ/mol
# GULP energy per Si atom -5570.975929 kJ/mol
# Density = 2.034401 g / cm^3
# Si number density = 20.390421 Si / 1000 Ang^3
#
#
#
# Elastic Constant Matrix: (Units=GPa)
#
#
# Indices 1 2 3 4 5 6 
#
# 1 39.9056 3.3170 21.3829 0.0000 2.1932 0.0000
# 2 3.3170 54.7286 15.1860 0.0000 13.9789 0.0000
# 3 21.3829 15.1860 92.8970 0.0000 18.1823 0.0000
# 4 0.0000 0.0000 0.0000 27.3187 0.0000 -0.8452
# 5 2.1932 13.9789 18.1823 0.0000 30.1778 0.0000
# 6 0.0000 0.0000 0.0000 -0.8452 0.0000 16.1266
#
#
#
# Elastic Compliance Matrix: (Units=1/GPa)
#
#
# Indices 1 2 3 4 5 6 
#
# 1 0.028714 -0.000388 -0.006998 0.000000 0.002309 0.000000
# 2 -0.000388 0.020972 -0.001636 0.000000 -0.008701 0.000000
# 3 -0.006998 -0.001636 0.014052 0.000000 -0.007200 0.000000
# 4 0.000000 0.000000 0.000000 0.036664 0.000000 0.001922
# 5 0.002309 -0.008701 -0.007200 0.000000 0.041337 0.000000
# 6 0.000000 0.000000 0.000000 0.001922 0.000000 0.062110
#
#
# Mechanical properties :
#
#
# Convention : Reuss Voigt Hill
#
# Bulk Modulus (GPa) = 21.88491 29.70031 25.79261
# Shear Modulus (GPa) = 21.08586 24.56765 22.82675
#
# Velocity S-wave (km/s) = 3.21924 3.47488 3.34950
# Velocity P-wave (km/s) = 4.95724 5.54050 5.25697
#
# Compressibility (1/GPa) = 0.04569360
#
# Stress axis : x y z
#
# Youngs Moduli (GPa) = 34.82589 47.68303 71.16405
#
# Poissons Ratio (x) = 0.01852 0.49800
# Poissons Ratio (y) = 0.01353 0.11642
# Poissons Ratio (z) = 0.24371 0.07801
#
# Static dielectric constant tensor:
#      x y z
#    x 1.758580 0.000000 -0.038420 
#    y 0.000000 1.792130 0.000000 
#    z -0.038420 0.000000 1.761000 
# 
# From -- ./inp_files/167671.got.cif
#   From: 2010.05.17/outbox.cif.g08.bks.cpg/sg12_84_cif.got.tgz:167671.got - 2010.06.03 13:09:07.
