data_PCOD9208784
_publ_section_title
;
Structure prediction by ZEFSAII (Michael W. Deem and Ramdas Pophale) SiO2 
 PCOD9208784
Probable space group: C 2/M
;
_chemical_formula_sum "Si O2"
_cell_formula_units_Z 64
_cell_length_a 18.244665
_cell_length_b 13.235255
_cell_length_c 13.608585
_cell_angle_alpha 90.000000
_cell_angle_beta 92.933487
_cell_angle_gamma 90.000000
_cell_volume 3281.796985
_symmetry_space_group_name_H-M "C 2/M"
_symmetry_group_IT_number 12
_symmetry_cell_setting 'monoclinic'
loop_
_space_group_symop_operation_xyz
x,y,z
-x,y,-z
-x,-y,-z
x,-y,z
1/2+x,1/2+y,z
1/2-x,1/2+y,-z
1/2-x,1/2-y,-z
1/2+x,1/2-y,z
loop_
_atom_site_type_symbol
_atom_site_label
_atom_site_fract_x
_atom_site_fract_y
_atom_site_fract_z
Si Si1 0.562503 0.620014 0.421616
Si Si2 0.713426 0.117057 0.661474
Si Si3 0.776544 0.305354 0.739850
Si Si4 0.589955 0.119737 0.804793
Si Si5 0.062489 0.732984 0.235369
Si Si6 0.717642 0.620209 0.530322
Si Si7 0.812886 0.785843 0.077881
Si Si8 0.578240 0.388315 0.058816
O O1 0.500000 0.631185 0.500000
O O2 0.564859 0.500000 0.393882
O O3 0.550390 0.693319 0.328123
O O4 0.639688 0.648532 0.477878
O O5 0.769417 0.183532 0.729103
O O6 0.634013 0.130387 0.704527
O O7 0.721619 0.146395 0.548070
O O8 0.733507 0.000000 0.670737
O O9 0.862173 0.330262 0.746583
O O10 0.736815 0.341899 0.639001
O O11 0.728823 0.333079 0.831193
O O12 0.508497 0.163724 0.787815
O O13 0.636340 0.191999 0.881587
O O14 0.590743 0.000000 0.830922
O O15 0.076406 0.803611 0.141969
O O16 0.715984 0.500000 0.538342
O O17 0.750000 0.750000 0.000000
O O18 0.863088 0.861975 0.020753
O O19 0.591915 0.500000 0.101508
O O20 0.500000 0.387959 0.000000
#
# Coordination Sequence:
#
# PCOD9208784 Si02
#       8
#     8   8   8   8   8   8   8   8
#     4  10  23  38  58  92 130 167 209 259 323 385
#     4   9  19  38  62  88 118 162 214 255 304 369
#     4  11  23  36  65  91 122 164 208 264 314 374
#     4  10  24  43  65  92 127 172 213 259 316 381
#     4  12  23  40  66  92 129 165 214 258 313 388
#     4  10  21  38  59  88 128 167 209 260 317 375
#     4  11  23  44  67  93 126 159 214 269 318 378
#     4  11  24  43  67  94 126 162 205 261 325 381
#
# _framework density 19.501512000000002
#
# number of rings (size 3 to 8) (size 9 to 14) (size 15 to 20)
#    0.000    1.500    3.750    0.750    3.500    2.000 
#    0.000    1.250    0.000    2.625    0.000    0.000 
#    0.000    0.000    0.000    0.000    0.000    0.000 
#
# Total GULP energy -178632.145086 kJ/mol
# GULP energy per Si atom -5582.254534 kJ/mol
# Density = 1.945713 g / cm^3
# Si number density = 19.501512 Si / 1000 Ang^3
#
#
#
# Elastic Constant Matrix: (Units=GPa)
#
#
# Indices 1 2 3 4 5 6 
#
# 1 115.6215 32.1138 31.2374 0.0000 -0.1647 0.0000
# 2 32.1138 38.6569 12.9099 0.0000 2.6609 0.0000
# 3 31.2374 12.9099 87.4033 0.0000 -4.9614 0.0000
# 4 0.0000 0.0000 0.0000 24.7393 0.0000 -2.1596
# 5 -0.1647 2.6609 -4.9614 0.0000 31.6438 0.0000
# 6 0.0000 0.0000 0.0000 -2.1596 0.0000 17.9713
#
#
#
# Elastic Compliance Matrix: (Units=1/GPa)
#
#
# Indices 1 2 3 4 5 6 
#
# 1 0.011926 -0.008957 -0.002919 0.000000 0.000358 0.000000
# 2 -0.008957 0.034213 -0.002036 0.000000 -0.003243 0.000000
# 3 -0.002919 -0.002036 0.012909 0.000000 0.002180 0.000000
# 4 0.000000 0.000000 0.000000 0.040850 0.000000 0.004909
# 5 0.000358 -0.003243 0.002180 0.000000 0.032218 0.000000
# 6 0.000000 0.000000 0.000000 0.004909 0.000000 0.056234
#
#
# Mechanical properties :
#
#
# Convention : Reuss Voigt Hill
#
# Bulk Modulus (GPa) = 32.02758 43.80042 37.91400
# Shear Modulus (GPa) = 22.06706 25.89894 23.98300
#
# Velocity S-wave (km/s) = 3.36751 3.64819 3.51066
# Velocity P-wave (km/s) = 5.61952 6.34464 5.99306
#
# Compressibility (1/GPa) = 0.03122309
#
# Stress axis : x y z
#
# Youngs Moduli (GPa) = 83.85154 29.22877 77.46572
#
# Poissons Ratio (x) = 0.26180 0.22612
# Poissons Ratio (y) = 0.75106 0.15774
# Poissons Ratio (z) = 0.24476 0.05952
#
# Static dielectric constant tensor:
#      x y z
#    x 1.680490 0.000000 -0.013600 
#    y 0.000000 1.720460 0.000000 
#    z -0.013600 0.000000 1.666420 
# 
# From -- ./inp_files/156646.got.cif
#   From: 2010.05.17/outbox.cif.g08.bks.cpg/sg12_79_cif.got.tgz:156646.got - 2010.06.03 13:09:07.
