data_PCOD9208122
_publ_section_title
;
Structure prediction by ZEFSAII (Michael W. Deem and Ramdas Pophale) SiO2 
 PCOD9208122
Probable space group: C 2/M
;
_chemical_formula_sum "Si O2"
_cell_formula_units_Z 40
_cell_length_a 17.571110
_cell_length_b 24.436737
_cell_length_c 9.886837
_cell_angle_alpha 90.000000
_cell_angle_beta 32.476886
_cell_angle_gamma 90.000000
_cell_volume 2279.508298
_symmetry_space_group_name_H-M "C 2/M"
_symmetry_group_IT_number 12
_symmetry_cell_setting 'monoclinic'
loop_
_space_group_symop_operation_xyz
x,y,z
-x,y,-z
-x,-y,-z
x,-y,z
1/2+x,1/2+y,z
1/2-x,1/2+y,-z
1/2-x,1/2-y,-z
1/2+x,1/2-y,z
loop_
_atom_site_type_symbol
_atom_site_label
_atom_site_fract_x
_atom_site_fract_y
_atom_site_fract_z
Si Si1 0.334925 0.000000 0.581815
Si Si2 0.641404 0.603603 0.874905
Si Si3 0.329084 0.270564 0.247183
Si Si4 0.333756 0.720234 0.756255
Si Si5 0.848573 0.500000 0.887940
Si Si6 0.864868 0.904711 0.789606
O O1 0.250678 0.055366 0.674238
O O2 0.350092 0.000000 0.722025
O O3 0.494334 0.000000 0.289210
O O4 0.691883 0.665041 0.760177
O O5 0.500000 0.594373 0.000000
O O6 0.613072 0.598832 0.079979
O O7 0.250000 0.250000 0.500000
O O8 0.252973 0.235490 0.246186
O O9 0.500000 0.262781 0.000000
O O10 0.500000 0.736926 0.500000
O O11 0.332240 0.656035 0.788308
O O12 0.250000 0.750000 0.000000
O O13 0.761594 0.445902 0.053089
O O14 0.000000 0.923631 0.500000
#
# Coordination Sequence:
#
# PCOD9208122 Si02
#       6
#     4   8   8   8   4   8
#     4   9  19  36  59  87 116 151 196 250 293 348
#     4  10  21  38  61  86 116 158 199 239 295 359
#     4  11  24  40  60  88 123 159 198 247 300 354
#     4  11  22  38  60  88 118 157 201 242 293 356
#     4   9  19  36  57  89 118 147 198 250 297 338
#     4  10  21  37  62  86 116 157 200 242 290 357
#
# _framework density 17.547643999999998
#
# number of rings (size 3 to 8) (size 9 to 14) (size 15 to 20)
#    0.000    1.800    2.000    1.800    8.400    3.200 
#    0.000    0.000    0.000    1.200    0.000    0.000 
#    0.000    0.000    0.000    0.000    0.000    0.000 
#
# Total GULP energy -111514.603670 kJ/mol
# GULP energy per Si atom -5575.730184 kJ/mol
# Density = 1.750771 g / cm^3
# Si number density = 17.547644 Si / 1000 Ang^3
#
#
#
# Elastic Constant Matrix: (Units=GPa)
#
#
# Indices 1 2 3 4 5 6 
#
# 1 133.7128 64.2463 67.2531 -0.0002 -7.5277 0.0000
# 2 64.2463 98.3269 76.3536 -0.0001 -23.1974 -0.0001
# 3 67.2531 76.3536 152.2419 -0.0002 -10.0644 0.0003
# 4 -0.0002 -0.0001 -0.0002 28.1471 0.0002 7.4192
# 5 -7.5277 -23.1974 -10.0644 0.0002 36.4719 0.0000
# 6 0.0000 -0.0001 0.0003 7.4192 0.0000 50.6435
#
#
#
# Elastic Compliance Matrix: (Units=1/GPa)
#
#
# Indices 1 2 3 4 5 6 
#
# 1 0.011462 -0.006529 -0.001943 0.000000 -0.002323 0.000000
# 2 -0.006529 0.023391 -0.008100 0.000000 0.011295 0.000000
# 3 -0.001943 -0.008100 0.011329 0.000000 -0.002427 0.000000
# 4 0.000000 0.000000 0.000000 0.036955 0.000000 -0.005414
# 5 -0.002323 0.011295 -0.002427 0.000000 0.033453 0.000000
# 6 0.000000 0.000000 0.000000 -0.005414 0.000000 0.020539
#
#
# Mechanical properties :
#
#
# Convention : Reuss Voigt Hill
#
# Bulk Modulus (GPa) = 76.69806 88.88751 82.79278
# Shear Modulus (GPa) = 28.63399 34.81439 31.72419
#
# Velocity S-wave (km/s) = 4.04392 4.45904 4.25654
# Velocity P-wave (km/s) = 8.09986 8.79065 8.45232
#
# Compressibility (1/GPa) = 0.01303814
#
# Stress axis : x y z
#
# Youngs Moduli (GPa) = 87.24574 42.75176 88.27077
#
# Poissons Ratio (x) = 0.27911 0.17147
# Poissons Ratio (y) = 0.56960 0.71503
# Poissons Ratio (z) = 0.16948 0.34631
#
# Static dielectric constant tensor:
#      x y z
#    x 1.763270 0.000000 0.171990 
#    y 0.000000 1.594360 0.000000 
#    z 0.171990 0.000000 1.775350 
# 
# From -- ./inp_files/79292.got.cif
#   From: 2010.05.17/outbox.cif.g08.bks.cpg/sg12_40_cif.got.tgz:79292.got - 2010.06.03 13:09:07.
