data_PCOD9208752
_publ_section_title
;
Structure prediction by ZEFSAII (Michael W. Deem and Ramdas Pophale) SiO2 
 PCOD9208752
Probable space group: C 2/M
;
_chemical_formula_sum "Si O2"
_cell_formula_units_Z 56
_cell_length_a 20.522822
_cell_length_b 8.720565
_cell_length_c 19.366377
_cell_angle_alpha 90.000000
_cell_angle_beta 120.019883
_cell_angle_gamma 90.000000
_cell_volume 3001.053018
_symmetry_space_group_name_H-M "C 2/M"
_symmetry_group_IT_number 12
_symmetry_cell_setting 'monoclinic'
loop_
_space_group_symop_operation_xyz
x,y,z
-x,y,-z
-x,-y,-z
x,-y,z
1/2+x,1/2+y,z
1/2-x,1/2+y,-z
1/2-x,1/2-y,-z
1/2+x,1/2-y,z
loop_
_atom_site_type_symbol
_atom_site_label
_atom_site_fract_x
_atom_site_fract_y
_atom_site_fract_z
Si Si1 0.065811 0.314914 0.480488
Si Si2 0.028023 0.817071 0.310888
Si Si3 0.417409 0.812889 0.932445
Si Si4 0.700921 0.182951 0.648157
Si Si5 0.633131 0.183691 0.247935
Si Si6 0.643384 0.315797 0.759644
Si Si7 0.271309 0.815292 0.937362
O O1 0.063027 0.500000 0.471981
O O2 0.052740 0.240241 0.399524
O O3 0.146031 0.271725 0.556270
O O4 0.000000 0.271473 0.500000
O O5 0.076932 0.741333 0.276951
O O6 0.939592 0.779096 0.256990
O O7 0.036460 0.000000 0.311616
O O8 0.394447 0.764596 0.842847
O O9 0.352134 0.764241 0.950831
O O10 0.417933 0.000000 0.932483
O O11 0.500000 0.761515 0.000000
O O12 0.783064 0.256937 0.692305
O O13 0.659201 0.233414 0.696033
O O14 0.708652 0.000000 0.650970
O O15 0.634708 0.000000 0.248147
O O16 0.647730 0.500000 0.750868
O O17 0.707726 0.272323 0.847976
O O18 0.272335 0.000000 0.941936
O O19 0.250000 0.750000 0.000000
#
# Coordination Sequence:
#
# PCOD9208752 Si02
#       7
#     8   8   8   8   8   8   8
#     4  10  21  39  61  89 121 154 196 246 297 351
#     4  11  24  39  60  90 122 156 200 248 294 353
#     4   9  19  37  60  85 115 154 197 240 288 350
#     4  11  22  38  64  90 118 154 199 247 292 352
#     4  11  23  41  63  85 120 162 199 243 299 354
#     4  10  21  39  60  85 122 161 197 241 297 354
#     4  10  21  38  59  87 121 153 194 242 292 350
#
# _framework density 18.660117
#
# number of rings (size 3 to 8) (size 9 to 14) (size 15 to 20)
#    0.000    1.714    2.857    1.286    2.000    3.143 
#    0.000    0.000    0.000    2.143    0.000    0.000 
#    0.000    0.000    0.000    0.000    0.000    0.000 
#
# Total GULP energy -156428.720249 kJ/mol
# GULP energy per Si atom -5586.740009 kJ/mol
# Density = 1.861765 g / cm^3
# Si number density = 18.660117 Si / 1000 Ang^3
#
#
#
# Elastic Constant Matrix: (Units=GPa)
#
#
# Indices 1 2 3 4 5 6 
#
# 1 173.5928 39.7946 84.6327 0.0000 10.3685 0.0000
# 2 39.7946 22.8610 26.8491 0.0000 6.6234 0.0000
# 3 84.6327 26.8491 122.6045 0.0000 16.2537 0.0000
# 4 0.0000 0.0000 0.0000 23.7376 0.0000 -5.6949
# 5 10.3685 6.6234 16.2537 0.0000 38.7856 0.0000
# 6 0.0000 0.0000 0.0000 -5.6949 0.0000 31.1158
#
#
#
# Elastic Compliance Matrix: (Units=1/GPa)
#
#
# Indices 1 2 3 4 5 6 
#
# 1 0.011371 -0.014503 -0.004869 0.000000 0.001477 0.000000
# 2 -0.014503 0.078289 -0.006220 0.000000 -0.006885 0.000000
# 3 -0.004869 -0.006220 0.013305 0.000000 -0.003212 0.000000
# 4 0.000000 0.000000 0.000000 0.044062 0.000000 0.008064
# 5 0.001477 -0.006885 -0.003212 0.000000 0.027910 0.000000
# 6 0.000000 0.000000 0.000000 0.008064 0.000000 0.033614
#
#
# Mechanical properties :
#
#
# Convention : Reuss Voigt Hill
#
# Bulk Modulus (GPa) = 19.31241 69.06792 44.19017
# Shear Modulus (GPa) = 18.05081 29.91326 23.98204
#
# Velocity S-wave (km/s) = 3.11360 4.00816 3.58886
# Velocity P-wave (km/s) = 4.82680 7.64948 6.39580
#
# Compressibility (1/GPa) = 0.05178017
#
# Stress axis : x y z
#
# Youngs Moduli (GPa) = 87.94362 12.77321 75.15782
#
# Poissons Ratio (x) = 0.18525 0.36595
# Poissons Ratio (y) = 1.27546 0.46750
# Poissons Ratio (z) = 0.42820 0.07945
#
# Static dielectric constant tensor:
#      x y z
#    x 1.625350 0.000000 0.021100 
#    y 0.000000 1.636280 0.000000 
#    z 0.021100 0.000000 1.625630 
# 
# From -- ./inp_files/275662.got.cif
#   From: 2010.05.17/outbox.cif.g08.bks.cpg/sg12_138_cif.got.tgz:275662.got - 2010.06.03 13:09:07.
