data_PCOD9208205
_publ_section_title
;
Structure prediction by ZEFSAII (Michael W. Deem and Ramdas Pophale) SiO2 
 PCOD9208205
Probable space group: C 2/M
;
_chemical_formula_sum "Si O2"
_cell_formula_units_Z 32
_cell_length_a 9.515932
_cell_length_b 14.826780
_cell_length_c 9.861741
_cell_angle_alpha 90.000000
_cell_angle_beta 78.110816
_cell_angle_gamma 90.000000
_cell_volume 1361.550809
_symmetry_space_group_name_H-M "C 2/M"
_symmetry_group_IT_number 12
_symmetry_cell_setting 'monoclinic'
loop_
_space_group_symop_operation_xyz
x,y,z
-x,y,-z
-x,-y,-z
x,-y,z
1/2+x,1/2+y,z
1/2-x,1/2+y,-z
1/2-x,1/2-y,-z
1/2+x,1/2-y,z
loop_
_atom_site_type_symbol
_atom_site_label
_atom_site_fract_x
_atom_site_fract_y
_atom_site_fract_z
Si Si1 0.738945 0.694425 0.218580
Si Si2 0.139096 0.000000 0.685474
Si Si3 0.171034 0.000000 0.165727
Si Si4 0.500000 0.841321 0.000000
Si Si5 0.633597 0.000000 0.133593
Si Si6 0.564666 0.299685 0.631446
O O1 0.725033 0.587105 0.234083
O O2 0.570717 0.717601 0.238979
O O3 0.805797 0.742294 0.335158
O O4 0.856472 0.709820 0.076746
O O5 0.999988 0.000000 0.811923
O O6 0.115154 0.095432 0.615276
O O7 0.287755 0.000000 0.738317
O O8 0.241617 0.000000 0.004821
O O9 0.544350 0.910611 0.113081
O O10 0.500000 0.274205 0.500000
#
# Coordination Sequence:
#
# PCOD9208205 Si02
#       6
#     8   4   4   4   4   8
#     4  10  22  41  64  89 124 160 201 250 310 354
#     4  10  21  37  63  87 118 163 210 244 304 356
#     4   8  18  40  60  89 125 158 189 258 308 359
#     4   9  20  38  62  91 128 154 188 263 310 359
#     4   9  17  35  62  90 121 157 203 242 305 371
#     4  11  24  43  62  88 125 164 208 252 293 357
#
# _framework density 23.502613
#
# number of rings (size 3 to 8) (size 9 to 14) (size 15 to 20)
#    0.000    2.250    0.000    2.250    3.500    1.000 
#    9.000    0.625    0.000    0.000    0.000    0.000 
#    0.000    0.000    0.000    0.000    0.000    0.000 
#
# Total GULP energy -89306.804499 kJ/mol
# GULP energy per Si atom -5581.675281 kJ/mol
# Density = 2.344912 g / cm^3
# Si number density = 23.502613 Si / 1000 Ang^3
#
#
#
# Elastic Constant Matrix: (Units=GPa)
#
#
# Indices 1 2 3 4 5 6 
#
# 1 144.3889 29.4262 23.7927 0.0000 15.6562 0.0000
# 2 29.4262 71.1375 28.8781 0.0000 20.9754 0.0000
# 3 23.7927 28.8781 41.9959 0.0000 6.8869 0.0000
# 4 0.0000 0.0000 0.0000 12.6939 0.0000 3.7625
# 5 15.6562 20.9754 6.8869 0.0000 40.3937 0.0000
# 6 0.0000 0.0000 0.0000 3.7625 0.0000 25.7562
#
#
#
# Elastic Compliance Matrix: (Units=1/GPa)
#
#
# Indices 1 2 3 4 5 6 
#
# 1 0.007944 -0.001462 -0.003204 0.000000 -0.001773 0.000000
# 2 -0.001462 0.022709 -0.013319 0.000000 -0.008955 0.000000
# 3 -0.003204 -0.013319 0.034410 0.000000 0.002291 0.000000
# 4 0.000000 0.000000 0.000000 0.082344 0.000000 -0.012029
# 5 -0.001773 -0.008955 0.002291 0.000000 0.029703 0.000000
# 6 0.000000 0.000000 0.000000 -0.012029 0.000000 0.040583
#
#
# Mechanical properties :
#
#
# Convention : Reuss Voigt Hill
#
# Bulk Modulus (GPa) = 34.37328 46.85738 40.61533
# Shear Modulus (GPa) = 18.98531 27.46378 23.22455
#
# Velocity S-wave (km/s) = 2.84526 3.42210 3.14693
# Velocity P-wave (km/s) = 5.04490 5.96613 5.52475
#
# Compressibility (1/GPa) = 0.02909236
#
# Stress axis : x y z
#
# Youngs Moduli (GPa) = 125.88005 44.03467 29.06125
#
# Poissons Ratio (x) = 0.06440 0.09312
# Poissons Ratio (y) = 0.18409 0.38706
# Poissons Ratio (z) = 0.40335 0.58649
#
# Static dielectric constant tensor:
#      x y z
#    x 1.906050 0.000000 -0.044760 
#    y 0.000000 1.883260 0.000000 
#    z -0.044760 0.000000 1.953270 
# 
# From -- ./inp_files/117823.got.cif
#   From: 2010.05.17/outbox.cif.g08.bks.cpg/sg12_59_cif.got.tgz:117823.got - 2010.06.03 13:09:07.
