data_PCOD9208147
_publ_section_title
;
Structure prediction by ZEFSAII (Michael W. Deem and Ramdas Pophale) SiO2 
 PCOD9208147
Probable space group: C 2/M
;
_chemical_formula_sum "Si O2"
_cell_formula_units_Z 64
_cell_length_a 26.768844
_cell_length_b 14.171299
_cell_length_c 8.878804
_cell_angle_alpha 90.000000
_cell_angle_beta 118.779839
_cell_angle_gamma 90.000000
_cell_volume 2952.118910
_symmetry_space_group_name_H-M "C 2/M"
_symmetry_group_IT_number 12
_symmetry_cell_setting 'monoclinic'
loop_
_space_group_symop_operation_xyz
x,y,z
-x,y,-z
-x,-y,-z
x,-y,z
1/2+x,1/2+y,z
1/2-x,1/2+y,-z
1/2-x,1/2-y,-z
1/2+x,1/2-y,z
loop_
_atom_site_type_symbol
_atom_site_label
_atom_site_fract_x
_atom_site_fract_y
_atom_site_fract_z
Si Si1 0.248847 0.361079 0.517677
Si Si2 0.977455 0.703274 0.798033
Si Si3 0.023694 0.105258 0.365588
Si Si4 0.669849 0.241708 0.848277
Si Si5 0.920021 0.391998 0.178779
Si Si6 0.376706 0.895064 0.773777
Si Si7 0.340310 0.602223 0.411154
Si Si8 0.731686 0.609560 0.105125
O O1 0.250000 0.250000 0.500000
O O2 0.190075 0.393454 0.356251
O O3 0.304324 0.396561 0.510978
O O4 0.251205 0.386844 0.695560
O O5 0.992102 0.807538 0.762275
O O6 0.910917 0.678107 0.718165
O O7 0.013690 0.631794 0.748304
O O8 0.000000 0.690754 0.000000
O O9 0.092194 0.106407 0.469167
O O10 0.000000 0.119306 0.500000
O O11 0.004977 0.000000 0.288947
O O12 0.610193 0.187382 0.764807
O O13 0.677062 0.308550 0.714108
O O14 0.717174 0.159060 0.914758
O O15 0.679944 0.317270 0.997279
O O16 0.911321 0.500000 0.215204
O O17 0.890052 0.380046 0.970053
O O18 0.399531 0.000000 0.771975
O O19 0.328333 0.500000 0.320233
O O20 0.722322 0.500000 0.054248
#
# Coordination Sequence:
#
# PCOD9208147 Si02
#       8
#     8   8   8   8   8   8   8   8
#     4  12  22  40  61  90 126 163 205 252 306 366
#     4  10  21  39  63  92 120 154 202 255 305 355
#     4  10  22  41  63  88 121 161 204 249 302 362
#     4  11  23  40  60  89 121 166 202 250 304 365
#     4  10  21  39  64  91 121 158 205 254 306 368
#     4  10  21  37  62  91 122 161 200 245 305 368
#     4  11  23  40  64  91 121 164 209 251 302 366
#     4  11  24  40  59  88 127 163 202 253 303 361
#
# _framework density 21.679345000000001
#
# number of rings (size 3 to 8) (size 9 to 14) (size 15 to 20)
#    0.000    1.375    1.250    4.500    1.750    2.750 
#    0.000    0.625    0.000    2.250    0.000    0.000 
#    0.000    0.000    0.000    0.000    0.000    0.000 
#
# Total GULP energy -178751.355351 kJ/mol
# GULP energy per Si atom -5585.979855 kJ/mol
# Density = 2.163000 g / cm^3
# Si number density = 21.679345 Si / 1000 Ang^3
#
#
#
# Elastic Constant Matrix: (Units=GPa)
#
#
# Indices 1 2 3 4 5 6 
#
# 1 103.3577 20.5335 -0.8933 0.0000 -2.7800 0.0000
# 2 20.5335 151.2356 -5.0535 0.0000 -15.0643 0.0000
# 3 -0.8933 -5.0535 19.3564 0.0000 -4.7746 0.0000
# 4 0.0000 0.0000 0.0000 6.7313 0.0000 3.0653
# 5 -2.7800 -15.0643 -4.7746 0.0000 15.9682 0.0000
# 6 0.0000 0.0000 0.0000 3.0653 0.0000 20.2735
#
#
#
# Elastic Compliance Matrix: (Units=1/GPa)
#
#
# Indices 1 2 3 4 5 6 
#
# 1 0.009948 -0.001281 0.000274 0.000000 0.000605 0.000000
# 2 -0.001281 0.007745 0.004006 0.000000 0.008281 0.000000
# 3 0.000274 0.004006 0.057938 0.000000 0.021151 0.000000
# 4 0.000000 0.000000 0.000000 0.159545 0.000000 -0.024123
# 5 0.000605 0.008281 0.021151 0.000000 0.076866 0.000000
# 6 0.000000 0.000000 0.000000 -0.024123 0.000000 0.052973
#
#
# Mechanical properties :
#
#
# Convention : Reuss Voigt Hill
#
# Bulk Modulus (GPa) = 12.25075 33.68033 22.96554
# Shear Modulus (GPa) = 12.94571 25.88548 19.41560
#
# Velocity S-wave (km/s) = 2.44631 3.45920 2.99587
# Velocity P-wave (km/s) = 3.69356 5.61464 4.75219
#
# Compressibility (1/GPa) = 0.08162769
#
# Stress axis : x y z
#
# Youngs Moduli (GPa) = 100.51948 129.11772 17.25980
#
# Poissons Ratio (x) = 0.16543 -0.00473
# Poissons Ratio (y) = 0.12879 -0.06914
# Poissons Ratio (z) = -0.02753 -0.51719
#
# Static dielectric constant tensor:
#      x y z
#    x 1.790740 0.000000 0.015140 
#    y 0.000000 1.821890 0.000000 
#    z 0.015140 0.000000 1.792630 
# 
# From -- ./inp_files/104667.got.cif
#   From: 2010.05.17/outbox.cif.g08.bks.cpg/sg12_53_cif.got.tgz:104667.got - 2010.06.03 13:09:07.
