data_PCOD9208472
_publ_section_title
;
Structure prediction by ZEFSAII (Michael W. Deem and Ramdas Pophale) SiO2 
 PCOD9208472
Probable space group: C 2/M
;
_chemical_formula_sum "Si O2"
_cell_formula_units_Z 40
_cell_length_a 9.808114
_cell_length_b 17.863493
_cell_length_c 13.829393
_cell_angle_alpha 90.000000
_cell_angle_beta 110.833105
_cell_angle_gamma 90.000000
_cell_volume 2264.593399
_symmetry_space_group_name_H-M "C 2/M"
_symmetry_group_IT_number 12
_symmetry_cell_setting 'monoclinic'
loop_
_space_group_symop_operation_xyz
x,y,z
-x,y,-z
-x,-y,-z
x,-y,z
1/2+x,1/2+y,z
1/2-x,1/2+y,-z
1/2-x,1/2-y,-z
1/2+x,1/2-y,z
loop_
_atom_site_type_symbol
_atom_site_label
_atom_site_fract_x
_atom_site_fract_y
_atom_site_fract_z
Si Si1 0.333992 0.082103 0.200196
Si Si2 0.641918 0.500000 0.600223
Si Si3 0.488074 0.190931 0.882166
Si Si4 0.515167 0.631991 0.119092
Si Si5 0.028900 0.500000 0.393260
Si Si6 0.727055 0.582187 0.796459
O O1 0.384573 0.147643 0.142115
O O2 0.169972 0.098885 0.191212
O O3 0.334766 0.000000 0.150560
O O4 0.447363 0.069123 0.317319
O O5 0.500000 0.500000 0.500000
O O6 0.798778 0.500000 0.586338
O O7 0.642428 0.570089 0.674483
O O8 0.488402 0.278991 0.862774
O O9 0.340792 0.148462 0.816246
O O10 0.500000 0.180981 0.000000
O O11 0.383173 0.595656 0.144223
O O12 0.500000 0.619861 0.000000
O O13 0.000000 0.500000 0.500000
O O14 0.802094 0.500000 0.828184
#
# Coordination Sequence:
#
# PCOD9208472 Si02
#       6
#     8   4   8   8   4   8
#     4  10  21  38  57  89 113 151 199 245 278 340
#     4  10  22  40  65  88 110 146 195 248 309 342
#     4  11  21  37  57  82 124 166 189 227 285 347
#     4  11  23  35  55  88 126 164 191 223 287 343
#     4  10  22  40  65  88 110 146 195 248 309 342
#     4  10  21  38  57  89 113 151 199 245 278 340
#
# _framework density 17.663214
#
# number of rings (size 3 to 8) (size 9 to 14) (size 15 to 20)
#    1.200    0.400    2.000    3.600    2.800    8.000 
#    0.000    0.000    0.000    7.200    0.000    0.000 
#    0.000    0.000    0.000    0.000    0.000    0.000 
#
# Total GULP energy -111466.291111 kJ/mol
# GULP energy per Si atom -5573.314556 kJ/mol
# Density = 1.762301 g / cm^3
# Si number density = 17.663214 Si / 1000 Ang^3
#
#
#
# Elastic Constant Matrix: (Units=GPa)
#
#
# Indices 1 2 3 4 5 6 
#
# 1 43.2638 -2.0205 -4.8069 0.0000 -2.9495 0.0000
# 2 -2.0205 58.6851 29.2467 0.0000 1.9133 0.0000
# 3 -4.8069 29.2467 56.5105 0.0000 2.3845 0.0000
# 4 0.0000 0.0000 0.0000 2.7819 0.0000 2.7665
# 5 -2.9495 1.9133 2.3845 0.0000 34.1707 0.0000
# 6 0.0000 0.0000 0.0000 2.7665 0.0000 -17.2791
#
#
#
# Elastic Compliance Matrix: (Units=1/GPa)
#
#
# Indices 1 2 3 4 5 6 
#
# 1 0.023459 -0.000281 0.002061 0.000000 0.001897 0.000000
# 2 -0.000281 0.022973 -0.011893 0.000000 -0.000481 0.000000
# 3 0.002061 -0.011893 0.024062 0.000000 -0.000835 0.000000
# 4 0.000000 0.000000 0.000000 0.310090 0.000000 0.049648
# 5 0.001897 -0.000481 -0.000835 0.000000 0.029514 0.000000
# 6 0.000000 0.000000 0.000000 0.049648 0.000000 -0.049924
#
#
# Mechanical properties :
#
#
# Convention : Reuss Voigt Hill
#
# Bulk Modulus (GPa) = 19.89376 22.58864 21.24120
# Shear Modulus (GPa) = 12.58949 13.00405 12.79677
#
# Velocity S-wave (km/s) = 2.67264 2.71629 2.69455
# Velocity P-wave (km/s) = 4.56194 4.75961 4.66182
#
# Compressibility (1/GPa) = 0.05026703
#
# Stress axis : x y z
#
# Youngs Moduli (GPa) = 42.62724 43.52868 41.55973
#
# Poissons Ratio (x) = 0.01224 -0.08566
# Poissons Ratio (y) = 0.01199 0.49429
# Poissons Ratio (z) = -0.08786 0.51770
#
# Static dielectric constant tensor:
#      x y z
#    x 1.606830 0.000000 -0.001380 
#    y 0.000000 1.608170 0.000000 
#    z -0.001380 0.000000 1.582030 
# 
# From -- ./inp_files/120346.got.cif
#   From: 2010.05.17/outbox.cif.g08.bks.cpg/sg12_61_cif.got.tgz:120346.got - 2010.06.03 13:09:07.
