data_PCOD9208127
_publ_section_title
;
Structure prediction by ZEFSAII (Michael W. Deem and Ramdas Pophale) SiO2 
 PCOD9208127
Probable space group: C 2/M
;
_chemical_formula_sum "Si O2"
_cell_formula_units_Z 34
_cell_length_a 31.729748
_cell_length_b 12.893118
_cell_length_c 8.622351
_cell_angle_alpha 90.000000
_cell_angle_beta 148.915948
_cell_angle_gamma 90.000000
_cell_volume 1821.160296
_symmetry_space_group_name_H-M "C 2/M"
_symmetry_group_IT_number 12
_symmetry_cell_setting 'monoclinic'
loop_
_space_group_symop_operation_xyz
x,y,z
-x,y,-z
-x,-y,-z
x,-y,z
1/2+x,1/2+y,z
1/2-x,1/2+y,-z
1/2-x,1/2-y,-z
1/2+x,1/2-y,z
loop_
_atom_site_type_symbol
_atom_site_label
_atom_site_fract_x
_atom_site_fract_y
_atom_site_fract_z
Si Si1 0.913950 0.618487 0.560863
Si Si2 0.615284 0.688352 0.311960
Si Si3 0.199959 0.378414 0.088565
Si Si4 0.000000 0.000000 0.000000
Si Si5 0.446529 0.774477 0.189099
O O1 0.916450 0.500000 0.625128
O O2 0.906480 0.704818 0.669349
O O3 0.993501 0.643875 0.707145
O O4 0.837771 0.630552 0.202978
O O5 0.712115 0.673286 0.620258
O O6 0.569559 0.591731 0.244606
O O7 0.582105 0.694505 0.031532
O O8 0.207539 0.500000 0.148456
O O9 0.133186 0.327972 0.991238
O O10 0.500000 0.729749 0.500000
#
# Coordination Sequence:
#
# PCOD9208127 Si02
#       5
#     8   8   8   2   8
#     4  10  21  38  63  92 115 151 196 249 296 342
#     4  12  22  41  62  85 122 158 201 235 287 358
#     4  10  21  37  62  88 122 153 193 244 297 348
#     4  12  24  40  64  84 114 168 194 230 298 348
#     4  10  21  38  60  87 117 154 193 248 295 340
#
# _framework density 18.669415999999998
#
# number of rings (size 3 to 8) (size 9 to 14) (size 15 to 20)
#    0.000    1.412    3.529    2.118    0.000    5.647 
#    0.000    0.588    0.000    0.000    0.000    0.000 
#    0.000    0.000    0.000    0.000    0.000    0.000 
#
# Total GULP energy -94652.476913 kJ/mol
# GULP energy per Si atom -5567.792760 kJ/mol
# Density = 1.862692 g / cm^3
# Si number density = 18.669416 Si / 1000 Ang^3
#
#
#
# Elastic Constant Matrix: (Units=GPa)
#
#
# Indices 1 2 3 4 5 6 
#
# 1 68.5496 25.7271 54.7718 0.0000 5.1942 0.0000
# 2 25.7271 86.8549 46.1289 0.0000 -5.6446 0.0000
# 3 54.7718 46.1289 146.2789 0.0000 21.4602 0.0000
# 4 0.0000 0.0000 0.0000 28.1576 0.0000 1.5306
# 5 5.1942 -5.6446 21.4602 0.0000 37.4448 0.0000
# 6 0.0000 0.0000 0.0000 1.5306 0.0000 0.3919
#
#
#
# Elastic Compliance Matrix: (Units=1/GPa)
#
#
# Indices 1 2 3 4 5 6 
#
# 1 0.021280 -0.002330 -0.007368 0.000000 0.000919 0.000000
# 2 -0.002330 0.015001 -0.004626 0.000000 0.005236 0.000000
# 3 -0.007368 -0.004626 0.012017 0.000000 -0.006562 0.000000
# 4 0.000000 0.000000 0.000000 0.045087 0.000000 -0.176099
# 5 0.000919 0.005236 -0.006562 0.000000 0.031129 0.000000
# 6 0.000000 0.000000 0.000000 -0.176099 0.000000 3.239534
#
#
# Mechanical properties :
#
#
# Convention : Reuss Voigt Hill
#
# Bulk Modulus (GPa) = 50.89405 61.65990 56.27697
# Shear Modulus (GPa) = 1.47091 24.86922 13.17007
#
# Velocity S-wave (km/s) = 0.88859 3.65373 2.65889
# Velocity P-wave (km/s) = 5.32660 7.13433 6.29568
#
# Compressibility (1/GPa) = 0.01964866
#
# Stress axis : x y z
#
# Youngs Moduli (GPa) = 46.99245 66.66241 83.21790
#
# Poissons Ratio (x) = 0.15535 0.61315
# Poissons Ratio (y) = 0.10951 0.38497
# Poissons Ratio (z) = 0.34624 0.30839
#
# Static dielectric constant tensor:
#      x y z
#    x 1.657310 0.000000 -0.018110 
#    y 0.000000 1.596850 0.000000 
#    z -0.018110 0.000000 1.660500 
# 
# From -- ./inp_files/70936.got.cif
#   From: 2010.05.17/outbox.cif.g08.bks.cpg/sg12_36_cif.got.tgz:70936.got - 2010.06.03 13:09:07.
