data_PCOD9208880
_publ_section_title
;
Structure prediction by ZEFSAII (Michael W. Deem and Ramdas Pophale) SiO2 
 PCOD9208880
Probable space group: C 2/M
;
_chemical_formula_sum "Si O2"
_cell_formula_units_Z 56
_cell_length_a 20.511883
_cell_length_b 8.639370
_cell_length_c 19.884084
_cell_angle_alpha 90.000000
_cell_angle_beta 122.781935
_cell_angle_gamma 90.000000
_cell_volume 2962.467127
_symmetry_space_group_name_H-M "C 2/M"
_symmetry_group_IT_number 12
_symmetry_cell_setting 'monoclinic'
loop_
_space_group_symop_operation_xyz
x,y,z
-x,y,-z
-x,-y,-z
x,-y,z
1/2+x,1/2+y,z
1/2-x,1/2+y,-z
1/2-x,1/2-y,-z
1/2+x,1/2-y,z
loop_
_atom_site_type_symbol
_atom_site_label
_atom_site_fract_x
_atom_site_fract_y
_atom_site_fract_z
Si Si1 0.298864 0.183732 0.355768
Si Si2 0.629458 0.185177 0.240502
Si Si3 0.413667 0.188541 0.935174
Si Si4 0.169711 0.814754 0.485331
Si Si5 0.140355 0.186968 0.751307
Si Si6 0.765119 0.312998 0.934416
Si Si7 0.965834 0.813283 0.693847
O O1 0.209242 0.236775 0.308101
O O2 0.339397 0.254883 0.443974
O O3 0.333820 0.243855 0.305351
O O4 0.303056 0.000000 0.361232
O O5 0.611330 0.232383 0.153960
O O6 0.561438 0.236222 0.252277
O O7 0.639285 0.000000 0.247955
O O8 0.348190 0.238427 0.951288
O O9 0.414820 0.000000 0.937248
O O10 0.500000 0.243356 0.000000
O O11 0.250000 0.750000 0.500000
O O12 0.097586 0.769244 0.397920
O O13 0.174573 0.000000 0.488446
O O14 0.199439 0.233890 0.843665
O O15 0.052574 0.230207 0.721012
O O16 0.144555 0.000000 0.748059
O O17 0.764751 0.500000 0.936756
O O18 0.750000 0.250000 0.000000
O O19 0.963393 0.000000 0.699954
#
# Coordination Sequence:
#
# PCOD9208880 Si02
#       7
#     8   8   8   8   8   8   8
#     4  12  24  39  62  89 120 158 202 252 297 351
#     4  11  21  37  63  88 118 161 202 244 297 357
#     4   9  19  36  58  87 119 152 194 242 293 352
#     4  11  22  38  61  90 121 157 197 246 303 356
#     4  10  22  43  63  84 120 163 201 242 298 360
#     4  10  21  38  60  85 119 157 195 239 296 356
#     4  10  23  40  61  89 121 154 197 249 298 353
#
# _framework density 18.903161999999998
#
# number of rings (size 3 to 8) (size 9 to 14) (size 15 to 20)
#    0.000    1.571    2.857    2.143    2.000    2.286 
#    0.000    2.857    0.000    2.143    0.000    0.000 
#    0.000    0.000    0.000    0.000    0.000    0.000 
#
# Total GULP energy -156482.459032 kJ/mol
# GULP energy per Si atom -5588.659251 kJ/mol
# Density = 1.886014 g / cm^3
# Si number density = 18.903162 Si / 1000 Ang^3
#
#
#
# Elastic Constant Matrix: (Units=GPa)
#
#
# Indices 1 2 3 4 5 6 
#
# 1 155.0864 32.5422 74.7234 0.0000 -6.7668 0.0000
# 2 32.5422 29.6236 27.1544 0.0000 -3.5130 0.0000
# 3 74.7234 27.1544 128.6063 0.0000 -16.3838 0.0000
# 4 0.0000 0.0000 0.0000 21.2944 0.0000 -9.8218
# 5 -6.7668 -3.5130 -16.3838 0.0000 39.6257 0.0000
# 6 0.0000 0.0000 0.0000 -9.8218 0.0000 30.4254
#
#
#
# Elastic Compliance Matrix: (Units=1/GPa)
#
#
# Indices 1 2 3 4 5 6 
#
# 1 0.010030 -0.007040 -0.004436 0.000000 -0.000746 0.000000
# 2 -0.007040 0.046800 -0.005717 0.000000 0.000583 0.000000
# 3 -0.004436 -0.005717 0.012033 0.000000 0.003711 0.000000
# 4 0.000000 0.000000 0.000000 0.055176 0.000000 0.017812
# 5 -0.000746 0.000583 0.003711 0.000000 0.026695 0.000000
# 6 0.000000 0.000000 0.000000 0.017812 0.000000 0.038617
#
#
# Mechanical properties :
#
#
# Convention : Reuss Voigt Hill
#
# Bulk Modulus (GPa) = 29.00489 64.68405 46.84447
# Shear Modulus (GPa) = 21.25569 30.19551 25.72560
#
# Velocity S-wave (km/s) = 3.35692 4.00106 3.69306
# Velocity P-wave (km/s) = 5.51384 7.45906 6.55896
#
# Compressibility (1/GPa) = 0.03447695
#
# Stress axis : x y z
#
# Youngs Moduli (GPa) = 99.69820 21.36737 83.10462
#
# Poissons Ratio (x) = 0.15044 0.36867
# Poissons Ratio (y) = 0.70192 0.47508
# Poissons Ratio (z) = 0.44229 0.12215
#
# Static dielectric constant tensor:
#      x y z
#    x 1.632150 0.000000 0.009630 
#    y 0.000000 1.640950 0.000000 
#    z 0.009630 0.000000 1.640300 
# 
# From -- ./inp_files/275553.got.cif
#   From: 2010.05.17/outbox.cif.g08.bks.cpg/sg12_138_cif.got.tgz:275553.got - 2010.06.03 13:09:07.
