data_PCOD9208315
_publ_section_title
;
Structure prediction by ZEFSAII (Michael W. Deem and Ramdas Pophale) SiO2 
 PCOD9208315
Probable space group: C 2/M
;
_chemical_formula_sum "Si O2"
_cell_formula_units_Z 48
_cell_length_a 19.202159
_cell_length_b 13.044575
_cell_length_c 18.776191
_cell_angle_alpha 90.000000
_cell_angle_beta 148.201406
_cell_angle_gamma 90.000000
_cell_volume 2478.246414
_symmetry_space_group_name_H-M "C 2/M"
_symmetry_group_IT_number 12
_symmetry_cell_setting 'monoclinic'
loop_
_space_group_symop_operation_xyz
x,y,z
-x,y,-z
-x,-y,-z
x,-y,z
1/2+x,1/2+y,z
1/2-x,1/2+y,-z
1/2-x,1/2-y,-z
1/2+x,1/2-y,z
loop_
_atom_site_type_symbol
_atom_site_label
_atom_site_fract_x
_atom_site_fract_y
_atom_site_fract_z
Si Si1 0.548942 0.876456 0.218327
Si Si2 0.230373 0.197623 0.323369
Si Si3 0.400248 0.691191 0.358452
Si Si4 0.914485 0.500000 0.352713
Si Si5 0.623716 0.500000 0.160350
Si Si6 0.620015 0.878486 0.056506
Si Si7 0.045253 0.321226 0.379168
O O1 0.660014 0.806039 0.277379
O O2 0.538549 0.837265 0.289739
O O3 0.575137 0.000000 0.239112
O O4 0.417176 0.855191 0.057390
O O5 0.343114 0.217890 0.361051
O O6 0.135174 0.105392 0.215943
O O7 0.307335 0.165713 0.461844
O O8 0.500000 0.634309 0.500000
O O9 0.263625 0.648765 0.209333
O O10 0.487125 0.719029 0.364709
O O11 0.760628 0.500000 0.235819
O O12 0.000000 0.500000 0.500000
O O13 0.956205 0.405263 0.340522
O O14 0.500000 0.500000 0.000000
O O15 0.610926 0.000000 0.055236
O O16 0.500000 0.833045 0.000000
#
# Coordination Sequence:
#
# PCOD9208315 Si02
#       7
#     8   8   8   4   4   8   8
#     4  11  24  39  66  95 127 174 213 264 324 385
#     4  11  22  40  64  95 132 165 217 262 323 385
#     4  10  21  37  65  92 120 164 212 264 316 374
#     4  12  18  40  68  90 125 169 215 261 317 389
#     4  12  26  38  66 106 128 167 213 272 327 371
#     4  10  21  39  61  88 122 168 218 257 306 382
#     4  11  21  39  64  97 127 166 212 270 321 386
#
# _framework density 19.368534
#
# number of rings (size 3 to 8) (size 9 to 14) (size 15 to 20)
#    0.000    1.167    5.833    1.000    2.333    1.000 
#    0.000    2.500    1.833    0.000    0.000    0.000 
#    0.000    0.000    0.000    0.000    0.000    0.000 
#
# Total GULP energy -133704.923926 kJ/mol
# GULP energy per Si atom -5571.038497 kJ/mol
# Density = 1.932445 g / cm^3
# Si number density = 19.368534 Si / 1000 Ang^3
#
#
#
# Elastic Constant Matrix: (Units=GPa)
#
#
# Indices 1 2 3 4 5 6 
#
# 1 95.7046 42.9219 67.5104 0.0000 -21.2488 0.0000
# 2 42.9219 38.3282 35.9010 0.0000 -13.3976 0.0000
# 3 67.5104 35.9010 205.7918 0.0000 -24.2235 0.0000
# 4 0.0000 0.0000 0.0000 22.9114 0.0000 -9.6972
# 5 -21.2488 -13.3976 -24.2235 0.0000 35.3141 0.0000
# 6 0.0000 0.0000 0.0000 -9.6972 0.0000 7.1384
#
#
#
# Elastic Compliance Matrix: (Units=1/GPa)
#
#
# Indices 1 2 3 4 5 6 
#
# 1 0.023441 -0.021781 -0.003484 0.000000 0.003452 0.000000
# 2 -0.021781 0.054166 -0.001554 0.000000 0.006379 0.000000
# 3 -0.003484 -0.001554 0.006480 0.000000 0.001759 0.000000
# 4 0.000000 0.000000 0.000000 0.102689 0.000000 0.139499
# 5 0.003452 0.006379 0.001759 0.000000 0.034021 0.000000
# 6 0.000000 0.000000 0.000000 0.139499 0.000000 0.329590
#
#
# Mechanical properties :
#
#
# Convention : Reuss Voigt Hill
#
# Bulk Modulus (GPa) = 32.83897 70.27678 51.55788
# Shear Modulus (GPa) = 8.14101 25.97219 17.05660
#
# Velocity S-wave (km/s) = 2.05240 3.66587 2.97077
# Velocity P-wave (km/s) = 4.75479 7.36756 6.20036
#
# Compressibility (1/GPa) = 0.03045163
#
# Stress axis : x y z
#
# Youngs Moduli (GPa) = 42.66048 18.46166 154.31423
#
# Poissons Ratio (x) = 0.40211 0.53761
# Poissons Ratio (y) = 0.92917 0.23973
# Poissons Ratio (z) = 0.14862 0.02868
#
# Static dielectric constant tensor:
#      x y z
#    x 1.680350 0.000000 -0.012370 
#    y 0.000000 1.756170 0.000000 
#    z -0.012370 0.000000 1.706420 
# 
# From -- ./inp_files/278254.got.cif
#   From: 2010.05.17/outbox.cif.g08.bks.cpg/sg12_140_cif.got.tgz:278254.got - 2010.06.03 13:09:07.
