data_PCOD9208960
_publ_section_title
;
Structure prediction by ZEFSAII (Michael W. Deem and Ramdas Pophale) SiO2 
 PCOD9208960
Probable space group: C 2/M
;
_chemical_formula_sum "Si O2"
_cell_formula_units_Z 64
_cell_length_a 29.096124
_cell_length_b 8.735713
_cell_length_c 15.269519
_cell_angle_alpha 90.000000
_cell_angle_beta 129.591914
_cell_angle_gamma 90.000000
_cell_volume 2990.815738
_symmetry_space_group_name_H-M "C 2/M"
_symmetry_group_IT_number 12
_symmetry_cell_setting 'monoclinic'
loop_
_space_group_symop_operation_xyz
x,y,z
-x,y,-z
-x,-y,-z
x,-y,z
1/2+x,1/2+y,z
1/2-x,1/2+y,-z
1/2-x,1/2-y,-z
1/2+x,1/2-y,z
loop_
_atom_site_type_symbol
_atom_site_label
_atom_site_fract_x
_atom_site_fract_y
_atom_site_fract_z
Si Si1 0.624014 0.819005 0.367634
Si Si2 0.038989 0.814933 0.413933
Si Si3 0.648836 0.682040 0.215233
Si Si4 0.721649 0.322149 0.601424
Si Si5 0.068750 0.182088 0.827770
Si Si6 0.366254 0.677474 0.337589
Si Si7 0.953195 0.316902 0.018454
Si Si8 0.314442 0.819154 0.100048
O O1 0.577631 0.760608 0.383625
O O2 0.618213 0.731077 0.269441
O O3 0.688213 0.774936 0.486458
O O4 0.618456 0.000000 0.346708
O O5 0.070670 0.770552 0.543443
O O6 0.970959 0.779550 0.306324
O O7 0.045710 0.000000 0.417181
O O8 0.650523 0.500000 0.208519
O O9 0.714739 0.752158 0.298804
O O10 0.610561 0.757269 0.091902
O O11 0.727101 0.500000 0.580638
O O12 0.679452 0.318962 0.635940
O O13 0.133788 0.254699 0.899752
O O14 0.073517 0.000000 0.839290
O O15 0.035757 0.244822 0.873540
O O16 0.372564 0.500000 0.316050
O O17 0.337556 0.771988 0.224532
O O18 0.045782 0.500000 0.973366
O O19 0.000000 0.270741 0.000000
O O20 0.310958 0.000000 0.087751
O O21 0.250000 0.750000 0.000000
#
# Coordination Sequence:
#
# PCOD9208960 Si02
#       8
#     8   8   8   8   8   8   8   8
#     4  11  21  35  57  88 127 167 211 263 321 382
#     4   9  20  40  67  96 129 168 210 261 322 388
#     4  12  24  37  57  84 120 165 215 267 320 385
#     4  10  21  38  60  87 123 164 210 263 322 386
#     4  11  24  44  70  99 131 172 221 269 324 390
#     4   9  20  41  67  95 128 167 210 261 322 385
#     4  11  25  44  65  93 129 169 214 266 325 385
#     4  12  27  46  69  96 132 173 219 272 328 391
#
# _framework density 21.398845000000001
#
# number of rings (size 3 to 8) (size 9 to 14) (size 15 to 20)
#    0.000    1.375    0.000    6.375    1.750    7.000 
#    0.000    2.500    0.000    0.000    0.000    0.000 
#    0.000    0.000    0.000    0.000    0.000    0.000 
#
# Total GULP energy -179063.026923 kJ/mol
# GULP energy per Si atom -5595.719591 kJ/mol
# Density = 2.135014 g / cm^3
# Si number density = 21.398845 Si / 1000 Ang^3
#
#
#
# Elastic Constant Matrix: (Units=GPa)
#
#
# Indices 1 2 3 4 5 6 
#
# 1 82.1709 35.6010 48.1813 0.0000 9.9751 0.0000
# 2 35.6010 82.1654 46.9581 0.0000 6.3576 0.0000
# 3 48.1813 46.9581 141.6737 0.0000 15.1289 0.0000
# 4 0.0000 0.0000 0.0000 25.9160 0.0000 -11.5012
# 5 9.9751 6.3576 15.1289 0.0000 41.6687 0.0000
# 6 0.0000 0.0000 0.0000 -11.5012 0.0000 24.4524
#
#
#
# Elastic Compliance Matrix: (Units=1/GPa)
#
#
# Indices 1 2 3 4 5 6 
#
# 1 0.016805 -0.004916 -0.003887 0.000000 -0.001862 0.000000
# 2 -0.004916 0.016463 -0.003789 0.000000 0.000041 0.000000
# 3 -0.003887 -0.003789 0.009857 0.000000 -0.002070 0.000000
# 4 0.000000 0.000000 0.000000 0.048765 0.000000 0.022937
# 5 -0.001862 0.000041 -0.002070 0.000000 0.025190 0.000000
# 6 0.000000 0.000000 0.000000 0.022937 0.000000 0.051684
#
#
# Mechanical properties :
#
#
# Convention : Reuss Voigt Hill
#
# Bulk Modulus (GPa) = 55.73780 63.05455 59.39617
# Shear Modulus (GPa) = 25.00894 30.09206 27.55050
#
# Velocity S-wave (km/s) = 3.42234 3.75406 3.59203
# Velocity P-wave (km/s) = 6.45912 6.95133 6.70974
#
# Compressibility (1/GPa) = 0.01794115
#
# Stress axis : x y z
#
# Youngs Moduli (GPa) = 59.50745 60.74258 101.44666
#
# Poissons Ratio (x) = 0.29860 0.39431
# Poissons Ratio (y) = 0.29252 0.38441
# Poissons Ratio (z) = 0.23130 0.23017
#
# Static dielectric constant tensor:
#      x y z
#    x 1.827810 0.000000 0.029760 
#    y 0.000000 1.707060 0.000000 
#    z 0.029760 0.000000 1.868530 
# 
# From -- ./inp_files/249955.got.cif
#   From: 2010.05.17/outbox.cif.g08.bks.cpg/sg12_125_cif.got.tgz:249955.got - 2010.06.03 13:09:07.
