data_PCOD9208750
_publ_section_title
;
Structure prediction by ZEFSAII (Michael W. Deem and Ramdas Pophale) SiO2 
 PCOD9208750
Probable space group: C 2/M
;
_chemical_formula_sum "Si O2"
_cell_formula_units_Z 42
_cell_length_a 16.421547
_cell_length_b 11.291312
_cell_length_c 13.688816
_cell_angle_alpha 90.000000
_cell_angle_beta 123.688963
_cell_angle_gamma 90.000000
_cell_volume 2111.930010
_symmetry_space_group_name_H-M "C 2/M"
_symmetry_group_IT_number 12
_symmetry_cell_setting 'monoclinic'
loop_
_space_group_symop_operation_xyz
x,y,z
-x,y,-z
-x,-y,-z
x,-y,z
1/2+x,1/2+y,z
1/2-x,1/2+y,-z
1/2-x,1/2-y,-z
1/2+x,1/2-y,z
loop_
_atom_site_type_symbol
_atom_site_label
_atom_site_fract_x
_atom_site_fract_y
_atom_site_fract_z
Si Si1 0.500000 0.500000 0.500000
Si Si2 0.098778 0.782996 0.462461
Si Si3 0.217375 0.138392 0.352051
Si Si4 0.567146 0.866381 0.737453
Si Si5 0.918688 0.365119 0.030351
Si Si6 0.699091 0.638433 0.116668
O O1 0.573655 0.397957 0.506294
O O2 0.147040 0.814722 0.389888
O O3 0.179165 0.704160 0.570445
O O4 0.002503 0.718253 0.629283
O O5 0.174137 0.151663 0.214773
O O6 0.234471 0.000000 0.379602
O O7 0.537506 0.857080 0.831740
O O8 0.683760 0.847737 0.813591
O O9 0.549174 0.000000 0.691937
O O10 0.872901 0.500000 0.994606
O O11 0.850980 0.248985 0.971232
O O12 0.000000 0.360928 0.000000
O O13 0.675616 0.500000 0.071799
#
# Coordination Sequence:
#
# PCOD9208750 Si02
#       6
#     2   8   8   8   8   8
#     4  12  24  40  54  92 130 150 194 270 302 362
#     4  11  22  39  61  87 126 158 202 252 317 357
#     4  10  21  40  62  87 119 166 206 249 301 376
#     4  10  21  39  62  87 119 162 207 250 300 371
#     4  10  21  39  60  88 121 156 204 256 308 367
#     4  10  21  38  59  87 119 156 209 251 299 368
#
# _framework density 19.887022999999999
#
# number of rings (size 3 to 8) (size 9 to 14) (size 15 to 20)
#    0.000    1.714    0.952    3.429    0.000    0.381 
#    8.571    3.810    0.000    0.000    0.000    0.000 
#    0.000    0.000    0.000    0.000    0.000    0.000 
#
# Total GULP energy -116950.819793 kJ/mol
# GULP energy per Si atom -5569.086657 kJ/mol
# Density = 1.984176 g / cm^3
# Si number density = 19.887023 Si / 1000 Ang^3
#
#
#
# Elastic Constant Matrix: (Units=GPa)
#
#
# Indices 1 2 3 4 5 6 
#
# 1 45.2005 16.5382 -4.7524 0.0000 1.3148 0.0000
# 2 16.5382 172.2282 47.8532 0.0000 37.5302 0.0000
# 3 -4.7524 47.8532 30.9145 0.0000 5.0031 0.0000
# 4 0.0000 0.0000 0.0000 53.9620 0.0000 -12.4043
# 5 1.3148 37.5302 5.0031 0.0000 23.3348 0.0000
# 6 0.0000 0.0000 0.0000 -12.4043 0.0000 40.5746
#
#
#
# Elastic Compliance Matrix: (Units=1/GPa)
#
#
# Indices 1 2 3 4 5 6 
#
# 1 0.027268 -0.009808 0.017683 0.000000 0.010447 0.000000
# 2 -0.009808 0.020544 -0.029058 0.000000 -0.026259 0.000000
# 3 0.017683 -0.029058 0.075255 0.000000 0.029605 0.000000
# 4 0.000000 0.000000 0.000000 0.019932 0.000000 0.006094
# 5 0.010447 -0.026259 0.029605 0.000000 0.078151 0.000000
# 6 0.000000 0.000000 0.000000 0.006094 0.000000 0.026509
#
#
# Mechanical properties :
#
#
# Convention : Reuss Voigt Hill
#
# Bulk Modulus (GPa) = 12.39165 40.84679 26.61922
# Shear Modulus (GPa) = 15.77661 36.15458 25.96559
#
# Velocity S-wave (km/s) = 2.81963 4.26843 3.61731
# Velocity P-wave (km/s) = 4.10427 6.69900 5.55525
#
# Compressibility (1/GPa) = 0.08069953
#
# Stress axis : x y z
#
# Youngs Moduli (GPa) = 36.67351 48.67632 13.28821
#
# Poissons Ratio (x) = 0.47742 -0.23498
# Poissons Ratio (y) = 0.35970 0.38613
# Poissons Ratio (z) = -0.64851 1.41446
#
# Static dielectric constant tensor:
#      x y z
#    x 1.727070 0.000000 -0.040360 
#    y 0.000000 1.686260 0.000000 
#    z -0.040360 0.000000 1.691430 
# 
# From -- ./inp_files/221169.got.cif
#   From: 2010.05.17/outbox.cif.g08.bks.cpg/sg12_111_cif.got.tgz:221169.got - 2010.06.03 13:09:07.
