data_PCOD9208576
_publ_section_title
;
Structure prediction by ZEFSAII (Michael W. Deem and Ramdas Pophale) SiO2 
 PCOD9208576
Probable space group: C 2/M
;
_chemical_formula_sum "Si O2"
_cell_formula_units_Z 48
_cell_length_a 15.440198
_cell_length_b 17.111831
_cell_length_c 16.267395
_cell_angle_alpha 90.000000
_cell_angle_beta 37.192936
_cell_angle_gamma 90.000000
_cell_volume 2598.150570
_symmetry_space_group_name_H-M "C 2/M"
_symmetry_group_IT_number 12
_symmetry_cell_setting 'monoclinic'
loop_
_space_group_symop_operation_xyz
x,y,z
-x,y,-z
-x,-y,-z
x,-y,z
1/2+x,1/2+y,z
1/2-x,1/2+y,-z
1/2-x,1/2-y,-z
1/2+x,1/2-y,z
loop_
_atom_site_type_symbol
_atom_site_label
_atom_site_fract_x
_atom_site_fract_y
_atom_site_fract_z
Si Si1 0.821496 0.087862 0.364018
Si Si2 0.502862 0.091621 0.398866
Si Si3 0.228585 0.000000 0.294778
Si Si4 0.529777 0.284814 0.148230
Si Si5 0.627221 0.836047 0.838362
Si Si6 0.543300 0.500000 0.598822
Si Si7 0.202855 0.724380 0.172433
O O1 0.659627 0.113329 0.504310
O O2 0.915662 0.145579 0.239390
O O3 0.809656 0.000000 0.335324
O O4 0.907343 0.073040 0.383493
O O5 0.500000 0.098017 0.500000
O O6 0.617293 0.150441 0.273176
O O7 0.528780 0.000000 0.357899
O O8 0.317120 0.920819 0.226572
O O9 0.131657 0.000000 0.448868
O O10 0.122717 0.000000 0.296550
O O11 0.441155 0.209220 0.186493
O O12 0.605465 0.268469 0.178211
O O13 0.653732 0.299432 0.986765
O O14 0.746991 0.782390 0.792604
O O15 0.500000 0.844949 0.000000
#
# Coordination Sequence:
#
# PCOD9208576 Si02
#       7
#     8   8   4   8   8   4   8
#     4   9  20  38  58  83 119 149 194 239 288 343
#     4  10  21  38  58  86 119 153 194 242 290 352
#     4  11  21  40  60  82 119 157 196 238 300 343
#     4  10  21  39  60  87 120 153 196 247 290 348
#     4  10  22  39  61  87 119 153 199 245 292 353
#     4   9  22  38  57  84 119 150 192 252 275 357
#     4  10  22  39  58  89 120 152 199 244 290 351
#
# _framework density 18.474679999999999
#
# number of rings (size 3 to 8) (size 9 to 14) (size 15 to 20)
#    0.500    1.667    0.000    2.250    2.333    1.333 
#   12.000    0.000    0.000    6.000    0.000    0.000 
#    0.000    0.000    0.000    0.000    0.000    0.000 
#
# Total GULP energy -133833.108523 kJ/mol
# GULP energy per Si atom -5576.379522 kJ/mol
# Density = 1.843263 g / cm^3
# Si number density = 18.474680 Si / 1000 Ang^3
#
#
#
# Elastic Constant Matrix: (Units=GPa)
#
#
# Indices 1 2 3 4 5 6 
#
# 1 57.1337 20.2658 25.1105 -0.0001 -18.2285 0.0001
# 2 20.2658 117.6998 86.1545 -0.0005 -22.5212 0.0004
# 3 25.1105 86.1545 84.4006 -0.0004 -20.4094 0.0006
# 4 -0.0001 -0.0005 -0.0004 62.7874 0.0002 -10.1030
# 5 -18.2285 -22.5212 -20.4094 0.0002 24.0838 -0.0003
# 6 0.0001 0.0004 0.0006 -10.1030 -0.0003 0.1634
#
#
#
# Elastic Compliance Matrix: (Units=1/GPa)
#
#
# Indices 1 2 3 4 5 6 
#
# 1 0.024664 0.005363 -0.008912 -0.000001 0.016130 -0.000004
# 2 0.005363 0.034943 -0.035697 -0.000001 0.006485 -0.000008
# 3 -0.008912 -0.035697 0.051863 0.000002 0.003825 0.000012
# 4 -0.000001 -0.000001 0.000002 -0.001780 -0.000001 -0.110045
# 5 0.016130 0.006485 0.003825 -0.000001 0.063035 -0.000007
# 6 -0.000004 -0.000008 0.000012 -0.110045 -0.000007 -0.683900
#
#
# Mechanical properties :
#
#
# Convention : Reuss Voigt Hill
#
# Bulk Modulus (GPa) = 30.32244 58.03286 44.17765
# Shear Modulus (GPa) = -11.85698 25.92048 7.03175
#
# Velocity S-wave (km/s) = -2.53612 3.74976 1.95305
# Velocity P-wave (km/s) = 2.80584 7.08717 5.38984
#
# Compressibility (1/GPa) = 0.03297887
#
# Stress axis : x y z
#
# Youngs Moduli (GPa) = 40.54550 28.61811 19.28161
#
# Poissons Ratio (x) = -0.15348 0.17184
# Poissons Ratio (y) = -0.21745 0.68829
# Poissons Ratio (z) = 0.36134 1.02157
#
# Static dielectric constant tensor:
#      x y z
#    x 1.671990 0.000000 -0.011960 
#    y 0.000000 1.631480 0.000000 
#    z -0.011960 0.000000 1.603450 
# 
# From -- ./inp_files/278075.got.cif
#   From: 2010.05.17/outbox.cif.g08.bks.cpg/sg12_140_cif.got.tgz:278075.got - 2010.06.03 13:09:07.
