data_PCOD9208438
_publ_section_title
;
Structure prediction by ZEFSAII (Michael W. Deem and Ramdas Pophale) SiO2 
 PCOD9208438
Probable space group: C 2/M
;
_chemical_formula_sum "Si O2"
_cell_formula_units_Z 42
_cell_length_a 27.913147
_cell_length_b 7.609394
_cell_length_c 7.564798
_cell_angle_alpha 90.000000
_cell_angle_beta 82.676663
_cell_angle_gamma 90.000000
_cell_volume 1593.672102
_symmetry_space_group_name_H-M "C 2/M"
_symmetry_group_IT_number 12
_symmetry_cell_setting 'monoclinic'
loop_
_space_group_symop_operation_xyz
x,y,z
-x,y,-z
-x,-y,-z
x,-y,z
1/2+x,1/2+y,z
1/2-x,1/2+y,-z
1/2-x,1/2-y,-z
1/2+x,1/2-y,z
loop_
_atom_site_type_symbol
_atom_site_label
_atom_site_fract_x
_atom_site_fract_y
_atom_site_fract_z
Si Si1 0.961990 0.789800 0.757539
Si Si2 0.000000 0.500000 0.500000
Si Si3 0.570604 0.291057 0.859061
Si Si4 0.290901 0.794553 0.230911
Si Si5 0.361060 0.301565 0.471659
Si Si6 0.816006 0.706983 0.845184
O O1 0.963580 0.656406 0.595191
O O2 0.016609 0.769642 0.809361
O O3 0.955643 0.000000 0.724689
O O4 0.929265 0.727636 0.938739
O O5 0.579121 0.500000 0.870514
O O6 0.605695 0.212990 0.694142
O O7 0.309107 0.701869 0.398565
O O8 0.235072 0.773641 0.207502
O O9 0.300420 0.000000 0.253578
O O10 0.319583 0.722602 0.043846
O O11 0.378672 0.500000 0.478121
O O12 0.354831 0.240015 0.674476
O O13 0.810962 0.500000 0.869186
#
# Coordination Sequence:
#
# PCOD9208438 Si02
#       6
#     8   2   8   8   8   8
#     4   9  19  41  62  84 120 155 195 245 286 352
#     4  12  22  34  60 102 112 154 202 224 316 356
#     4   8  18  39  62  78 109 158 196 233 289 343
#     4  10  21  38  57  81 113 152 193 243 294 344
#     4  11  21  36  59  87 113 153 197 234 292 357
#     4  10  21  38  57  81 113 152 193 243 294 344
#
# _framework density 26.354230000000001
#
# number of rings (size 3 to 8) (size 9 to 14) (size 15 to 20)
#    0.000    2.286    0.000    3.714    0.000    3.810 
#   10.286    0.000    0.000    0.000    0.000    0.000 
#    0.000    0.000    0.000    0.000    0.000    0.000 
#
# Total GULP energy -117203.743608 kJ/mol
# GULP energy per Si atom -5581.130648 kJ/mol
# Density = 2.629425 g / cm^3
# Si number density = 26.354230 Si / 1000 Ang^3
#
#
#
# Elastic Constant Matrix: (Units=GPa)
#
#
# Indices 1 2 3 4 5 6 
#
# 1 51.3910 -1.8958 43.3671 0.0000 -2.0138 0.0000
# 2 -1.8958 92.4127 33.0705 0.0000 -6.9226 0.0000
# 3 43.3671 33.0705 218.5852 0.0000 -7.8372 0.0000
# 4 0.0000 0.0000 0.0000 18.0650 0.0000 -4.6936
# 5 -2.0138 -6.9226 -7.8372 0.0000 55.1176 0.0000
# 6 0.0000 0.0000 0.0000 -4.6936 0.0000 -24.7214
#
#
#
# Elastic Compliance Matrix: (Units=1/GPa)
#
#
# Indices 1 2 3 4 5 6 
#
# 1 0.023838 0.002335 -0.005067 0.000000 0.000444 0.000000
# 2 0.002335 0.011748 -0.002196 0.000000 0.001249 0.000000
# 3 -0.005067 -0.002196 0.005926 0.000000 0.000382 0.000000
# 4 0.000000 0.000000 0.000000 0.052753 0.000000 -0.010016
# 5 0.000444 0.001249 0.000382 0.000000 0.018370 0.000000
# 6 0.000000 0.000000 0.000000 -0.010016 0.000000 -0.038549
#
#
# Mechanical properties :
#
#
# Convention : Reuss Voigt Hill
#
# Bulk Modulus (GPa) = 31.58806 56.83029 44.20918
# Shear Modulus (GPa) = 52.91321 28.88204 40.89763
#
# Velocity S-wave (km/s) = 4.48568 3.31405 3.94362
# Velocity P-wave (km/s) = 6.23220 6.02119 6.12761
#
# Compressibility (1/GPa) = 0.03165753
#
# Stress axis : x y z
#
# Youngs Moduli (GPa) = 41.94986 85.11849 168.74598
#
# Poissons Ratio (x) = -0.19879 0.85501
# Poissons Ratio (y) = -0.09797 0.37057
# Poissons Ratio (z) = 0.21255 0.18692
#
# Static dielectric constant tensor:
#      x y z
#    x 2.148490 0.000000 -0.020580 
#    y 0.000000 1.971530 0.000000 
#    z -0.020580 0.000000 2.169040 
# 
# From -- ./inp_files/107902.got.cif
#   From: 2010.05.17/outbox.cif.g08.bks.cpg/sg12_54_cif.got.tgz:107902.got - 2010.06.03 13:09:07.
