data_PCOD9208280
_publ_section_title
;
Structure prediction by ZEFSAII (Michael W. Deem and Ramdas Pophale) SiO2 
 PCOD9208280
Probable space group: C 2/M
;
_chemical_formula_sum "Si O2"
_cell_formula_units_Z 34
_cell_length_a 21.574506
_cell_length_b 7.578224
_cell_length_c 17.513258
_cell_angle_alpha 90.000000
_cell_angle_beta 147.082240
_cell_angle_gamma 90.000000
_cell_volume 1556.046586
_symmetry_space_group_name_H-M "C 2/M"
_symmetry_group_IT_number 12
_symmetry_cell_setting 'monoclinic'
loop_
_space_group_symop_operation_xyz
x,y,z
-x,y,-z
-x,-y,-z
x,-y,z
1/2+x,1/2+y,z
1/2-x,1/2+y,-z
1/2-x,1/2-y,-z
1/2+x,1/2-y,z
loop_
_atom_site_type_symbol
_atom_site_label
_atom_site_fract_x
_atom_site_fract_y
_atom_site_fract_z
Si Si1 0.090621 0.795696 0.807529
Si Si2 0.662163 0.714151 0.204936
Si Si3 0.202602 0.797475 0.075112
Si Si4 0.332721 0.208122 0.515212
Si Si5 0.500000 0.000000 0.000000
O O1 0.168426 0.709035 0.822992
O O2 0.957058 0.788727 0.654677
O O3 0.127112 0.000000 0.845679
O O4 0.127133 0.720069 0.928041
O O5 0.640543 0.500000 0.187307
O O6 0.693428 0.775169 0.150814
O O7 0.765423 0.755751 0.368651
O O8 0.556318 0.841071 0.112571
O O9 0.165602 0.000000 0.045534
O O10 0.250000 0.250000 0.500000
O O11 0.351578 0.000000 0.532278
#
# Coordination Sequence:
#
# PCOD9208280 Si02
#       5
#     8   8   8   8   2
#     4  10  21  37  64  93 123 162 210 261 310 380
#     4  10  25  44  64  96 128 167 217 263 318 380
#     4   9  20  41  63  89 125 165 210 260 317 371
#     4  11  25  42  62  90 130 167 208 264 321 380
#     4  12  26  40  72  92 128 172 210 272 312 388
#
# _framework density 21.850245000000001
#
# number of rings (size 3 to 8) (size 9 to 14) (size 15 to 20)
#    0.000    1.882    0.000    1.765    8.235    1.882 
#    0.000    4.706    0.000    0.000    0.000    0.000 
#    0.000    0.000    0.000    0.000    0.000    0.000 
#
# Total GULP energy -94653.293451 kJ/mol
# GULP energy per Si atom -5567.840791 kJ/mol
# Density = 2.180051 g / cm^3
# Si number density = 21.850245 Si / 1000 Ang^3
#
#
#
# Elastic Constant Matrix: (Units=GPa)
#
#
# Indices 1 2 3 4 5 6 
#
# 1 118.2070 -2.5429 54.7877 0.0000 -21.1640 0.0000
# 2 -2.5429 79.9192 28.4555 0.0000 -8.1306 0.0000
# 3 54.7877 28.4555 161.6114 0.0000 -0.4308 0.0000
# 4 0.0000 0.0000 0.0000 23.8676 0.0000 -2.0618
# 5 -21.1640 -8.1306 -0.4308 0.0000 29.0363 0.0000
# 6 0.0000 0.0000 0.0000 -2.0618 0.0000 11.7884
#
#
#
# Elastic Compliance Matrix: (Units=1/GPa)
#
#
# Indices 1 2 3 4 5 6 
#
# 1 0.012508 0.003101 -0.004760 0.000000 0.009914 0.000000
# 2 0.003101 0.014529 -0.003593 0.000000 0.006276 0.000000
# 3 -0.004760 -0.003593 0.008422 0.000000 -0.004350 0.000000
# 4 0.000000 0.000000 0.000000 0.042541 0.000000 0.007441
# 5 0.009914 0.006276 -0.004350 0.000000 0.043359 0.000000
# 6 0.000000 0.000000 0.000000 0.007441 0.000000 0.086131
#
#
# Mechanical properties :
#
#
# Convention : Reuss Voigt Hill
#
# Bulk Modulus (GPa) = 40.06992 57.90424 48.98708
# Shear Modulus (GPa) = 22.09355 31.54095 26.81725
#
# Velocity S-wave (km/s) = 3.18328 3.80347 3.50711
# Velocity P-wave (km/s) = 5.64706 6.77101 6.23442
#
# Compressibility (1/GPa) = 0.02495637
#
# Stress axis : x y z
#
# Youngs Moduli (GPa) = 79.95081 68.82783 118.73207
#
# Poissons Ratio (x) = -0.21346 0.56515
# Poissons Ratio (y) = -0.24796 0.42659
# Poissons Ratio (z) = 0.38055 0.24729
#
# Static dielectric constant tensor:
#      x y z
#    x 1.852020 0.000000 -0.002530 
#    y 0.000000 1.855670 0.000000 
#    z -0.002530 0.000000 1.799080 
# 
# From -- ./inp_files/281981.got.cif
#   From: 2010.05.17/outbox.cif.g08.bks.cpg/sg12_141_cif.got.tgz:281981.got - 2010.06.03 13:09:07.
