data_PCOD9208006
_publ_section_title
;
Structure prediction by ZEFSAII (Michael W. Deem and Ramdas Pophale) SiO2 
 PCOD9208006
Probable space group: C 2/M
;
_chemical_formula_sum "Si O2"
_cell_formula_units_Z 64
_cell_length_a 19.054934
_cell_length_b 8.860675
_cell_length_c 30.388299
_cell_angle_alpha 90.000000
_cell_angle_beta 140.721493
_cell_angle_gamma 90.000000
_cell_volume 3248.227754
_symmetry_space_group_name_H-M "C 2/M"
_symmetry_group_IT_number 12
_symmetry_cell_setting 'monoclinic'
loop_
_space_group_symop_operation_xyz
x,y,z
-x,y,-z
-x,-y,-z
x,-y,z
1/2+x,1/2+y,z
1/2-x,1/2+y,-z
1/2-x,1/2-y,-z
1/2+x,1/2-y,z
loop_
_atom_site_type_symbol
_atom_site_label
_atom_site_fract_x
_atom_site_fract_y
_atom_site_fract_z
Si Si1 0.372180 0.317446 0.564385
Si Si2 0.379364 0.679430 0.925089
Si Si3 0.051452 0.182509 0.300590
Si Si4 0.038371 0.183776 0.567175
Si Si5 0.667106 0.326544 0.852083
Si Si6 0.405351 0.179768 0.846944
Si Si7 0.705546 0.182686 0.299443
Si Si8 0.131930 0.173347 0.935808
O O1 0.365468 0.500000 0.559358
O O2 0.250000 0.250000 0.500000
O O3 0.418872 0.275813 0.635150
O O4 0.454335 0.267679 0.564927
O O5 0.383896 0.500000 0.924797
O O6 0.279051 0.731565 0.907030
O O7 0.352447 0.746904 0.864232
O O8 0.500000 0.734305 0.000000
O O9 0.137548 0.249888 0.307263
O O10 0.927096 0.230332 0.226795
O O11 0.054166 0.000000 0.298258
O O12 0.165619 0.228827 0.636831
O O13 0.000000 0.233141 0.500000
O O14 0.036653 0.000000 0.566586
O O15 0.696103 0.500000 0.855093
O O16 0.613685 0.326764 0.874432
O O17 0.348869 0.226841 0.773618
O O18 0.532272 0.234471 0.908416
O O19 0.399210 0.000000 0.846982
O O20 0.700419 0.000000 0.299960
O O21 0.131434 0.000000 0.951330
O O22 0.250000 0.250000 0.000000
#
# Coordination Sequence:
#
# PCOD9208006 Si02
#       8
#     8   8   8   8   8   8   8   8
#     4  10  21  37  61  88 120 157 196 240 292 350
#     4  11  25  42  60  84 116 155 200 252 305 358
#     4  10  21  38  60  86 119 158 195 242 300 352
#     4   9  18  34  58  87 117 153 194 238 284 336
#     4  10  22  39  60  85 116 155 197 243 299 358
#     4  11  23  38  60  88 119 156 200 247 300 362
#     4  10  21  37  61  89 117 154 200 245 289 348
#     4  11  22  38  61  87 118 154 197 247 301 358
#
# _framework density 19.703052
#
# number of rings (size 3 to 8) (size 9 to 14) (size 15 to 20)
#    0.000    1.750    1.250    2.625    1.750    6.500 
#    0.000    0.625    0.000    2.250    0.000    0.000 
#    0.000    0.000    0.000    0.000    0.000    0.000 
#
# Total GULP energy -178787.079219 kJ/mol
# GULP energy per Si atom -5587.096226 kJ/mol
# Density = 1.965821 g / cm^3
# Si number density = 19.703052 Si / 1000 Ang^3
#
#
#
# Elastic Constant Matrix: (Units=GPa)
#
#
# Indices 1 2 3 4 5 6 
#
# 1 108.8486 19.7499 34.6076 0.0000 -1.6943 0.0000
# 2 19.7499 26.1906 20.7956 0.0000 -1.5351 -0.0001
# 3 34.6076 20.7956 116.2139 0.0000 2.1543 0.0000
# 4 0.0000 0.0000 0.0000 23.0216 0.0000 1.1948
# 5 -1.6943 -1.5351 2.1543 0.0000 37.0567 0.0000
# 6 0.0000 -0.0001 0.0000 1.1948 0.0000 30.1197
#
#
#
# Elastic Compliance Matrix: (Units=1/GPa)
#
#
# Indices 1 2 3 4 5 6 
#
# 1 0.011071 -0.006650 -0.002114 0.000000 0.000354 0.000000
# 2 -0.006650 0.048697 -0.006773 0.000000 0.002107 0.000000
# 3 -0.002114 -0.006773 0.010464 0.000000 -0.000986 0.000000
# 4 0.000000 0.000000 0.000000 0.043527 0.000000 -0.001727
# 5 0.000354 0.002107 -0.000986 0.000000 0.027146 0.000000
# 6 0.000000 0.000000 0.000000 -0.001727 0.000000 0.033269
#
#
# Mechanical properties :
#
#
# Convention : Reuss Voigt Hill
#
# Bulk Modulus (GPa) = 25.53583 44.61771 35.07677
# Shear Modulus (GPa) = 22.90413 29.77959 26.34186
#
# Velocity S-wave (km/s) = 3.41319 3.89192 3.66039
# Velocity P-wave (km/s) = 5.34057 6.54907 5.97545
#
# Compressibility (1/GPa) = 0.03916065
#
# Stress axis : x y z
#
# Youngs Moduli (GPa) = 90.32533 20.53508 95.56169
#
# Poissons Ratio (x) = 0.13655 0.20197
# Poissons Ratio (y) = 0.60063 0.64723
# Poissons Ratio (z) = 0.19091 0.13908
#
# Static dielectric constant tensor:
#      x y z
#    x 1.729830 0.000000 -0.010580 
#    y 0.000000 1.671150 0.000000 
#    z -0.010580 0.000000 1.692830 
# 
# From -- ./inp_files/378434.got.cif
#   From: 2010.05.17/outbox.cif.g08.bks.cpg/sg12_190_cif.got.tgz:378434.got - 2010.06.03 13:09:07.
