data_PCOD9208362
_publ_section_title
;
Structure prediction by ZEFSAII (Michael W. Deem and Ramdas Pophale) SiO2 
 PCOD9208362
Probable space group: C 2/M
;
_chemical_formula_sum "Si O2"
_cell_formula_units_Z 64
_cell_length_a 31.803841
_cell_length_b 8.794413
_cell_length_c 15.017790
_cell_angle_alpha 90.000000
_cell_angle_beta 117.849148
_cell_angle_gamma 90.000000
_cell_volume 3713.927593
_symmetry_space_group_name_H-M "C 2/M"
_symmetry_group_IT_number 12
_symmetry_cell_setting 'monoclinic'
loop_
_space_group_symop_operation_xyz
x,y,z
-x,y,-z
-x,-y,-z
x,-y,z
1/2+x,1/2+y,z
1/2-x,1/2+y,-z
1/2-x,1/2-y,-z
1/2+x,1/2-y,z
loop_
_atom_site_type_symbol
_atom_site_label
_atom_site_fract_x
_atom_site_fract_y
_atom_site_fract_z
Si Si1 0.366598 0.181144 0.141894
Si Si2 0.053025 0.817560 0.658103
Si Si3 0.221255 0.818253 0.615748
Si Si4 0.783888 0.316498 0.197290
Si Si5 0.058213 0.816650 0.459908
Si Si6 0.861718 0.318838 0.585734
Si Si7 0.673562 0.682643 0.276201
Si Si8 0.673856 0.318212 0.072646
O O1 0.413529 0.244196 0.235505
O O2 0.321739 0.226397 0.159797
O O3 0.368329 0.000000 0.142111
O O4 0.357189 0.242112 0.034048
O O5 0.068096 0.772162 0.572507
O O6 0.997183 0.781198 0.612792
O O7 0.057227 0.000000 0.666859
O O8 0.205721 0.766112 0.699363
O O9 0.184540 0.748815 0.509519
O O10 0.273922 0.750681 0.654911
O O11 0.222052 0.000000 0.609648
O O12 0.785580 0.500000 0.213127
O O13 0.729756 0.277439 0.116821
O O14 0.093266 0.735700 0.426810
O O15 0.064093 0.000000 0.459426
O O16 0.858899 0.500000 0.585406
O O17 0.861074 0.250893 0.684307
O O18 0.675927 0.500000 0.285697
O O19 0.660869 0.721839 0.161535
O O20 0.670294 0.500000 0.060325
#
# Coordination Sequence:
#
# PCOD9208362 Si02
#       8
#     8   8   8   8   8   8   8   8
#     4  11  21  31  50  78 107 137 173 213 255 304
#     4   9  19  36  57  79 106 136 169 207 253 307
#     4  11  21  33  51  76 106 140 175 213 254 301
#     4   9  19  34  49  73 107 141 175 212 254 304
#     4   9  19  37  58  80 104 134 170 210 253 303
#     4  12  23  34  52  78 106 137 171 210 256 309
#     4  10  21  38  55  73 101 137 176 218 258 301
#     4   9  19  35  53  71  99 138 177 215 256 299
#
# _framework density 17.232431999999999
#
# number of rings (size 3 to 8) (size 9 to 14) (size 15 to 20)
#    0.000    2.000    0.000    6.000    0.000    6.500 
#    0.000    1.250    0.000    0.750    0.000    5.250 
#    0.000    0.000    0.000    0.000    0.000    0.000 
#
# Total GULP energy -178740.241328 kJ/mol
# GULP energy per Si atom -5585.632542 kJ/mol
# Density = 1.719321 g / cm^3
# Si number density = 17.232432 Si / 1000 Ang^3
#
#
#
# Elastic Constant Matrix: (Units=GPa)
#
#
# Indices 1 2 3 4 5 6 
#
# 1 87.8386 44.1682 61.4116 0.0000 -23.3726 0.0000
# 2 44.1682 68.2579 52.5523 0.0000 -9.4783 0.0000
# 3 61.4116 52.5523 140.0097 0.0000 -7.2837 0.0000
# 4 0.0000 0.0000 0.0000 23.9144 0.0000 -0.6836
# 5 -23.3726 -9.4783 -7.2837 0.0000 17.3848 0.0000
# 6 0.0000 0.0000 0.0000 -0.6836 0.0000 27.4450
#
#
#
# Elastic Compliance Matrix: (Units=1/GPa)
#
#
# Indices 1 2 3 4 5 6 
#
# 1 0.030112 -0.008612 -0.008294 0.000000 0.032313 0.000000
# 2 -0.008612 0.024270 -0.005363 0.000000 -0.000593 0.000000
# 3 -0.008294 -0.005363 0.012330 0.000000 -0.008909 0.000000
# 4 0.000000 0.000000 0.000000 0.041846 0.000000 0.001042
# 5 0.032313 -0.000593 -0.008909 0.000000 0.096908 0.000000
# 6 0.000000 0.000000 0.000000 0.001042 0.000000 0.036463
#
#
# Mechanical properties :
#
#
# Convention : Reuss Voigt Hill
#
# Bulk Modulus (GPa) = 45.10006 68.04114 56.57060
# Shear Modulus (GPa) = 17.01511 22.94710 19.98110
#
# Velocity S-wave (km/s) = 3.14568 3.65310 3.40885
# Velocity P-wave (km/s) = 6.27871 7.57388 6.95650
#
# Compressibility (1/GPa) = 0.02217292
#
# Stress axis : x y z
#
# Youngs Moduli (GPa) = 33.20965 41.20397 81.10346
#
# Poissons Ratio (x) = 0.35484 0.67269
# Poissons Ratio (y) = 0.28600 0.43496
# Poissons Ratio (z) = 0.27545 0.22098
#
# Static dielectric constant tensor:
#      x y z
#    x 1.583480 0.000000 -0.013470 
#    y 0.000000 1.569570 0.000000 
#    z -0.013470 0.000000 1.571920 
# 
# From -- ./inp_files/249248.got.cif
#   From: 2010.05.17/outbox.cif.g08.bks.cpg/sg12_125_cif.got.tgz:249248.got - 2010.06.03 13:09:07.
