data_PCOD9208106
_publ_section_title
;
Structure prediction by ZEFSAII (Michael W. Deem and Ramdas Pophale) SiO2 
 PCOD9208106
Probable space group: C 2/M
;
_chemical_formula_sum "Si O2"
_cell_formula_units_Z 32
_cell_length_a 5.286924
_cell_length_b 19.357669
_cell_length_c 15.476507
_cell_angle_alpha 90.000000
_cell_angle_beta 89.453666
_cell_angle_gamma 90.000000
_cell_volume 1583.832796
_symmetry_space_group_name_H-M "C 2/M"
_symmetry_group_IT_number 12
_symmetry_cell_setting 'monoclinic'
loop_
_space_group_symop_operation_xyz
x,y,z
-x,y,-z
-x,-y,-z
x,-y,z
1/2+x,1/2+y,z
1/2-x,1/2+y,-z
1/2-x,1/2-y,-z
1/2+x,1/2-y,z
loop_
_atom_site_type_symbol
_atom_site_label
_atom_site_fract_x
_atom_site_fract_y
_atom_site_fract_z
Si Si1 0.207284 0.682092 0.442742
Si Si2 0.037658 0.633575 0.273234
Si Si3 0.477664 0.577285 0.652822
Si Si4 0.947499 0.294654 0.092907
O O1 0.250000 0.750000 0.500000
O O2 0.082718 0.692761 0.347539
O O3 0.552279 0.636532 0.584326
O O4 0.000000 0.640306 0.500000
O O5 0.291379 0.588113 0.280344
O O6 0.995563 0.662262 0.178685
O O7 0.791270 0.592592 0.304616
O O8 0.486471 0.500000 0.617464
O O9 0.161769 0.234405 0.094851
O O10 0.000000 0.330066 0.000000
#
# Coordination Sequence:
#
# PCOD9208106 Si02
#       4
#     8   8   8   8
#     4  10  26  38  62  95 125 161 214 271 317 380
#     4  10  23  38  64  89 124 171 205 270 309 390
#     4  10  23  43  63  89 126 175 217 260 318 383
#     4  10  21  37  61  95 131 165 204 257 330 392
#
# _framework density 20.204153999999999
#
# number of rings (size 3 to 8) (size 9 to 14) (size 15 to 20)
#    1.500    0.500    0.000    2.250    7.000    0.500 
#    0.000    1.250    0.000    4.500    0.000    0.000 
#    0.000    0.000    0.000    0.000    0.000    0.250 
#
# Total GULP energy -89128.590101 kJ/mol
# GULP energy per Si atom -5570.536881 kJ/mol
# Density = 2.015817 g / cm^3
# Si number density = 20.204154 Si / 1000 Ang^3
#
#
#
# Elastic Constant Matrix: (Units=GPa)
#
#
# Indices 1 2 3 4 5 6 
#
# 1 108.2871 17.9543 7.0212 0.0000 14.7308 0.0000
# 2 17.9543 95.7615 43.1045 0.0000 -2.2719 0.0000
# 3 7.0212 43.1045 153.0206 0.0000 8.9032 0.0000
# 4 0.0000 0.0000 0.0000 7.1261 0.0000 -3.0091
# 5 14.7308 -2.2719 8.9032 0.0000 22.5655 0.0000
# 6 0.0000 0.0000 0.0000 -3.0091 0.0000 10.1993
#
#
#
# Elastic Compliance Matrix: (Units=1/GPa)
#
#
# Indices 1 2 3 4 5 6 
#
# 1 0.010610 -0.002451 0.000636 0.000000 -0.007424 0.000000
# 2 -0.002451 0.012675 -0.003711 0.000000 0.004341 0.000000
# 3 0.000636 -0.003711 0.007776 0.000000 -0.003856 0.000000
# 4 0.000000 0.000000 0.000000 0.160299 0.000000 0.047293
# 5 -0.007424 0.004341 -0.003856 0.000000 0.051120 0.000000
# 6 0.000000 0.000000 0.000000 0.047293 0.000000 0.111998
#
#
# Mechanical properties :
#
#
# Convention : Reuss Voigt Hill
#
# Bulk Modulus (GPa) = 49.98011 54.80323 52.39167
# Shear Modulus (GPa) = 13.43362 27.24415 20.33889
#
# Velocity S-wave (km/s) = 2.58135 3.67610 3.17625
# Velocity P-wave (km/s) = 5.80308 6.72324 6.28003
#
# Compressibility (1/GPa) = 0.02000796
#
# Stress axis : x y z
#
# Youngs Moduli (GPa) = 94.25210 78.89265 128.60866
#
# Poissons Ratio (x) = 0.19340 -0.08175
# Poissons Ratio (y) = 0.23106 0.47722
# Poissons Ratio (z) = -0.05991 0.29274
#
# Static dielectric constant tensor:
#      x y z
#    x 1.870480 0.000000 0.061850 
#    y 0.000000 1.732450 0.000000 
#    z 0.061850 0.000000 1.751250 
# 
# From -- ./inp_files/191315.got.cif
#   From: 2010.05.17/outbox.cif.g08.bks.cpg/sg12_96_cif.got.tgz:191315.got - 2010.06.03 13:09:07.
