data_PCOD9208621
_publ_section_title
;
Structure prediction by ZEFSAII (Michael W. Deem and Ramdas Pophale) SiO2 
 PCOD9208621
Probable space group: C 2/M
;
_chemical_formula_sum "Si O2"
_cell_formula_units_Z 48
_cell_length_a 29.331945
_cell_length_b 9.160037
_cell_length_c 8.174053
_cell_angle_alpha 90.000000
_cell_angle_beta 101.245587
_cell_angle_gamma 90.000000
_cell_volume 2154.051740
_symmetry_space_group_name_H-M "C 2/M"
_symmetry_group_IT_number 12
_symmetry_cell_setting 'monoclinic'
loop_
_space_group_symop_operation_xyz
x,y,z
-x,y,-z
-x,-y,-z
x,-y,z
1/2+x,1/2+y,z
1/2-x,1/2+y,-z
1/2-x,1/2-y,-z
1/2+x,1/2-y,z
loop_
_atom_site_type_symbol
_atom_site_label
_atom_site_fract_x
_atom_site_fract_y
_atom_site_fract_z
Si Si1 0.977043 0.333804 0.301026
Si Si2 0.106697 0.671209 0.546496
Si Si3 0.636657 0.825960 0.083221
Si Si4 0.303710 0.827894 0.191949
Si Si5 0.771899 0.326860 0.672065
Si Si6 0.559183 0.327474 0.210075
O O1 0.980773 0.500000 0.243790
O O2 0.923907 0.302153 0.310566
O O3 0.000000 0.328400 0.500000
O O4 0.007234 0.231620 0.206085
O O5 0.098446 0.500000 0.494449
O O6 0.160106 0.686479 0.631936
O O7 0.087265 0.774278 0.392026
O O8 0.674105 0.795889 0.253856
O O9 0.588581 0.745855 0.085502
O O10 0.628240 0.000000 0.070987
O O11 0.665875 0.785124 0.943415
O O12 0.259196 0.731256 0.199028
O O13 0.291511 0.000000 0.168170
O O14 0.767190 0.500000 0.653662
O O15 0.750000 0.250000 0.500000
O O16 0.559009 0.500000 0.194748
#
# Coordination Sequence:
#
# PCOD9208621 Si02
#       6
#     8   8   8   8   8   8
#     4   8  15  30  52  76 104 138 176 219 264 310
#     4   9  18  34  56  80 105 137 178 221 265 315
#     4  10  22  39  56  76 107 145 179 214 261 318
#     4  10  21  38  59  81 106 138 177 220 266 314
#     4  11  23  38  58  83 109 139 176 217 262 313
#     4  11  21  32  52  81 109 140 179 221 264 310
#
# _framework density 22.283587000000001
#
# number of rings (size 3 to 8) (size 9 to 14) (size 15 to 20)
#    0.000    2.167    0.000    4.500    0.000    9.667 
#    0.000    0.833    0.000    5.000    0.000    0.000 
#    0.000    0.000    0.000    0.000    0.000    0.000 
#
# Total GULP energy -134199.140712 kJ/mol
# GULP energy per Si atom -5591.630863 kJ/mol
# Density = 2.223287 g / cm^3
# Si number density = 22.283587 Si / 1000 Ang^3
#
#
#
# Elastic Constant Matrix: (Units=GPa)
#
#
# Indices 1 2 3 4 5 6 
#
# 1 125.5179 51.0031 7.4738 0.0000 -21.6211 0.0000
# 2 51.0031 66.5951 15.1801 0.0000 -18.8068 0.0000
# 3 7.4738 15.1801 68.6190 0.0000 -15.6325 0.0000
# 4 0.0000 0.0000 0.0000 21.9971 0.0000 -13.8996
# 5 -21.6211 -18.8068 -15.6325 0.0000 38.4670 0.0000
# 6 0.0000 0.0000 0.0000 -13.8996 0.0000 28.8777
#
#
#
# Elastic Compliance Matrix: (Units=1/GPa)
#
#
# Indices 1 2 3 4 5 6 
#
# 1 0.011881 -0.008537 0.001284 0.000000 0.003026 0.000000
# 2 -0.008537 0.023838 -0.003066 0.000000 0.005610 0.000000
# 3 0.001284 -0.003066 0.016458 0.000000 0.005911 0.000000
# 4 0.000000 0.000000 0.000000 0.065330 0.000000 0.031445
# 5 0.003026 0.005610 0.005911 0.000000 0.032842 0.000000
# 6 0.000000 0.000000 0.000000 0.031445 0.000000 0.049764
#
#
# Mechanical properties :
#
#
# Convention : Reuss Voigt Hill
#
# Bulk Modulus (GPa) = 31.70697 45.33844 38.52271
# Shear Modulus (GPa) = 21.62027 30.34000 25.98014
#
# Velocity S-wave (km/s) = 3.11824 3.69391 3.41821
# Velocity P-wave (km/s) = 5.21769 6.21157 5.73619
#
# Compressibility (1/GPa) = 0.03153881
#
# Stress axis : x y z
#
# Youngs Moduli (GPa) = 84.16945 41.95035 60.75983
#
# Poissons Ratio (x) = 0.35814 -0.07801
# Poissons Ratio (y) = 0.71858 0.18626
# Poissons Ratio (z) = -0.10807 0.12860
#
# Static dielectric constant tensor:
#      x y z
#    x 1.850760 0.000000 0.003550 
#    y 0.000000 1.755330 0.000000 
#    z 0.003550 0.000000 1.915450 
# 
# From -- ./inp_files/108783.got.cif
#   From: 2010.05.17/outbox.cif.g08.bks.cpg/sg12_55_cif.got.tgz:108783.got - 2010.06.03 13:09:07.
