data_PCOD9208223
_publ_section_title
;
Structure prediction by ZEFSAII (Michael W. Deem and Ramdas Pophale) SiO2 
 PCOD9208223
Probable space group: C 2/M
;
_chemical_formula_sum "Si O2"
_cell_formula_units_Z 48
_cell_length_a 19.657527
_cell_length_b 14.990552
_cell_length_c 8.587667
_cell_angle_alpha 90.000000
_cell_angle_beta 70.304386
_cell_angle_gamma 90.000000
_cell_volume 2382.540770
_symmetry_space_group_name_H-M "C 2/M"
_symmetry_group_IT_number 12
_symmetry_cell_setting 'monoclinic'
loop_
_space_group_symop_operation_xyz
x,y,z
-x,y,-z
-x,-y,-z
x,-y,z
1/2+x,1/2+y,z
1/2-x,1/2+y,-z
1/2-x,1/2-y,-z
1/2+x,1/2-y,z
loop_
_atom_site_type_symbol
_atom_site_label
_atom_site_fract_x
_atom_site_fract_y
_atom_site_fract_z
Si Si1 0.908660 0.243992 0.762169
Si Si2 0.226781 0.101243 0.644524
Si Si3 0.961605 0.327742 0.182709
Si Si4 0.315398 0.770372 0.133660
Si Si5 0.396467 0.097265 0.527761
Si Si6 0.816906 0.105962 0.669961
O O1 0.910317 0.321633 0.632683
O O2 0.885833 0.153020 0.695539
O O3 0.984321 0.250925 0.795467
O O4 0.846155 0.266257 0.935783
O O5 0.212023 0.174548 0.786152
O O6 0.312401 0.103084 0.543793
O O7 0.186301 0.122252 0.513863
O O8 0.208342 0.000000 0.707043
O O9 0.884545 0.292325 0.186883
O O10 0.945585 0.392571 0.337907
O O11 0.000000 0.367762 0.000000
O O12 0.253527 0.843714 0.207297
O O13 0.407210 0.000000 0.592984
O O14 0.813882 0.000000 0.697929
#
# Coordination Sequence:
#
# PCOD9208223 Si02
#       6
#     8   8   8   8   8   8
#     4  11  24  39  59  94 126 163 200 255 311 363
#     4  10  21  37  63  93 120 159 206 256 309 362
#     4  10  23  40  62  87 125 166 208 247 304 369
#     4  11  21  41  63  89 122 164 205 254 306 365
#     4  11  22  39  62  91 125 162 205 253 309 367
#     4  11  22  38  62  90 121 159 207 255 302 357
#
# _framework density 20.146557999999999
#
# number of rings (size 3 to 8) (size 9 to 14) (size 15 to 20)
#    0.000    1.333    3.333    2.500    0.000    3.000 
#    0.000    4.167    0.000    7.000    0.000    0.000 
#    0.000    0.000    0.000    0.000    0.000    0.000 
#
# Total GULP energy -134082.573122 kJ/mol
# GULP energy per Si atom -5586.773880 kJ/mol
# Density = 2.010070 g / cm^3
# Si number density = 20.146558 Si / 1000 Ang^3
#
#
#
# Elastic Constant Matrix: (Units=GPa)
#
#
# Indices 1 2 3 4 5 6 
#
# 1 74.7200 24.6909 13.0465 0.0000 9.8479 0.0000
# 2 24.6909 107.8921 57.2884 0.0000 3.5476 0.0000
# 3 13.0465 57.2884 104.1374 0.0000 -1.8252 0.0000
# 4 0.0000 0.0000 0.0000 2.0091 0.0000 1.8200
# 5 9.8479 3.5476 -1.8252 0.0000 30.6682 0.0000
# 6 0.0000 0.0000 0.0000 1.8200 0.0000 14.9752
#
#
#
# Elastic Compliance Matrix: (Units=1/GPa)
#
#
# Indices 1 2 3 4 5 6 
#
# 1 0.015064 -0.003187 -0.000212 0.000000 -0.004481 0.000000
# 2 -0.003187 0.013884 -0.007257 0.000000 -0.001014 0.000000
# 3 -0.000212 -0.007257 0.013651 0.000000 0.001720 0.000000
# 4 0.000000 0.000000 0.000000 0.559319 0.000000 -0.067975
# 5 -0.004481 -0.001014 0.001720 0.000000 0.034266 0.000000
# 6 0.000000 0.000000 0.000000 -0.067975 0.000000 0.075038
#
#
# Mechanical properties :
#
#
# Convention : Reuss Voigt Hill
#
# Bulk Modulus (GPa) = 46.97591 52.97790 49.97691
# Shear Modulus (GPa) = 6.76012 22.31206 14.53609
#
# Velocity S-wave (km/s) = 1.83378 3.33150 2.68902
# Velocity P-wave (km/s) = 5.27744 6.41497 5.87381
#
# Compressibility (1/GPa) = 0.02128751
#
# Stress axis : x y z
#
# Youngs Moduli (GPa) = 66.38238 72.02350 73.25225
#
# Poissons Ratio (x) = 0.22956 0.01556
# Poissons Ratio (y) = 0.21158 0.53156
# Poissons Ratio (z) = 0.01410 0.52264
#
# Static dielectric constant tensor:
#      x y z
#    x 1.752310 0.000000 0.017910 
#    y 0.000000 1.673570 0.000000 
#    z 0.017910 0.000000 1.715980 
# 
# From -- ./inp_files/85670.got.cif
#   From: 2010.05.17/outbox.cif.g08.bks.cpg/sg12_43_cif.got.tgz:85670.got - 2010.06.03 13:09:07.
