data_PCOD9208492
_publ_section_title
;
Structure prediction by ZEFSAII (Michael W. Deem and Ramdas Pophale) SiO2 
 PCOD9208492
Probable space group: C 2/M
;
_chemical_formula_sum "Si O2"
_cell_formula_units_Z 36
_cell_length_a 5.026105
_cell_length_b 12.753140
_cell_length_c 27.260728
_cell_angle_alpha 90.000000
_cell_angle_beta 73.594045
_cell_angle_gamma 90.000000
_cell_volume 1676.230033
_symmetry_space_group_name_H-M "C 2/M"
_symmetry_group_IT_number 12
_symmetry_cell_setting 'monoclinic'
loop_
_space_group_symop_operation_xyz
x,y,z
-x,y,-z
-x,-y,-z
x,-y,z
1/2+x,1/2+y,z
1/2-x,1/2+y,-z
1/2-x,1/2-y,-z
1/2+x,1/2-y,z
loop_
_atom_site_type_symbol
_atom_site_label
_atom_site_fract_x
_atom_site_fract_y
_atom_site_fract_z
Si Si1 0.188240 0.322908 0.661890
Si Si2 0.868035 0.321698 0.880044
Si Si3 0.346275 0.178325 0.230396
Si Si4 0.192792 0.500000 0.037104
Si Si5 0.480895 0.677137 0.553984
O O1 0.390592 0.222564 0.661824
O O2 0.168614 0.376707 0.715983
O O3 0.334550 0.377119 0.607937
O O4 0.566933 0.276329 0.882700
O O5 0.856430 0.400040 0.925718
O O6 0.006406 0.372283 0.824137
O O7 0.544567 0.279696 0.230721
O O8 0.500000 0.500000 0.000000
O O9 0.000000 0.500000 0.000000
O O10 0.500000 0.623026 0.500000
O O11 0.778951 0.722403 0.553990
#
# Coordination Sequence:
#
# PCOD9208492 Si02
#       5
#     8   8   8   4   8
#     4   8  12  18  29  46  68  96 135 177 216 266
#     4  10  21  38  58  79 106 137 169 209 253 297
#     4   8  14  25  42  62  83 112 149 188 233 279
#     4  12  26  40  58  84 108 136 173 206 247 302
#     4   8  12  16  22  35  59  92 128 167 212 259
#
# _framework density 21.476768
#
# number of rings (size 3 to 8) (size 9 to 14) (size 15 to 20)
#    0.000    3.111    0.000    1.333    0.000    2.667 
#    0.000    0.000    0.000    0.000    0.000    0.000 
#    0.000    0.000    0.000    1.000    0.000    4.889 
#
# Total GULP energy -100266.777058 kJ/mol
# GULP energy per Si atom -5570.376503 kJ/mol
# Density = 2.142789 g / cm^3
# Si number density = 21.476768 Si / 1000 Ang^3
#
#
#
# Elastic Constant Matrix: (Units=GPa)
#
#
# Indices 1 2 3 4 5 6 
#
# 1 103.8473 1.2367 18.3801 0.0000 2.4305 0.0000
# 2 1.2367 45.3519 35.5438 0.0000 1.2122 0.0000
# 3 18.3801 35.5438 256.5643 0.0000 3.8018 0.0000
# 4 0.0000 0.0000 0.0000 -48.8097 0.0000 -3.8733
# 5 2.4305 1.2122 3.8018 0.0000 42.4465 0.0000
# 6 0.0000 0.0000 0.0000 -3.8733 0.0000 -1.1269
#
#
#
# Elastic Compliance Matrix: (Units=1/GPa)
#
#
# Indices 1 2 3 4 5 6 
#
# 1 0.009768 0.000325 -0.000737 0.000000 -0.000503 0.000000
# 2 0.000325 0.024753 -0.003446 0.000000 -0.000417 0.000000
# 3 -0.000737 -0.003446 0.004432 0.000000 -0.000256 0.000000
# 4 0.000000 0.000000 0.000000 -0.028171 0.000000 0.096825
# 5 -0.000503 -0.000417 -0.000256 0.000000 0.023623 0.000000
# 6 0.000000 0.000000 0.000000 0.096825 0.000000 -1.220154
#
#
# Mechanical properties :
#
#
# Convention : Reuss Voigt Hill
#
# Bulk Modulus (GPa) = 32.01509 57.34274 44.67892
# Shear Modulus (GPa) = -4.28221 21.87550 8.79665
#
# Velocity S-wave (km/s) = -1.41358 3.19496 2.02603
# Velocity P-wave (km/s) = 3.50356 6.35360 5.13046
#
# Compressibility (1/GPa) = 0.03123527
#
# Stress axis : x y z
#
# Youngs Moduli (GPa) = 102.37594 40.39903 225.64578
#
# Poissons Ratio (x) = -0.01313 0.16638
# Poissons Ratio (y) = -0.03327 0.77765
# Poissons Ratio (z) = 0.07549 0.13923
#
# Static dielectric constant tensor:
#      x y z
#    x 1.714430 0.000000 -0.000470 
#    y 0.000000 -3.668090 0.000000 
#    z -0.000470 0.000000 1.889470 
# 
# From -- ./inp_files/354650.got.cif
#   From: 2010.05.17/outbox.cif.g08.bks.cpg/sg12_178_cif.got.tgz:354650.got - 2010.06.03 13:09:07.
