data_PCOD9208777
_publ_section_title
;
Structure prediction by ZEFSAII (Michael W. Deem and Ramdas Pophale) SiO2 
 PCOD9208777
Probable space group: C 2/M
;
_chemical_formula_sum "Si O2"
_cell_formula_units_Z 56
_cell_length_a 14.685428
_cell_length_b 20.164353
_cell_length_c 17.702161
_cell_angle_alpha 90.000000
_cell_angle_beta 33.445337
_cell_angle_gamma 90.000000
_cell_volume 2889.083121
_symmetry_space_group_name_H-M "C 2/M"
_symmetry_group_IT_number 12
_symmetry_cell_setting 'monoclinic'
loop_
_space_group_symop_operation_xyz
x,y,z
-x,y,-z
-x,-y,-z
x,-y,z
1/2+x,1/2+y,z
1/2-x,1/2+y,-z
1/2-x,1/2-y,-z
1/2+x,1/2-y,z
loop_
_atom_site_type_symbol
_atom_site_label
_atom_site_fract_x
_atom_site_fract_y
_atom_site_fract_z
Si Si1 0.232212 0.293418 0.639118
Si Si2 0.586027 0.750870 0.341650
Si Si3 0.947356 0.595553 0.618578
Si Si4 0.585441 0.427420 0.871985
Si Si5 0.882217 0.221079 0.850182
Si Si6 0.510855 0.578065 0.229097
Si Si7 0.771680 0.424428 0.451760
O O1 0.302817 0.289575 0.675636
O O2 0.392124 0.268706 0.480637
O O3 0.203207 0.367644 0.627955
O O4 0.068085 0.248207 0.742457
O O5 0.588847 0.826723 0.364277
O O6 0.647409 0.745729 0.214212
O O7 0.774080 0.567139 0.763424
O O8 0.000000 0.570875 0.500000
O O9 0.084383 0.582311 0.585866
O O10 0.502027 0.500000 0.926640
O O11 0.582013 0.407771 0.786585
O O12 0.500000 0.388309 0.000000
O O13 0.868024 0.140932 0.855315
O O14 0.750000 0.250000 0.000000
O O15 0.564251 0.500000 0.192449
O O16 0.393159 0.586078 0.383484
O O17 0.769165 0.500000 0.423982
#
# Coordination Sequence:
#
# PCOD9208777 Si02
#       7
#     8   8   8   8   8   8   8
#     4  11  22  43  65  92 128 162 214 270 311 381
#     4  11  23  40  66  91 121 167 210 269 327 360
#     4  12  20  34  58  90 116 158 207 260 322 378
#     4  10  22  35  50  78 122 163 194 238 307 383
#     4  12  25  41  64  95 127 171 212 261 321 383
#     4  10  21  38  59  88 125 162 202 259 320 380
#     4  11  22  37  63  93 126 165 209 270 327 377
#
# _framework density 19.383310999999999
#
# number of rings (size 3 to 8) (size 9 to 14) (size 15 to 20)
#    0.000    1.000    5.714    2.571    2.000    1.143 
#    0.000    2.857    0.000    0.000    0.000    2.000 
#    0.000    0.000    0.000    0.000    0.000    0.000 
#
# Total GULP energy -156038.220818 kJ/mol
# GULP energy per Si atom -5572.793601 kJ/mol
# Density = 1.933919 g / cm^3
# Si number density = 19.383311 Si / 1000 Ang^3
#
#
#
# Elastic Constant Matrix: (Units=GPa)
#
#
# Indices 1 2 3 4 5 6 
#
# 1 82.1238 39.7145 44.2612 -0.0020 13.6479 -0.0052
# 2 39.7145 144.5598 43.2001 -0.0052 5.5938 -0.0165
# 3 44.2612 43.2001 106.4143 -0.0097 17.4628 -0.0374
# 4 -0.0020 -0.0052 -0.0097 19.9447 0.0034 -3.0748
# 5 13.6479 5.5938 17.4628 0.0034 20.9608 0.0168
# 6 -0.0052 -0.0165 -0.0374 -3.0748 0.0168 -78.1698
#
#
#
# Elastic Compliance Matrix: (Units=1/GPa)
#
#
# Indices 1 2 3 4 5 6 
#
# 1 0.017376 -0.003050 -0.004942 0.000000 -0.006383 0.000000
# 2 -0.003050 0.008416 -0.002439 0.000000 0.001772 0.000000
# 3 -0.004942 -0.002439 0.013678 0.000006 -0.007527 -0.000008
# 4 0.000000 0.000000 0.000006 0.049836 -0.000011 -0.001960
# 5 -0.006383 0.001772 -0.007527 -0.000011 0.057662 0.000016
# 6 0.000000 0.000000 -0.000008 -0.001960 0.000016 -0.012716
#
#
# Mechanical properties :
#
#
# Convention : Reuss Voigt Hill
#
# Bulk Modulus (GPa) = 53.73755 65.27216 59.50486
# Shear Modulus (GPa) = 30.99531 6.27528 18.63530
#
# Velocity S-wave (km/s) = 4.00318 1.80125 3.10402
# Velocity P-wave (km/s) = 7.01078 6.17037 6.60396
#
# Compressibility (1/GPa) = 0.01860896
#
# Stress axis : x y z
#
# Youngs Moduli (GPa) = 57.55193 118.82660 73.11149
#
# Poissons Ratio (x) = 0.36240 0.36129
# Poissons Ratio (y) = 0.17552 0.17829
# Poissons Ratio (z) = 0.28440 0.28977
#
# Static dielectric constant tensor:
#      x y z
#    x 1.700720 0.000000 0.020520 
#    y 0.000000 1.741850 0.000000 
#    z 0.020520 0.000000 1.692400 
# 
# From -- ./inp_files/272363.got.cif
#   From: 2010.05.17/outbox.cif.g08.bks.cpg/sg12_137_cif.got.tgz:272363.got - 2010.06.03 13:09:07.
