data_PCOD9208942
_publ_section_title
;
Structure prediction by ZEFSAII (Michael W. Deem and Ramdas Pophale) SiO2 
 PCOD9208942
Probable space group: C 2/M
;
_chemical_formula_sum "Si O2"
_cell_formula_units_Z 44
_cell_length_a 8.755838
_cell_length_b 29.183275
_cell_length_c 9.843936
_cell_angle_alpha 90.000000
_cell_angle_beta 134.420709
_cell_angle_gamma 90.000000
_cell_volume 1796.521339
_symmetry_space_group_name_H-M "C 2/M"
_symmetry_group_IT_number 12
_symmetry_cell_setting 'monoclinic'
loop_
_space_group_symop_operation_xyz
x,y,z
-x,y,-z
-x,-y,-z
x,-y,z
1/2+x,1/2+y,z
1/2-x,1/2+y,-z
1/2-x,1/2-y,-z
1/2+x,1/2-y,z
loop_
_atom_site_type_symbol
_atom_site_label
_atom_site_fract_x
_atom_site_fract_y
_atom_site_fract_z
Si Si1 0.500000 0.292808 0.500000
Si Si2 0.747295 0.284178 0.191993
Si Si3 0.662148 0.147927 0.977473
Si Si4 0.402964 0.449062 0.591013
Si Si5 0.839564 0.451134 0.029194
Si Si6 0.341719 0.647725 0.622844
O O1 0.625019 0.260135 0.681789
O O2 0.664801 0.324372 0.521102
O O3 0.850305 0.309058 0.127948
O O4 0.753996 0.321665 0.317363
O O5 0.500000 0.274965 0.000000
O O6 0.500000 0.150849 0.000000
O O7 0.630758 0.098372 0.884713
O O8 0.904110 0.146098 0.184752
O O9 0.500000 0.440546 0.500000
O O10 0.304214 0.500000 0.526888
O O11 0.603665 0.451605 0.817941
O O12 0.272351 0.404580 0.556708
O O13 0.868009 0.500000 0.120256
O O14 0.000000 0.451247 0.000000
#
# Coordination Sequence:
#
# PCOD9208942 Si02
#       6
#     4   8   8   8   8   8
#     4  12  24  40  63  88 113 162 204 244 294 356
#     4  10  24  43  60  86 123 155 197 251 296 345
#     4   9  19  36  59  85 117 156 195 242 299 354
#     4   9  16  30  54  84 115 149 188 235 289 350
#     4   8  14  27  49  80 111 145 191 234 281 344
#     4  10  21  38  60  87 119 153 198 247 292 351
#
# _framework density 24.491773999999999
#
# number of rings (size 3 to 8) (size 9 to 14) (size 15 to 20)
#    0.000    2.545    0.909    0.545    0.000    6.545 
#    3.273    0.909    0.000    5.455    0.000    1.273 
#    0.000    0.000    0.000    0.000    0.000    0.000 
#
# Total GULP energy -123089.933072 kJ/mol
# GULP energy per Si atom -5594.996958 kJ/mol
# Density = 2.443603 g / cm^3
# Si number density = 24.491774 Si / 1000 Ang^3
#
#
#
# Elastic Constant Matrix: (Units=GPa)
#
#
# Indices 1 2 3 4 5 6 
#
# 1 47.3648 25.1522 18.5651 0.0000 6.1214 0.0000
# 2 25.1522 206.3671 33.7502 0.0000 -10.7917 0.0000
# 3 18.5651 33.7502 82.3460 0.0000 14.7617 0.0000
# 4 0.0000 0.0000 0.0000 -5.6770 0.0000 -2.1802
# 5 6.1214 -10.7917 14.7617 0.0000 37.7631 0.0000
# 6 0.0000 0.0000 0.0000 -2.1802 0.0000 -20.4641
#
#
#
# Elastic Compliance Matrix: (Units=1/GPa)
#
#
# Indices 1 2 3 4 5 6 
#
# 1 0.024376 -0.002495 -0.003911 0.000000 -0.003136 0.000000
# 2 -0.002495 0.005677 -0.002288 0.000000 0.002921 0.000000
# 3 -0.003911 -0.002288 0.015019 0.000000 -0.005891 0.000000
# 4 0.000000 0.000000 0.000000 -0.183665 0.000000 0.019568
# 5 -0.003136 0.002921 -0.005891 0.000000 0.030127 0.000000
# 6 0.000000 0.000000 0.000000 0.019568 0.000000 -0.050951
#
#
# Mechanical properties :
#
#
# Convention : Reuss Voigt Hill
#
# Bulk Modulus (GPa) = 36.12156 54.55700 45.33928
# Shear Modulus (GPa) = -37.65022 19.56509 -9.04256
#
# Velocity S-wave (km/s) = -3.92504 2.82945 -1.92356
# Velocity P-wave (km/s) = 2.40017 5.74442 3.69036
#
# Compressibility (1/GPa) = 0.02768430
#
# Stress axis : x y z
#
# Youngs Moduli (GPa) = 41.02405 176.15657 66.58124
#
# Poissons Ratio (x) = 0.43957 0.26038
# Poissons Ratio (y) = 0.10237 0.15232
# Poissons Ratio (z) = 0.16043 0.40300
#
# Static dielectric constant tensor:
#      x y z
#    x 1.912610 0.000000 0.148820 
#    y 0.000000 1.991300 0.000000 
#    z 0.148820 0.000000 2.323880 
# 
# From -- ./inp_files/42376.got.cif
#   From: 2010.05.17/outbox.cif.g08.bks.cpg/sg12_22_cif.got.tgz:42376.got - 2010.06.03 13:09:07.
