data_PCOD9208194
_publ_section_title
;
Structure prediction by ZEFSAII (Michael W. Deem and Ramdas Pophale) SiO2 
 PCOD9208194
Probable space group: C 2/M
;
_chemical_formula_sum "Si O2"
_cell_formula_units_Z 40
_cell_length_a 14.164296
_cell_length_b 22.075223
_cell_length_c 6.371286
_cell_angle_alpha 90.000000
_cell_angle_beta 119.532136
_cell_angle_gamma 90.000000
_cell_volume 1733.349202
_symmetry_space_group_name_H-M "C 2/M"
_symmetry_group_IT_number 12
_symmetry_cell_setting 'monoclinic'
loop_
_space_group_symop_operation_xyz
x,y,z
-x,y,-z
-x,-y,-z
x,-y,z
1/2+x,1/2+y,z
1/2-x,1/2+y,-z
1/2-x,1/2-y,-z
1/2+x,1/2-y,z
loop_
_atom_site_type_symbol
_atom_site_label
_atom_site_fract_x
_atom_site_fract_y
_atom_site_fract_z
Si Si1 0.498793 0.366774 0.249547
Si Si2 0.125673 0.430680 0.076588
Si Si3 0.623301 0.143390 0.702234
Si Si4 0.258609 0.327473 0.447009
Si Si5 0.384858 0.252468 0.987529
O O1 0.500000 0.393621 0.500000
O O2 0.612499 0.330729 0.386515
O O3 0.401039 0.317969 0.115591
O O4 0.500000 0.394537 0.000000
O O5 0.141800 0.500000 0.155889
O O6 0.213879 0.385185 0.265616
O O7 0.140667 0.418568 0.846904
O O8 0.000000 0.414025 0.000000
O O9 0.500000 0.141196 0.500000
O O10 0.703305 0.154488 0.603254
O O11 0.630591 0.202489 0.853279
O O12 0.206779 0.268834 0.277128
O O13 0.500000 0.241049 0.000000
#
# Coordination Sequence:
#
# PCOD9208194 Si02
#       5
#     8   8   8   8   8
#     4  11  28  45  62  94 128 176 233 271 309 384
#     4  10  21  37  62  98 130 160 208 267 335 403
#     4  11  18  35  60  91 128 167 206 262 326 392
#     4  11  23  41  65  86 130 177 207 272 332 378
#     4  10  21  38  57  88 126 167 217 259 312 382
#
# _framework density 23.076711
#
# number of rings (size 3 to 8) (size 9 to 14) (size 15 to 20)
#    0.000    1.400    4.000    1.800    8.400    5.200 
#    0.000    0.000    0.000    1.200    0.000    0.000 
#    0.000    0.000    0.000    0.000    0.000    0.000 
#
# Total GULP energy -111404.774198 kJ/mol
# GULP energy per Si atom -5570.238710 kJ/mol
# Density = 2.302419 g / cm^3
# Si number density = 23.076711 Si / 1000 Ang^3
#
#
#
# Elastic Constant Matrix: (Units=GPa)
#
#
# Indices 1 2 3 4 5 6 
#
# 1 86.1793 6.9342 34.4106 0.0000 2.4544 0.0000
# 2 6.9342 49.7650 14.2976 0.0000 8.5601 0.0000
# 3 34.4106 14.2976 156.4914 0.0000 5.2475 0.0000
# 4 0.0000 0.0000 0.0000 7.0135 0.0000 -2.2746
# 5 2.4544 8.5601 5.2475 0.0000 56.2113 0.0000
# 6 0.0000 0.0000 0.0000 -2.2746 0.0000 26.0852
#
#
#
# Elastic Compliance Matrix: (Units=1/GPa)
#
#
# Indices 1 2 3 4 5 6 
#
# 1 0.012770 -0.000973 -0.002714 0.000000 -0.000156 0.000000
# 2 -0.000973 0.021219 -0.001623 0.000000 -0.003037 0.000000
# 3 -0.002714 -0.001623 0.007145 0.000000 -0.000301 0.000000
# 4 0.000000 0.000000 0.000000 0.146733 0.000000 0.012795
# 5 -0.000156 -0.003037 -0.000301 0.000000 0.018287 0.000000
# 6 0.000000 0.000000 0.000000 0.012795 0.000000 0.039452
#
#
# Mechanical properties :
#
#
# Convention : Reuss Voigt Hill
#
# Bulk Modulus (GPa) = 32.77081 44.85781 38.81431
# Shear Modulus (GPa) = 18.76901 33.64821 26.20861
#
# Velocity S-wave (km/s) = 2.85499 3.82265 3.37370
# Velocity P-wave (km/s) = 5.00995 6.24214 5.65968
#
# Compressibility (1/GPa) = 0.03051496
#
# Stress axis : x y z
#
# Youngs Moduli (GPa) = 78.30814 47.12822 139.95305
#
# Poissons Ratio (x) = 0.04585 0.37982
# Poissons Ratio (y) = 0.07618 0.22712
# Poissons Ratio (z) = 0.21252 0.07648
#
# Static dielectric constant tensor:
#      x y z
#    x 1.900200 0.000000 -0.071250 
#    y 0.000000 1.884220 0.000000 
#    z -0.071250 0.000000 2.096280 
# 
# From -- ./inp_files/12241.got.cif
#   From: 2010.05.17/outbox.cif.g08.bks.cpg/sg12_7_cif.got.tgz:12241.got - 2010.06.03 13:09:07.
