data_PCOD9208464
_publ_section_title
;
Structure prediction by ZEFSAII (Michael W. Deem and Ramdas Pophale) SiO2 
 PCOD9208464
Probable space group: C 2/M
;
_chemical_formula_sum "Si O2"
_cell_formula_units_Z 64
_cell_length_a 31.161637
_cell_length_b 8.666422
_cell_length_c 14.680403
_cell_angle_alpha 90.000000
_cell_angle_beta 53.636050
_cell_angle_gamma 90.000000
_cell_volume 3192.552024
_symmetry_space_group_name_H-M "C 2/M"
_symmetry_group_IT_number 12
_symmetry_cell_setting 'monoclinic'
loop_
_space_group_symop_operation_xyz
x,y,z
-x,y,-z
-x,-y,-z
x,-y,z
1/2+x,1/2+y,z
1/2-x,1/2+y,-z
1/2-x,1/2-y,-z
1/2+x,1/2-y,z
loop_
_atom_site_type_symbol
_atom_site_label
_atom_site_fract_x
_atom_site_fract_y
_atom_site_fract_z
Si Si1 0.335708 0.815734 0.646164
Si Si2 0.996056 0.317794 0.254710
Si Si3 0.886123 0.186383 0.913812
Si Si4 0.447250 0.816637 0.121169
Si Si5 0.243433 0.313195 0.406600
Si Si6 0.701957 0.684302 0.120647
Si Si7 0.546970 0.317213 0.507406
Si Si8 0.156750 0.184386 0.839034
O O1 0.309783 0.767825 0.582040
O O2 0.301668 0.752618 0.773860
O O3 0.395968 0.758996 0.580422
O O4 0.334146 0.000000 0.651581
O O5 0.995351 0.500000 0.277374
O O6 0.056433 0.265503 0.158754
O O7 0.960362 0.293635 0.210189
O O8 0.972702 0.221342 0.366929
O O9 0.852401 0.221970 0.865995
O O10 0.893202 0.000000 0.909179
O O11 0.852761 0.237202 0.045106
O O12 0.395985 0.728780 0.149998
O O13 0.439654 0.000000 0.114231
O O14 0.500000 0.767818 0.000000
O O15 0.244558 0.500000 0.410492
O O16 0.250000 0.250000 0.500000
O O17 0.292107 0.258696 0.280807
O O18 0.706473 0.500000 0.119602
O O19 0.750000 0.750000 0.000000
O O20 0.500000 0.260742 0.500000
O O21 0.552916 0.500000 0.486134
O O22 0.162148 0.000000 0.837025
#
# Coordination Sequence:
#
# PCOD9208464 Si02
#       8
#     8   8   8   8   8   8   8   8
#     4  11  24  44  67  93 129 166 208 263 317 374
#     4  11  23  38  60  89 122 159 202 249 307 370
#     4  10  21  38  60  88 123 158 197 250 307 367
#     4  10  21  38  57  86 126 160 195 248 305 360
#     4  10  24  44  64  90 123 162 209 261 313 369
#     4  11  23  40  64  93 125 161 204 254 310 371
#     4  11  25  44  65  91 126 166 210 260 312 371
#     4  10  21  38  61  87 118 158 204 250 303 364
#
# _framework density 20.046658999999998
#
# number of rings (size 3 to 8) (size 9 to 14) (size 15 to 20)
#    0.000    1.500    1.250    3.000    1.750    9.750 
#    0.000    1.250    0.000    0.000    0.000    0.000 
#    0.000    0.000    0.000    0.000    0.000    0.000 
#
# Total GULP energy -178891.362750 kJ/mol
# GULP energy per Si atom -5590.355086 kJ/mol
# Density = 2.000103 g / cm^3
# Si number density = 20.046659 Si / 1000 Ang^3
#
#
#
# Elastic Constant Matrix: (Units=GPa)
#
#
# Indices 1 2 3 4 5 6 
#
# 1 103.9171 28.3749 38.0589 0.0000 8.3458 0.0000
# 2 28.3749 24.4730 17.6163 0.0000 5.9395 0.0000
# 3 38.0589 17.6163 102.3677 0.0000 3.1266 0.0000
# 4 0.0000 0.0000 0.0000 34.2365 0.0000 0.5250
# 5 8.3458 5.9395 3.1266 0.0000 27.3047 0.0000
# 6 0.0000 0.0000 0.0000 0.5250 0.0000 26.3616
#
#
#
# Elastic Compliance Matrix: (Units=1/GPa)
#
#
# Indices 1 2 3 4 5 6 
#
# 1 0.014828 -0.014850 -0.002928 0.000000 -0.000967 0.000000
# 2 -0.014850 0.063966 -0.005219 0.000000 -0.008778 0.000000
# 3 -0.002928 -0.005219 0.011734 0.000000 0.000686 0.000000
# 4 0.000000 0.000000 0.000000 0.029217 0.000000 -0.000582
# 5 -0.000967 -0.008778 0.000686 0.000000 0.038750 0.000000
# 6 0.000000 0.000000 0.000000 -0.000582 0.000000 0.037945
#
#
# Mechanical properties :
#
#
# Convention : Reuss Voigt Hill
#
# Bulk Modulus (GPa) = 22.45410 44.31757 33.38583
# Shear Modulus (GPa) = 19.43420 27.36109 23.39765
#
# Velocity S-wave (km/s) = 3.11697 3.69842 3.42008
# Velocity P-wave (km/s) = 4.91724 6.35555 5.68209
#
# Compressibility (1/GPa) = 0.04453530
#
# Stress axis : x y z
#
# Youngs Moduli (GPa) = 67.44112 15.63337 85.22015
#
# Poissons Ratio (x) = 0.23215 0.24950
# Poissons Ratio (y) = 1.00149 0.44474
# Poissons Ratio (z) = 0.19745 0.08159
#
# Static dielectric constant tensor:
#      x y z
#    x 1.715130 0.000000 0.008300 
#    y 0.000000 1.679700 0.000000 
#    z 0.008300 0.000000 1.695660 
# 
# From -- ./inp_files/249883.got.cif
#   From: 2010.05.17/outbox.cif.g08.bks.cpg/sg12_125_cif.got.tgz:249883.got - 2010.06.03 13:09:07.
