data_PCOD9208295
_publ_section_title
;
Structure prediction by ZEFSAII (Michael W. Deem and Ramdas Pophale) SiO2 
 PCOD9208295
Probable space group: C 2/M
;
_chemical_formula_sum "Si O2"
_cell_formula_units_Z 48
_cell_length_a 8.323656
_cell_length_b 21.298189
_cell_length_c 20.629535
_cell_angle_alpha 90.000000
_cell_angle_beta 37.409970
_cell_angle_gamma 90.000000
_cell_volume 2221.787795
_symmetry_space_group_name_H-M "C 2/M"
_symmetry_group_IT_number 12
_symmetry_cell_setting 'monoclinic'
loop_
_space_group_symop_operation_xyz
x,y,z
-x,y,-z
-x,-y,-z
x,-y,z
1/2+x,1/2+y,z
1/2-x,1/2+y,-z
1/2-x,1/2-y,-z
1/2+x,1/2-y,z
loop_
_atom_site_type_symbol
_atom_site_label
_atom_site_fract_x
_atom_site_fract_y
_atom_site_fract_z
Si Si1 0.167378 0.163502 0.838081
Si Si2 0.615595 0.304861 0.583371
Si Si3 0.922082 0.241797 0.260627
Si Si4 0.883697 0.067708 0.464829
Si Si5 0.835165 0.424771 0.986349
Si Si6 0.550583 0.929847 0.776789
O O1 0.291804 0.224057 0.835865
O O2 0.397384 0.112643 0.774520
O O3 0.123868 0.192351 0.781374
O O4 0.906847 0.124450 0.940456
O O5 0.750000 0.250000 0.500000
O O6 0.626376 0.292403 0.655894
O O7 0.749131 0.368546 0.515289
O O8 0.302625 0.295920 0.669677
O O9 0.000000 0.074148 0.500000
O O10 0.140573 0.066793 0.336564
O O11 0.744715 0.000000 0.505405
O O12 0.761274 0.500000 0.009764
O O13 0.000000 0.414650 0.000000
O O14 0.999501 0.412114 0.867888
O O15 0.440537 0.000000 0.804202
#
# Coordination Sequence:
#
# PCOD9208295 Si02
#       6
#     8   8   8   8   8   8
#     4  11  22  41  63  89 134 166 219 273 315 396
#     4  11  21  40  66  91 128 175 221 271 324 401
#     4  10  24  38  60  95 127 174 223 260 331 395
#     4  10  21  37  64  97 128 164 213 270 331 390
#     4  10  23  42  69  98 124 171 224 271 335 401
#     4  10  21  41  67  93 129 171 217 272 331 399
#
# _framework density 21.604225
#
# number of rings (size 3 to 8) (size 9 to 14) (size 15 to 20)
#    0.000    1.667    1.667    2.500    4.667    1.333 
#    0.000    6.667    0.000    2.000    0.000    0.000 
#    0.000    0.000    0.000    0.000    0.000    0.000 
#
# Total GULP energy -133856.912021 kJ/mol
# GULP energy per Si atom -5577.371334 kJ/mol
# Density = 2.155505 g / cm^3
# Si number density = 21.604225 Si / 1000 Ang^3
#
#
#
# Elastic Constant Matrix: (Units=GPa)
#
#
# Indices 1 2 3 4 5 6 
#
# 1 89.3700 43.2940 22.7761 -0.0004 10.8666 0.0003
# 2 43.2940 125.1090 19.5205 -0.0006 21.2191 0.0002
# 3 22.7761 19.5205 73.9072 0.0006 4.3120 0.0000
# 4 -0.0004 -0.0006 0.0006 23.6303 -0.0006 -2.9196
# 5 10.8666 21.2191 4.3120 -0.0006 22.8629 0.0001
# 6 0.0003 0.0002 0.0000 -2.9196 0.0001 38.1643
#
#
#
# Elastic Compliance Matrix: (Units=1/GPa)
#
#
# Indices 1 2 3 4 5 6 
#
# 1 0.014245 -0.004018 -0.003186 0.000000 -0.002440 0.000000
# 2 -0.004018 0.010926 -0.001180 0.000000 -0.008008 0.000000
# 3 -0.003186 -0.001180 0.014835 0.000000 -0.000188 0.000000
# 4 0.000000 0.000000 0.000000 0.042722 0.000001 0.003268
# 5 -0.002440 -0.008008 -0.000188 0.000001 0.052366 0.000000
# 6 0.000000 0.000000 0.000000 0.003268 0.000000 0.026452
#
#
# Mechanical properties :
#
#
# Convention : Reuss Voigt Hill
#
# Bulk Modulus (GPa) = 43.03622 51.06303 47.04962
# Shear Modulus (GPa) = 26.87279 30.45122 28.66200
#
# Velocity S-wave (km/s) = 3.53068 3.75841 3.64632
# Velocity P-wave (km/s) = 6.04851 6.52082 6.28910
#
# Compressibility (1/GPa) = 0.02323624
#
# Stress axis : x y z
#
# Youngs Moduli (GPa) = 70.20109 91.52546 67.40797
#
# Poissons Ratio (x) = 0.36779 0.21477
# Poissons Ratio (y) = 0.28210 0.07955
# Poissons Ratio (z) = 0.22367 0.10802
#
# Static dielectric constant tensor:
#      x y z
#    x 1.789030 0.000000 -0.046200 
#    y 0.000000 1.886660 0.000000 
#    z -0.046200 0.000000 1.784850 
# 
# From -- ./inp_files/301566.got.cif
#   From: 2010.05.17/outbox.cif.g08.bks.cpg/sg12_151_cif.got.tgz:301566.got - 2010.06.03 13:09:07.
