data_PCOD9208176
_publ_section_title
;
Structure prediction by ZEFSAII (Michael W. Deem and Ramdas Pophale) SiO2 
 PCOD9208176
Probable space group: C 2/M
;
_chemical_formula_sum "Si O2"
_cell_formula_units_Z 40
_cell_length_a 23.594061
_cell_length_b 13.901542
_cell_length_c 16.241229
_cell_angle_alpha 90.000000
_cell_angle_beta 160.247558
_cell_angle_gamma 90.000000
_cell_volume 1800.303782
_symmetry_space_group_name_H-M "C 2/M"
_symmetry_group_IT_number 12
_symmetry_cell_setting 'monoclinic'
loop_
_space_group_symop_operation_xyz
x,y,z
-x,y,-z
-x,-y,-z
x,-y,z
1/2+x,1/2+y,z
1/2-x,1/2+y,-z
1/2-x,1/2-y,-z
1/2+x,1/2-y,z
loop_
_atom_site_type_symbol
_atom_site_label
_atom_site_fract_x
_atom_site_fract_y
_atom_site_fract_z
Si Si1 0.636792 0.844081 0.502827
Si Si2 0.496360 0.708705 0.811705
Si Si3 0.343678 0.500000 0.348987
Si Si4 0.486737 0.500000 0.239813
Si Si5 0.918699 0.500000 0.296312
Si Si6 0.816324 0.794490 0.285721
Si Si7 0.500000 0.342678 0.000000
O O1 0.597789 0.795357 0.362303
O O2 0.493442 0.909869 0.346826
O O3 0.659305 0.752218 0.592424
O O4 0.819592 0.894097 0.757810
O O5 0.462695 0.599194 0.737536
O O6 0.693485 0.728995 0.064505
O O7 0.482403 0.715646 0.891049
O O8 0.500000 0.500000 0.500000
O O9 0.422710 0.500000 0.547935
O O10 0.246256 0.401920 0.198613
O O11 0.283260 0.500000 0.973046
O O12 0.000000 0.500000 0.500000
O O13 0.000000 0.798324 0.500000
#
# Coordination Sequence:
#
# PCOD9208176 Si02
#       7
#     8   8   4   4   4   8   4
#     4  11  23  41  65  91 128 174 216 269 321 378
#     4  11  24  41  68  94 129 172 220 269 324 381
#     4  10  22  38  60  92 138 173 202 254 320 400
#     4  12  24  42  69 101 132 170 217 257 328 409
#     4  12  26  40  63 103 136 162 216 268 323 398
#     4  10  21  37  62  94 131 170 206 261 327 388
#     4  10  24  45  64  89 126 168 230 279 314 365
#
# _framework density 22.218471999999998
#
# number of rings (size 3 to 8) (size 9 to 14) (size 15 to 20)
#    0.000    1.200    2.000    4.800    5.600    3.200 
#    0.000    0.000    0.000   15.600    0.000    0.000 
#    0.000    0.000    0.000    0.000    0.000    0.000 
#
# Total GULP energy -111588.405826 kJ/mol
# GULP energy per Si atom -5579.420291 kJ/mol
# Density = 2.216790 g / cm^3
# Si number density = 22.218472 Si / 1000 Ang^3
#
#
#
# Elastic Constant Matrix: (Units=GPa)
#
#
# Indices 1 2 3 4 5 6 
#
# 1 102.3734 40.8251 28.6182 0.0000 -21.2964 0.0000
# 2 40.8251 133.2124 2.6721 0.0000 -19.0773 0.0000
# 3 28.6182 2.6721 71.7489 0.0001 -5.2435 0.0001
# 4 0.0000 0.0000 0.0001 16.3243 0.0000 -1.7845
# 5 -21.2964 -19.0773 -5.2435 0.0000 41.3789 0.0000
# 6 0.0000 0.0000 0.0001 -1.7845 0.0000 1.1975
#
#
#
# Elastic Compliance Matrix: (Units=1/GPa)
#
#
# Indices 1 2 3 4 5 6 
#
# 1 0.013462 -0.003345 -0.004897 0.000000 0.004766 0.000000
# 2 -0.003345 0.008869 0.001188 0.000000 0.002518 0.000000
# 3 -0.004897 0.001188 0.015849 0.000000 0.000036 -0.000001
# 4 0.000000 0.000000 0.000000 0.073179 0.000000 0.109046
# 5 0.004766 0.002518 0.000036 0.000000 0.027785 -0.000002
# 6 0.000000 0.000000 -0.000001 0.109046 -0.000002 0.997563
#
#
# Mechanical properties :
#
#
# Convention : Reuss Voigt Hill
#
# Bulk Modulus (GPa) = 41.54146 50.17393 45.85770
# Shear Modulus (GPa) = 4.31466 27.46142 15.88804
#
# Velocity S-wave (km/s) = 1.39504 3.51945 2.67700
# Velocity P-wave (km/s) = 4.61869 6.25672 5.49903
#
# Compressibility (1/GPa) = 0.02407233
#
# Stress axis : x y z
#
# Youngs Moduli (GPa) = 74.28060 112.75625 63.09525
#
# Poissons Ratio (x) = 0.37717 0.30897
# Poissons Ratio (y) = 0.24847 -0.07495
# Poissons Ratio (z) = 0.36374 -0.13395
#
# Static dielectric constant tensor:
#      x y z
#    x 1.917460 0.000000 0.070250 
#    y 0.000000 1.845360 0.000000 
#    z 0.070250 0.000000 1.878310 
# 
# From -- ./inp_files/293558.got.cif
#   From: 2010.05.17/outbox.cif.g08.bks.cpg/sg12_147_cif.got.tgz:293558.got - 2010.06.03 13:09:07.
