data_PCOD9208277
_publ_section_title
;
Structure prediction by ZEFSAII (Michael W. Deem and Ramdas Pophale) SiO2 
 PCOD9208277
Probable space group: C 2/M
;
_chemical_formula_sum "Si O2"
_cell_formula_units_Z 64
_cell_length_a 28.833502
_cell_length_b 14.143459
_cell_length_c 11.831062
_cell_angle_alpha 90.000000
_cell_angle_beta 39.825867
_cell_angle_gamma 90.000000
_cell_volume 3090.056270
_symmetry_space_group_name_H-M "C 2/M"
_symmetry_group_IT_number 12
_symmetry_cell_setting 'monoclinic'
loop_
_space_group_symop_operation_xyz
x,y,z
-x,y,-z
-x,-y,-z
x,-y,z
1/2+x,1/2+y,z
1/2-x,1/2+y,-z
1/2-x,1/2-y,-z
1/2+x,1/2-y,z
loop_
_atom_site_type_symbol
_atom_site_label
_atom_site_fract_x
_atom_site_fract_y
_atom_site_fract_z
Si Si1 0.298568 0.657057 0.389905
Si Si2 0.391948 0.887786 0.577133
Si Si3 0.889781 0.891935 0.443933
Si Si4 0.845893 0.256561 0.871553
Si Si5 0.648611 0.896821 0.599218
Si Si6 0.512169 0.234450 0.265300
Si Si7 0.729459 0.390142 0.136190
Si Si8 0.427390 0.244923 0.082074
O O1 0.250000 0.750000 0.500000
O O2 0.342328 0.628605 0.420424
O O3 0.232689 0.593575 0.473994
O O4 0.362926 0.680697 0.182533
O O5 0.359854 0.823603 0.736319
O O6 0.355191 0.865650 0.524263
O O7 0.473191 0.850795 0.403300
O O8 0.387137 0.000000 0.608162
O O9 0.832946 0.886532 0.653082
O O10 0.953280 0.816015 0.347165
O O11 0.917608 0.000000 0.385128
O O12 0.922051 0.229211 0.782274
O O13 0.802887 0.163863 0.912350
O O14 0.797341 0.323980 0.042423
O O15 0.605858 0.827932 0.764308
O O16 0.613266 0.000000 0.671100
O O17 0.546523 0.200119 0.083162
O O18 0.748685 0.500000 0.081537
O O19 0.500000 0.289034 0.000000
#
# Coordination Sequence:
#
# PCOD9208277 Si02
#       8
#     8   8   8   8   8   8   8   8
#     4  10  21  37  64  92 127 167 213 263 322 385
#     4  11  23  41  64  92 135 175 217 274 334 394
#     4  11  23  42  66  96 136 175 221 272 327 391
#     4  11  25  41  69  95 132 171 222 272 332 391
#     4  10  22  39  64  93 123 167 215 266 324 385
#     4  12  24  42  63  97 131 176 221 263 329 396
#     4  10  24  44  67  96 129 170 220 277 328 386
#     4  11  21  39  62  89 126 165 209 259 320 381
#
# _framework density 20.711597000000001
#
# number of rings (size 3 to 8) (size 9 to 14) (size 15 to 20)
#    0.000    1.250    3.750    1.875    3.500    3.750 
#    0.000    3.125    0.000    0.000    0.000    0.000 
#    0.000    0.000    0.000    0.000    0.000    0.000 
#
# Total GULP energy -178506.873269 kJ/mol
# GULP energy per Si atom -5578.339790 kJ/mol
# Density = 2.066446 g / cm^3
# Si number density = 20.711597 Si / 1000 Ang^3
#
#
#
# Elastic Constant Matrix: (Units=GPa)
#
#
# Indices 1 2 3 4 5 6 
#
# 1 87.0800 20.3603 19.6801 0.0000 -24.3557 0.0000
# 2 20.3603 77.2836 8.7902 0.0000 -10.2228 0.0000
# 3 19.6801 8.7902 87.3552 0.0000 -13.4508 0.0000
# 4 0.0000 0.0000 0.0000 15.9952 0.0000 -0.5031
# 5 -24.3557 -10.2228 -13.4508 0.0000 33.3678 0.0000
# 6 0.0000 0.0000 0.0000 -0.5031 0.0000 13.0525
#
#
#
# Elastic Compliance Matrix: (Units=1/GPa)
#
#
# Indices 1 2 3 4 5 6 
#
# 1 0.015139 -0.002528 -0.001678 0.000000 0.009599 0.000000
# 2 -0.002528 0.013956 -0.000491 0.000000 0.002233 0.000000
# 3 -0.001678 -0.000491 0.012435 0.000000 0.003637 0.000000
# 4 0.000000 0.000000 0.000000 0.062594 0.000000 0.002413
# 5 0.009599 0.002233 0.003637 0.000000 0.039126 0.000000
# 6 0.000000 0.000000 0.000000 0.002413 0.000000 0.076707
#
#
# Mechanical properties :
#
#
# Convention : Reuss Voigt Hill
#
# Bulk Modulus (GPa) = 31.11739 38.82001 34.96870
# Shear Modulus (GPa) = 20.82784 26.00900 23.41842
#
# Velocity S-wave (km/s) = 3.17458 3.54753 3.36622
# Velocity P-wave (km/s) = 5.33798 5.96354 5.65941
#
# Compressibility (1/GPa) = 0.03213638
#
# Stress axis : x y z
#
# Youngs Moduli (GPa) = 66.05547 71.65125 80.41777
#
# Poissons Ratio (x) = 0.18111 0.13496
# Poissons Ratio (y) = 0.16697 0.03950
# Poissons Ratio (z) = 0.11085 0.03519
#
# Static dielectric constant tensor:
#      x y z
#    x 1.779240 0.000000 0.000490 
#    y 0.000000 1.594910 0.000000 
#    z 0.000490 0.000000 1.750180 
# 
# From -- ./inp_files/189425.got.cif
#   From: 2010.05.17/outbox.cif.g08.bks.cpg/sg12_95_cif.got.tgz:189425.got - 2010.06.03 13:09:07.
