data_PCOD9208276
_publ_section_title
;
Structure prediction by ZEFSAII (Michael W. Deem and Ramdas Pophale) SiO2 
 PCOD9208276
Probable space group: C 2/M
;
_chemical_formula_sum "Si O2"
_cell_formula_units_Z 52
_cell_length_a 17.504215
_cell_length_b 26.766096
_cell_length_c 11.745872
_cell_angle_alpha 90.000000
_cell_angle_beta 153.992419
_cell_angle_gamma 90.000000
_cell_volume 2413.085402
_symmetry_space_group_name_H-M "C 2/M"
_symmetry_group_IT_number 12
_symmetry_cell_setting 'monoclinic'
loop_
_space_group_symop_operation_xyz
x,y,z
-x,y,-z
-x,-y,-z
x,-y,z
1/2+x,1/2+y,z
1/2-x,1/2+y,-z
1/2-x,1/2-y,-z
1/2+x,1/2-y,z
loop_
_atom_site_type_symbol
_atom_site_label
_atom_site_fract_x
_atom_site_fract_y
_atom_site_fract_z
Si Si1 0.274471 0.316236 0.957396
Si Si2 0.369938 0.915539 0.163105
Si Si3 0.919407 0.392607 0.770650
Si Si4 0.132337 0.000000 0.886387
Si Si5 0.804704 0.217816 0.247481
Si Si6 0.656292 0.000000 0.594764
Si Si7 0.242741 0.000000 0.517683
Si Si8 0.807081 0.200054 0.507258
O O1 0.222628 0.298936 0.017159
O O2 0.483443 0.308986 0.220036
O O3 0.198774 0.371866 0.846800
O O4 0.193600 0.277707 0.760287
O O5 0.436980 0.893319 0.134967
O O6 0.528187 0.951833 0.414785
O O7 0.205259 0.951452 0.921602
O O8 0.842941 0.448591 0.675486
O O9 0.778783 0.349702 0.555826
O O10 0.000000 0.381605 0.000000
O O11 0.931322 0.000000 0.642826
O O12 0.231070 0.000000 0.141095
O O13 0.740616 0.205047 0.287195
O O14 0.000000 0.197070 0.500000
O O15 0.778404 0.000000 0.647587
O O16 0.750000 0.250000 0.500000
#
# Coordination Sequence:
#
# PCOD9208276 Si02
#       8
#     8   8   8   4   8   4   4   8
#     4  10  21  40  61  89 121 158 222 255 311 381
#     4  10  21  37  64  92 122 167 209 250 315 382
#     4  11  24  42  67  90 131 169 211 269 322 378
#     4  11  21  41  65  92 135 160 201 265 312 385
#     4   9  21  38  62  85 119 164 207 267 311 367
#     4   9  21  40  62  97 127 165 200 255 325 379
#     4  10  22  43  68  99 124 165 216 262 322 382
#     4  11  25  40  61  92 128 169 215 263 330 375
#
# _framework density 21.549175999999999
#
# number of rings (size 3 to 8) (size 9 to 14) (size 15 to 20)
#    0.000    1.846    0.000    3.692    8.615    1.231 
#    2.769    3.077    0.000    0.000    0.000    0.000 
#    0.000    0.000    0.000    0.000    0.000    0.000 
#
# Total GULP energy -145081.108462 kJ/mol
# GULP energy per Si atom -5580.042633 kJ/mol
# Density = 2.150013 g / cm^3
# Si number density = 21.549176 Si / 1000 Ang^3
#
#
#
# Elastic Constant Matrix: (Units=GPa)
#
#
# Indices 1 2 3 4 5 6 
#
# 1 131.2180 45.7949 28.5627 0.0000 22.8989 0.0000
# 2 45.7949 155.6083 20.5451 0.0000 28.0943 0.0000
# 3 28.5627 20.5451 37.9871 0.0000 13.0297 0.0000
# 4 0.0000 0.0000 0.0000 16.0671 0.0000 11.5166
# 5 22.8989 28.0943 13.0297 0.0000 36.1615 0.0000
# 6 0.0000 0.0000 0.0000 11.5166 0.0000 38.5424
#
#
#
# Elastic Compliance Matrix: (Units=1/GPa)
#
#
# Indices 1 2 3 4 5 6 
#
# 1 0.009927 -0.001646 -0.005541 0.000000 -0.003011 0.000000
# 2 -0.001646 0.007935 -0.001480 0.000000 -0.004589 0.000000
# 3 -0.005541 -0.001480 0.033881 0.000000 -0.007550 0.000000
# 4 0.000000 0.000000 0.000000 0.079202 0.000000 -0.023666
# 5 -0.003011 -0.004589 -0.007550 0.000000 0.035846 0.000000
# 6 0.000000 0.000000 0.000000 -0.023666 0.000000 0.033017
#
#
# Mechanical properties :
#
#
# Convention : Reuss Voigt Hill
#
# Bulk Modulus (GPa) = 29.06249 57.17989 43.12119
# Shear Modulus (GPa) = 21.87121 33.48158 27.67640
#
# Velocity S-wave (km/s) = 3.18928 3.94601 3.58765
# Velocity P-wave (km/s) = 5.20364 6.88139 6.10047
#
# Compressibility (1/GPa) = 0.03440862
#
# Stress axis : x y z
#
# Youngs Moduli (GPa) = 100.73531 126.02762 29.51517
#
# Poissons Ratio (x) = 0.20748 0.16355
# Poissons Ratio (y) = 0.16584 0.04367
# Poissons Ratio (z) = 0.55819 0.18646
#
# Static dielectric constant tensor:
#      x y z
#    x 1.782420 0.000000 0.006520 
#    y 0.000000 1.827250 0.000000 
#    z 0.006520 0.000000 1.799790 
# 
# From -- ./inp_files/160857.got.cif
#   From: 2010.05.17/outbox.cif.g08.bks.cpg/sg12_81_cif.got.tgz:160857.got - 2010.06.03 13:09:07.
