data_PCOD9208899
_publ_section_title
;
Structure prediction by ZEFSAII (Michael W. Deem and Ramdas Pophale) SiO2 
 PCOD9208899
Probable space group: C 2/M
;
_chemical_formula_sum "Si O2"
_cell_formula_units_Z 56
_cell_length_a 16.948912
_cell_length_b 8.959776
_cell_length_c 18.719957
_cell_angle_alpha 90.000000
_cell_angle_beta 67.254227
_cell_angle_gamma 90.000000
_cell_volume 2621.699030
_symmetry_space_group_name_H-M "C 2/M"
_symmetry_group_IT_number 12
_symmetry_cell_setting 'monoclinic'
loop_
_space_group_symop_operation_xyz
x,y,z
-x,y,-z
-x,-y,-z
x,-y,z
1/2+x,1/2+y,z
1/2-x,1/2+y,-z
1/2-x,1/2-y,-z
1/2+x,1/2-y,z
loop_
_atom_site_type_symbol
_atom_site_label
_atom_site_fract_x
_atom_site_fract_y
_atom_site_fract_z
Si Si1 0.856749 0.324506 0.541198
Si Si2 0.997078 0.323576 0.617050
Si Si3 0.779937 0.323723 0.322541
Si Si4 0.749229 0.321529 0.814710
Si Si5 0.597320 0.318583 0.966345
Si Si6 0.963655 0.174166 0.256586
Si Si7 0.372040 0.322262 0.887263
O O1 0.836080 0.500000 0.544544
O O2 0.912076 0.285477 0.452067
O O3 0.772853 0.233710 0.590603
O O4 0.924233 0.304447 0.582911
O O5 0.998217 0.500000 0.635681
O O6 0.985618 0.222668 0.690030
O O7 0.776339 0.500000 0.320952
O O8 0.738041 0.253225 0.266126
O O9 0.877378 0.268299 0.287226
O O10 0.752856 0.500000 0.805378
O O11 0.656342 0.276911 0.879159
O O12 0.816006 0.267868 0.850679
O O13 0.594363 0.500000 0.967664
O O14 0.500000 0.264021 0.000000
O O15 0.640051 0.274731 0.026643
O O16 0.028129 0.197665 0.168375
O O17 0.940858 0.000000 0.266173
O O18 0.353837 0.500000 0.886782
#
# Coordination Sequence:
#
# PCOD9208899 Si02
#       7
#     8   8   8   8   8   8   8
#     4   9  19  38  62  86 114 148 187 230 279 337
#     4   9  19  37  61  87 115 148 185 230 281 333
#     4  12  25  39  57  82 114 150 189 237 287 335
#     4  11  22  37  60  86 114 151 191 232 282 337
#     4   9  18  35  59  85 115 151 190 232 278 329
#     4  11  23  38  58  83 113 151 191 233 283 337
#     4  10  21  38  60  86 116 150 191 235 278 331
#
# _framework density 21.360195000000001
#
# number of rings (size 3 to 8) (size 9 to 14) (size 15 to 20)
#    0.000    1.857    0.000    5.143    0.000    7.429 
#    0.000    2.143    0.000    3.000    0.000    0.000 
#    0.000    0.000    0.000    0.000    0.000    0.000 
#
# Total GULP energy -156578.227938 kJ/mol
# GULP energy per Si atom -5592.079569 kJ/mol
# Density = 2.131158 g / cm^3
# Si number density = 21.360195 Si / 1000 Ang^3
#
#
#
# Elastic Constant Matrix: (Units=GPa)
#
#
# Indices 1 2 3 4 5 6 
#
# 1 54.0189 12.9323 -8.8933 0.0000 -12.9061 0.0000
# 2 12.9323 52.3901 23.1515 0.0000 -15.5147 0.0000
# 3 -8.8933 23.1515 71.7598 0.0000 -13.7301 0.0000
# 4 0.0000 0.0000 0.0000 17.8538 0.0000 2.9223
# 5 -12.9061 -15.5147 -13.7301 0.0000 31.8067 0.0000
# 6 0.0000 0.0000 0.0000 2.9223 0.0000 24.4472
#
#
#
# Elastic Compliance Matrix: (Units=1/GPa)
#
#
# Indices 1 2 3 4 5 6 
#
# 1 0.023244 -0.005854 0.006570 0.000000 0.009412 0.000000
# 2 -0.005854 0.026038 -0.007794 0.000000 0.006961 0.000000
# 3 0.006570 -0.007794 0.018582 0.000000 0.006885 0.000000
# 4 0.000000 0.000000 0.000000 0.057128 0.000000 -0.006829
# 5 0.009412 0.006961 0.006885 0.000000 0.041627 0.000000
# 6 0.000000 0.000000 0.000000 -0.006829 0.000000 0.041721
#
#
# Mechanical properties :
#
#
# Convention : Reuss Voigt Hill
#
# Bulk Modulus (GPa) = 18.61904 25.83887 22.22896
# Shear Modulus (GPa) = 20.79884 24.88674 22.84279
#
# Velocity S-wave (km/s) = 3.12383 3.41706 3.27373
# Velocity P-wave (km/s) = 4.66334 5.26226 4.97183
#
# Compressibility (1/GPa) = 0.05370845
#
# Stress axis : x y z
#
# Youngs Moduli (GPa) = 43.02205 38.40500 53.81678
#
# Poissons Ratio (x) = 0.22481 -0.35358
# Poissons Ratio (y) = 0.25184 0.41945
# Poissons Ratio (z) = -0.28266 0.29933
#
# Static dielectric constant tensor:
#      x y z
#    x 1.814310 0.000000 -0.009010 
#    y 0.000000 1.707020 0.000000 
#    z -0.009010 0.000000 1.765960 
# 
# From -- ./inp_files/275027.got.cif
#   From: 2010.05.17/outbox.cif.g08.bks.cpg/sg12_138_cif.got.tgz:275027.got - 2010.06.03 13:09:07.
