data_PCOD9208337
_publ_section_title
;
Structure prediction by ZEFSAII (Michael W. Deem and Ramdas Pophale) SiO2 
 PCOD9208337
Probable space group: C 2/M
;
_chemical_formula_sum "Si O2"
_cell_formula_units_Z 64
_cell_length_a 14.356320
_cell_length_b 33.707928
_cell_length_c 8.894565
_cell_angle_alpha 90.000000
_cell_angle_beta 132.153676
_cell_angle_gamma 90.000000
_cell_volume 3190.962466
_symmetry_space_group_name_H-M "C 2/M"
_symmetry_group_IT_number 12
_symmetry_cell_setting 'monoclinic'
loop_
_space_group_symop_operation_xyz
x,y,z
-x,y,-z
-x,-y,-z
x,-y,z
1/2+x,1/2+y,z
1/2-x,1/2+y,-z
1/2-x,1/2-y,-z
1/2+x,1/2-y,z
loop_
_atom_site_type_symbol
_atom_site_label
_atom_site_fract_x
_atom_site_fract_y
_atom_site_fract_z
Si Si1 0.556895 0.614250 0.721186
Si Si2 0.384821 0.898464 0.773676
Si Si3 0.223817 0.647002 0.841774
Si Si4 0.437825 0.931784 0.285592
Si Si5 0.369438 0.234226 0.214665
Si Si6 0.125436 0.766363 0.443135
Si Si7 0.169365 0.853214 0.376766
Si Si8 0.266640 0.455153 0.163194
O O1 0.500000 0.628575 0.500000
O O2 0.441967 0.615698 0.712720
O O3 0.613160 0.570609 0.754428
O O4 0.672600 0.639740 0.914704
O O5 0.452069 0.921662 0.711929
O O6 0.291571 0.866118 0.603987
O O7 0.304050 0.928909 0.786887
O O8 0.500000 0.882216 0.000000
O O9 0.130388 0.609589 0.743040
O O10 0.146886 0.687401 0.778729
O O11 0.294000 0.649338 0.757667
O O12 0.500000 0.950047 0.500000
O O13 0.330712 0.955416 0.081553
O O14 0.496159 0.244283 0.262222
O O15 0.367064 0.257092 0.371561
O O16 0.250000 0.250000 0.000000
O O17 0.250000 0.750000 0.500000
O O18 0.118234 0.811865 0.386309
O O19 0.293665 0.500000 0.239690
#
# Coordination Sequence:
#
# PCOD9208337 Si02
#       8
#     8   8   8   8   8   8   8   8
#     4  11  24  42  69  99 125 168 224 268 335 392
#     4  10  22  38  65 101 129 172 221 263 330 387
#     4  11  24  42  69  90 127 175 218 278 328 396
#     4  10  21  37  67  99 128 168 219 265 325 388
#     4  11  26  43  64  92 130 175 226 275 338 400
#     4  11  26  43  63  98 134 173 224 278 342 392
#     4  12  23  43  68  93 136 172 221 279 329 404
#     4  10  23  44  66  97 137 171 215 267 331 405
#
# _framework density 20.056643999999999
#
# number of rings (size 3 to 8) (size 9 to 14) (size 15 to 20)
#    0.000    1.250    3.750    1.125    7.000    3.250 
#    0.000    0.000    0.000    6.000    0.000    0.000 
#    0.000    0.000    0.000    0.000    0.000    0.000 
#
# Total GULP energy -178807.891619 kJ/mol
# GULP energy per Si atom -5587.746613 kJ/mol
# Density = 2.001099 g / cm^3
# Si number density = 20.056644 Si / 1000 Ang^3
#
#
#
# Elastic Constant Matrix: (Units=GPa)
#
#
# Indices 1 2 3 4 5 6 
#
# 1 113.9096 52.2826 33.1096 0.0000 24.1275 0.0000
# 2 52.2826 104.2249 28.7273 0.0000 2.4341 0.0000
# 3 33.1096 28.7273 114.6869 0.0000 4.1606 0.0000
# 4 0.0000 0.0000 0.0000 11.1859 0.0000 -0.7345
# 5 24.1275 2.4341 4.1606 0.0000 32.2720 0.0000
# 6 0.0000 0.0000 0.0000 -0.7345 0.0000 5.1836
#
#
#
# Elastic Compliance Matrix: (Units=1/GPa)
#
#
# Indices 1 2 3 4 5 6 
#
# 1 0.014509 -0.006433 -0.002212 0.000000 -0.010077 0.000000
# 2 -0.006433 0.013165 -0.001586 0.000000 0.004021 0.000000
# 3 -0.002212 -0.001586 0.009736 0.000000 0.000518 0.000000
# 4 0.000000 0.000000 0.000000 0.090238 0.000000 0.012787
# 5 -0.010077 0.004021 0.000518 0.000000 0.038150 0.000000
# 6 0.000000 0.000000 0.000000 0.012787 0.000000 0.194729
#
#
# Mechanical properties :
#
#
# Convention : Reuss Voigt Hill
#
# Bulk Modulus (GPa) = 59.00369 62.34004 60.67187
# Shear Modulus (GPa) = 12.93192 24.30840 18.62016
#
# Velocity S-wave (km/s) = 2.54199 3.48514 3.05024
# Velocity P-wave (km/s) = 6.17236 6.88073 6.53614
#
# Compressibility (1/GPa) = 0.01694809
#
# Stress axis : x y z
#
# Youngs Moduli (GPa) = 68.92315 75.95871 102.70687
#
# Poissons Ratio (x) = 0.48866 0.22715
# Poissons Ratio (y) = 0.44340 0.16292
# Poissons Ratio (z) = 0.15244 0.12049
#
# Static dielectric constant tensor:
#      x y z
#    x 1.697490 0.000000 0.002970 
#    y 0.000000 1.709750 0.000000 
#    z 0.002970 0.000000 1.739980 
# 
# From -- ./inp_files/68640.got.cif
#   From: 2010.05.17/outbox.cif.g08.bks.cpg/sg12_35_cif.got.tgz:68640.got - 2010.06.03 13:09:07.
