data_PCOD9208770
_publ_section_title
;
Structure prediction by ZEFSAII (Michael W. Deem and Ramdas Pophale) SiO2 
 PCOD9208770
Probable space group: C 2/M
;
_chemical_formula_sum "Si O2"
_cell_formula_units_Z 34
_cell_length_a 13.238447
_cell_length_b 10.612645
_cell_length_c 14.613550
_cell_angle_alpha 90.000000
_cell_angle_beta 129.714755
_cell_angle_gamma 90.000000
_cell_volume 1579.339372
_symmetry_space_group_name_H-M "C 2/M"
_symmetry_group_IT_number 12
_symmetry_cell_setting 'monoclinic'
loop_
_space_group_symop_operation_xyz
x,y,z
-x,y,-z
-x,-y,-z
x,-y,z
1/2+x,1/2+y,z
1/2-x,1/2+y,-z
1/2-x,1/2-y,-z
1/2+x,1/2-y,z
loop_
_atom_site_type_symbol
_atom_site_label
_atom_site_fract_x
_atom_site_fract_y
_atom_site_fract_z
Si Si1 0.788909 0.638897 0.090497
Si Si2 0.500000 0.000000 0.000000
Si Si3 0.095672 0.354546 0.319752
Si Si4 0.986968 0.860553 0.601289
Si Si5 0.283523 0.196753 0.800407
O O1 0.752217 0.500000 0.035216
O O2 0.722483 0.671237 0.149323
O O3 0.946118 0.639418 0.194357
O O4 0.750000 0.750000 0.000000
O O5 0.391977 0.108628 0.908839
O O6 0.130494 0.500000 0.362061
O O7 0.183841 0.303733 0.287960
O O8 0.090761 0.254970 0.398936
O O9 0.135736 0.854813 0.725461
O O10 0.000000 0.846498 0.500000
O O11 0.932462 0.000000 0.589572
#
# Coordination Sequence:
#
# PCOD9208770 Si02
#       5
#     8   2   8   8   8
#     4  10  23  37  57  88 125 165 203 254 302 361
#     4  12  20  36  64  88 110 170 198 246 302 374
#     4  10  21  38  59  88 120 160 206 246 301 371
#     4  10  22  41  62  89 123 158 200 256 311 360
#     4  11  22  38  63  87 122 162 208 243 302 372
#
# _framework density 21.527988000000001
#
# number of rings (size 3 to 8) (size 9 to 14) (size 15 to 20)
#    0.000    1.647    2.353    1.412    4.941    3.294 
#    0.000    4.118    0.000    0.000    0.000    0.000 
#    0.000    0.000    0.000    0.000    0.000    0.000 
#
# Total GULP energy -94729.186645 kJ/mol
# GULP energy per Si atom -5572.305097 kJ/mol
# Density = 2.147899 g / cm^3
# Si number density = 21.527988 Si / 1000 Ang^3
#
#
#
# Elastic Constant Matrix: (Units=GPa)
#
#
# Indices 1 2 3 4 5 6 
#
# 1 102.8740 65.0358 15.1721 0.0000 -13.1630 0.0000
# 2 65.0358 174.9660 39.7278 0.0000 -36.6412 0.0000
# 3 15.1721 39.7278 78.6290 0.0000 18.2405 0.0000
# 4 0.0000 0.0000 0.0000 13.9000 0.0000 -1.6583
# 5 -13.1630 -36.6412 18.2405 0.0000 38.1154 0.0000
# 6 0.0000 0.0000 0.0000 -1.6583 0.0000 7.1579
#
#
#
# Elastic Compliance Matrix: (Units=1/GPa)
#
#
# Indices 1 2 3 4 5 6 
#
# 1 0.012708 -0.004763 -0.000002 0.000000 -0.000189 0.000000
# 2 -0.004763 0.012557 -0.008824 0.000000 0.014650 0.000000
# 3 -0.000002 -0.008824 0.021535 0.000000 -0.018789 0.000000
# 4 0.000000 0.000000 0.000000 0.073988 0.000000 0.017141
# 5 -0.000189 0.014650 -0.018789 0.000000 0.049246 0.000000
# 6 0.000000 0.000000 0.000000 0.017141 0.000000 0.143677
#
#
# Mechanical properties :
#
#
# Convention : Reuss Voigt Hill
#
# Bulk Modulus (GPa) = 50.95994 66.26006 58.61000
# Shear Modulus (GPa) = 14.39144 27.60355 20.99749
#
# Velocity S-wave (km/s) = 2.58834 3.58469 3.12646
# Velocity P-wave (km/s) = 5.71450 6.92667 6.34958
#
# Compressibility (1/GPa) = 0.01962326
#
# Stress axis : x y z
#
# Youngs Moduli (GPa) = 78.69299 79.63585 46.43504
#
# Poissons Ratio (x) = 0.37928 0.00009
# Poissons Ratio (y) = 0.37479 0.40974
# Poissons Ratio (z) = 0.00014 0.70271
#
# Static dielectric constant tensor:
#      x y z
#    x 1.811690 0.000000 -0.021280 
#    y 0.000000 1.771160 0.000000 
#    z -0.021280 0.000000 1.816600 
# 
# From -- ./inp_files/175462.got.cif
#   From: 2010.05.17/outbox.cif.g08.bks.cpg/sg12_88_cif.got.tgz:175462.got - 2010.06.03 13:09:07.
