data_PCOD9208797
_publ_section_title
;
Structure prediction by ZEFSAII (Michael W. Deem and Ramdas Pophale) SiO2 
 PCOD9208797
Probable space group: C 2/M
;
_chemical_formula_sum "Si O2"
_cell_formula_units_Z 58
_cell_length_a 23.822382
_cell_length_b 7.955723
_cell_length_c 14.506223
_cell_angle_alpha 90.000000
_cell_angle_beta 100.777573
_cell_angle_gamma 90.000000
_cell_volume 2700.785469
_symmetry_space_group_name_H-M "C 2/M"
_symmetry_group_IT_number 12
_symmetry_cell_setting 'monoclinic'
loop_
_space_group_symop_operation_xyz
x,y,z
-x,y,-z
-x,-y,-z
x,-y,z
1/2+x,1/2+y,z
1/2-x,1/2+y,-z
1/2-x,1/2-y,-z
1/2+x,1/2-y,z
loop_
_atom_site_type_symbol
_atom_site_label
_atom_site_fract_x
_atom_site_fract_y
_atom_site_fract_z
Si Si1 0.986235 0.198158 0.792513
Si Si2 0.500000 0.000000 0.500000
Si Si3 0.701992 0.803249 0.263402
Si Si4 0.828326 0.691078 0.267939
Si Si5 0.604002 0.799223 0.093417
Si Si6 0.389837 0.701763 0.116633
Si Si7 0.611263 0.699572 0.373252
Si Si8 0.424563 0.691742 0.427525
O O1 0.952745 0.221694 0.878510
O O2 0.942759 0.268012 0.702150
O O3 0.050080 0.266015 0.821477
O O4 0.992116 0.000000 0.774683
O O5 0.532179 0.153018 0.569675
O O6 0.763259 0.719245 0.276903
O O7 0.657630 0.739609 0.171839
O O8 0.668333 0.778650 0.348873
O O9 0.711120 0.000000 0.249947
O O10 0.843710 0.500000 0.291154
O O11 0.838777 0.731591 0.163965
O O12 0.872928 0.800045 0.339743
O O13 0.599536 0.000000 0.102783
O O14 0.612039 0.755716 0.989800
O O15 0.389756 0.500000 0.119730
O O16 0.615168 0.500000 0.357191
O O17 0.600884 0.722444 0.477727
O O18 0.448379 0.500000 0.429350
#
# Coordination Sequence:
#
# PCOD9208797 Si02
#       8
#     8   2   8   8   8   8   8   8
#     4   9  19  36  59  88 122 159 204 251 309 381
#     4  12  26  44  68 102 136 178 218 260 312 398
#     4  10  22  41  66  89 123 163 210 270 323 382
#     4  12  26  44  63  92 125 165 215 266 325 387
#     4  10  21  38  59  90 121 159 207 259 317 378
#     4  11  23  38  60  87 123 166 208 257 322 387
#     4   9  20  39  65  94 122 166 213 261 323 377
#     4  11  25  45  68  98 138 175 216 265 319 379
#
# _framework density 21.475232999999999
#
# number of rings (size 3 to 8) (size 9 to 14) (size 15 to 20)
#    0.000    1.655    0.690    3.103    2.897    5.517 
#    0.000    0.000    0.000    0.000    0.000    0.000 
#    0.000    0.000    0.000    0.000    0.000    0.000 
#
# Total GULP energy -161850.720874 kJ/mol
# GULP energy per Si atom -5581.059340 kJ/mol
# Density = 2.142635 g / cm^3
# Si number density = 21.475233 Si / 1000 Ang^3
#
#
#
# Elastic Constant Matrix: (Units=GPa)
#
#
# Indices 1 2 3 4 5 6 
#
# 1 77.7581 23.4082 19.6082 0.0000 -3.4019 0.0000
# 2 23.4082 48.7011 15.6101 0.0000 -2.9978 0.0000
# 3 19.6082 15.6101 72.4305 0.0000 -18.0323 0.0000
# 4 0.0000 0.0000 0.0000 23.8757 0.0000 7.3095
# 5 -3.4019 -2.9978 -18.0323 0.0000 23.6255 0.0000
# 6 0.0000 0.0000 0.0000 7.3095 0.0000 15.4580
#
#
#
# Elastic Compliance Matrix: (Units=1/GPa)
#
#
# Indices 1 2 3 4 5 6 
#
# 1 0.015559 -0.006566 -0.003021 0.000000 -0.000898 0.000000
# 2 -0.006566 0.024848 -0.003739 0.000000 -0.000646 0.000000
# 3 -0.003021 -0.003739 0.018770 0.000000 0.013417 0.000000
# 4 0.000000 0.000000 0.000000 0.048973 0.000000 -0.023157
# 5 -0.000898 -0.000646 0.013417 0.000000 0.052357 0.000000
# 6 0.000000 0.000000 0.000000 -0.023157 0.000000 0.075642
#
#
# Mechanical properties :
#
#
# Convention : Reuss Voigt Hill
#
# Bulk Modulus (GPa) = 30.74343 35.12696 32.93519
# Shear Modulus (GPa) = 18.27209 21.94271 20.10740
#
# Velocity S-wave (km/s) = 2.92009 3.19998 3.06323
# Velocity P-wave (km/s) = 5.07110 5.48139 5.28023
#
# Compressibility (1/GPa) = 0.03252728
#
# Stress axis : x y z
#
# Youngs Moduli (GPa) = 64.27001 40.24513 53.27592
#
# Poissons Ratio (x) = 0.26423 0.16094
# Poissons Ratio (y) = 0.42197 0.19917
# Poissons Ratio (z) = 0.19415 0.15046
#
# Static dielectric constant tensor:
#      x y z
#    x 1.764980 0.000000 0.002770 
#    y 0.000000 1.787180 0.000000 
#    z 0.002770 0.000000 1.778790 
# 
# From -- ./inp_files/237682.got.cif
#   From: 2010.05.17/outbox.cif.g08.bks.cpg/sg12_119_cif.got.tgz:237682.got - 2010.06.03 13:09:07.
