data_PCOD9208782
_publ_section_title
;
Structure prediction by ZEFSAII (Michael W. Deem and Ramdas Pophale) SiO2 
 PCOD9208782
Probable space group: C 2/M
;
_chemical_formula_sum "Si O2"
_cell_formula_units_Z 36
_cell_length_a 13.247176
_cell_length_b 18.057096
_cell_length_c 6.779649
_cell_angle_alpha 90.000000
_cell_angle_beta 69.868625
_cell_angle_gamma 90.000000
_cell_volume 1522.651458
_symmetry_space_group_name_H-M "C 2/M"
_symmetry_group_IT_number 12
_symmetry_cell_setting 'monoclinic'
loop_
_space_group_symop_operation_xyz
x,y,z
-x,y,-z
-x,-y,-z
x,-y,z
1/2+x,1/2+y,z
1/2-x,1/2+y,-z
1/2-x,1/2-y,-z
1/2+x,1/2-y,z
loop_
_atom_site_type_symbol
_atom_site_label
_atom_site_fract_x
_atom_site_fract_y
_atom_site_fract_z
Si Si1 0.000000 0.709727 0.000000
Si Si2 0.110259 0.087682 0.306731
Si Si3 0.316513 0.308016 0.084363
Si Si4 0.278267 0.084355 0.532567
Si Si5 0.019705 0.420593 0.219344
O O1 0.949583 0.664760 0.843961
O O2 0.903706 0.759786 0.144006
O O3 0.121593 0.137307 0.106839
O O4 0.212762 0.104085 0.378702
O O5 0.000000 0.101095 0.500000
O O6 0.114009 0.000000 0.255001
O O7 0.250000 0.250000 0.000000
O O8 0.249988 0.359809 0.275910
O O9 0.406043 0.083885 0.407313
O O10 0.242941 0.000000 0.601295
O O11 0.074056 0.500000 0.239333
O O12 0.000000 0.431627 0.000000
#
# Coordination Sequence:
#
# PCOD9208782 Si02
#       5
#     4   8   8   8   8
#     4  10  21  38  59  88 128 164 194 256 313 362
#     4  10  22  40  62  87 120 165 210 253 301 365
#     4  12  25  38  61  96 126 162 204 253 313 374
#     4  10  21  41  66  88 122 164 207 259 303 361
#     4   8  17  37  63  85 111 160 209 244 300 360
#
# _framework density 23.642969000000001
#
# number of rings (size 3 to 8) (size 9 to 14) (size 15 to 20)
#    0.667    1.333    0.000    3.333    0.000    5.333 
#    0.000    6.667    0.000    2.667    0.000    0.000 
#    0.000    0.000    0.000    0.000    0.000    0.000 
#
# Total GULP energy -100283.993216 kJ/mol
# GULP energy per Si atom -5571.332956 kJ/mol
# Density = 2.358916 g / cm^3
# Si number density = 23.642969 Si / 1000 Ang^3
#
#
#
# Elastic Constant Matrix: (Units=GPa)
#
#
# Indices 1 2 3 4 5 6 
#
# 1 52.4473 24.8399 -3.3471 0.0000 7.4015 0.0000
# 2 24.8399 119.6301 57.7597 0.0000 -14.7818 0.0000
# 3 -3.3471 57.7597 70.7897 0.0000 -18.3568 0.0000
# 4 0.0000 0.0000 0.0000 26.1027 0.0000 4.3736
# 5 7.4015 -14.7818 -18.3568 0.0000 36.3652 0.0000
# 6 0.0000 0.0000 0.0000 4.3736 0.0000 1.1311
#
#
#
# Elastic Compliance Matrix: (Units=1/GPa)
#
#
# Indices 1 2 3 4 5 6 
#
# 1 0.024701 -0.009380 0.007512 0.000000 -0.005048 0.000000
# 2 -0.009380 0.017355 -0.014129 0.000000 0.001831 0.000000
# 3 0.007512 -0.014129 0.027757 0.000000 0.006740 0.000000
# 4 0.000000 0.000000 0.000000 0.108806 0.000000 -0.420731
# 5 -0.005048 0.001831 0.006740 0.000000 0.032673 0.000000
# 6 0.000000 0.000000 0.000000 -0.420731 0.000000 2.511009
#
#
# Mechanical properties :
#
#
# Convention : Reuss Voigt Hill
#
# Bulk Modulus (GPa) = 26.44099 44.59690 35.51895
# Shear Modulus (GPa) = 1.80708 23.62743 12.71725
#
# Velocity S-wave (km/s) = 0.87520 3.16467 2.32176
# Velocity P-wave (km/s) = 3.49700 5.67953 4.71626
#
# Compressibility (1/GPa) = 0.03782006
#
# Stress axis : x y z
#
# Youngs Moduli (GPa) = 40.48444 57.62163 36.02648
#
# Poissons Ratio (x) = 0.54046 -0.27063
# Poissons Ratio (y) = 0.37973 0.50901
# Poissons Ratio (z) = -0.30412 0.81412
#
# Static dielectric constant tensor:
#      x y z
#    x 1.888870 0.000000 -0.003670 
#    y 0.000000 3.244280 0.000000 
#    z -0.003670 0.000000 1.840460 
# 
# From -- ./inp_files/10729.got.cif
#   From: 2010.05.17/outbox.cif.g08.bks.cpg/sg12_6_cif.got.tgz:10729.got - 2010.06.03 13:09:07.
