data_PCOD9208793
_publ_section_title
;
Structure prediction by ZEFSAII (Michael W. Deem and Ramdas Pophale) SiO2 
 PCOD9208793
Probable space group: C 2/M
;
_chemical_formula_sum "Si O2"
_cell_formula_units_Z 56
_cell_length_a 22.518061
_cell_length_b 8.267202
_cell_length_c 15.083546
_cell_angle_alpha 90.000000
_cell_angle_beta 67.837641
_cell_angle_gamma 90.000000
_cell_volume 2600.516444
_symmetry_space_group_name_H-M "C 2/M"
_symmetry_group_IT_number 12
_symmetry_cell_setting 'monoclinic'
loop_
_space_group_symop_operation_xyz
x,y,z
-x,y,-z
-x,-y,-z
x,-y,z
1/2+x,1/2+y,z
1/2-x,1/2+y,-z
1/2-x,1/2-y,-z
1/2+x,1/2-y,z
loop_
_atom_site_type_symbol
_atom_site_label
_atom_site_fract_x
_atom_site_fract_y
_atom_site_fract_z
Si Si1 0.824002 0.188636 0.959933
Si Si2 0.800852 0.803009 0.653171
Si Si3 0.836554 0.308685 0.249499
Si Si4 0.975837 0.309100 0.412972
Si Si5 0.893762 0.690536 0.747524
Si Si6 0.841682 0.185206 0.442084
Si Si7 0.573499 0.804758 0.951060
O O1 0.856677 0.217458 0.845754
O O2 0.820890 0.000000 0.981778
O O3 0.750000 0.250000 0.000000
O O4 0.874417 0.265367 0.001721
O O5 0.734415 0.749706 0.735686
O O6 0.858073 0.726157 0.675396
O O7 0.801801 0.753270 0.549342
O O8 0.805922 0.000000 0.652098
O O9 0.835937 0.500000 0.234469
O O10 0.841381 0.280249 0.350940
O O11 0.893750 0.242018 0.158112
O O12 0.959353 0.500000 0.409006
O O13 0.914566 0.199054 0.434297
O O14 0.000000 0.293714 0.500000
O O15 0.032296 0.266705 0.312278
O O16 0.890939 0.500000 0.769171
O O17 0.823686 0.000000 0.434907
O O18 0.568749 0.000000 0.951171
O O19 0.500000 0.744115 0.000000
#
# Coordination Sequence:
#
# PCOD9208793 Si02
#       7
#     8   8   8   8   8   8   8
#     4  12  26  45  70  99 132 169 215 271 329 389
#     4  10  21  38  59  89 126 164 205 254 311 371
#     4  10  22  40  62  85 118 164 207 252 309 374
#     4  10  21  39  60  86 121 165 209 250 304 372
#     4  11  23  39  65  94 124 164 209 257 313 375
#     4  11  23  36  57  89 124 160 204 257 308 364
#     4  10  23  44  68  95 128 170 220 272 327 386
#
# _framework density 21.534185000000001
#
# number of rings (size 3 to 8) (size 9 to 14) (size 15 to 20)
#    0.000    1.429    1.429    3.429    2.000    4.571 
#    0.000    0.000    0.000    0.000    0.000    0.000 
#    0.000    0.000    0.000    0.000    0.000    0.000 
#
# Total GULP energy -156389.742260 kJ/mol
# GULP energy per Si atom -5585.347938 kJ/mol
# Density = 2.148517 g / cm^3
# Si number density = 21.534185 Si / 1000 Ang^3
#
#
#
# Elastic Constant Matrix: (Units=GPa)
#
#
# Indices 1 2 3 4 5 6 
#
# 1 102.7503 14.7472 44.1781 0.0000 -25.4888 0.0000
# 2 14.7472 11.0632 -1.3266 0.0000 -17.9779 0.0000
# 3 44.1781 -1.3266 110.4125 0.0000 -28.9765 0.0000
# 4 0.0000 0.0000 0.0000 26.4027 0.0000 8.1270
# 5 -25.4888 -17.9779 -28.9765 0.0000 40.1738 0.0000
# 6 0.0000 0.0000 0.0000 8.1270 0.0000 17.8113
#
#
#
# Elastic Compliance Matrix: (Units=1/GPa)
#
#
# Indices 1 2 3 4 5 6 
#
# 1 0.286353 -2.904106 -0.546255 0.000001 -1.511921 0.000001
# 2 -2.904106 30.812066 5.757045 -0.000006 16.098412 -0.000008
# 3 -0.546255 5.757045 1.087889 -0.000001 3.014394 -0.000002
# 4 0.000001 -0.000006 -0.000001 0.044064 -0.000003 -0.020105
# 5 -1.511921 16.098412 3.014394 -0.000003 8.443957 -0.000004
# 6 0.000001 -0.000008 -0.000002 -0.020105 -0.000004 0.065318
#
#
# Mechanical properties :
#
#
# Convention : Reuss Voigt Hill
#
# Bulk Modulus (GPa) = 0.02717 37.71371 18.87044
# Shear Modulus (GPa) = 0.10332 27.98605 14.04469
#
# Velocity S-wave (km/s) = 0.21928 3.60892 2.55660
# Velocity P-wave (km/s) = 0.27705 5.90908 4.18294
#
# Compressibility (1/GPa) = 36.79967523
#
# Stress axis : x y z
#
# Youngs Moduli (GPa) = 3.49219 0.03245 0.91921
#
# Poissons Ratio (x) = 0.09425 0.50212
# Poissons Ratio (y) = 10.14169 -5.29194
# Poissons Ratio (z) = 1.90763 -0.18684
#
# Static dielectric constant tensor:
#      x y z
#    x 1.803700 0.000000 -0.014660 
#    y 0.000000 1.803880 0.000000 
#    z -0.014660 0.000000 1.796370 
# 
# From -- ./inp_files/237302.got.cif
#   From: 2010.05.17/outbox.cif.g08.bks.cpg/sg12_119_cif.got.tgz:237302.got - 2010.06.03 13:09:07.
