data_PCOD9208691
_publ_section_title
;
Structure prediction by ZEFSAII (Michael W. Deem and Ramdas Pophale) SiO2 
 PCOD9208691
Probable space group: C 2/M
;
_chemical_formula_sum "Si O2"
_cell_formula_units_Z 40
_cell_length_a 11.277643
_cell_length_b 12.932854
_cell_length_c 13.122310
_cell_angle_alpha 90.000000
_cell_angle_beta 85.239134
_cell_angle_gamma 90.000000
_cell_volume 1907.313174
_symmetry_space_group_name_H-M "C 2/M"
_symmetry_group_IT_number 12
_symmetry_cell_setting 'monoclinic'
loop_
_space_group_symop_operation_xyz
x,y,z
-x,y,-z
-x,-y,-z
x,-y,z
1/2+x,1/2+y,z
1/2-x,1/2+y,-z
1/2-x,1/2-y,-z
1/2+x,1/2-y,z
loop_
_atom_site_type_symbol
_atom_site_label
_atom_site_fract_x
_atom_site_fract_y
_atom_site_fract_z
Si Si1 0.484530 0.743988 0.746473
Si Si2 0.611559 0.377841 0.567476
Si Si3 0.896897 0.681845 0.076383
Si Si4 0.381156 0.120542 0.579009
Si Si5 0.863252 0.880471 0.939634
O O1 0.576215 0.678843 0.673131
O O2 0.561116 0.819942 0.811150
O O3 0.399214 0.805399 0.675090
O O4 0.417833 0.672472 0.834134
O O5 0.500000 0.351960 0.500000
O O6 0.603164 0.500000 0.581706
O O7 0.752421 0.358356 0.534334
O O8 0.776521 0.623988 0.067203
O O9 0.882200 0.801317 0.034194
O O10 0.000000 0.636409 0.000000
O O11 0.500000 0.131066 0.500000
O O12 0.377762 0.000000 0.610776
O O13 0.898858 0.000000 0.948865
#
# Coordination Sequence:
#
# PCOD9208691 Si02
#       5
#     8   8   8   8   8
#     4  11  21  36  60  87 116 152 198 249 299 352
#     4  10  22  39  59  86 119 156 200 248 300 359
#     4   9  21  38  55  84 118 152 197 244 294 351
#     4  10  23  42  62  87 122 162 201 246 303 362
#     4  10  21  38  59  84 117 156 198 244 295 352
#
# _framework density 20.971907999999999
#
# number of rings (size 3 to 8) (size 9 to 14) (size 15 to 20)
#    0.000    2.000    0.000    2.400    0.000   10.400 
#    0.000   14.000    0.000    0.000    0.000    0.000 
#    0.000    0.000    0.000    0.000    0.000    0.000 
#
# Total GULP energy -111463.630860 kJ/mol
# GULP energy per Si atom -5573.181543 kJ/mol
# Density = 2.092418 g / cm^3
# Si number density = 20.971908 Si / 1000 Ang^3
#
#
#
# Elastic Constant Matrix: (Units=GPa)
#
#
# Indices 1 2 3 4 5 6 
#
# 1 193.4523 18.0726 55.1162 0.0000 6.2180 0.0000
# 2 18.0726 118.5372 18.5010 0.0000 3.3728 0.0000
# 3 55.1162 18.5010 88.4767 0.0000 7.6361 0.0000
# 4 0.0000 0.0000 0.0000 13.0268 0.0000 -4.6980
# 5 6.2180 3.3728 7.6361 0.0000 31.3093 0.0000
# 6 0.0000 0.0000 0.0000 -4.6980 0.0000 -5.7766
#
#
#
# Elastic Compliance Matrix: (Units=1/GPa)
#
#
# Indices 1 2 3 4 5 6 
#
# 1 0.006302 -0.000355 -0.003827 0.000000 -0.000280 0.000000
# 2 -0.000355 0.008749 -0.001566 0.000000 -0.000490 0.000000
# 3 -0.003827 -0.001566 0.014233 0.000000 -0.002543 0.000000
# 4 0.000000 0.000000 0.000000 0.059356 0.000000 -0.048273
# 5 -0.000280 -0.000490 -0.002543 0.000000 0.032668 0.000000
# 6 0.000000 0.000000 0.000000 -0.048273 0.000000 -0.133852
#
#
# Mechanical properties :
#
#
# Convention : Reuss Voigt Hill
#
# Bulk Modulus (GPa) = 56.22029 64.87178 60.54604
# Shear Modulus (GPa) = 1024.30439 28.29696 526.30068
#
# Velocity S-wave (km/s) = 22.12414 3.67724 15.85875
# Velocity P-wave (km/s) = 26.06727 7.00209 19.08575
#
# Compressibility (1/GPa) = 0.01778717
#
# Stress axis : x y z
#
# Youngs Moduli (GPa) = 158.68355 114.30302 70.25720
#
# Poissons Ratio (x) = 0.04063 0.26889
# Poissons Ratio (y) = 0.05641 0.11000
# Poissons Ratio (z) = 0.60732 0.17896
#
# Static dielectric constant tensor:
#      x y z
#    x 1.797940 0.000000 0.011530 
#    y 0.000000 1.779130 0.000000 
#    z 0.011530 0.000000 1.756740 
# 
# From -- ./inp_files/129116.got.cif
#   From: 2010.05.17/outbox.cif.g08.bks.cpg/sg12_65_cif.got.tgz:129116.got - 2010.06.03 13:09:07.
