data_PCOD9208019
_publ_section_title
;
Structure prediction by ZEFSAII (Michael W. Deem and Ramdas Pophale) SiO2 
 PCOD9208019
Probable space group: C 2/M
;
_chemical_formula_sum "Si O2"
_cell_formula_units_Z 56
_cell_length_a 20.395266
_cell_length_b 14.209236
_cell_length_c 10.432109
_cell_angle_alpha 90.000000
_cell_angle_beta 95.687640
_cell_angle_gamma 90.000000
_cell_volume 3008.353683
_symmetry_space_group_name_H-M "C 2/M"
_symmetry_group_IT_number 12
_symmetry_cell_setting 'monoclinic'
loop_
_space_group_symop_operation_xyz
x,y,z
-x,y,-z
-x,-y,-z
x,-y,z
1/2+x,1/2+y,z
1/2-x,1/2+y,-z
1/2-x,1/2-y,-z
1/2+x,1/2-y,z
loop_
_atom_site_type_symbol
_atom_site_label
_atom_site_fract_x
_atom_site_fract_y
_atom_site_fract_z
Si Si1 0.578544 0.256459 0.030517
Si Si2 0.132376 0.388357 0.225630
Si Si3 0.577372 0.603785 0.527874
Si Si4 0.258277 0.257381 0.655875
Si Si5 0.884431 0.755759 0.246153
Si Si6 0.995205 0.611599 0.350109
Si Si7 0.629359 0.387803 0.265403
O O1 0.611424 0.160029 0.087919
O O2 0.594150 0.333853 0.142552
O O3 0.500000 0.246263 0.000000
O O4 0.610744 0.282738 0.901397
O O5 0.144987 0.500000 0.220686
O O6 0.194495 0.329667 0.291996
O O7 0.066625 0.373262 0.299467
O O8 0.500000 0.595111 0.500000
O O9 0.608232 0.500000 0.545143
O O10 0.591117 0.662442 0.655663
O O11 0.600786 0.645071 0.397299
O O12 0.250000 0.250000 0.500000
O O13 0.188871 0.260466 0.715339
O O14 0.296390 0.351122 0.708308
O O15 0.936079 0.670128 0.275592
O O16 0.981231 0.500000 0.340236
O O17 0.000000 0.639459 0.500000
O O18 0.622401 0.500000 0.252704
#
# Coordination Sequence:
#
# PCOD9208019 Si02
#       7
#     8   8   8   8   8   8   8
#     4  11  23  40  63  95 124 167 208 258 316 366
#     4  10  23  42  63  90 130 170 209 257 313 377
#     4  10  21  37  61  89 116 159 210 260 311 363
#     4  11  23  40  63  94 124 167 206 259 318 367
#     4  12  23  37  65  92 126 161 210 260 309 375
#     4  10  21  37  62  94 123 160 211 266 315 361
#     4  10  23  42  61  86 127 167 206 256 312 373
#
# _framework density 18.614833999999998
#
# number of rings (size 3 to 8) (size 9 to 14) (size 15 to 20)
#    0.000    1.429    2.857    2.143    4.000    5.714 
#    0.000    1.429    0.000    0.000    0.000    0.000 
#    0.000    0.000    0.000    0.000    0.000    0.000 
#
# Total GULP energy -156266.073495 kJ/mol
# GULP energy per Si atom -5580.931196 kJ/mol
# Density = 1.857247 g / cm^3
# Si number density = 18.614834 Si / 1000 Ang^3
#
#
#
# Elastic Constant Matrix: (Units=GPa)
#
#
# Indices 1 2 3 4 5 6 
#
# 1 91.7333 16.6980 32.2172 0.0000 -0.2600 0.0000
# 2 16.6980 85.6563 41.7880 0.0000 8.6119 0.0000
# 3 32.2172 41.7880 145.6787 0.0000 -3.8256 0.0000
# 4 0.0000 0.0000 0.0000 -41.6160 0.0000 -45.1984
# 5 -0.2600 8.6119 -3.8256 0.0000 34.8079 0.0000
# 6 0.0000 0.0000 0.0000 -45.1984 0.0000 -8.0509
#
#
#
# Elastic Compliance Matrix: (Units=1/GPa)
#
#
# Indices 1 2 3 4 5 6 
#
# 1 0.011926 -0.001226 -0.002282 0.000000 0.000142 0.000000
# 2 -0.001226 0.014220 -0.003912 0.000000 -0.003957 0.000000
# 3 -0.002282 -0.003912 0.008541 0.000000 0.001889 0.000000
# 4 0.000000 0.000000 0.000000 0.004714 0.000000 -0.026465
# 5 0.000142 -0.003957 0.001889 0.000000 0.029917 0.000000
# 6 0.000000 0.000000 0.000000 -0.026465 0.000000 0.024368
#
#
# Mechanical properties :
#
#
# Convention : Reuss Voigt Hill
#
# Bulk Modulus (GPa) = 50.38455 56.05275 53.21865
# Shear Modulus (GPa) = 43.42518 12.51920 27.97219
#
# Velocity S-wave (km/s) = 4.83517 2.59615 3.88065
# Velocity P-wave (km/s) = 7.63528 6.25811 6.98074
#
# Compressibility (1/GPa) = 0.01984735
#
# Stress axis : x y z
#
# Youngs Moduli (GPa) = 83.84896 70.32462 117.08436
#
# Poissons Ratio (x) = 0.08620 0.26721
# Poissons Ratio (y) = 0.10278 0.45801
# Poissons Ratio (z) = 0.19136 0.27509
#
# Static dielectric constant tensor:
#      x y z
#    x 5.696380 0.000000 0.148900 
#    y 0.000000 1.681720 0.000000 
#    z 0.148900 0.000000 1.653960 
# 
# From -- ./inp_files/86322.got.cif
#   From: 2010.05.17/outbox.cif.g08.bks.cpg/sg12_44_cif.got.tgz:86322.got - 2010.06.03 13:09:07.
