data_PCOD9208046
_publ_section_title
;
Structure prediction by ZEFSAII (Michael W. Deem and Ramdas Pophale) SiO2 
 PCOD9208046
Probable space group: C 2/M
;
_chemical_formula_sum "Si O2"
_cell_formula_units_Z 56
_cell_length_a 8.978750
_cell_length_b 31.461137
_cell_length_c 20.347017
_cell_angle_alpha 90.000000
_cell_angle_beta 29.741561
_cell_angle_gamma 90.000000
_cell_volume 2851.348546
_symmetry_space_group_name_H-M "C 2/M"
_symmetry_group_IT_number 12
_symmetry_cell_setting 'monoclinic'
loop_
_space_group_symop_operation_xyz
x,y,z
-x,y,-z
-x,-y,-z
x,-y,z
1/2+x,1/2+y,z
1/2-x,1/2+y,-z
1/2-x,1/2-y,-z
1/2+x,1/2-y,z
loop_
_atom_site_type_symbol
_atom_site_label
_atom_site_fract_x
_atom_site_fract_y
_atom_site_fract_z
Si Si1 0.859186 0.398609 0.857689
Si Si2 0.323956 0.805307 0.844432
Si Si3 0.193189 0.186820 0.638954
Si Si4 0.342102 0.050961 0.368713
Si Si5 0.277139 0.886883 0.147802
Si Si6 0.690262 0.752060 0.283063
Si Si7 0.286443 0.949019 0.645057
O O1 0.935060 0.353375 0.794439
O O2 0.997249 0.434561 0.759069
O O3 0.014119 0.396332 0.869303
O O4 0.500000 0.403485 0.000000
O O5 0.308421 0.780876 0.781971
O O6 0.524421 0.778456 0.817665
O O7 0.000000 0.808607 0.000000
O O8 0.500000 0.163701 0.500000
O O9 0.286929 0.217071 0.663513
O O10 0.924691 0.155420 0.762414
O O11 0.078373 0.218500 0.625376
O O12 0.530062 0.064985 0.360410
O O13 0.000000 0.067101 0.500000
O O14 0.331058 0.000000 0.375958
O O15 0.027246 0.923909 0.236909
O O16 0.500000 0.882825 0.000000
O O17 0.500000 0.941698 0.500000
O O18 0.232314 0.000000 0.669071
#
# Coordination Sequence:
#
# PCOD9208046 Si02
#       7
#     8   8   8   8   8   8   8
#     4  11  24  42  62  92 133 166 215 263 319 381
#     4  10  21  37  61  90 126 165 209 259 316 379
#     4  11  24  42  64  91 126 166 213 265 323 384
#     4  10  22  42  69  99 129 167 211 255 313 380
#     4  12  26  42  65  95 131 171 218 268 322 383
#     4  10  22  40  62  89 121 164 214 265 316 378
#     4  10  22  43  71 101 133 169 212 260 316 381
#
# _framework density 19.639831000000001
#
# number of rings (size 3 to 8) (size 9 to 14) (size 15 to 20)
#    0.000    1.429    1.429    3.000    6.000    4.571 
#    0.000    0.714    0.000    0.000    0.000    0.000 
#    0.000    0.000    0.000    0.000    0.000    0.000 
#
# Total GULP energy -156320.805247 kJ/mol
# GULP energy per Si atom -5582.885902 kJ/mol
# Density = 1.959513 g / cm^3
# Si number density = 19.639831 Si / 1000 Ang^3
#
#
#
# Elastic Constant Matrix: (Units=GPa)
#
#
# Indices 1 2 3 4 5 6 
#
# 1 151.5383 30.4736 60.8279 0.0001 -22.7173 0.0003
# 2 30.4736 42.0716 31.8946 0.0002 -15.1373 0.0006
# 3 60.8279 31.8946 129.4297 0.0007 -17.5707 0.0011
# 4 0.0001 0.0002 0.0007 29.0331 0.0000 -5.7769
# 5 -22.7173 -15.1373 -17.5707 0.0000 23.3303 0.0000
# 6 0.0003 0.0006 0.0011 -5.7769 0.0000 45.3861
#
#
#
# Elastic Compliance Matrix: (Units=1/GPa)
#
#
# Indices 1 2 3 4 5 6 
#
# 1 0.009032 -0.002531 -0.002952 0.000000 0.004929 0.000000
# 2 -0.002531 0.035631 -0.005332 0.000000 0.016638 0.000000
# 3 -0.002952 -0.005332 0.010657 0.000000 0.001692 0.000000
# 4 0.000000 0.000000 0.000000 0.035338 0.000000 0.004498
# 5 0.004929 0.016638 0.001692 0.000000 0.059732 0.000000
# 6 0.000000 0.000000 0.000000 0.004498 0.000000 0.022606
#
#
# Mechanical properties :
#
#
# Convention : Reuss Voigt Hill
#
# Bulk Modulus (GPa) = 29.68206 63.27018 46.47612
# Shear Modulus (GPa) = 24.28886 32.87280 28.58083
#
# Velocity S-wave (km/s) = 3.52051 4.09563 3.81891
# Velocity P-wave (km/s) = 5.62773 7.39261 6.56970
#
# Compressibility (1/GPa) = 0.03369039
#
# Stress axis : x y z
#
# Youngs Moduli (GPa) = 110.72079 28.06565 93.83318
#
# Poissons Ratio (x) = 0.07102 0.27698
# Poissons Ratio (y) = 0.28018 0.50034
# Poissons Ratio (z) = 0.32683 0.14965
#
# Static dielectric constant tensor:
#      x y z
#    x 1.677640 0.000000 -0.024370 
#    y 0.000000 1.692510 0.000000 
#    z -0.024370 0.000000 1.759510 
# 
# From -- ./inp_files/302995.got.cif
#   From: 2010.05.17/outbox.cif.g08.bks.cpg/sg12_152_cif.got.tgz:302995.got - 2010.06.03 13:09:07.
