data_PCOD9208828
_publ_section_title
;
Structure prediction by ZEFSAII (Michael W. Deem and Ramdas Pophale) SiO2 
 PCOD9208828
Probable space group: C 2/M
;
_chemical_formula_sum "Si O2"
_cell_formula_units_Z 56
_cell_length_a 12.861822
_cell_length_b 17.732463
_cell_length_c 11.714735
_cell_angle_alpha 90.000000
_cell_angle_beta 107.495303
_cell_angle_gamma 90.000000
_cell_volume 2548.207276
_symmetry_space_group_name_H-M "C 2/M"
_symmetry_group_IT_number 12
_symmetry_cell_setting 'monoclinic'
loop_
_space_group_symop_operation_xyz
x,y,z
-x,y,-z
-x,-y,-z
x,-y,z
1/2+x,1/2+y,z
1/2-x,1/2+y,-z
1/2-x,1/2-y,-z
1/2+x,1/2-y,z
loop_
_atom_site_type_symbol
_atom_site_label
_atom_site_fract_x
_atom_site_fract_y
_atom_site_fract_z
Si Si1 0.504889 0.584226 0.633597
Si Si2 0.307267 0.915740 0.143863
Si Si3 0.583879 0.201893 0.676950
Si Si4 0.222694 0.143859 0.700739
Si Si5 0.621666 0.085408 0.080168
Si Si6 0.661648 0.183282 0.467516
Si Si7 0.939477 0.089793 0.862826
O O1 0.500000 0.617722 0.500000
O O2 0.457143 0.500000 0.607402
O O3 0.633739 0.581916 0.699815
O O4 0.460735 0.619097 0.739284
O O5 0.387530 0.849565 0.207380
O O6 0.188527 0.902085 0.155860
O O7 0.345549 0.000000 0.190393
O O8 0.302594 0.915847 0.006109
O O9 0.651712 0.279551 0.692192
O O10 0.630761 0.156392 0.582713
O O11 0.454543 0.211538 0.619866
O O12 0.325153 0.143746 0.817185
O O13 0.275731 0.127764 0.595502
O O14 0.618459 0.000000 0.127977
O O15 0.500000 0.103030 0.000000
O O16 0.750000 0.250000 0.500000
O O17 0.966857 0.000000 0.865914
O O18 0.000000 0.118428 0.000000
#
# Coordination Sequence:
#
# PCOD9208828 Si02
#       7
#     8   8   8   8   8   8   8
#     4  10  22  35  55  91 125 154 199 253 306 363
#     4  10  21  38  60  83 118 158 199 247 301 354
#     4  10  22  39  59  87 113 154 204 242 296 364
#     4  11  22  36  63  85 118 157 196 251 296 360
#     4  10  21  39  62  89 123 161 200 246 302 357
#     4   9  21  39  58  82 116 155 193 241 303 363
#     4   9  18  35  58  83 118 161 200 241 300 365
#
# _framework density 21.976233000000001
#
# number of rings (size 3 to 8) (size 9 to 14) (size 15 to 20)
#    0.000    2.143    0.000    2.143    6.000    4.000 
#    0.000    3.571    0.000    0.000    0.000    0.000 
#    0.000    0.000    0.000    0.000    0.000    0.000 
#
# Total GULP energy -155933.894096 kJ/mol
# GULP energy per Si atom -5569.067646 kJ/mol
# Density = 2.192621 g / cm^3
# Si number density = 21.976233 Si / 1000 Ang^3
#
#
#
# Elastic Constant Matrix: (Units=GPa)
#
#
# Indices 1 2 3 4 5 6 
#
# 1 107.4670 -1.4538 14.4159 0.0000 -17.9680 0.0000
# 2 -1.4538 28.2520 2.6590 0.0000 2.0630 0.0000
# 3 14.4159 2.6590 73.2731 0.0000 -12.6676 0.0000
# 4 0.0000 0.0000 0.0000 -9.4131 0.0000 -36.6549
# 5 -17.9680 2.0630 -12.6676 0.0000 43.5727 0.0000
# 6 0.0000 0.0000 0.0000 -36.6549 0.0000 -46.6376
#
#
#
# Elastic Compliance Matrix: (Units=1/GPa)
#
#
# Indices 1 2 3 4 5 6 
#
# 1 0.010121 0.000374 -0.001354 0.000000 0.003762 0.000000
# 2 0.000374 0.035726 -0.001722 0.000000 -0.002038 0.000000
# 3 -0.001354 -0.001722 0.014629 0.000000 0.003776 0.000000
# 4 0.000000 0.000000 0.000000 0.051557 0.000000 -0.040522
# 5 0.003762 -0.002038 0.003776 0.000000 0.025696 0.000000
# 6 0.000000 0.000000 0.000000 -0.040522 0.000000 0.010406
#
#
# Mechanical properties :
#
#
# Convention : Reuss Voigt Hill
#
# Bulk Modulus (GPa) = 18.15872 26.69268 22.42570
# Shear Modulus (GPa) = 29.08696 10.39579 19.74137
#
# Velocity S-wave (km/s) = 3.64203 2.17732 3.00043
# Velocity P-wave (km/s) = 5.09575 4.30041 4.71488
#
# Compressibility (1/GPa) = 0.05506995
#
# Stress axis : x y z
#
# Youngs Moduli (GPa) = 98.80516 27.99095 68.35565
#
# Poissons Ratio (x) = -0.01046 0.09258
# Poissons Ratio (y) = -0.03691 0.11773
# Poissons Ratio (z) = 0.13382 0.04821
#
# Static dielectric constant tensor:
#      x y z
#    x 1.786650 0.000000 -0.019900 
#    y 0.000000 1.837250 0.000000 
#    z -0.019900 0.000000 1.886960 
# 
# From -- ./inp_files/133989.got.cif
#   From: 2010.05.17/outbox.cif.g08.bks.cpg/sg12_67_cif.got.tgz:133989.got - 2010.06.03 13:09:07.
