data_PCOD9208446
_publ_section_title
;
Structure prediction by ZEFSAII (Michael W. Deem and Ramdas Pophale) SiO2 
 PCOD9208446
Probable space group: C 2/M
;
_chemical_formula_sum "Si O2"
_cell_formula_units_Z 48
_cell_length_a 9.060900
_cell_length_b 19.303129
_cell_length_c 15.426587
_cell_angle_alpha 90.000000
_cell_angle_beta 80.061443
_cell_angle_gamma 90.000000
_cell_volume 2657.677168
_symmetry_space_group_name_H-M "C 2/M"
_symmetry_group_IT_number 12
_symmetry_cell_setting 'monoclinic'
loop_
_space_group_symop_operation_xyz
x,y,z
-x,y,-z
-x,-y,-z
x,-y,z
1/2+x,1/2+y,z
1/2-x,1/2+y,-z
1/2-x,1/2-y,-z
1/2+x,1/2-y,z
loop_
_atom_site_type_symbol
_atom_site_label
_atom_site_fract_x
_atom_site_fract_y
_atom_site_fract_z
Si Si1 0.118124 0.579600 0.748550
Si Si2 0.583990 0.080025 0.402831
Si Si3 0.794776 0.167717 0.272183
Si Si4 0.680097 0.917146 0.124043
Si Si5 0.665094 0.321745 0.025521
Si Si6 0.859523 0.811422 0.766902
O O1 0.161976 0.500000 0.760675
O O2 0.256971 0.630565 0.733389
O O3 0.031249 0.582338 0.666041
O O4 0.992301 0.600220 0.833032
O O5 0.500000 0.097762 0.500000
O O6 0.714548 0.132013 0.361886
O O7 0.637383 0.000000 0.403938
O O8 0.777317 0.114066 0.193617
O O9 0.708651 0.236735 0.249904
O O10 0.966238 0.184963 0.273647
O O11 0.692613 0.000000 0.120289
O O12 0.738961 0.881581 0.031036
O O13 0.651414 0.326981 0.129655
O O14 0.500000 0.320599 0.000000
O O15 0.750000 0.250000 0.000000
#
# Coordination Sequence:
#
# PCOD9208446 Si02
#       6
#     8   8   8   8   8   8
#     4   9  21  39  60  86 118 154 193 242 295 353
#     4   9  19  40  68  92 117 151 189 235 295 361
#     4  11  21  38  59  86 117 157 192 242 296 352
#     4  10  21  38  57  82 115 154 200 246 294 343
#     4  12  24  38  56  82 112 160 205 250 287 339
#     4  12  23  38  59  85 120 158 201 242 295 346
#
# _framework density 18.060884000000001
#
# number of rings (size 3 to 8) (size 9 to 14) (size 15 to 20)
#    0.000    1.500    3.333    3.500    2.333    2.333 
#    0.000    5.833    0.000    3.000    0.000    0.000 
#    0.000    0.000    0.000    0.000    0.000    0.000 
#
# Total GULP energy -134038.196659 kJ/mol
# GULP energy per Si atom -5584.924861 kJ/mol
# Density = 1.801978 g / cm^3
# Si number density = 18.060884 Si / 1000 Ang^3
#
#
#
# Elastic Constant Matrix: (Units=GPa)
#
#
# Indices 1 2 3 4 5 6 
#
# 1 127.0831 75.6850 45.0394 0.0000 -17.4221 0.0000
# 2 75.6850 106.4130 39.5977 0.0000 -17.6299 0.0000
# 3 45.0394 39.5977 88.9626 0.0000 -33.0811 0.0000
# 4 0.0000 0.0000 0.0000 26.8218 0.0000 -4.0077
# 5 -17.4221 -17.6299 -33.0811 0.0000 19.9087 0.0000
# 6 0.0000 0.0000 0.0000 -4.0077 0.0000 34.7033
#
#
#
# Elastic Compliance Matrix: (Units=1/GPa)
#
#
# Indices 1 2 3 4 5 6 
#
# 1 0.014442 -0.009122 -0.004071 0.000000 -0.002204 0.000000
# 2 -0.009122 0.017167 -0.000885 0.000000 0.005748 0.000000
# 3 -0.004071 -0.000885 0.031613 0.000000 0.048182 0.000000
# 4 0.000000 0.000000 0.000000 0.037938 0.000000 0.004381
# 5 -0.002204 0.005748 0.048182 0.000000 0.133452 0.000000
# 6 0.000000 0.000000 0.000000 0.004381 0.000000 0.029322
#
#
# Mechanical properties :
#
#
# Convention : Reuss Voigt Hill
#
# Bulk Modulus (GPa) = 28.51869 71.45586 49.98728
# Shear Modulus (GPa) = 16.45932 27.09587 21.77759
#
# Velocity S-wave (km/s) = 3.02209 3.87751 3.47621
# Velocity P-wave (km/s) = 5.29169 7.72635 6.62188
#
# Compressibility (1/GPa) = 0.03506472
#
# Stress axis : x y z
#
# Youngs Moduli (GPa) = 69.24127 58.25068 31.63297
#
# Poissons Ratio (x) = 0.53137 0.12878
# Poissons Ratio (y) = 0.63163 0.02801
# Poissons Ratio (z) = 0.28189 0.05157
#
# Static dielectric constant tensor:
#      x y z
#    x 1.613630 0.000000 -0.008160 
#    y 0.000000 1.611560 0.000000 
#    z -0.008160 0.000000 1.622730 
# 
# From -- ./inp_files/195940.got.cif
#   From: 2010.05.17/outbox.cif.g08.bks.cpg/sg12_98_cif.got.tgz:195940.got - 2010.06.03 13:09:07.
