data_PCOD9208769
_publ_section_title
;
Structure prediction by ZEFSAII (Michael W. Deem and Ramdas Pophale) SiO2 
 PCOD9208769
Probable space group: C 2/M
;
_chemical_formula_sum "Si O2"
_cell_formula_units_Z 56
_cell_length_a 26.851263
_cell_length_b 8.936630
_cell_length_c 18.020037
_cell_angle_alpha 90.000000
_cell_angle_beta 38.640462
_cell_angle_gamma 90.000000
_cell_volume 2700.093921
_symmetry_space_group_name_H-M "C 2/M"
_symmetry_group_IT_number 12
_symmetry_cell_setting 'monoclinic'
loop_
_space_group_symop_operation_xyz
x,y,z
-x,y,-z
-x,-y,-z
x,-y,z
1/2+x,1/2+y,z
1/2-x,1/2+y,-z
1/2-x,1/2-y,-z
1/2+x,1/2-y,z
loop_
_atom_site_type_symbol
_atom_site_label
_atom_site_fract_x
_atom_site_fract_y
_atom_site_fract_z
Si Si1 0.320314 0.676693 0.965442
Si Si2 0.749200 0.173342 0.814360
Si Si3 0.532685 0.324325 0.879315
Si Si4 0.981848 0.322093 0.793539
Si Si5 0.909189 0.674496 0.591467
Si Si6 0.299179 0.826443 0.302395
Si Si7 0.860063 0.325847 0.475751
O O1 0.320298 0.500000 0.956909
O O2 0.301202 0.723647 0.072288
O O3 0.250000 0.750000 0.000000
O O4 0.406029 0.744113 0.844928
O O5 0.841050 0.227246 0.709216
O O6 0.719931 0.186229 0.763444
O O7 0.742027 0.000000 0.845420
O O8 0.524034 0.500000 0.871906
O O9 0.485385 0.226437 0.874881
O O10 0.624506 0.273766 0.769409
O O11 0.500000 0.298617 0.000000
O O12 0.974689 0.500000 0.793877
O O13 0.066179 0.274912 0.660087
O O14 0.901711 0.500000 0.623901
O O15 0.890461 0.680284 0.525517
O O16 0.000000 0.722152 0.500000
O O17 0.219975 0.770164 0.436041
O O18 0.316117 0.000000 0.299754
O O19 0.842375 0.500000 0.479257
#
# Coordination Sequence:
#
# PCOD9208769 Si02
#       7
#     8   8   8   8   8   8   8
#     4  12  26  43  63  88 121 163 206 253 308 368
#     4  10  21  38  59  88 120 155 200 252 305 362
#     4  11  24  41  64  92 122 161 209 257 308 368
#     4  11  24  42  64  92 126 162 203 254 309 369
#     4   9  18  33  57  86 116 157 202 248 300 360
#     4  10  21  38  63  92 124 161 203 253 308 362
#     4   9  20  38  59  87 124 162 202 247 302 367
#
# _framework density 20.740019
#
# number of rings (size 3 to 8) (size 9 to 14) (size 15 to 20)
#    0.000    1.714    0.000    3.857    2.000    7.143 
#    0.000    0.000    0.000    0.000    0.000    0.000 
#    0.000    0.000    0.000    0.000    0.000    0.000 
#
# Total GULP energy -156622.380828 kJ/mol
# GULP energy per Si atom -5593.656458 kJ/mol
# Density = 2.069281 g / cm^3
# Si number density = 20.740019 Si / 1000 Ang^3
#
#
#
# Elastic Constant Matrix: (Units=GPa)
#
#
# Indices 1 2 3 4 5 6 
#
# 1 39.2470 22.0208 22.4334 -0.0025 -19.0157 0.0018
# 2 22.0208 80.9904 41.0631 -0.0075 -6.2563 0.0059
# 3 22.4334 41.0631 101.0524 -0.0048 -14.2761 0.0039
# 4 -0.0025 -0.0075 -0.0048 36.9544 0.0021 -4.5910
# 5 -19.0157 -6.2563 -14.2761 0.0021 31.5199 -0.0018
# 6 0.0018 0.0059 0.0039 -4.5910 -0.0018 24.7590
#
#
#
# Elastic Compliance Matrix: (Units=1/GPa)
#
#
# Indices 1 2 3 4 5 6 
#
# 1 0.042987 -0.008464 -0.002860 0.000000 0.022958 0.000001
# 2 -0.008464 0.017219 -0.005723 0.000002 -0.004281 -0.000002
# 3 -0.002860 -0.005723 0.013303 0.000000 0.003164 0.000000
# 4 0.000000 0.000002 0.000000 0.027698 -0.000001 0.005136
# 5 0.022958 -0.004281 0.003164 -0.000001 0.046160 0.000002
# 6 0.000001 -0.000002 0.000000 0.005136 0.000002 0.041342
#
#
# Mechanical properties :
#
#
# Convention : Reuss Voigt Hill
#
# Bulk Modulus (GPa) = 25.37090 43.59161 34.48126
# Shear Modulus (GPa) = 21.19154 27.69816 24.44485
#
# Velocity S-wave (km/s) = 3.19998 3.65840 3.43685
# Velocity P-wave (km/s) = 5.09044 6.23771 5.69305
#
# Compressibility (1/GPa) = 0.03941523
#
# Stress axis : x y z
#
# Youngs Moduli (GPa) = 23.26272 58.07383 75.16928
#
# Poissons Ratio (x) = 0.49156 0.21499
# Poissons Ratio (y) = 0.19690 0.43018
# Poissons Ratio (z) = 0.06653 0.33235
#
# Static dielectric constant tensor:
#      x y z
#    x 1.766860 0.000000 0.014650 
#    y 0.000000 1.692730 0.000000 
#    z 0.014650 0.000000 1.736200 
# 
# From -- ./inp_files/329478.got.cif
#   From: 2010.05.17/outbox.cif.g08.bks.cpg/sg12_165_cif.got.tgz:329478.got - 2010.06.03 13:09:07.
