data_PCOD9208877
_publ_section_title
;
Structure prediction by ZEFSAII (Michael W. Deem and Ramdas Pophale) SiO2 
 PCOD9208877
Probable space group: C 2/M
;
_chemical_formula_sum "Si O2"
_cell_formula_units_Z 56
_cell_length_a 8.978418
_cell_length_b 18.439466
_cell_length_c 23.831344
_cell_angle_alpha 90.000000
_cell_angle_beta 134.251331
_cell_angle_gamma 90.000000
_cell_volume 2826.070536
_symmetry_space_group_name_H-M "C 2/M"
_symmetry_group_IT_number 12
_symmetry_cell_setting 'monoclinic'
loop_
_space_group_symop_operation_xyz
x,y,z
-x,y,-z
-x,-y,-z
x,-y,z
1/2+x,1/2+y,z
1/2-x,1/2+y,-z
1/2-x,1/2-y,-z
1/2+x,1/2-y,z
loop_
_atom_site_type_symbol
_atom_site_label
_atom_site_fract_x
_atom_site_fract_y
_atom_site_fract_z
Si Si1 0.447591 0.803683 0.049611
Si Si2 0.237516 0.084692 0.074618
Si Si3 0.289022 0.206601 0.681237
Si Si4 0.776448 0.920255 0.795868
Si Si5 0.067327 0.689898 0.454330
Si Si6 0.731310 0.263810 0.210087
Si Si7 0.835281 0.418784 0.616761
O O1 0.387144 0.869302 0.074675
O O2 0.643313 0.762312 0.128075
O O3 0.500000 0.824886 0.000000
O O4 0.250000 0.750000 0.000000
O O5 0.273479 0.089766 0.151026
O O6 0.251994 0.000000 0.063494
O O7 0.000000 0.108613 0.000000
O O8 0.306698 0.203872 0.752601
O O9 0.522360 0.224282 0.723934
O O10 0.217735 0.135409 0.628685
O O11 0.133566 0.271530 0.625719
O O12 0.873755 0.842609 0.804233
O O13 0.564686 0.924761 0.704752
O O14 0.882310 0.000000 0.818122
O O15 0.250000 0.750000 0.500000
O O16 0.139377 0.622409 0.435532
O O17 0.000000 0.671653 0.500000
O O18 0.750277 0.500000 0.589960
#
# Coordination Sequence:
#
# PCOD9208877 Si02
#       7
#     8   8   8   8   8   8   8
#     4  12  23  36  55  86 123 157 204 260 303 356
#     4  10  21  38  60  85 118 161 207 255 314 372
#     4  11  20  39  61  90 116 158 206 247 300 371
#     4   9  17  33  57  84 114 152 202 249 292 359
#     4  12  22  39  64  92 122 156 200 250 303 376
#     4  11  21  35  60  87 118 161 205 250 302 359
#     4  10  21  38  62  91 123 159 201 250 305 362
#
# _framework density 19.8155
#
# number of rings (size 3 to 8) (size 9 to 14) (size 15 to 20)
#    0.000    1.286    4.286    4.714    0.000    0.571 
#    0.000    1.429    0.000    6.857    0.000    0.000 
#    0.000    0.000    0.000    0.000    0.000    0.000 
#
# Total GULP energy -156201.405027 kJ/mol
# GULP energy per Si atom -5578.621608 kJ/mol
# Density = 1.977040 g / cm^3
# Si number density = 19.815500 Si / 1000 Ang^3
#
#
#
# Elastic Constant Matrix: (Units=GPa)
#
#
# Indices 1 2 3 4 5 6 
#
# 1 62.8518 37.1270 29.0771 0.0002 -15.3000 0.0000
# 2 37.1270 100.6845 21.5061 0.0002 -6.8737 0.0000
# 3 29.0771 21.5061 85.0138 0.0006 -19.6389 -0.0001
# 4 0.0002 0.0002 0.0006 -67.2291 0.0002 8.2354
# 5 -15.3000 -6.8737 -19.6389 0.0002 34.8000 0.0000
# 6 0.0000 0.0000 -0.0001 8.2354 0.0000 25.6960
#
#
#
# Elastic Compliance Matrix: (Units=1/GPa)
#
#
# Indices 1 2 3 4 5 6 
#
# 1 0.024102 -0.007406 -0.004899 0.000000 0.006369 0.000000
# 2 -0.007406 0.012789 -0.001001 0.000000 -0.001295 0.000000
# 3 -0.004899 -0.001001 0.015119 0.000000 0.006181 0.000000
# 4 0.000000 0.000000 0.000000 -0.014313 0.000000 0.004587
# 5 0.006369 -0.001295 0.006181 0.000000 0.034768 0.000000
# 6 0.000000 0.000000 0.000000 0.004587 0.000000 0.037446
#
#
# Mechanical properties :
#
#
# Convention : Reuss Voigt Hill
#
# Bulk Modulus (GPa) = 39.37374 47.10785 43.24079
# Shear Modulus (GPa) = 34.48503 9.37605 21.93054
#
# Velocity S-wave (km/s) = 4.17622 2.17760 3.33037
# Velocity P-wave (km/s) = 6.57022 5.49067 6.05455
#
# Compressibility (1/GPa) = 0.02539764
#
# Stress axis : x y z
#
# Youngs Moduli (GPa) = 41.48994 78.19513 66.14021
#
# Poissons Ratio (x) = 0.57915 0.32400
# Poissons Ratio (y) = 0.30729 0.06622
# Poissons Ratio (z) = 0.20325 0.07828
#
# Static dielectric constant tensor:
#      x y z
#    x 1.713380 0.000000 -0.014000 
#    y 0.000000 1.760370 0.000000 
#    z -0.014000 0.000000 1.732640 
# 
# From -- ./inp_files/300679.got.cif
#   From: 2010.05.17/outbox.cif.g08.bks.cpg/sg12_151_cif.got.tgz:300679.got - 2010.06.03 13:09:07.
