data_PCOD9208519
_publ_section_title
;
Structure prediction by ZEFSAII (Michael W. Deem and Ramdas Pophale) SiO2 
 PCOD9208519
Probable space group: C 2/M
;
_chemical_formula_sum "Si O2"
_cell_formula_units_Z 58
_cell_length_a 24.753285
_cell_length_b 9.088188
_cell_length_c 14.538941
_cell_angle_alpha 90.000000
_cell_angle_beta 86.107203
_cell_angle_gamma 90.000000
_cell_volume 3263.170500
_symmetry_space_group_name_H-M "C 2/M"
_symmetry_group_IT_number 12
_symmetry_cell_setting 'monoclinic'
loop_
_space_group_symop_operation_xyz
x,y,z
-x,y,-z
-x,-y,-z
x,-y,z
1/2+x,1/2+y,z
1/2-x,1/2+y,-z
1/2-x,1/2-y,-z
1/2+x,1/2-y,z
loop_
_atom_site_type_symbol
_atom_site_label
_atom_site_fract_x
_atom_site_fract_y
_atom_site_fract_z
Si Si1 0.974670 0.323712 0.600438
Si Si2 0.061176 0.172788 0.713066
Si Si3 0.500000 0.000000 0.000000
Si Si4 0.287204 0.174879 0.071405
Si Si5 0.745851 0.675975 0.282279
Si Si6 0.152569 0.676557 0.393483
Si Si7 0.595444 0.163022 0.891864
Si Si8 0.670709 0.675210 0.586174
O O1 0.980971 0.500000 0.604954
O O2 0.911088 0.290558 0.610298
O O3 0.000000 0.274367 0.500000
O O4 0.008862 0.252603 0.677972
O O5 0.078300 0.236916 0.809227
O O6 0.111241 0.196251 0.637257
O O7 0.051296 0.000000 0.720701
O O8 0.544837 0.874023 0.962759
O O9 0.265571 0.206163 0.176575
O O10 0.350721 0.218447 0.063348
O O11 0.284589 0.000000 0.056247
O O12 0.250000 0.250000 0.000000
O O13 0.744308 0.500000 0.296280
O O14 0.688066 0.748726 0.310284
O O15 0.787068 0.750694 0.349257
O O16 0.159659 0.500000 0.393775
O O17 0.171990 0.746082 0.487615
O O18 0.611061 0.000000 0.850049
O O19 0.681008 0.500000 0.576319
#
# Coordination Sequence:
#
# PCOD9208519 Si02
#       8
#     8   8   2   8   8   8   8   8
#     4  10  21  38  58  81 115 161 207 244 289 354
#     4  11  22  35  60  92 120 157 198 247 302 354
#     4   8  20  40  74  92 114 152 202 262 298 360
#     4  10  22  40  64  89 119 156 196 248 305 371
#     4  11  23  40  60  86 119 160 200 246 303 359
#     4  11  23  39  58  86 121 161 206 253 299 352
#     4   9  19  41  65  90 116 149 202 245 300 368
#     4  11  22  36  59  88 122 160 201 246 298 355
#
# _framework density 17.774125000000002
#
# number of rings (size 3 to 8) (size 9 to 14) (size 15 to 20)
#    0.414    1.241    2.759    2.069    0.000    4.138 
#    2.483    0.345    0.000    0.000    0.000    0.000 
#    0.000    0.000    0.000    0.000    0.000    0.000 
#
# Total GULP energy -161601.149159 kJ/mol
# GULP energy per Si atom -5572.453419 kJ/mol
# Density = 1.773367 g / cm^3
# Si number density = 17.774125 Si / 1000 Ang^3
#
#
#
# Elastic Constant Matrix: (Units=GPa)
#
#
# Indices 1 2 3 4 5 6 
#
# 1 133.8948 57.4031 73.5878 0.0000 2.0880 0.0000
# 2 57.4031 52.1727 35.9330 0.0000 -0.8852 0.0000
# 3 73.5878 35.9330 76.7403 0.0000 6.4641 0.0000
# 4 0.0000 0.0000 0.0000 27.7208 0.0000 -0.5932
# 5 2.0880 -0.8852 6.4641 0.0000 33.9047 0.0000
# 6 0.0000 0.0000 0.0000 -0.5932 0.0000 30.6308
#
#
#
# Elastic Compliance Matrix: (Units=1/GPa)
#
#
# Indices 1 2 3 4 5 6 
#
# 1 0.020679 -0.013315 -0.013678 0.000000 0.000987 0.000000
# 2 -0.013315 0.037236 -0.004897 0.000000 0.002726 0.000000
# 3 -0.013678 -0.004897 0.028843 0.000000 -0.004785 0.000000
# 4 0.000000 0.000000 0.000000 0.036089 0.000000 0.000699
# 5 0.000987 0.002726 -0.004785 0.000000 0.030417 0.000000
# 6 0.000000 0.000000 0.000000 0.000699 0.000000 0.032660
#
#
# Mechanical properties :
#
#
# Convention : Reuss Voigt Hill
#
# Bulk Modulus (GPa) = 43.51989 66.29507 54.90748
# Shear Modulus (GPa) = 19.42784 24.84350 22.13567
#
# Velocity S-wave (km/s) = 3.30970 3.74268 3.53283
# Velocity P-wave (km/s) = 6.25649 7.48709 6.89928
#
# Compressibility (1/GPa) = 0.02297800
#
# Stress axis : x y z
#
# Youngs Moduli (GPa) = 48.35909 26.85591 34.67047
#
# Poissons Ratio (x) = 0.35758 0.47422
# Poissons Ratio (y) = 0.64388 0.16979
# Poissons Ratio (z) = 0.66145 0.13152
#
# Static dielectric constant tensor:
#      x y z
#    x 1.621260 0.000000 -0.014690 
#    y 0.000000 1.598600 0.000000 
#    z -0.014690 0.000000 1.581150 
# 
# From -- ./inp_files/237666.got.cif
#   From: 2010.05.17/outbox.cif.g08.bks.cpg/sg12_119_cif.got.tgz:237666.got - 2010.06.03 13:09:07.
