data_PCOD9208253
_publ_section_title
;
Structure prediction by ZEFSAII (Michael W. Deem and Ramdas Pophale) SiO2 
 PCOD9208253
Probable space group: C 2/M
;
_chemical_formula_sum "Si O2"
_cell_formula_units_Z 56
_cell_length_a 24.019506
_cell_length_b 15.566347
_cell_length_c 7.648415
_cell_angle_alpha 90.000000
_cell_angle_beta 63.617600
_cell_angle_gamma 90.000000
_cell_volume 2561.867694
_symmetry_space_group_name_H-M "C 2/M"
_symmetry_group_IT_number 12
_symmetry_cell_setting 'monoclinic'
loop_
_space_group_symop_operation_xyz
x,y,z
-x,y,-z
-x,-y,-z
x,-y,z
1/2+x,1/2+y,z
1/2-x,1/2+y,-z
1/2-x,1/2-y,-z
1/2+x,1/2-y,z
loop_
_atom_site_type_symbol
_atom_site_label
_atom_site_fract_x
_atom_site_fract_y
_atom_site_fract_z
Si Si1 0.763212 0.097322 0.734762
Si Si2 0.827740 0.666159 0.431932
Si Si3 0.926182 0.403095 0.070606
Si Si4 0.404383 0.397585 0.545084
Si Si5 0.119708 0.218576 0.893075
Si Si6 0.253548 0.663960 0.109047
Si Si7 0.974591 0.898025 0.812781
O O1 0.722365 0.150021 0.654175
O O2 0.833557 0.130359 0.642339
O O3 0.761264 0.000000 0.670953
O O4 0.743010 0.097187 0.966520
O O5 0.704713 0.841229 0.336298
O O6 0.885125 0.602688 0.306599
O O7 0.857191 0.756831 0.332700
O O8 0.915680 0.500000 0.011338
O O9 0.900694 0.315532 0.010368
O O10 0.000000 0.393472 0.000000
O O11 0.401885 0.500000 0.516215
O O12 0.432333 0.386509 0.698729
O O13 0.457930 0.366346 0.341142
O O14 0.061289 0.157211 0.995369
O O15 0.177712 0.170353 0.902896
O O16 0.250000 0.750000 0.000000
O O17 0.975647 0.000000 0.850778
#
# Coordination Sequence:
#
# PCOD9208253 Si02
#       7
#     8   8   8   8   8   8   8
#     4  11  22  38  66 100 132 174 220 266 331 399
#     4  10  24  41  65  96 131 169 220 279 327 390
#     4   9  20  42  67  91 123 168 222 280 336 391
#     4   8  16  31  55  91 130 169 213 262 315 389
#     4  10  21  37  63  97 125 172 218 271 329 397
#     4  12  23  42  64  93 135 174 212 272 333 394
#     4   9  16  33  58  92 133 171 216 263 318 398
#
# _framework density 21.859051000000001
#
# number of rings (size 3 to 8) (size 9 to 14) (size 15 to 20)
#    0.857    1.286    2.857    1.714    0.000    1.143 
#    5.143    0.000    0.000    1.286    0.000   11.000 
#    0.000    0.000    0.000    0.000    0.000    0.000 
#
# Total GULP energy -155928.180912 kJ/mol
# GULP energy per Si atom -5568.863604 kJ/mol
# Density = 2.180930 g / cm^3
# Si number density = 21.859051 Si / 1000 Ang^3
#
#
#
# Elastic Constant Matrix: (Units=GPa)
#
#
# Indices 1 2 3 4 5 6 
#
# 1 96.2489 21.4182 82.3898 0.0000 -23.2981 0.0000
# 2 21.4182 64.0609 42.1140 0.0000 1.1645 0.0000
# 3 82.3898 42.1140 194.5024 0.0000 -18.9994 0.0000
# 4 0.0000 0.0000 0.0000 32.2438 0.0000 -7.0360
# 5 -23.2981 1.1645 -18.9994 0.0000 39.1947 0.0000
# 6 0.0000 0.0000 0.0000 -7.0360 0.0000 8.5730
#
#
#
# Elastic Compliance Matrix: (Units=1/GPa)
#
#
# Indices 1 2 3 4 5 6 
#
# 1 0.018344 -0.001941 -0.006591 0.000000 0.007767 0.000000
# 2 -0.001941 0.018657 -0.003552 0.000000 -0.003430 0.000000
# 3 -0.006591 -0.003552 0.008744 0.000000 0.000426 0.000000
# 4 0.000000 0.000000 0.000000 0.037780 0.000000 0.031006
# 5 0.007767 -0.003430 0.000426 0.000000 0.030439 0.000000
# 6 0.000000 0.000000 0.000000 0.031006 0.000000 0.142093
#
#
# Mechanical properties :
#
#
# Convention : Reuss Voigt Hill
#
# Bulk Modulus (GPa) = 46.34965 71.85067 59.10016
# Shear Modulus (GPa) = 17.39624 29.92831 23.66227
#
# Velocity S-wave (km/s) = 2.82412 3.70422 3.29370
# Velocity P-wave (km/s) = 5.64660 7.15795 6.44672
#
# Compressibility (1/GPa) = 0.02157514
#
# Stress axis : x y z
#
# Youngs Moduli (GPa) = 54.51385 53.59949 114.36124
#
# Poissons Ratio (x) = 0.10404 0.75380
# Poissons Ratio (y) = 0.10582 0.40626
# Poissons Ratio (z) = 0.35932 0.19041
#
# Static dielectric constant tensor:
#      x y z
#    x 1.708260 0.000000 -0.089130 
#    y 0.000000 1.929220 0.000000 
#    z -0.089130 0.000000 1.757290 
# 
# From -- ./inp_files/176638.got.cif
#   From: 2010.05.17/outbox.cif.g08.bks.cpg/sg12_89_cif.got.tgz:176638.got - 2010.06.03 13:09:07.
