data_PCOD9208688
_publ_section_title
;
Structure prediction by ZEFSAII (Michael W. Deem and Ramdas Pophale) SiO2 
 PCOD9208688
Probable space group: C 2/M
;
_chemical_formula_sum "Si O2"
_cell_formula_units_Z 34
_cell_length_a 20.042712
_cell_length_b 7.458070
_cell_length_c 19.217198
_cell_angle_alpha 90.000000
_cell_angle_beta 34.949868
_cell_angle_gamma 90.000000
_cell_volume 1645.588009
_symmetry_space_group_name_H-M "C 2/M"
_symmetry_group_IT_number 12
_symmetry_cell_setting 'monoclinic'
loop_
_space_group_symop_operation_xyz
x,y,z
-x,y,-z
-x,-y,-z
x,-y,z
1/2+x,1/2+y,z
1/2-x,1/2+y,-z
1/2-x,1/2-y,-z
1/2+x,1/2-y,z
loop_
_atom_site_type_symbol
_atom_site_label
_atom_site_fract_x
_atom_site_fract_y
_atom_site_fract_z
Si Si1 0.500000 0.500000 0.500000
Si Si2 0.688644 0.217685 0.655411
Si Si3 0.124319 0.283299 0.865661
Si Si4 0.127884 0.708260 0.315505
Si Si5 0.565742 0.208187 0.624048
O O1 0.598221 0.341912 0.403527
O O2 0.649821 0.276853 0.764759
O O3 0.601437 0.282348 0.668794
O O4 0.817269 0.276754 0.521945
O O5 0.689524 0.000000 0.652903
O O6 0.122454 0.500000 0.867348
O O7 0.235372 0.223212 0.815718
O O8 0.000000 0.221034 0.000000
O O9 0.100079 0.500000 0.353537
O O10 0.042667 0.780961 0.327326
O O11 0.537802 0.000000 0.658652
#
# Coordination Sequence:
#
# PCOD9208688 Si02
#       5
#     2   8   8   8   8
#     4  12  22  36  58  90 120 152 184 236 300 352
#     4   9  18  33  55  80 113 153 186 236 292 345
#     4  10  21  38  59  84 116 158 204 244 287 345
#     4  11  23  37  58  87 119 154 195 241 292 350
#     4   9  19  34  53  83 116 144 187 238 296 350
#
# _framework density 20.661307000000001
#
# number of rings (size 3 to 8) (size 9 to 14) (size 15 to 20)
#    0.000    2.118    1.176    1.765    4.941    3.294 
#    0.000    1.176    0.000    0.000    0.000    0.000 
#    0.000    0.000    0.000    0.000    0.000    0.000 
#
# Total GULP energy -94657.344689 kJ/mol
# GULP energy per Si atom -5568.079099 kJ/mol
# Density = 2.061428 g / cm^3
# Si number density = 20.661307 Si / 1000 Ang^3
#
#
#
# Elastic Constant Matrix: (Units=GPa)
#
#
# Indices 1 2 3 4 5 6 
#
# 1 160.5652 -0.1124 64.6841 -0.0002 -14.9396 0.0001
# 2 -0.1124 100.7543 -1.5313 -0.0010 -5.3126 0.0007
# 3 64.6841 -1.5313 112.8669 -0.0005 -26.4267 0.0004
# 4 -0.0002 -0.0010 -0.0005 12.4678 0.0003 0.1863
# 5 -14.9396 -5.3126 -26.4267 0.0003 31.0422 -0.0001
# 6 0.0001 0.0007 0.0004 0.1863 -0.0001 -6.6750
#
#
#
# Elastic Compliance Matrix: (Units=1/GPa)
#
#
# Indices 1 2 3 4 5 6 
#
# 1 0.008098 -0.000066 -0.004661 0.000000 -0.000082 0.000000
# 2 -0.000066 0.010057 0.000712 0.000001 0.002295 0.000001
# 3 -0.004661 0.000712 0.013794 0.000000 0.009621 0.000001
# 4 0.000000 0.000001 0.000000 0.080173 0.000000 0.002237
# 5 -0.000082 0.002295 0.009621 0.000000 0.040758 0.000000
# 6 0.000000 0.000001 0.000001 0.002237 0.000000 -0.149750
#
#
# Mechanical properties :
#
#
# Convention : Reuss Voigt Hill
#
# Bulk Modulus (GPa) = 41.81011 55.58525 48.69768
# Shear Modulus (GPa) = 261.32254 28.11006 144.71630
#
# Velocity S-wave (km/s) = 11.25850 3.69252 8.37820
# Velocity P-wave (km/s) = 13.75808 6.71871 10.82649
#
# Compressibility (1/GPa) = 0.02391766
#
# Stress axis : x y z
#
# Youngs Moduli (GPa) = 123.48634 99.43415 72.49698
#
# Poissons Ratio (x) = 0.00658 0.33792
# Poissons Ratio (y) = 0.00817 -0.05160
# Poissons Ratio (z) = 0.57558 -0.07077
#
# Static dielectric constant tensor:
#      x y z
#    x 1.859440 0.000000 0.008380 
#    y 0.000000 1.865590 0.000000 
#    z 0.008380 0.000000 1.716190 
# 
# From -- ./inp_files/151387.got.cif
#   From: 2010.05.17/outbox.cif.g08.bks.cpg/sg12_76_cif.got.tgz:151387.got - 2010.06.03 13:09:07.
