data_PCOD9208049
_publ_section_title
;
Structure prediction by ZEFSAII (Michael W. Deem and Ramdas Pophale) SiO2 
 PCOD9208049
Probable space group: C 2/M
;
_chemical_formula_sum "Si O2"
_cell_formula_units_Z 64
_cell_length_a 21.531366
_cell_length_b 20.685744
_cell_length_c 9.083147
_cell_angle_alpha 90.000000
_cell_angle_beta 57.860862
_cell_angle_gamma 90.000000
_cell_volume 3425.616611
_symmetry_space_group_name_H-M "C 2/M"
_symmetry_group_IT_number 12
_symmetry_cell_setting 'monoclinic'
loop_
_space_group_symop_operation_xyz
x,y,z
-x,y,-z
-x,-y,-z
x,-y,z
1/2+x,1/2+y,z
1/2-x,1/2+y,-z
1/2-x,1/2-y,-z
1/2+x,1/2-y,z
loop_
_atom_site_type_symbol
_atom_site_label
_atom_site_fract_x
_atom_site_fract_y
_atom_site_fract_z
Si Si1 0.699341 0.218156 0.778271
Si Si2 0.858316 0.928817 0.230413
Si Si3 0.668219 0.193673 0.494094
Si Si4 0.278281 0.375039 0.906935
Si Si5 0.383204 0.428788 0.543287
Si Si6 0.903796 0.181645 0.965153
Si Si7 0.959792 0.205463 0.410331
Si Si8 0.302155 0.072877 0.713626
O O1 0.683466 0.180675 0.646792
O O2 0.757185 0.274827 0.664622
O O3 0.736335 0.176067 0.858129
O O4 0.626515 0.252610 0.927248
O O5 0.856986 0.922709 0.407504
O O6 0.775261 0.926476 0.276857
O O7 0.888527 0.000000 0.154451
O O8 0.902792 0.873188 0.091895
O O9 0.606480 0.248889 0.556895
O O10 0.651603 0.129555 0.421626
O O11 0.318831 0.423269 0.743891
O O12 0.342605 0.341297 0.922502
O O13 0.222234 0.408007 0.090828
O O14 0.418499 0.500000 0.513199
O O15 0.430412 0.364150 0.502132
O O16 0.981055 0.192132 0.790474
O O17 0.000000 0.236601 0.500000
O O18 0.331997 0.000000 0.669815
#
# Coordination Sequence:
#
# PCOD9208049 Si02
#       8
#     8   8   8   8   8   8   8   8
#     4  11  21  36  61  90 115 151 195 246 295 337
#     4   9  19  35  56  81 116 159 198 237 282 339
#     4  11  22  38  63  86 117 153 199 246 290 350
#     4  11  20  35  59  87 118 153 194 243 290 342
#     4  11  22  36  54  81 121 164 202 237 280 338
#     4  11  22  37  56  83 118 156 195 241 285 351
#     4  12  25  39  56  87 119 158 198 243 293 347
#     4  10  21  37  61  91 117 151 194 243 300 352
#
# _framework density 18.682767999999999
#
# number of rings (size 3 to 8) (size 9 to 14) (size 15 to 20)
#    0.000    1.250    5.000    2.250    1.750    3.250 
#    0.000    1.875    0.000    0.375    0.000    0.875 
#    0.000    0.000    0.000    0.000    0.000    0.000 
#
# Total GULP energy -178720.571068 kJ/mol
# GULP energy per Si atom -5585.017846 kJ/mol
# Density = 1.864025 g / cm^3
# Si number density = 18.682768 Si / 1000 Ang^3
#
#
#
# Elastic Constant Matrix: (Units=GPa)
#
#
# Indices 1 2 3 4 5 6 
#
# 1 37.6767 24.2498 22.9311 0.0000 15.7318 0.0000
# 2 24.2498 113.2963 56.8404 0.0000 0.3415 0.0000
# 3 22.9311 56.8404 96.7514 0.0000 11.9685 0.0000
# 4 0.0000 0.0000 0.0000 -272.3476 0.0000 -85.5810
# 5 15.7318 0.3415 11.9685 0.0000 31.0195 0.0000
# 6 0.0000 0.0000 0.0000 -85.5810 0.0000 -25.1757
#
#
#
# Elastic Compliance Matrix: (Units=1/GPa)
#
#
# Indices 1 2 3 4 5 6 
#
# 1 0.041291 -0.007216 -0.003115 0.000000 -0.019659 0.000000
# 2 -0.007216 0.014018 -0.007308 0.000000 0.006325 0.000000
# 3 -0.003115 -0.007308 0.015922 0.000000 -0.004483 0.000000
# 4 0.000000 0.000000 0.000000 0.053843 0.000000 -0.183033
# 5 -0.019659 0.006325 -0.004483 0.000000 0.043868 0.000000
# 6 0.000000 0.000000 0.000000 -0.183033 0.000000 0.582473
#
#
# Mechanical properties :
#
#
# Convention : Reuss Voigt Hill
#
# Bulk Modulus (GPa) = 27.81381 50.64078 39.22729
# Shear Modulus (GPa) = 6.26036 -43.72054 -18.73009
#
# Velocity S-wave (km/s) = 1.83252 -4.84276 -3.16972
# Velocity P-wave (km/s) = 4.40423 2.02616 2.76513
#
# Compressibility (1/GPa) = 0.03595336
#
# Stress axis : x y z
#
# Youngs Moduli (GPa) = 24.21862 71.33697 62.80690
#
# Poissons Ratio (x) = 0.51474 0.19566
# Poissons Ratio (y) = 0.17475 0.45897
# Poissons Ratio (z) = 0.07545 0.52130
#
# Static dielectric constant tensor:
#      x y z
#    x 1.640740 0.000000 0.027230 
#    y 0.000000 1.669590 0.000000 
#    z 0.027230 0.000000 1.648950 
# 
# From -- ./inp_files/89591.got.cif
#   From: 2010.05.17/outbox.cif.g08.bks.cpg/sg12_45_cif.got.tgz:89591.got - 2010.06.03 13:09:07.
