data_PCOD9208251
_publ_section_title
;
Structure prediction by ZEFSAII (Michael W. Deem and Ramdas Pophale) SiO2 
 PCOD9208251
Probable space group: C 2/M
;
_chemical_formula_sum "Si O2"
_cell_formula_units_Z 40
_cell_length_a 4.981299
_cell_length_b 24.767811
_cell_length_c 13.670977
_cell_angle_alpha 90.000000
_cell_angle_beta 79.131805
_cell_angle_gamma 90.000000
_cell_volume 1656.415826
_symmetry_space_group_name_H-M "C 2/M"
_symmetry_group_IT_number 12
_symmetry_cell_setting 'monoclinic'
loop_
_space_group_symop_operation_xyz
x,y,z
-x,y,-z
-x,-y,-z
x,-y,z
1/2+x,1/2+y,z
1/2-x,1/2+y,-z
1/2-x,1/2-y,-z
1/2+x,1/2-y,z
loop_
_atom_site_type_symbol
_atom_site_label
_atom_site_fract_x
_atom_site_fract_y
_atom_site_fract_z
Si Si1 0.273616 0.715835 0.617619
Si Si2 0.730187 0.600540 0.066439
Si Si3 0.425999 0.099495 0.399292
Si Si4 0.031113 0.939008 0.716003
Si Si5 0.383501 0.215896 0.143319
O O1 0.583961 0.735197 0.594226
O O2 0.196799 0.708436 0.737529
O O3 0.194346 0.659236 0.576477
O O4 0.611531 0.571787 0.170580
O O5 0.817693 0.660198 0.095857
O O6 0.500000 0.603397 0.000000
O O7 0.000000 0.574564 0.000000
O O8 0.500000 0.075495 0.500000
O O9 0.194844 0.069572 0.352599
O O10 0.710309 0.100020 0.319682
O O11 0.138152 0.000000 0.704967
O O12 0.693664 0.235636 0.117353
#
# Coordination Sequence:
#
# PCOD9208251 Si02
#       5
#     8   8   8   8   8
#     4  10  21  38  67 100 141 185 223 270 335 413
#     4  12  26  43  70 101 136 182 232 282 343 415
#     4  12  26  46  75 107 140 182 232 283 350 419
#     4  12  28  50  73 100 139 181 234 301 354 400
#     4  10  21  37  63  96 137 182 222 270 334 407
#
# _framework density 24.148526
#
# number of rings (size 3 to 8) (size 9 to 14) (size 15 to 20)
#    0.000    0.800    2.000    4.800    5.600    6.400 
#    0.000    0.000    0.000    0.000    0.000    0.000 
#    0.000    0.000    0.000    0.000    0.000    0.000 
#
# Total GULP energy -112192.148790 kJ/mol
# GULP energy per Si atom -5609.607440 kJ/mol
# Density = 2.409356 g / cm^3
# Si number density = 24.148526 Si / 1000 Ang^3
#
#
#
# Elastic Constant Matrix: (Units=GPa)
#
#
# Indices 1 2 3 4 5 6 
#
# 1 125.7298 15.3984 38.8361 0.0000 -1.8877 0.0000
# 2 15.3984 79.0829 29.1531 0.0000 7.4491 0.0000
# 3 38.8361 29.1531 114.4746 0.0000 0.9139 0.0000
# 4 0.0000 0.0000 0.0000 -25.5934 0.0000 16.3940
# 5 -1.8877 7.4491 0.9139 0.0000 54.3933 0.0000
# 6 0.0000 0.0000 0.0000 16.3940 0.0000 11.1879
#
#
#
# Elastic Compliance Matrix: (Units=1/GPa)
#
#
# Indices 1 2 3 4 5 6 
#
# 1 0.008929 -0.000732 -0.002846 0.000000 0.000458 0.000000
# 2 -0.000732 0.014204 -0.003354 0.000000 -0.001914 0.000000
# 3 -0.002846 -0.003354 0.010554 0.000000 0.000183 0.000000
# 4 0.000000 0.000000 0.000000 -0.020155 0.000000 0.029533
# 5 0.000458 -0.001914 0.000183 0.000000 0.018660 0.000000
# 6 0.000000 0.000000 0.000000 0.029533 0.000000 0.046106
#
#
# Mechanical properties :
#
#
# Convention : Reuss Voigt Hill
#
# Bulk Modulus (GPa) = 50.44814 54.00695 52.22754
# Shear Modulus (GPa) = 50.62232 23.72421 37.17326
#
# Velocity S-wave (km/s) = 4.58349 3.13777 3.92772
# Velocity P-wave (km/s) = 6.99624 5.96159 6.49953
#
# Compressibility (1/GPa) = 0.01982234
#
# Stress axis : x y z
#
# Youngs Moduli (GPa) = 111.98985 70.40197 94.75241
#
# Poissons Ratio (x) = 0.05157 0.26971
# Poissons Ratio (y) = 0.08203 0.31776
# Poissons Ratio (z) = 0.31877 0.23610
#
# Static dielectric constant tensor:
#      x y z
#    x 1.871500 0.000000 -0.031190 
#    y 0.000000 1.862840 0.000000 
#    z -0.031190 0.000000 1.996730 
# 
# From -- ./inp_files/191778.got.cif
#   From: 2010.05.17/outbox.cif.g08.bks.cpg/sg12_96_cif.got.tgz:191778.got - 2010.06.03 13:09:07.
