data_PCOD9208033
_publ_section_title
;
Structure prediction by ZEFSAII (Michael W. Deem and Ramdas Pophale) SiO2 
 PCOD9208033
Probable space group: C 2/M
;
_chemical_formula_sum "Si O2"
_cell_formula_units_Z 56
_cell_length_a 19.117535
_cell_length_b 13.777868
_cell_length_c 21.366577
_cell_angle_alpha 90.000000
_cell_angle_beta 152.184226
_cell_angle_gamma 90.000000
_cell_volume 2626.162930
_symmetry_space_group_name_H-M "C 2/M"
_symmetry_group_IT_number 12
_symmetry_cell_setting 'monoclinic'
loop_
_space_group_symop_operation_xyz
x,y,z
-x,y,-z
-x,-y,-z
x,-y,z
1/2+x,1/2+y,z
1/2-x,1/2+y,-z
1/2-x,1/2-y,-z
1/2+x,1/2-y,z
loop_
_atom_site_type_symbol
_atom_site_label
_atom_site_fract_x
_atom_site_fract_y
_atom_site_fract_z
Si Si1 0.670182 0.658606 0.968252
Si Si2 0.778260 0.611887 0.575514
Si Si3 0.680442 0.390086 0.640812
Si Si4 0.074401 0.678889 0.744760
Si Si5 0.453006 0.389490 0.891624
Si Si6 0.139145 0.686538 0.656612
Si Si7 0.951423 0.895421 0.257881
O O1 0.538292 0.681313 0.912206
O O2 0.592758 0.602557 0.850086
O O3 0.750000 0.750000 0.000000
O O4 0.804552 0.620238 0.118459
O O5 0.828519 0.500000 0.616705
O O6 0.732932 0.636847 0.611345
O O7 0.627157 0.614461 0.414307
O O8 0.913990 0.670375 0.651769
O O9 0.500000 0.398857 0.500000
O O10 0.738322 0.500000 0.700916
O O11 0.706768 0.297035 0.705914
O O12 0.080717 0.651221 0.677622
O O13 0.116934 0.793534 0.774571
O O14 0.500851 0.500000 0.914732
O O15 0.276597 0.379889 0.745395
O O16 0.500000 0.369207 0.000000
O O17 0.000000 0.684206 0.500000
O O18 0.903992 0.000000 0.248495
#
# Coordination Sequence:
#
# PCOD9208033 Si02
#       7
#     8   8   8   8   8   8   8
#     4  10  23  41  62  87 119 165 206 255 306 367
#     4  10  22  38  62  93 125 160 203 262 312 364
#     4   9  19  38  63  92 125 163 206 254 317 379
#     4  11  23  40  60  92 128 162 206 257 311 367
#     4  11  24  44  66  87 123 171 212 254 312 374
#     4  11  24  39  65  96 127 168 208 258 309 370
#     4  10  21  37  61  90 120 159 205 253 309 366
#
# _framework density 21.323886000000002
#
# number of rings (size 3 to 8) (size 9 to 14) (size 15 to 20)
#    0.000    1.714    1.429    2.571    6.000    3.714 
#    0.000    0.000    0.000    0.429    0.000    0.000 
#    0.000    0.000    0.000    0.000    0.000    0.000 
#
# Total GULP energy -155995.392333 kJ/mol
# GULP energy per Si atom -5571.264012 kJ/mol
# Density = 2.127535 g / cm^3
# Si number density = 21.323886 Si / 1000 Ang^3
#
#
#
# Elastic Constant Matrix: (Units=GPa)
#
#
# Indices 1 2 3 4 5 6 
#
# 1 151.2861 28.6198 41.8834 -0.0001 4.5903 -0.0002
# 2 28.6198 65.3248 4.3860 0.0023 2.8781 0.0008
# 3 41.8834 4.3860 88.4532 0.0011 -10.2772 0.0004
# 4 -0.0001 0.0023 0.0011 12.4389 0.0001 5.0009
# 5 4.5903 2.8781 -10.2772 0.0001 29.7874 -0.0001
# 6 -0.0002 0.0008 0.0004 5.0009 -0.0001 19.9205
#
#
#
# Elastic Compliance Matrix: (Units=1/GPa)
#
#
# Indices 1 2 3 4 5 6 
#
# 1 0.008450 -0.003320 -0.004116 0.000001 -0.002401 0.000000
# 2 -0.003320 0.016759 0.000638 -0.000003 -0.000888 0.000000
# 3 -0.004116 0.000638 0.013844 -0.000001 0.005349 0.000000
# 4 0.000001 -0.000003 -0.000001 0.089417 -0.000001 -0.022448
# 5 -0.002401 -0.000888 0.005349 -0.000001 0.035873 0.000000
# 6 0.000000 0.000000 0.000000 -0.022448 0.000000 0.055835
#
#
# Mechanical properties :
#
#
# Convention : Reuss Voigt Hill
#
# Bulk Modulus (GPa) = 39.28075 50.53808 44.90941
# Shear Modulus (GPa) = 20.63898 27.77436 24.20667
#
# Velocity S-wave (km/s) = 3.11445 3.61293 3.37291
# Velocity P-wave (km/s) = 5.60304 6.41530 6.02288
#
# Compressibility (1/GPa) = 0.02545776
#
# Stress axis : x y z
#
# Youngs Moduli (GPa) = 118.33788 59.66951 72.23285
#
# Poissons Ratio (x) = 0.19811 0.29729
# Poissons Ratio (y) = 0.39289 -0.04608
# Poissons Ratio (z) = 0.48705 -0.03807
#
# Static dielectric constant tensor:
#      x y z
#    x 1.831780 0.000010 0.074940 
#    y 0.000010 1.854430 0.000010 
#    z 0.074940 0.000010 1.980890 
# 
# From -- ./inp_files/316784.got.cif
#   From: 2010.05.17/outbox.cif.g08.bks.cpg/sg12_159_cif.got.tgz:316784.got - 2010.06.03 13:09:07.
