data_PCOD9208803
_publ_section_title
;
Structure prediction by ZEFSAII (Michael W. Deem and Ramdas Pophale) SiO2 
 PCOD9208803
Probable space group: C 2/M
;
_chemical_formula_sum "Si O2"
_cell_formula_units_Z 60
_cell_length_a 9.107099
_cell_length_b 30.225007
_cell_length_c 9.663116
_cell_angle_alpha 90.000000
_cell_angle_beta 101.809765
_cell_angle_gamma 90.000000
_cell_volume 2603.586741
_symmetry_space_group_name_H-M "C 2/M"
_symmetry_group_IT_number 12
_symmetry_cell_setting 'monoclinic'
loop_
_space_group_symop_operation_xyz
x,y,z
-x,y,-z
-x,-y,-z
x,-y,z
1/2+x,1/2+y,z
1/2-x,1/2+y,-z
1/2-x,1/2-y,-z
1/2+x,1/2-y,z
loop_
_atom_site_type_symbol
_atom_site_label
_atom_site_fract_x
_atom_site_fract_y
_atom_site_fract_z
Si Si1 0.299866 0.101553 0.227405
Si Si2 0.819136 0.211981 0.172045
Si Si3 0.671072 0.668183 0.526859
Si Si4 0.491805 0.435619 0.157960
Si Si5 0.330371 0.299563 0.769417
Si Si6 0.227491 0.376569 0.078027
Si Si7 0.795046 0.000000 0.317370
Si Si8 0.870746 0.411066 0.644347
O O1 0.160387 0.070811 0.241058
O O2 0.237068 0.151654 0.219326
O O3 0.450311 0.090792 0.337704
O O4 0.325395 0.096798 0.066368
O O5 0.803567 0.193603 0.325779
O O6 0.759558 0.261479 0.169182
O O7 0.721276 0.176251 0.068657
O O8 0.993730 0.207907 0.165717
O O9 0.500000 0.650887 0.500000
O O10 0.684355 0.701406 0.400900
O O11 0.780817 0.626157 0.540907
O O12 0.403614 0.389081 0.128676
O O13 0.393020 0.462809 0.246185
O O14 0.500000 0.452043 0.000000
O O15 0.149737 0.393553 0.200966
O O16 0.699911 0.040219 0.374159
#
# Coordination Sequence:
#
# PCOD9208803 Si02
#       8
#     8   8   8   8   8   8   4   8
#     4  11  22  37  61  90 127 167 199 245 314 366
#     4  10  21  38  59  91 121 158 213 256 293 349
#     4   9  21  42  65  84 120 162 206 253 312 369
#     4   9  18  36  60  87 119 163 203 242 300 376
#     4  11  23  37  62  92 121 163 211 256 296 350
#     4   9  19  39  59  83 128 170 199 236 303 376
#     4  10  21  38  66  89 117 156 208 259 309 371
#     4  10  22  40  63  92 121 156 205 259 312 365
#
# _framework density 23.045131000000001
#
# number of rings (size 3 to 8) (size 9 to 14) (size 15 to 20)
#    0.000    2.133    1.333    1.000    5.600    1.600 
#    0.000    9.000    0.000    0.800    0.000    0.000 
#    0.000    0.000    0.000    0.000    0.000    0.000 
#
# Total GULP energy -167039.155173 kJ/mol
# GULP energy per Si atom -5567.971839 kJ/mol
# Density = 2.299268 g / cm^3
# Si number density = 23.045131 Si / 1000 Ang^3
#
#
#
# Elastic Constant Matrix: (Units=GPa)
#
#
# Indices 1 2 3 4 5 6 
#
# 1 107.1056 44.9695 8.1156 0.0000 10.0226 0.0000
# 2 44.9695 137.6745 -6.3773 0.0000 5.6239 0.0000
# 3 8.1156 -6.3773 42.4632 0.0000 -7.8871 0.0000
# 4 0.0000 0.0000 0.0000 -9.0509 0.0000 -17.1361
# 5 10.0226 5.6239 -7.8871 0.0000 27.7386 0.0000
# 6 0.0000 0.0000 0.0000 -17.1361 0.0000 31.5219
#
#
#
# Elastic Compliance Matrix: (Units=1/GPa)
#
#
# Indices 1 2 3 4 5 6 
#
# 1 0.011614 -0.003779 -0.003615 0.000000 -0.004458 0.000000
# 2 -0.003779 0.008584 0.002050 0.000000 0.000208 0.000000
# 3 -0.003615 0.002050 0.026092 0.000000 0.008310 0.000000
# 4 0.000000 0.000000 0.000000 -0.054447 0.000000 -0.029599
# 5 -0.004458 0.000208 0.008310 0.000000 0.039982 0.000000
# 6 0.000000 0.000000 0.000000 -0.029599 0.000000 0.015633
#
#
# Mechanical properties :
#
#
# Convention : Reuss Voigt Hill
#
# Bulk Modulus (GPa) = 28.08815 42.29543 35.19179
# Shear Modulus (GPa) = 71.41241 26.07759 48.74500
#
# Velocity S-wave (km/s) = 5.57273 3.36756 4.60412
# Velocity P-wave (km/s) = 7.32270 5.78911 6.60059
#
# Compressibility (1/GPa) = 0.03560220
#
# Stress axis : x y z
#
# Youngs Moduli (GPa) = 86.10005 116.49106 38.32576
#
# Poissons Ratio (x) = 0.44022 0.13856
# Poissons Ratio (y) = 0.32537 -0.07857
# Poissons Ratio (z) = 0.31129 -0.23882
#
# Static dielectric constant tensor:
#      x y z
#    x 1.881950 0.000000 -0.033310 
#    y 0.000000 1.821290 0.000000 
#    z -0.033310 0.000000 1.948640 
# 
# From -- ./inp_files/125722.got.cif
#   From: 2010.05.17/outbox.cif.g08.bks.cpg/sg12_63_cif.got.tgz:125722.got - 2010.06.03 13:09:07.
