data_PCOD9208003
_publ_section_title
;
Structure prediction by ZEFSAII (Michael W. Deem and Ramdas Pophale) SiO2 
 PCOD9208003
Probable space group: C 2/M
;
_chemical_formula_sum "Si O2"
_cell_formula_units_Z 56
_cell_length_a 19.348991
_cell_length_b 8.926092
_cell_length_c 17.828821
_cell_angle_alpha 90.000000
_cell_angle_beta 117.562858
_cell_angle_gamma 90.000000
_cell_volume 2729.749975
_symmetry_space_group_name_H-M "C 2/M"
_symmetry_group_IT_number 12
_symmetry_cell_setting 'monoclinic'
loop_
_space_group_symop_operation_xyz
x,y,z
-x,y,-z
-x,-y,-z
x,-y,z
1/2+x,1/2+y,z
1/2-x,1/2+y,-z
1/2-x,1/2-y,-z
1/2+x,1/2-y,z
loop_
_atom_site_type_symbol
_atom_site_label
_atom_site_fract_x
_atom_site_fract_y
_atom_site_fract_z
Si Si1 0.597252 0.821017 0.203331
Si Si2 0.173593 0.325634 0.495301
Si Si3 0.871393 0.679866 0.250530
Si Si4 0.251648 0.674081 0.690824
Si Si5 0.989679 0.177835 0.584029
Si Si6 0.072966 0.822073 0.870320
Si Si7 0.593518 0.829873 0.034188
O O1 0.671379 0.769174 0.288006
O O2 0.515334 0.743322 0.180859
O O3 0.620972 0.777490 0.129563
O O4 0.586245 0.000000 0.200127
O O5 0.167524 0.500000 0.470775
O O6 0.250000 0.250000 0.500000
O O7 0.189304 0.317818 0.592491
O O8 0.095189 0.238476 0.436485
O O9 0.874174 0.500000 0.247165
O O10 0.794259 0.723295 0.257978
O O11 0.877427 0.751841 0.171891
O O12 0.944837 0.738349 0.335370
O O13 0.275267 0.500000 0.710006
O O14 0.000000 0.205050 0.500000
O O15 0.995526 0.000000 0.600029
O O16 0.070317 0.000000 0.863715
O O17 0.105585 0.771055 0.967691
O O18 0.620688 0.000000 0.033496
O O19 0.500000 0.836669 0.000000
#
# Coordination Sequence:
#
# PCOD9208003 Si02
#       7
#     8   8   8   8   8   8   8
#     4  10  21  37  61  88 118 156 194 237 291 348
#     4  11  24  42  62  87 119 155 197 244 294 346
#     4  11  23  41  62  84 116 157 197 240 291 344
#     4  10  23  41  60  84 117 154 195 242 291 347
#     4  11  23  40  63  89 117 152 195 241 290 347
#     4  11  22  36  59  90 120 151 194 243 288 343
#     4   8  16  34  57  84 116 151 193 237 286 344
#
# _framework density 20.514700999999999
#
# number of rings (size 3 to 8) (size 9 to 14) (size 15 to 20)
#    0.000    1.714    1.429    3.857    2.000    6.000 
#    0.000    0.714    0.000    0.000    0.000    0.000 
#    0.000    0.000    0.000    0.000    0.000    0.000 
#
# Total GULP energy -156469.460671 kJ/mol
# GULP energy per Si atom -5588.195024 kJ/mol
# Density = 2.046801 g / cm^3
# Si number density = 20.514701 Si / 1000 Ang^3
#
#
#
# Elastic Constant Matrix: (Units=GPa)
#
#
# Indices 1 2 3 4 5 6 
#
# 1 74.7393 23.9210 -4.9435 0.0000 -13.5683 0.0000
# 2 23.9210 63.0960 5.9785 0.0000 -17.3761 0.0000
# 3 -4.9435 5.9785 20.5460 0.0000 -8.6145 0.0000
# 4 0.0000 0.0000 0.0000 26.8670 0.0000 -2.3837
# 5 -13.5683 -17.3761 -8.6145 0.0000 36.8311 0.0000
# 6 0.0000 0.0000 0.0000 -2.3837 0.0000 26.5019
#
#
#
# Elastic Compliance Matrix: (Units=1/GPa)
#
#
# Indices 1 2 3 4 5 6 
#
# 1 0.016660 -0.005591 0.007875 0.000000 0.005341 0.000000
# 2 -0.005591 0.020158 -0.004532 0.000000 0.006390 0.000000
# 3 0.007875 -0.004532 0.057881 0.000000 0.014301 0.000000
# 4 0.000000 0.000000 0.000000 0.037520 0.000000 0.003375
# 5 0.005341 0.006390 0.014301 0.000000 0.035478 0.000000
# 6 0.000000 0.000000 0.000000 0.003375 0.000000 0.038037
#
#
# Mechanical properties :
#
#
# Convention : Reuss Voigt Hill
#
# Bulk Modulus (GPa) = 11.08615 23.14370 17.11492
# Shear Modulus (GPa) = 20.80762 26.93503 23.87132
#
# Velocity S-wave (km/s) = 3.18823 3.62741 3.41489
# Velocity P-wave (km/s) = 4.35532 5.37124 4.88973
#
# Compressibility (1/GPa) = 0.09020268
#
# Stress axis : x y z
#
# Youngs Moduli (GPa) = 60.02416 49.60840 17.27695
#
# Poissons Ratio (x) = 0.27738 -0.13606
# Poissons Ratio (y) = 0.33561 0.07829
# Poissons Ratio (z) = -0.47269 0.22480
#
# Static dielectric constant tensor:
#      x y z
#    x 1.698500 0.000000 -0.026980 
#    y 0.000000 1.690480 0.000000 
#    z -0.026980 0.000000 1.781880 
# 
# From -- ./inp_files/275531.got.cif
#   From: 2010.05.17/outbox.cif.g08.bks.cpg/sg12_138_cif.got.tgz:275531.got - 2010.06.03 13:09:07.
