data_PCOD9208356
_publ_section_title
;
Structure prediction by ZEFSAII (Michael W. Deem and Ramdas Pophale) SiO2 
 PCOD9208356
Probable space group: C 2/M
;
_chemical_formula_sum "Si O2"
_cell_formula_units_Z 40
_cell_length_a 20.338121
_cell_length_b 7.360129
_cell_length_c 13.988043
_cell_angle_alpha 90.000000
_cell_angle_beta 135.603810
_cell_angle_gamma 90.000000
_cell_volume 1464.916391
_symmetry_space_group_name_H-M "C 2/M"
_symmetry_group_IT_number 12
_symmetry_cell_setting 'monoclinic'
loop_
_space_group_symop_operation_xyz
x,y,z
-x,y,-z
-x,-y,-z
x,-y,z
1/2+x,1/2+y,z
1/2-x,1/2+y,-z
1/2-x,1/2-y,-z
1/2+x,1/2-y,z
loop_
_atom_site_type_symbol
_atom_site_label
_atom_site_fract_x
_atom_site_fract_y
_atom_site_fract_z
Si Si1 0.469937 0.221740 0.824932
Si Si2 0.195204 0.292089 0.227959
Si Si3 0.884235 0.292399 0.335777
Si Si4 0.365361 0.779703 0.521132
Si Si5 0.359711 0.217659 0.106749
O O1 0.404859 0.284777 0.844535
O O2 0.416608 0.273003 0.670831
O O3 0.577002 0.279989 0.916562
O O4 0.467661 0.000000 0.830733
O O5 0.183599 0.500000 0.183846
O O6 0.269823 0.204951 0.233601
O O7 0.259373 0.289398 0.392390
O O8 0.915080 0.500000 0.360380
O O9 0.914702 0.220699 0.471580
O O10 0.899172 0.207694 0.248336
O O11 0.362697 0.000000 0.516316
O O12 0.372043 0.000000 0.120655
O O13 0.250000 0.250000 0.000000
#
# Coordination Sequence:
#
# PCOD9208356 Si02
#       5
#     8   8   8   8   8
#     4   9  17  30  52  77  99 128 165 198 237 291
#     4   9  16  28  49  78 105 127 155 195 242 291
#     4   8  17  32  51  72  99 131 160 193 243 296
#     4   8  15  29  50  76 103 129 156 192 242 294
#     4  10  21  38  54  70  94 128 171 210 242 283
#
# _framework density 27.305311
#
# number of rings (size 3 to 8) (size 9 to 14) (size 15 to 20)
#    1.200    2.000    0.000    0.600    0.000    1.600 
#    0.000    8.000    0.000    7.200    0.000    0.000 
#    0.000    0.000    0.000    0.000    0.000    0.000 
#
# Total GULP energy -111595.601175 kJ/mol
# GULP energy per Si atom -5579.780059 kJ/mol
# Density = 2.724316 g / cm^3
# Si number density = 27.305311 Si / 1000 Ang^3
#
#
#
# Elastic Constant Matrix: (Units=GPa)
#
#
# Indices 1 2 3 4 5 6 
#
# 1 183.8190 8.6350 50.9892 0.0000 17.3900 0.0000
# 2 8.6350 107.2562 -6.4787 0.0000 1.6949 0.0000
# 3 50.9892 -6.4787 116.9155 0.0000 16.9772 0.0000
# 4 0.0000 0.0000 0.0000 9.9128 0.0000 5.7973
# 5 17.3900 1.6949 16.9772 0.0000 49.9624 0.0000
# 6 0.0000 0.0000 0.0000 5.7973 0.0000 1.4616
#
#
#
# Elastic Compliance Matrix: (Units=1/GPa)
#
#
# Indices 1 2 3 4 5 6 
#
# 1 0.006314 -0.000645 -0.002602 0.000000 -0.001292 0.000000
# 2 -0.000645 0.009434 0.000860 0.000000 -0.000388 0.000000
# 3 -0.002602 0.000860 0.010107 0.000000 -0.002558 0.000000
# 4 0.000000 0.000000 0.000000 -0.076446 0.000000 0.303210
# 5 -0.001292 -0.000388 -0.002558 0.000000 0.021347 0.000000
# 6 0.000000 0.000000 0.000000 0.303210 0.000000 -0.518457
#
#
# Mechanical properties :
#
#
# Convention : Reuss Voigt Hill
#
# Bulk Modulus (GPa) = 47.43484 57.14240 52.28862
# Shear Modulus (GPa) = -9.33009 35.92370 13.29681
#
# Velocity S-wave (km/s) = -1.85051 3.63110 2.20913
# Velocity P-wave (km/s) = 3.58384 6.20906 5.06934
#
# Compressibility (1/GPa) = 0.02108155
#
# Stress axis : x y z
#
# Youngs Moduli (GPa) = 158.36792 106.00516 98.94048
#
# Poissons Ratio (x) = 0.06839 0.25744
# Poissons Ratio (y) = 0.10217 -0.08513
# Poissons Ratio (z) = 0.41208 -0.09121
#
# Static dielectric constant tensor:
#      x y z
#    x 2.176170 0.000000 0.020200 
#    y 0.000000 1.635390 0.000000 
#    z 0.020200 0.000000 2.274650 
# 
# From -- ./inp_files/276762.got.cif
#   From: 2010.05.17/outbox.cif.g08.bks.cpg/sg12_139_cif.got.tgz:276762.got - 2010.06.03 13:09:07.
