data_PCOD9208858
_publ_section_title
;
Structure prediction by ZEFSAII (Michael W. Deem and Ramdas Pophale) SiO2 
 PCOD9208858
Probable space group: C 2/M
;
_chemical_formula_sum "Si O2"
_cell_formula_units_Z 56
_cell_length_a 16.259488
_cell_length_b 8.913167
_cell_length_c 23.693187
_cell_angle_alpha 90.000000
_cell_angle_beta 59.167464
_cell_angle_gamma 90.000000
_cell_volume 2948.412003
_symmetry_space_group_name_H-M "C 2/M"
_symmetry_group_IT_number 12
_symmetry_cell_setting 'monoclinic'
loop_
_space_group_symop_operation_xyz
x,y,z
-x,y,-z
-x,-y,-z
x,-y,z
1/2+x,1/2+y,z
1/2-x,1/2+y,-z
1/2-x,1/2-y,-z
1/2+x,1/2-y,z
loop_
_atom_site_type_symbol
_atom_site_label
_atom_site_fract_x
_atom_site_fract_y
_atom_site_fract_z
Si Si1 0.274559 0.668084 0.433361
Si Si2 0.465552 0.681091 0.837246
Si Si3 0.732173 0.321990 0.155583
Si Si4 0.416959 0.170313 0.570434
Si Si5 0.104908 0.176233 0.304898
Si Si6 0.067503 0.676348 0.698631
Si Si7 0.942122 0.818898 0.076111
O O1 0.312815 0.500000 0.430756
O O2 0.250000 0.750000 0.500000
O O3 0.176132 0.656762 0.434623
O O4 0.345819 0.756909 0.367684
O O5 0.466508 0.500000 0.833388
O O6 0.358813 0.727162 0.852102
O O7 0.544374 0.745037 0.766217
O O8 0.498336 0.726126 0.888556
O O9 0.744143 0.500000 0.141813
O O10 0.697360 0.301090 0.232726
O O11 0.833812 0.242681 0.111956
O O12 0.500000 0.228744 0.500000
O O13 0.391193 0.274540 0.632009
O O14 0.444985 0.000000 0.579527
O O15 0.024727 0.281278 0.305939
O O16 0.079229 0.000000 0.308500
O O17 0.078613 0.500000 0.702567
O O18 0.936881 0.000000 0.078703
O O19 0.000000 0.772121 0.000000
#
# Coordination Sequence:
#
# PCOD9208858 Si02
#       7
#     8   8   8   8   8   8   8
#     4  11  23  38  57  83 116 153 193 242 297 349
#     4   9  20  40  61  85 121 161 199 247 307 364
#     4   9  20  38  59  86 120 157 198 247 302 362
#     4  10  22  38  56  81 113 149 192 240 290 349
#     4  10  21  38  60  85 115 149 190 243 301 355
#     4  11  22  37  59  85 114 150 197 245 292 354
#     4  10  22  39  61  90 123 159 201 249 303 366
#
# _framework density 18.993275000000001
#
# number of rings (size 3 to 8) (size 9 to 14) (size 15 to 20)
#    0.000    2.000    0.000    3.857    2.000    6.857 
#    0.000    0.000    0.000    0.000    0.000    0.000 
#    0.000    0.000    0.000    0.000    0.000    0.000 
#
# Total GULP energy -156195.975345 kJ/mol
# GULP energy per Si atom -5578.427691 kJ/mol
# Density = 1.895005 g / cm^3
# Si number density = 18.993275 Si / 1000 Ang^3
#
#
#
# Elastic Constant Matrix: (Units=GPa)
#
#
# Indices 1 2 3 4 5 6 
#
# 1 80.6516 27.7483 84.2700 0.0000 0.1254 0.0000
# 2 27.7483 48.2925 47.4753 0.0000 1.2333 0.0000
# 3 84.2700 47.4753 171.4989 0.0000 2.8583 0.0000
# 4 0.0000 0.0000 0.0000 33.6189 0.0000 -1.5743
# 5 0.1254 1.2333 2.8583 0.0000 38.6498 0.0000
# 6 0.0000 0.0000 0.0000 -1.5743 0.0000 29.4903
#
#
#
# Elastic Compliance Matrix: (Units=1/GPa)
#
#
# Indices 1 2 3 4 5 6 
#
# 1 0.025879 -0.003266 -0.011827 0.000000 0.000895 0.000000
# 2 -0.003266 0.028866 -0.006379 0.000000 -0.000439 0.000000
# 3 -0.011827 -0.006379 0.013421 0.000000 -0.000751 0.000000
# 4 0.000000 0.000000 0.000000 0.029820 0.000000 0.001592
# 5 0.000895 -0.000439 -0.000751 0.000000 0.025940 0.000000
# 6 0.000000 0.000000 0.000000 0.001592 0.000000 0.033994
#
#
# Mechanical properties :
#
#
# Convention : Reuss Voigt Hill
#
# Bulk Modulus (GPa) = 39.64749 68.82560 54.23655
# Shear Modulus (GPa) = 23.89259 29.74841 26.82050
#
# Velocity S-wave (km/s) = 3.55061 3.96189 3.76188
# Velocity P-wave (km/s) = 6.14238 7.56600 6.89105
#
# Compressibility (1/GPa) = 0.02522228
#
# Stress axis : x y z
#
# Youngs Moduli (GPa) = 38.64155 34.64334 74.51116
#
# Poissons Ratio (x) = 0.11313 0.88125
# Poissons Ratio (y) = 0.12619 0.47529
# Poissons Ratio (z) = 0.45702 0.22098
#
# Static dielectric constant tensor:
#      x y z
#    x 1.640760 0.000000 0.009470 
#    y 0.000000 1.673790 0.000000 
#    z 0.009470 0.000000 1.737680 
# 
# From -- ./inp_files/338447.got.cif
#   From: 2010.05.17/outbox.cif.g08.bks.cpg/sg12_170_cif.got.tgz:338447.got - 2010.06.03 13:09:07.
