data_PCOD9208340
_publ_section_title
;
Structure prediction by ZEFSAII (Michael W. Deem and Ramdas Pophale) SiO2 
 PCOD9208340
Probable space group: C 2/M
;
_chemical_formula_sum "Si O2"
_cell_formula_units_Z 32
_cell_length_a 16.207547
_cell_length_b 18.236513
_cell_length_c 11.144964
_cell_angle_alpha 90.000000
_cell_angle_beta 156.492668
_cell_angle_gamma 90.000000
_cell_volume 1313.908841
_symmetry_space_group_name_H-M "C 2/M"
_symmetry_group_IT_number 12
_symmetry_cell_setting 'monoclinic'
loop_
_space_group_symop_operation_xyz
x,y,z
-x,y,-z
-x,-y,-z
x,-y,z
1/2+x,1/2+y,z
1/2-x,1/2+y,-z
1/2-x,1/2-y,-z
1/2+x,1/2-y,z
loop_
_atom_site_type_symbol
_atom_site_label
_atom_site_fract_x
_atom_site_fract_y
_atom_site_fract_z
Si Si1 0.250764 0.917665 0.164954
Si Si2 0.429017 0.275576 0.148766
Si Si3 0.330094 0.152589 0.676020
Si Si4 0.826959 0.000000 0.166773
Si Si5 0.900976 0.500000 0.734711
O O1 0.500000 0.910434 0.500000
O O2 0.208549 0.000000 0.165295
O O3 0.155640 0.836535 0.061206
O O4 0.172990 0.931786 0.924266
O O5 0.546744 0.206382 0.247574
O O6 0.630552 0.314299 0.473441
O O7 0.250000 0.250000 0.000000
O O8 0.275097 0.074248 0.545084
O O9 0.500000 0.137654 0.000000
O O10 0.000000 0.000000 0.500000
O O11 0.601147 0.000000 0.920553
O O12 0.000000 0.500000 0.000000
#
# Coordination Sequence:
#
# PCOD9208340 Si02
#       5
#     8   8   8   4   4
#     4   9  22  41  67 101 134 176 229 277 344 417
#     4  11  24  43  69  95 135 183 228 283 349 421
#     4  10  25  42  64 102 133 173 233 287 348 409
#     4  10  21  37  69 104 130 180 240 281 340 414
#     4  10  22  41  63  94 141 167 218 300 341 399
#
# _framework density 24.354808999999999
#
# number of rings (size 3 to 8) (size 9 to 14) (size 15 to 20)
#    0.750    1.250    0.000    1.500   12.250    0.000 
#    0.000    0.000    0.000    2.250    0.000    0.000 
#    0.000    0.000    0.000    0.000    0.000    0.000 
#
# Total GULP energy -89100.346216 kJ/mol
# GULP energy per Si atom -5568.771639 kJ/mol
# Density = 2.429938 g / cm^3
# Si number density = 24.354809 Si / 1000 Ang^3
#
#
#
# Elastic Constant Matrix: (Units=GPa)
#
#
# Indices 1 2 3 4 5 6 
#
# 1 65.0106 31.7884 28.7633 0.0000 37.2274 0.0000
# 2 31.7884 185.9701 57.0612 0.0000 25.7319 0.0000
# 3 28.7633 57.0612 128.8397 0.0000 19.0041 0.0000
# 4 0.0000 0.0000 0.0000 26.3393 0.0000 11.0289
# 5 37.2274 25.7319 19.0041 0.0000 49.5063 0.0000
# 6 0.0000 0.0000 0.0000 11.0289 0.0000 22.4605
#
#
#
# Elastic Compliance Matrix: (Units=1/GPa)
#
#
# Indices 1 2 3 4 5 6 
#
# 1 0.028578 -0.001263 -0.002912 0.000000 -0.019715 0.000000
# 2 -0.001263 0.006538 -0.002387 0.000000 -0.001532 0.000000
# 3 -0.002912 -0.002387 0.009501 0.000000 -0.000216 0.000000
# 4 0.000000 0.000000 0.000000 0.047793 0.000000 -0.023468
# 5 -0.019715 -0.001532 -0.000216 0.000000 0.035904 0.000000
# 6 0.000000 0.000000 0.000000 -0.023468 0.000000 0.056046
#
#
# Mechanical properties :
#
#
# Convention : Reuss Voigt Hill
#
# Bulk Modulus (GPa) = 31.75590 68.33848 50.04719
# Shear Modulus (GPa) = 24.04042 37.14170 30.59106
#
# Velocity S-wave (km/s) = 3.14521 3.90939 3.54794
# Velocity P-wave (km/s) = 5.12415 6.96407 6.11372
#
# Compressibility (1/GPa) = 0.03149021
#
# Stress axis : x y z
#
# Youngs Moduli (GPa) = 34.99171 152.96082 105.25161
#
# Poissons Ratio (x) = 0.19325 0.30654
# Poissons Ratio (y) = 0.04421 0.25128
# Poissons Ratio (z) = 0.10191 0.36519
#
# Static dielectric constant tensor:
#      x y z
#    x 2.069850 0.000000 -0.007950 
#    y 0.000000 2.425310 0.000000 
#    z -0.007950 0.000000 1.916570 
# 
# From -- ./inp_files/233835.got.cif
#   From: 2010.05.17/outbox.cif.g08.bks.cpg/sg12_117_cif.got.tgz:233835.got - 2010.06.03 13:09:07.
