data_PCOD9208804
_publ_section_title
;
Structure prediction by ZEFSAII (Michael W. Deem and Ramdas Pophale) SiO2 
 PCOD9208804
Probable space group: C 2/M
;
_chemical_formula_sum "Si O2"
_cell_formula_units_Z 56
_cell_length_a 31.079739
_cell_length_b 12.724545
_cell_length_c 15.925143
_cell_angle_alpha 90.000000
_cell_angle_beta 26.999338
_cell_angle_gamma 90.000000
_cell_volume 2859.169368
_symmetry_space_group_name_H-M "C 2/M"
_symmetry_group_IT_number 12
_symmetry_cell_setting 'monoclinic'
loop_
_space_group_symop_operation_xyz
x,y,z
-x,y,-z
-x,-y,-z
x,-y,z
1/2+x,1/2+y,z
1/2-x,1/2+y,-z
1/2-x,1/2-y,-z
1/2+x,1/2-y,z
loop_
_atom_site_type_symbol
_atom_site_label
_atom_site_fract_x
_atom_site_fract_y
_atom_site_fract_z
Si Si1 0.971512 0.613966 0.453439
Si Si2 0.809578 0.775772 0.768138
Si Si3 0.349753 0.377131 0.873203
Si Si4 0.646006 0.126136 0.547808
Si Si5 0.390124 0.125547 0.197740
Si Si6 0.798459 0.264328 0.200691
Si Si7 0.035053 0.255819 0.215155
O O1 0.934289 0.500000 0.493572
O O2 0.894615 0.704582 0.586590
O O3 0.000000 0.608536 0.500000
O O4 0.056302 0.648510 0.244506
O O5 0.846293 0.847646 0.780416
O O6 0.762336 0.823374 0.766416
O O7 0.732440 0.694388 0.941501
O O8 0.331643 0.500000 0.915802
O O9 0.445913 0.342256 0.755043
O O10 0.650174 0.149724 0.639901
O O11 0.738788 0.164256 0.336583
O O12 0.560533 0.198056 0.660028
O O13 0.629525 0.000000 0.569670
O O14 0.327268 0.171211 0.232337
O O15 0.392176 0.000000 0.184917
O O16 0.500000 0.162262 0.000000
O O17 0.894210 0.237853 0.984423
#
# Coordination Sequence:
#
# PCOD9208804 Si02
#       7
#     8   8   8   8   8   8   8
#     4  11  21  36  61  90 126 166 213 269 314 368
#     4  10  21  38  59  91 122 166 222 260 310 389
#     4  10  22  40  58  84 130 174 208 263 325 376
#     4  11  23  42  70  96 127 172 215 261 324 390
#     4  10  21  40  66  97 129 165 207 261 330 388
#     4  11  23  38  65  96 131 161 212 274 319 376
#     4  11  22  38  61  95 128 166 218 265 311 384
#
# _framework density 19.586106999999998
#
# number of rings (size 3 to 8) (size 9 to 14) (size 15 to 20)
#    0.000    1.429    4.286    1.286    0.000    3.429 
#    0.000    4.286    0.000    1.286    0.000    0.000 
#    0.000    0.000    0.000    0.000    0.000    0.000 
#
# Total GULP energy -155908.054026 kJ/mol
# GULP energy per Si atom -5568.144787 kJ/mol
# Density = 1.954153 g / cm^3
# Si number density = 19.586107 Si / 1000 Ang^3
#
#
#
# Elastic Constant Matrix: (Units=GPa)
#
#
# Indices 1 2 3 4 5 6 
#
# 1 176.3928 49.5133 40.0866 0.0000 27.6964 0.0000
# 2 49.5133 60.0086 30.9045 0.0000 -2.1137 0.0000
# 3 40.0866 30.9045 97.9735 0.0000 11.3067 0.0000
# 4 0.0000 0.0000 0.0000 23.5557 0.0000 9.7773
# 5 27.6964 -2.1137 11.3067 0.0000 33.8059 0.0000
# 6 0.0000 0.0000 0.0000 9.7773 0.0000 42.4900
#
#
#
# Elastic Compliance Matrix: (Units=1/GPa)
#
#
# Indices 1 2 3 4 5 6 
#
# 1 0.009119 -0.007570 -0.000443 0.000000 -0.007796 0.000000
# 2 -0.007570 0.026582 -0.006444 0.000000 0.010019 0.000000
# 3 -0.000443 -0.006444 0.012924 0.000000 -0.004362 0.000000
# 4 0.000000 0.000000 0.000000 0.046935 0.000000 -0.010800
# 5 -0.007796 0.010019 -0.004362 0.000000 0.038053 0.000000
# 6 0.000000 0.000000 0.000000 -0.010800 0.000000 0.026020
#
#
# Mechanical properties :
#
#
# Convention : Reuss Voigt Hill
#
# Bulk Modulus (GPa) = 50.73509 63.93152 57.33331
# Shear Modulus (GPa) = 25.62530 34.22836 29.92683
#
# Velocity S-wave (km/s) = 3.62102 4.18495 3.91316
# Velocity P-wave (km/s) = 6.59107 7.48758 7.05358
#
# Compressibility (1/GPa) = 0.01971022
#
# Stress axis : x y z
#
# Youngs Moduli (GPa) = 109.66071 37.61929 77.37350
#
# Poissons Ratio (x) = 0.28479 0.03431
# Poissons Ratio (y) = 0.83017 0.49858
# Poissons Ratio (z) = 0.04863 0.24241
#
# Static dielectric constant tensor:
#      x y z
#    x 1.751600 0.000000 -0.005940 
#    y 0.000000 1.662450 0.000000 
#    z -0.005940 0.000000 1.784060 
# 
# From -- ./inp_files/251002.got.cif
#   From: 2010.05.17/outbox.cif.g08.bks.cpg/sg12_126_cif.got.tgz:251002.got - 2010.06.03 13:09:07.
