data_PCOD9208684
_publ_section_title
;
Structure prediction by ZEFSAII (Michael W. Deem and Ramdas Pophale) SiO2 
 PCOD9208684
Probable space group: C 2/M
;
_chemical_formula_sum "Si O2"
_cell_formula_units_Z 56
_cell_length_a 18.169013
_cell_length_b 8.855213
_cell_length_c 19.123826
_cell_angle_alpha 90.000000
_cell_angle_beta 104.351752
_cell_angle_gamma 90.000000
_cell_volume 2980.820202
_symmetry_space_group_name_H-M "C 2/M"
_symmetry_group_IT_number 12
_symmetry_cell_setting 'monoclinic'
loop_
_space_group_symop_operation_xyz
x,y,z
-x,y,-z
-x,-y,-z
x,-y,z
1/2+x,1/2+y,z
1/2-x,1/2+y,-z
1/2-x,1/2-y,-z
1/2+x,1/2-y,z
loop_
_atom_site_type_symbol
_atom_site_label
_atom_site_fract_x
_atom_site_fract_y
_atom_site_fract_z
Si Si1 0.408815 0.673709 0.492506
Si Si2 0.808110 0.320398 0.069360
Si Si3 0.263719 0.679512 0.207544
Si Si4 0.531975 0.679404 0.930244
Si Si5 0.456260 0.682007 0.651046
Si Si6 0.620135 0.179005 0.656065
Si Si7 0.104315 0.180153 0.209341
O O1 0.500000 0.675326 0.500000
O O2 0.383351 0.500000 0.479042
O O3 0.403657 0.722629 0.572031
O O4 0.372543 0.773961 0.423577
O O5 0.799760 0.500000 0.068444
O O6 0.790208 0.253720 0.141304
O O7 0.892876 0.272894 0.067799
O O8 0.750000 0.250000 0.000000
O O9 0.270341 0.500000 0.204089
O O10 0.316994 0.740976 0.281946
O O11 0.177773 0.729260 0.202738
O O12 0.550317 0.500000 0.930638
O O13 0.466680 0.710688 0.858147
O O14 0.500000 0.709973 0.000000
O O15 0.468986 0.500000 0.649698
O O16 0.537299 0.762703 0.661538
O O17 0.419037 0.715546 0.716611
O O18 0.625081 0.000000 0.664928
O O19 0.120603 0.000000 0.208903
#
# Coordination Sequence:
#
# PCOD9208684 Si02
#       7
#     8   8   8   8   8   8   8
#     4   8  15  30  52  79 111 148 190 235 289 349
#     4  12  25  42  65  92 122 154 193 237 281 334
#     4  12  25  41  60  83 116 155 195 238 287 342
#     4  10  21  38  62  91 123 157 191 232 284 340
#     4   9  18  34  57  83 114 152 191 237 294 352
#     4  11  21  34  56  85 115 148 192 242 289 342
#     4  10  21  38  59  84 116 152 192 239 291 345
#
# _framework density 18.786776
#
# number of rings (size 3 to 8) (size 9 to 14) (size 15 to 20)
#    0.000    1.714    0.000    6.429    0.000    6.286 
#    0.000    0.714    0.000    0.000    0.000    0.000 
#    0.000    0.000    0.000    0.000    0.000    0.000 
#
# Total GULP energy -156483.952906 kJ/mol
# GULP energy per Si atom -5588.712604 kJ/mol
# Density = 1.874402 g / cm^3
# Si number density = 18.786776 Si / 1000 Ang^3
#
#
#
# Elastic Constant Matrix: (Units=GPa)
#
#
# Indices 1 2 3 4 5 6 
#
# 1 85.4824 76.3155 66.7351 0.0000 0.3975 0.0000
# 2 76.3155 133.3390 83.6048 0.0000 4.5845 0.0000
# 3 66.7351 83.6048 172.9885 0.0000 -6.6172 0.0000
# 4 0.0000 0.0000 0.0000 26.6580 0.0000 0.6387
# 5 0.3975 4.5845 -6.6172 0.0000 26.7650 0.0000
# 6 0.0000 0.0000 0.0000 0.6387 0.0000 32.1562
#
#
#
# Elastic Compliance Matrix: (Units=1/GPa)
#
#
# Indices 1 2 3 4 5 6 
#
# 1 0.025757 -0.012274 -0.003976 0.000000 0.000737 0.000000
# 2 -0.012274 0.016880 -0.003561 0.000000 -0.003589 0.000000
# 3 -0.003976 -0.003561 0.009148 0.000000 0.002931 0.000000
# 4 0.000000 0.000000 0.000000 0.037530 0.000000 -0.000745
# 5 0.000737 -0.003589 0.002931 0.000000 0.038691 0.000000
# 6 0.000000 0.000000 0.000000 -0.000745 0.000000 0.031113
#
#
# Mechanical properties :
#
#
# Convention : Reuss Voigt Hill
#
# Bulk Modulus (GPa) = 82.21404 93.90229 88.05816
# Shear Modulus (GPa) = 24.65554 28.12616 26.39085
#
# Velocity S-wave (km/s) = 3.62662 3.87347 3.75207
# Velocity P-wave (km/s) = 7.83538 8.37238 8.10832
#
# Compressibility (1/GPa) = 0.01216337
#
# Stress axis : x y z
#
# Youngs Moduli (GPa) = 38.82483 59.24019 109.31802
#
# Poissons Ratio (x) = 0.72710 0.43468
# Poissons Ratio (y) = 0.47653 0.38924
# Poissons Ratio (z) = 0.15438 0.21093
#
# Static dielectric constant tensor:
#      x y z
#    x 1.617710 0.000000 -0.010350 
#    y 0.000000 1.634270 0.000000 
#    z -0.010350 0.000000 1.653450 
# 
# From -- ./inp_files/275497.got.cif
#   From: 2010.05.17/outbox.cif.g08.bks.cpg/sg12_138_cif.got.tgz:275497.got - 2010.06.03 13:09:07.
