data_PCOD9208809
_publ_section_title
;
Structure prediction by ZEFSAII (Michael W. Deem and Ramdas Pophale) SiO2 
 PCOD9208809
Probable space group: C 2/M
;
_chemical_formula_sum "Si O2"
_cell_formula_units_Z 32
_cell_length_a 5.421716
_cell_length_b 25.697455
_cell_length_c 9.635936
_cell_angle_alpha 90.000000
_cell_angle_beta 111.046633
_cell_angle_gamma 90.000000
_cell_volume 1252.958461
_symmetry_space_group_name_H-M "C 2/M"
_symmetry_group_IT_number 12
_symmetry_cell_setting 'monoclinic'
loop_
_space_group_symop_operation_xyz
x,y,z
-x,y,-z
-x,-y,-z
x,-y,z
1/2+x,1/2+y,z
1/2-x,1/2+y,-z
1/2-x,1/2-y,-z
1/2+x,1/2-y,z
loop_
_atom_site_type_symbol
_atom_site_label
_atom_site_fract_x
_atom_site_fract_y
_atom_site_fract_z
Si Si1 0.342434 0.439886 0.665880
Si Si2 0.297638 0.332276 0.573392
Si Si3 0.114455 0.230733 0.827717
Si Si4 0.532373 0.939239 0.155445
O O1 0.279048 0.500000 0.614778
O O2 0.278588 0.394277 0.546994
O O3 0.657256 0.438080 0.750942
O O4 0.169901 0.423572 0.765636
O O5 0.500000 0.311474 0.500000
O O6 0.444716 0.320415 0.750776
O O7 0.000000 0.311620 0.500000
O O8 0.363608 0.230487 0.774951
O O9 0.250000 0.250000 0.000000
O O10 0.455920 0.000000 0.124149
O O11 0.500000 0.911845 0.000000
#
# Coordination Sequence:
#
# PCOD9208809 Si02
#       4
#     8   8   8   8
#     4  10  21  38  59  92 139 185 228 277 332 396
#     4  12  26  43  68 102 139 183 237 282 338 420
#     4  10  23  47  73 101 133 171 223 292 362 416
#     4   9  17  33  56  85 124 176 230 278 334 388
#
# _framework density 25.539555
#
# number of rings (size 3 to 8) (size 9 to 14) (size 15 to 20)
#    0.000    1.750    0.000    3.750    0.000    7.000 
#   13.500    0.000    0.000    0.000    0.000    0.000 
#    0.000    0.000    0.000    0.000    0.000    0.500 
#
# Total GULP energy -89069.660363 kJ/mol
# GULP energy per Si atom -5566.853773 kJ/mol
# Density = 2.548143 g / cm^3
# Si number density = 25.539555 Si / 1000 Ang^3
#
#
#
# Elastic Constant Matrix: (Units=GPa)
#
#
# Indices 1 2 3 4 5 6 
#
# 1 248.1557 27.0711 59.2972 0.0000 8.1986 0.0000
# 2 27.0711 87.0444 47.7454 0.0000 20.9279 0.0000
# 3 59.2972 47.7454 109.1480 0.0000 12.6102 0.0000
# 4 0.0000 0.0000 0.0000 23.8840 0.0000 1.3814
# 5 8.1986 20.9279 12.6102 0.0000 40.9158 0.0000
# 6 0.0000 0.0000 0.0000 1.3814 0.0000 21.9200
#
#
#
# Elastic Compliance Matrix: (Units=1/GPa)
#
#
# Indices 1 2 3 4 5 6 
#
# 1 0.004632 -0.000047 -0.002480 0.000000 -0.000140 0.000000
# 2 -0.000047 0.016629 -0.006498 0.000000 -0.006493 0.000000
# 3 -0.002480 -0.006498 0.013387 0.000000 -0.000305 0.000000
# 4 0.000000 0.000000 0.000000 0.042022 0.000000 -0.002648
# 5 -0.000140 -0.006493 -0.000305 0.000000 0.027884 0.000000
# 6 0.000000 0.000000 0.000000 -0.002648 0.000000 0.045787
#
#
# Mechanical properties :
#
#
# Convention : Reuss Voigt Hill
#
# Bulk Modulus (GPa) = 60.24943 79.17506 69.71225
# Shear Modulus (GPa) = 28.74830 38.02624 33.38727
#
# Velocity S-wave (km/s) = 3.35869 3.86283 3.61955
# Velocity P-wave (km/s) = 6.21956 7.13888 6.69502
#
# Compressibility (1/GPa) = 0.01659767
#
# Stress axis : x y z
#
# Youngs Moduli (GPa) = 215.88899 60.13755 74.69924
#
# Poissons Ratio (x) = 0.00281 0.18524
# Poissons Ratio (y) = 0.01007 0.48543
# Poissons Ratio (z) = 0.53537 0.39080
#
# Static dielectric constant tensor:
#      x y z
#    x 1.994400 0.000000 0.070890 
#    y 0.000000 2.090640 0.000000 
#    z 0.070890 0.000000 1.638330 
# 
# From -- ./inp_files/115350.got.cif
#   From: 2010.05.17/outbox.cif.g08.bks.cpg/sg12_58_cif.got.tgz:115350.got - 2010.06.03 13:09:07.
