data_PCOD9208815
_publ_section_title
;
Structure prediction by ZEFSAII (Michael W. Deem and Ramdas Pophale) SiO2 
 PCOD9208815
Probable space group: C 2/M
;
_chemical_formula_sum "Si O2"
_cell_formula_units_Z 50
_cell_length_a 9.394315
_cell_length_b 24.910555
_cell_length_c 9.734265
_cell_angle_alpha 90.000000
_cell_angle_beta 119.120044
_cell_angle_gamma 90.000000
_cell_volume 1990.056117
_symmetry_space_group_name_H-M "C 2/M"
_symmetry_group_IT_number 12
_symmetry_cell_setting 'monoclinic'
loop_
_space_group_symop_operation_xyz
x,y,z
-x,y,-z
-x,-y,-z
x,-y,z
1/2+x,1/2+y,z
1/2-x,1/2+y,-z
1/2-x,1/2-y,-z
1/2+x,1/2-y,z
loop_
_atom_site_type_symbol
_atom_site_label
_atom_site_fract_x
_atom_site_fract_y
_atom_site_fract_z
Si Si1 0.144767 0.092725 0.404647
Si Si2 0.171470 0.500000 0.003659
Si Si3 0.628402 0.680177 0.757272
Si Si4 0.132350 0.618143 0.938658
Si Si5 0.000000 0.000000 0.500000
Si Si6 0.982995 0.000000 0.831672
Si Si7 0.865369 0.332755 0.348442
Si Si8 0.408098 0.246481 0.812189
O O1 0.308129 0.121696 0.431466
O O2 0.007530 0.138908 0.356973
O O3 0.098169 0.054328 0.255043
O O4 0.132249 0.048539 0.518894
O O5 0.177614 0.556468 0.929746
O O6 0.342241 0.500000 0.168441
O O7 0.000000 0.500000 0.000000
O O8 0.545517 0.735336 0.770120
O O9 0.776207 0.699086 0.728238
O O10 0.715958 0.650655 0.926617
O O11 0.078547 0.644401 0.771566
O O12 0.000000 0.617361 0.000000
O O13 0.000000 0.000000 0.000000
O O14 0.703382 0.299430 0.238796
O O15 0.000000 0.301485 0.500000
O O16 0.500000 0.237123 0.000000
#
# Coordination Sequence:
#
# PCOD9208815 Si02
#       8
#     8   4   8   8   2   4   8   8
#     4  10  24  44  72 102 145 194 244 300 368 447
#     4  10  21  38  60 110 139 171 227 316 360 423
#     4  11  23  41  72 109 140 189 254 317 360 435
#     4  11  23  41  73 109 146 188 250 311 369 445
#     4  10  24  52  70 108 142 206 244 294 372 478
#     4  11  19  37  71 100 136 178 237 297 357 425
#     4  11  26  48  68 108 153 197 239 310 385 450
#     4  11  23  43  72 105 145 194 257 307 373 444
#
# _framework density 25.124918999999998
#
# number of rings (size 3 to 8) (size 9 to 14) (size 15 to 20)
#    0.000    1.280    3.200    1.920    2.240    1.920 
#    4.320    4.400    0.000    0.000    0.000    0.000 
#    0.000    0.000    0.000    0.000    0.000    0.000 
#
# Total GULP energy -139447.004192 kJ/mol
# GULP energy per Si atom -5577.880168 kJ/mol
# Density = 2.506773 g / cm^3
# Si number density = 25.124919 Si / 1000 Ang^3
#
#
#
# Elastic Constant Matrix: (Units=GPa)
#
#
# Indices 1 2 3 4 5 6 
#
# 1 135.1831 34.4464 35.1447 0.0000 -3.4009 0.0000
# 2 34.4464 135.2232 20.4122 0.0000 -4.5638 0.0000
# 3 35.1447 20.4122 93.1509 0.0000 -12.5810 0.0000
# 4 0.0000 0.0000 0.0000 57.8015 0.0000 97.0642
# 5 -3.4009 -4.5638 -12.5810 0.0000 34.0407 0.0000
# 6 0.0000 0.0000 0.0000 97.0642 0.0000 427.7374
#
#
#
# Elastic Compliance Matrix: (Units=1/GPa)
#
#
# Indices 1 2 3 4 5 6 
#
# 1 0.008594 -0.001764 -0.002917 0.000000 -0.000456 0.000000
# 2 -0.001764 0.008016 -0.001021 0.000000 0.000521 0.000000
# 3 -0.002917 -0.001021 0.012632 0.000000 0.004240 0.000000
# 4 0.000000 0.000000 0.000000 0.027952 0.000000 -0.006343
# 5 -0.000456 0.000521 0.004240 0.000000 0.030968 0.000000
# 6 0.000000 0.000000 0.000000 -0.006343 0.000000 0.003777
#
#
# Mechanical properties :
#
#
# Convention : Reuss Voigt Hill
#
# Bulk Modulus (GPa) = 56.05977 60.39598 58.22788
# Shear Modulus (GPa) = 45.74962 122.15287 83.95124
#
# Velocity S-wave (km/s) = 4.27181 6.98024 5.78672
# Velocity P-wave (km/s) = 6.83316 9.43692 8.23855
#
# Compressibility (1/GPa) = 0.01783810
#
# Stress axis : x y z
#
# Youngs Moduli (GPa) = 116.36166 124.74680 79.16203
#
# Poissons Ratio (x) = 0.22008 0.23095
# Poissons Ratio (y) = 0.20528 0.08079
# Poissons Ratio (z) = 0.33947 0.12732
#
# Static dielectric constant tensor:
#      x y z
#    x 2.041660 0.000000 -0.022460 
#    y 0.000000 1.971800 0.000000 
#    z -0.022460 0.000000 1.918320 
# 
# From -- ./inp_files/124444.got.cif
#   From: 2010.05.17/outbox.cif.g08.bks.cpg/sg12_63_cif.got.tgz:124444.got - 2010.06.03 13:09:07.
