data_PCOD9208759
_publ_section_title
;
Structure prediction by ZEFSAII (Michael W. Deem and Ramdas Pophale) SiO2 
 PCOD9208759
Probable space group: C 2/M
;
_chemical_formula_sum "Si O2"
_cell_formula_units_Z 56
_cell_length_a 27.752074
_cell_length_b 8.028233
_cell_length_c 18.044604
_cell_angle_alpha 90.000000
_cell_angle_beta 140.660403
_cell_angle_gamma 90.000000
_cell_volume 2548.555842
_symmetry_space_group_name_H-M "C 2/M"
_symmetry_group_IT_number 12
_symmetry_cell_setting 'monoclinic'
loop_
_space_group_symop_operation_xyz
x,y,z
-x,y,-z
-x,-y,-z
x,-y,z
1/2+x,1/2+y,z
1/2-x,1/2+y,-z
1/2-x,1/2-y,-z
1/2+x,1/2-y,z
loop_
_atom_site_type_symbol
_atom_site_label
_atom_site_fract_x
_atom_site_fract_y
_atom_site_fract_z
Si Si1 0.361468 0.692541 0.472273
Si Si2 0.923908 0.192069 0.093035
Si Si3 0.712740 0.799424 0.376518
Si Si4 0.611479 0.200232 0.659524
Si Si5 0.261518 0.300730 0.929138
Si Si6 0.453364 0.805191 0.873141
Si Si7 0.018637 0.691536 0.688328
O O1 0.369074 0.500000 0.504124
O O2 0.277226 0.749360 0.393442
O O3 0.378886 0.710970 0.406621
O O4 0.428588 0.793773 0.591250
O O5 0.941458 0.202081 0.201274
O O6 0.988217 0.288784 0.125266
O O7 0.926601 0.000000 0.071544
O O8 0.839168 0.264701 0.985168
O O9 0.750000 0.750000 0.500000
O O10 0.629008 0.735505 0.251836
O O11 0.706709 0.000000 0.371214
O O12 0.686957 0.241449 0.795189
O O13 0.543229 0.242794 0.634588
O O14 0.606793 0.000000 0.639717
O O15 0.269131 0.500000 0.937287
O O16 0.250000 0.250000 0.000000
O O17 0.439621 0.000000 0.874192
O O18 0.500000 0.734302 0.000000
O O19 0.043749 0.500000 0.726731
#
# Coordination Sequence:
#
# PCOD9208759 Si02
#       7
#     8   8   8   8   8   8   8
#     4  11  24  39  60  90 122 152 195 252 306 354
#     4  11  23  38  61  92 124 156 198 250 303 354
#     4  10  23  43  64  90 119 157 205 253 307 366
#     4  10  22  39  58  85 121 160 201 239 289 360
#     4  10  21  38  59  87 122 159 199 242 291 354
#     4  10  23  43  66  90 121 161 208 257 310 372
#     4  11  22  39  62  87 120 163 205 241 289 361
#
# _framework density 21.973229
#
# number of rings (size 3 to 8) (size 9 to 14) (size 15 to 20)
#    0.000    1.571    1.429    2.571    2.000    8.286 
#    0.000    0.000    0.000    0.000    0.000    0.000 
#    0.000    0.000    0.000    0.000    0.000    0.000 
#
# Total GULP energy -156370.191871 kJ/mol
# GULP energy per Si atom -5584.649710 kJ/mol
# Density = 2.192322 g / cm^3
# Si number density = 21.973229 Si / 1000 Ang^3
#
#
#
# Elastic Constant Matrix: (Units=GPa)
#
#
# Indices 1 2 3 4 5 6 
#
# 1 116.0349 4.9421 54.3474 0.0000 27.7668 0.0000
# 2 4.9421 17.3852 13.8228 0.0000 2.9898 0.0000
# 3 54.3474 13.8228 124.3149 0.0000 29.5880 0.0000
# 4 0.0000 0.0000 0.0000 18.8902 0.0000 -4.3900
# 5 27.7668 2.9898 29.5880 0.0000 45.8939 0.0000
# 6 0.0000 0.0000 0.0000 -4.3900 0.0000 25.0269
#
#
#
# Elastic Compliance Matrix: (Units=1/GPa)
#
#
# Indices 1 2 3 4 5 6 
#
# 1 0.011554 0.000719 -0.004083 0.000000 -0.004405 0.000000
# 2 0.000719 0.063153 -0.007387 0.000000 0.000213 0.000000
# 3 -0.004083 -0.007387 0.011751 0.000000 -0.004625 0.000000
# 4 0.000000 0.000000 0.000000 0.055187 0.000000 0.009680
# 5 -0.004405 0.000213 -0.004625 0.000000 0.027422 0.000000
# 6 0.000000 0.000000 0.000000 0.009680 0.000000 0.041655
#
#
# Mechanical properties :
#
#
# Convention : Reuss Voigt Hill
#
# Bulk Modulus (GPa) = 15.39503 44.88439 30.13971
# Shear Modulus (GPa) = 19.69474 30.27039 24.98257
#
# Velocity S-wave (km/s) = 2.99709 3.71563 3.37553
# Velocity P-wave (km/s) = 4.35869 6.23531 5.37946
#
# Compressibility (1/GPa) = 0.06495605
#
# Stress axis : x y z
#
# Youngs Moduli (GPa) = 86.55219 15.83467 85.09934
#
# Poissons Ratio (x) = -0.01139 0.34742
# Poissons Ratio (y) = -0.06224 0.62865
# Poissons Ratio (z) = 0.35335 0.11697
#
# Static dielectric constant tensor:
#      x y z
#    x 1.775350 0.000000 -0.000490 
#    y 0.000000 1.288160 0.000000 
#    z -0.000490 0.000000 1.804400 
# 
# From -- ./inp_files/292497.got.cif
#   From: 2010.05.17/outbox.cif.g08.bks.cpg/sg12_147_cif.got.tgz:292497.got - 2010.06.03 13:09:07.
