data_PCOD9208823
_publ_section_title
;
Structure prediction by ZEFSAII (Michael W. Deem and Ramdas Pophale) SiO2 
 PCOD9208823
Probable space group: C 2/M
;
_chemical_formula_sum "Si O2"
_cell_formula_units_Z 42
_cell_length_a 21.472590
_cell_length_b 25.797772
_cell_length_c 13.649962
_cell_angle_alpha 90.000000
_cell_angle_beta 162.499068
_cell_angle_gamma 90.000000
_cell_volume 2273.852467
_symmetry_space_group_name_H-M "C 2/M"
_symmetry_group_IT_number 12
_symmetry_cell_setting 'monoclinic'
loop_
_space_group_symop_operation_xyz
x,y,z
-x,y,-z
-x,-y,-z
x,-y,z
1/2+x,1/2+y,z
1/2-x,1/2+y,-z
1/2-x,1/2-y,-z
1/2+x,1/2-y,z
loop_
_atom_site_type_symbol
_atom_site_label
_atom_site_fract_x
_atom_site_fract_y
_atom_site_fract_z
Si Si1 0.804145 0.727025 0.272092
Si Si2 0.128321 0.667710 0.092628
Si Si3 0.592580 0.358070 0.823675
Si Si4 0.000000 0.000000 0.000000
Si Si5 0.521055 0.861368 0.725322
Si Si6 0.741985 0.442800 0.201015
O O1 0.684794 0.774216 0.141823
O O2 0.000000 0.745095 0.500000
O O3 0.900059 0.687074 0.494968
O O4 0.653959 0.693567 0.976897
O O5 0.350834 0.640903 0.440690
O O6 0.008423 0.640923 0.822833
O O7 0.000000 0.667616 0.000000
O O8 0.740360 0.357323 0.950695
O O9 0.661539 0.406126 0.994550
O O10 0.930172 0.044571 0.975554
O O11 0.424124 0.912113 0.529838
O O12 0.803571 0.500000 0.257857
#
# Coordination Sequence:
#
# PCOD9208823 Si02
#       6
#     8   8   8   2   8   8
#     4   9  19  38  59  79 108 151 195 231 271 326
#     4  12  25  34  51  84 121 152 183 229 286 334
#     4  10  21  38  60  83 110 149 192 234 272 324
#     4   8  20  36  62  90 116 144 162 234 296 332
#     4  10  21  38  60  83 110 149 192 234 272 324
#     4   9  20  38  65  85 109 141 184 222 284 337
#
# _framework density 18.470855
#
# number of rings (size 3 to 8) (size 9 to 14) (size 15 to 20)
#    0.571    1.524    0.000    4.571    2.667    7.619 
#    3.429    0.952    0.000    4.571    0.000    0.000 
#    0.000    0.000    0.000    0.000    0.000    0.000 
#
# Total GULP energy -116923.407710 kJ/mol
# GULP energy per Si atom -5567.781320 kJ/mol
# Density = 1.842881 g / cm^3
# Si number density = 18.470855 Si / 1000 Ang^3
#
#
#
# Elastic Constant Matrix: (Units=GPa)
#
#
# Indices 1 2 3 4 5 6 
#
# 1 77.4129 4.8392 -3.6367 -0.0003 -17.4059 0.0009
# 2 4.8392 90.6220 12.4337 -0.0001 -6.8717 0.0002
# 3 -3.6367 12.4337 47.7195 -0.0005 -15.0915 0.0018
# 4 -0.0003 -0.0001 -0.0005 -0.0575 -0.0003 14.6756
# 5 -17.4059 -6.8717 -15.0915 -0.0003 15.2116 0.0010
# 6 0.0009 0.0002 0.0018 14.6756 0.0010 7.1495
#
#
#
# Elastic Compliance Matrix: (Units=1/GPa)
#
#
# Indices 1 2 3 4 5 6 
#
# 1 0.022652 -0.000147 0.014486 -0.000007 0.040224 0.000002
# 2 -0.000147 0.011554 -0.002075 0.000000 0.002992 0.000000
# 3 0.014486 -0.002075 0.040140 -0.000011 0.055461 0.000003
# 4 -0.000007 0.000000 -0.000011 -0.033133 -0.000024 0.068011
# 5 0.040224 0.002992 0.055461 -0.000024 0.168141 0.000007
# 6 0.000002 0.000000 0.000003 0.068011 0.000007 0.000266
#
#
# Mechanical properties :
#
#
# Convention : Reuss Voigt Hill
#
# Bulk Modulus (GPa) = 10.11402 27.00298 18.55850
# Shear Modulus (GPa) = 22.93031 17.93527 20.43279
#
# Velocity S-wave (km/s) = 3.52722 3.11947 3.32959
# Velocity P-wave (km/s) = 4.69850 5.25602 4.98506
#
# Compressibility (1/GPa) = 0.09887263
#
# Stress axis : x y z
#
# Youngs Moduli (GPa) = 44.14706 86.54740 24.91262
#
# Poissons Ratio (x) = 0.01272 -0.36087
# Poissons Ratio (y) = 0.00649 0.05170
# Poissons Ratio (z) = -0.63949 0.17962
#
# Static dielectric constant tensor:
#      x y z
#    x 1.625440 0.000000 0.003570 
#    y 0.000000 1.637340 0.000000 
#    z 0.003570 0.000000 1.641330 
# 
# From -- ./inp_files/170646.got.cif
#   From: 2010.05.17/outbox.cif.g08.bks.cpg/sg12_86_cif.got.tgz:170646.got - 2010.06.03 13:09:07.
