data_PCOD9208284
_publ_section_title
;
Structure prediction by ZEFSAII (Michael W. Deem and Ramdas Pophale) SiO2 
 PCOD9208284
Probable space group: C 2/M
;
_chemical_formula_sum "Si O2"
_cell_formula_units_Z 44
_cell_length_a 14.574895
_cell_length_b 21.492243
_cell_length_c 6.245040
_cell_angle_alpha 90.000000
_cell_angle_beta 91.240855
_cell_angle_gamma 90.000000
_cell_volume 1955.782455
_symmetry_space_group_name_H-M "C 2/M"
_symmetry_group_IT_number 12
_symmetry_cell_setting 'monoclinic'
loop_
_space_group_symop_operation_xyz
x,y,z
-x,y,-z
-x,-y,-z
x,-y,z
1/2+x,1/2+y,z
1/2-x,1/2+y,-z
1/2-x,1/2-y,-z
1/2+x,1/2-y,z
loop_
_atom_site_type_symbol
_atom_site_label
_atom_site_fract_x
_atom_site_fract_y
_atom_site_fract_z
Si Si1 0.157169 0.236500 0.137085
Si Si2 0.408946 0.613122 0.099320
Si Si3 0.636006 0.132435 0.172231
Si Si4 0.540938 0.000000 0.254066
Si Si5 0.258044 0.932347 0.148489
Si Si6 0.687614 0.645702 0.517365
O O1 0.095231 0.298359 0.157543
O O2 0.179215 0.206465 0.369792
O O3 0.250000 0.250000 0.000000
O O4 0.108077 0.179567 0.015418
O O5 0.401173 0.628517 0.348232
O O6 0.500000 0.586366 0.000000
O O7 0.322527 0.570456 0.031226
O O8 0.726021 0.148172 0.318780
O O9 0.591452 0.068311 0.253088
O O10 0.666654 0.115400 0.932064
O O11 0.500000 0.000000 0.500000
O O12 0.500000 0.000000 0.000000
O O13 0.211391 0.910344 0.360547
O O14 0.299324 0.000000 0.168996
#
# Coordination Sequence:
#
# PCOD9208284 Si02
#       6
#     8   8   8   4   8   8
#     4  11  20  38  63 101 124 165 225 281 338 414
#     4  10  23  40  58  90 134 165 208 276 336 406
#     4  11  23  41  69  91 133 174 225 282 338 407
#     4  12  32  52  68 104 149 192 243 296 350 420
#     4  10  21  37  64  94 120 167 221 267 328 409
#     4  10  21  37  68  95 127 168 217 276 343 408
#
# _framework density 22.497389999999999
#
# number of rings (size 3 to 8) (size 9 to 14) (size 15 to 20)
#    0.000    1.455    6.364    0.545    3.818    4.727 
#    3.273    0.909    0.000    0.000    0.000    0.000 
#    0.000    0.000    0.000    0.000    0.000    0.000 
#
# Total GULP energy -122500.206050 kJ/mol
# GULP energy per Si atom -5568.191184 kJ/mol
# Density = 2.244619 g / cm^3
# Si number density = 22.497390 Si / 1000 Ang^3
#
#
#
# Elastic Constant Matrix: (Units=GPa)
#
#
# Indices 1 2 3 4 5 6 
#
# 1 27.0790 -0.6763 21.2262 0.0000 -5.7338 0.0000
# 2 -0.6763 156.5366 32.3585 0.0000 1.1619 0.0000
# 3 21.2262 32.3585 147.7493 0.0000 -18.7601 0.0000
# 4 0.0000 0.0000 0.0000 7.7096 0.0000 -3.1481
# 5 -5.7338 1.1619 -18.7601 0.0000 27.4495 0.0000
# 6 0.0000 0.0000 0.0000 -3.1481 0.0000 20.7280
#
#
#
# Elastic Compliance Matrix: (Units=1/GPa)
#
#
# Indices 1 2 3 4 5 6 
#
# 1 0.042529 0.001344 -0.005785 0.000000 0.004873 0.000000
# 2 0.001344 0.006784 -0.001839 0.000000 -0.001263 0.000000
# 3 -0.005785 -0.001839 0.008605 0.000000 0.004751 0.000000
# 4 0.000000 0.000000 0.000000 0.138285 0.000000 0.021002
# 5 0.004873 -0.001263 0.004751 0.000000 0.040749 0.000000
# 6 0.000000 0.000000 0.000000 0.021002 0.000000 0.051434
#
#
# Mechanical properties :
#
#
# Convention : Reuss Voigt Hill
#
# Bulk Modulus (GPa) = 22.04770 48.57573 35.31171
# Shear Modulus (GPa) = 15.81948 29.74119 22.78034
#
# Velocity S-wave (km/s) = 2.65461 3.63985 3.18555
# Velocity P-wave (km/s) = 4.38376 6.26924 5.40928
#
# Compressibility (1/GPa) = 0.04535620
#
# Stress axis : x y z
#
# Youngs Moduli (GPa) = 23.51324 147.41355 116.20671
#
# Poissons Ratio (x) = -0.19805 0.67230
# Poissons Ratio (y) = -0.03159 0.21372
# Poissons Ratio (z) = 0.13603 0.27111
#
# Static dielectric constant tensor:
#      x y z
#    x 1.929000 0.000000 0.021260 
#    y 0.000000 1.851250 0.000000 
#    z 0.021260 0.000000 1.884370 
# 
# From -- ./inp_files/16079.got.cif
#   From: 2010.05.17/outbox.cif.g08.bks.cpg/sg12_9_cif.got.tgz:16079.got - 2010.06.03 13:09:07.
