data_PCOD9208209
_publ_section_title
;
Structure prediction by ZEFSAII (Michael W. Deem and Ramdas Pophale) SiO2 
 PCOD9208209
Probable space group: C 2/M
;
_chemical_formula_sum "Si O2"
_cell_formula_units_Z 52
_cell_length_a 12.620475
_cell_length_b 15.187356
_cell_length_c 14.631633
_cell_angle_alpha 90.000000
_cell_angle_beta 128.683535
_cell_angle_gamma 90.000000
_cell_volume 2189.196836
_symmetry_space_group_name_H-M "C 2/M"
_symmetry_group_IT_number 12
_symmetry_cell_setting 'monoclinic'
loop_
_space_group_symop_operation_xyz
x,y,z
-x,y,-z
-x,-y,-z
x,-y,z
1/2+x,1/2+y,z
1/2-x,1/2+y,-z
1/2-x,1/2-y,-z
1/2+x,1/2-y,z
loop_
_atom_site_type_symbol
_atom_site_label
_atom_site_fract_x
_atom_site_fract_y
_atom_site_fract_z
Si Si1 0.345047 0.500000 0.956391
Si Si2 0.662604 0.647426 0.201928
Si Si3 0.939789 0.900138 0.653625
Si Si4 0.368733 0.152948 0.837313
Si Si5 0.309793 0.898775 0.618243
Si Si6 0.832690 0.363951 0.027458
Si Si7 0.423516 0.780841 0.257839
O O1 0.374952 0.575768 0.893486
O O2 0.283199 0.424626 0.992857
O O3 0.624967 0.610658 0.280273
O O4 0.595577 0.743103 0.152677
O O5 0.820862 0.671311 0.271856
O O6 0.818573 0.886903 0.515857
O O7 0.041159 0.818736 0.699758
O O8 0.993385 0.000000 0.672782
O O9 0.274021 0.122503 0.703943
O O10 0.509831 0.102040 0.893860
O O11 0.312583 0.146120 0.908589
O O12 0.434793 0.834012 0.664499
O O13 0.354960 0.000000 0.633466
O O14 0.853405 0.291323 0.119497
#
# Coordination Sequence:
#
# PCOD9208209 Si02
#       7
#     4   8   8   8   8   8   8
#     4  10  22  35  60  96 122 150 207 264 319 362
#     4  11  22  38  64  94 123 163 208 259 318 374
#     4  11  22  43  65  88 127 172 207 260 311 371
#     4  10  21  37  63  89 127 162 212 247 324 372
#     4  10  22  37  63  95 124 161 213 259 306 375
#     4   9  20  37  64  88 122 163 201 262 313 363
#     4  10  22  38  63  91 131 155 207 260 316 370
#
# _framework density 23.753003
#
# number of rings (size 3 to 8) (size 9 to 14) (size 15 to 20)
#    0.000    1.846    3.846    0.462   10.769    3.692 
#    0.000    2.308    5.077    3.692    0.000    0.000 
#    0.000    0.000    0.000    0.000    0.000    0.000 
#
# Total GULP energy -144762.833427 kJ/mol
# GULP energy per Si atom -5567.801286 kJ/mol
# Density = 2.369894 g / cm^3
# Si number density = 23.753003 Si / 1000 Ang^3
#
#
#
# Elastic Constant Matrix: (Units=GPa)
#
#
# Indices 1 2 3 4 5 6 
#
# 1 46.6396 5.8592 30.0304 0.0000 -6.7884 0.0000
# 2 5.8592 140.6172 44.7749 0.0000 17.9464 0.0000
# 3 30.0304 44.7749 101.1766 0.0000 -6.1462 0.0000
# 4 0.0000 0.0000 0.0000 33.4464 0.0000 72.0965
# 5 -6.7884 17.9464 -6.1462 0.0000 30.8444 0.0000
# 6 0.0000 0.0000 0.0000 72.0965 0.0000 301.4730
#
#
#
# Elastic Compliance Matrix: (Units=1/GPa)
#
#
# Indices 1 2 3 4 5 6 
#
# 1 0.027201 0.001035 -0.008305 0.000000 0.003729 0.000000
# 2 0.001035 0.009404 -0.004846 0.000000 -0.006209 0.000000
# 3 -0.008305 -0.004846 0.014732 0.000000 0.003927 0.000000
# 4 0.000000 0.000000 0.000000 0.061710 0.000000 -0.014758
# 5 0.003729 -0.006209 0.003927 0.000000 0.037637 0.000000
# 6 0.000000 0.000000 0.000000 -0.014758 0.000000 0.006846
#
#
# Mechanical properties :
#
#
# Convention : Reuss Voigt Hill
#
# Bulk Modulus (GPa) = 36.89365 49.97361 43.43363
# Shear Modulus (GPa) = 26.20565 87.00400 56.60483
#
# Velocity S-wave (km/s) = 3.32513 6.05873 4.88696
# Velocity P-wave (km/s) = 5.50526 8.36832 7.08296
#
# Compressibility (1/GPa) = 0.02710494
#
# Stress axis : x y z
#
# Youngs Moduli (GPa) = 36.76282 106.33853 67.87958
#
# Poissons Ratio (x) = -0.11008 0.56376
# Poissons Ratio (y) = -0.03805 0.32895
# Poissons Ratio (z) = 0.30532 0.51533
#
# Static dielectric constant tensor:
#      x y z
#    x 1.966240 0.000000 0.049350 
#    y 0.000000 1.914850 0.000000 
#    z 0.049350 0.000000 1.914630 
# 
# From -- ./inp_files/214938.got.cif
#   From: 2010.05.17/outbox.cif.g08.bks.cpg/sg12_108_cif.got.tgz:214938.got - 2010.06.03 13:09:07.
