data_PCOD9208748
_publ_section_title
;
Structure prediction by ZEFSAII (Michael W. Deem and Ramdas Pophale) SiO2 
 PCOD9208748
Probable space group: C 2/M
;
_chemical_formula_sum "Si O2"
_cell_formula_units_Z 40
_cell_length_a 28.150224
_cell_length_b 11.321643
_cell_length_c 24.368906
_cell_angle_alpha 90.000000
_cell_angle_beta 13.920456
_cell_angle_gamma 90.000000
_cell_volume 1868.431200
_symmetry_space_group_name_H-M "C 2/M"
_symmetry_group_IT_number 12
_symmetry_cell_setting 'monoclinic'
loop_
_space_group_symop_operation_xyz
x,y,z
-x,y,-z
-x,-y,-z
x,-y,z
1/2+x,1/2+y,z
1/2-x,1/2+y,-z
1/2-x,1/2-y,-z
1/2+x,1/2-y,z
loop_
_atom_site_type_symbol
_atom_site_label
_atom_site_fract_x
_atom_site_fract_y
_atom_site_fract_z
Si Si1 0.328014 0.874660 0.890312
Si Si2 0.753462 0.695100 0.556695
Si Si3 0.748756 0.869167 0.661127
Si Si4 0.698468 0.369001 0.911460
Si Si5 0.228512 0.635514 0.808184
O O1 0.552635 0.882982 0.658032
O O2 0.227498 0.000000 0.019664
O O3 0.250000 0.750000 0.000000
O O4 0.305887 0.868182 0.849572
O O5 0.750000 0.750000 0.500000
O O6 0.800581 0.786299 0.552960
O O7 0.537656 0.642629 0.811819
O O8 0.806132 0.840448 0.659444
O O9 0.823424 0.000000 0.566281
O O10 0.509649 0.870924 0.928818
O O11 0.732380 0.500000 0.847810
O O12 0.762968 0.251933 0.806063
O O13 0.287587 0.500000 0.758873
#
# Coordination Sequence:
#
# PCOD9208748 Si02
#       5
#     8   8   8   8   8
#     4  11  24  41  58  86 121 155 198 246 290 352
#     4  11  21  37  60  86 118 156 197 239 295 352
#     4   8  16  31  56  86 115 148 195 244 287 342
#     4  10  21  38  59  87 119 152 191 241 295 349
#     4   8  15  33  58  85 114 150 194 239 289 346
#
# _framework density 21.408335000000001
#
# number of rings (size 3 to 8) (size 9 to 14) (size 15 to 20)
#    0.000    2.400    2.000    1.800    0.000    3.200 
#    0.000   10.000    0.000    4.800    0.000    0.000 
#    0.000    0.000    0.000    0.000    0.000    0.000 
#
# Total GULP energy -111417.556094 kJ/mol
# GULP energy per Si atom -5570.877805 kJ/mol
# Density = 2.135961 g / cm^3
# Si number density = 21.408335 Si / 1000 Ang^3
#
#
#
# Elastic Constant Matrix: (Units=GPa)
#
#
# Indices 1 2 3 4 5 6 
#
# 1 96.0985 102.2979 22.3922 0.0093 2.9983 -0.0011
# 2 102.2979 226.3839 37.5225 0.0500 18.8435 -0.0294
# 3 22.3922 37.5225 67.8634 0.0439 -12.6397 -0.0196
# 4 0.0093 0.0500 0.0439 10.5532 -0.0107 -4.0325
# 5 2.9983 18.8435 -12.6397 -0.0107 36.4952 -0.0005
# 6 -0.0011 -0.0294 -0.0196 -4.0325 -0.0005 11.0331
#
#
#
# Elastic Compliance Matrix: (Units=1/GPa)
#
#
# Indices 1 2 3 4 5 6 
#
# 1 0.020474 -0.009296 -0.001106 0.000028 0.002735 -0.000014
# 2 -0.009296 0.009594 -0.003226 -0.000026 -0.005307 0.000009
# 3 -0.001106 -0.003226 0.018398 -0.000050 0.008129 0.000006
# 4 0.000028 -0.000026 -0.000050 0.110141 0.000027 0.040256
# 5 0.002735 -0.005307 0.008129 0.000027 0.032732 0.000012
# 6 -0.000014 0.000009 0.000006 0.040256 0.000012 0.105350
#
#
# Mechanical properties :
#
#
# Convention : Reuss Voigt Hill
#
# Bulk Modulus (GPa) = 47.14805 79.41901 63.28353
# Shear Modulus (GPa) = 15.10495 26.82518 20.96506
#
# Velocity S-wave (km/s) = 2.65913 3.54365 3.13276
# Velocity P-wave (km/s) = 5.61239 7.34309 6.53529
#
# Compressibility (1/GPa) = 0.02120979
#
# Stress axis : x y z
#
# Youngs Moduli (GPa) = 48.84172 104.22661 54.35282
#
# Poissons Ratio (x) = 0.96890 0.06014
# Poissons Ratio (y) = 0.45404 0.17535
# Poissons Ratio (z) = 0.05404 0.33624
#
# Static dielectric constant tensor:
#      x y z
#    x 1.740010 0.000010 0.006020 
#    y 0.000010 1.672520 0.000110 
#    z 0.006020 0.000110 1.832140 
# 
# From -- ./inp_files/325061.got.cif
#   From: 2010.05.17/outbox.cif.g08.bks.cpg/sg12_163_cif.got.tgz:325061.got - 2010.06.03 13:09:07.
