data_PCOD9208760
_publ_section_title
;
Structure prediction by ZEFSAII (Michael W. Deem and Ramdas Pophale) SiO2 
 PCOD9208760
Probable space group: C 2/M
;
_chemical_formula_sum "Si O2"
_cell_formula_units_Z 58
_cell_length_a 25.440191
_cell_length_b 9.064405
_cell_length_c 22.664268
_cell_angle_alpha 90.000000
_cell_angle_beta 140.815726
_cell_angle_gamma 90.000000
_cell_volume 3302.116447
_symmetry_space_group_name_H-M "C 2/M"
_symmetry_group_IT_number 12
_symmetry_cell_setting 'monoclinic'
loop_
_space_group_symop_operation_xyz
x,y,z
-x,y,-z
-x,-y,-z
x,-y,z
1/2+x,1/2+y,z
1/2-x,1/2+y,-z
1/2-x,1/2-y,-z
1/2+x,1/2-y,z
loop_
_atom_site_type_symbol
_atom_site_label
_atom_site_fract_x
_atom_site_fract_y
_atom_site_fract_z
Si Si1 0.499479 0.324054 0.196110
Si Si2 0.519053 0.323415 0.686772
Si Si3 0.000000 0.500000 0.000000
Si Si4 0.772025 0.324026 0.295262
Si Si5 0.293418 0.323921 0.187890
Si Si6 0.393729 0.837158 0.809887
Si Si7 0.805705 0.824802 0.998033
Si Si8 0.442605 0.176536 0.505522
O O1 0.515971 0.500000 0.206403
O O2 0.510443 0.277237 0.273839
O O3 0.554977 0.236312 0.198198
O O4 0.402508 0.301555 0.095866
O O5 0.509878 0.500000 0.674933
O O6 0.617674 0.293008 0.765293
O O7 0.472093 0.249825 0.591505
O O8 0.953536 0.373358 0.917721
O O9 0.769428 0.500000 0.283958
O O10 0.793718 0.244192 0.252898
O O11 0.683965 0.263019 0.240099
O O12 0.847218 0.292137 0.405826
O O13 0.281141 0.500000 0.179614
O O14 0.221697 0.249325 0.086844
O O15 0.362204 0.000000 0.764026
O O16 0.789961 0.000000 0.983292
O O17 0.750000 0.750000 0.000000
O O18 0.500000 0.225143 0.500000
O O19 0.452968 0.000000 0.519757
#
# Coordination Sequence:
#
# PCOD9208760 Si02
#       8
#     8   8   2   8   8   8   8   8
#     4  10  22  41  60  85 123 163 205 254 303 368
#     4  10  21  38  59  87 122 160 203 249 306 366
#     4   8  24  44  62  88 122 152 208 256 296 346
#     4  11  23  40  62  89 122 161 200 256 312 365
#     4  11  22  36  56  86 124 159 200 252 303 366
#     4  10  23  42  63  88 120 158 205 251 304 356
#     4  11  22  36  55  85 121 160 201 244 302 368
#     4  10  21  38  60  90 125 156 202 258 309 368
#
# _framework density 17.564492999999999
#
# number of rings (size 3 to 8) (size 9 to 14) (size 15 to 20)
#    0.414    1.241    2.759    1.655    1.931    3.586 
#    0.000    1.379    0.000    0.000    0.000    0.000 
#    0.000    0.000    0.000    0.000    0.000    0.000 
#
# Total GULP energy -161605.803719 kJ/mol
# GULP energy per Si atom -5572.613921 kJ/mol
# Density = 1.752452 g / cm^3
# Si number density = 17.564493 Si / 1000 Ang^3
#
#
#
# Elastic Constant Matrix: (Units=GPa)
#
#
# Indices 1 2 3 4 5 6 
#
# 1 94.3046 40.4963 49.5008 0.0000 -2.5406 0.0000
# 2 40.4963 53.2097 45.9075 0.0000 -0.7994 0.0000
# 3 49.5008 45.9075 122.5286 0.0000 -22.7260 0.0000
# 4 0.0000 0.0000 0.0000 34.9879 0.0000 -4.6452
# 5 -2.5406 -0.7994 -22.7260 0.0000 20.3484 0.0000
# 6 0.0000 0.0000 0.0000 -4.6452 0.0000 27.2296
#
#
#
# Elastic Compliance Matrix: (Units=1/GPa)
#
#
# Indices 1 2 3 4 5 6 
#
# 1 0.016483 -0.009575 -0.003481 0.000000 -0.002206 0.000000
# 2 -0.009575 0.036502 -0.012315 0.000000 -0.013515 0.000000
# 3 -0.003481 -0.012315 0.017672 0.000000 0.018818 0.000000
# 4 0.000000 0.000000 0.000000 0.029244 0.000000 0.004989
# 5 -0.002206 -0.013515 0.018818 0.000000 0.069355 0.000000
# 6 0.000000 0.000000 0.000000 0.004989 0.000000 0.037576
#
#
# Mechanical properties :
#
#
# Convention : Reuss Voigt Hill
#
# Bulk Modulus (GPa) = 50.20957 60.20580 55.20769
# Shear Modulus (GPa) = 18.92421 25.45572 22.18997
#
# Velocity S-wave (km/s) = 3.28596 3.81106 3.55821
# Velocity P-wave (km/s) = 6.56084 7.32919 6.95563
#
# Compressibility (1/GPa) = 0.01991652
#
# Stress axis : x y z
#
# Youngs Moduli (GPa) = 60.66758 27.39540 56.58704
#
# Poissons Ratio (x) = 0.26231 0.19697
# Poissons Ratio (y) = 0.58089 0.69686
# Poissons Ratio (z) = 0.21117 0.33737
#
# Static dielectric constant tensor:
#      x y z
#    x 1.593670 0.000000 0.000630 
#    y 0.000000 1.587960 0.000000 
#    z 0.000630 0.000000 1.582510 
# 
# From -- ./inp_files/324642.got.cif
#   From: 2010.05.17/outbox.cif.g08.bks.cpg/sg12_163_cif.got.tgz:324642.got - 2010.06.03 13:09:07.
