data_PCOD9208713
_publ_section_title
;
Structure prediction by ZEFSAII (Michael W. Deem and Ramdas Pophale) SiO2 
 PCOD9208713
Probable space group: C 2/M
;
_chemical_formula_sum "Si O2"
_cell_formula_units_Z 40
_cell_length_a 10.349608
_cell_length_b 8.825672
_cell_length_c 23.680318
_cell_angle_alpha 90.000000
_cell_angle_beta 108.990113
_cell_angle_gamma 90.000000
_cell_volume 2045.290857
_symmetry_space_group_name_H-M "C 2/M"
_symmetry_group_IT_number 12
_symmetry_cell_setting 'monoclinic'
loop_
_space_group_symop_operation_xyz
x,y,z
-x,y,-z
-x,-y,-z
x,-y,z
1/2+x,1/2+y,z
1/2-x,1/2+y,-z
1/2-x,1/2-y,-z
1/2+x,1/2-y,z
loop_
_atom_site_type_symbol
_atom_site_label
_atom_site_fract_x
_atom_site_fract_y
_atom_site_fract_z
Si Si1 0.226520 0.182522 0.671984
Si Si2 0.844475 0.182765 0.465092
Si Si3 0.314000 0.818648 0.132791
Si Si4 0.017351 0.181263 0.739644
Si Si5 0.503497 0.318001 0.066884
O O1 0.199880 0.232141 0.603892
O O2 0.099816 0.222241 0.694371
O O3 0.365604 0.252858 0.715207
O O4 0.238939 0.000000 0.674327
O O5 0.750000 0.250000 0.500000
O O6 0.000000 0.227003 0.500000
O O7 0.836858 0.000000 0.465625
O O8 0.397552 0.745888 0.195890
O O9 0.385932 0.763122 0.085601
O O10 0.154086 0.775827 0.111133
O O11 0.321597 0.000000 0.137139
O O12 0.010881 0.000000 0.743210
O O13 0.487292 0.500000 0.070453
O O14 0.500000 0.281786 0.000000
#
# Coordination Sequence:
#
# PCOD9208713 Si02
#       5
#     8   8   8   8   8
#     4  10  22  39  59  85 116 150 190 236 284 337
#     4  10  21  38  59  85 117 150 188 234 283 338
#     4  11  23  38  59  87 117 151 191 234 283 339
#     4  11  23  39  60  84 113 151 192 236 286 337
#     4  10  22  40  61  87 118 151 190 235 282 336
#
# _framework density 19.557122
#
# number of rings (size 3 to 8) (size 9 to 14) (size 15 to 20)
#    0.000    1.600    0.000    4.200    0.000    9.600 
#    0.000    0.000    0.000    0.000    0.000    0.000 
#    0.000    0.000    0.000    0.000    0.000    0.000 
#
# Total GULP energy -111852.390792 kJ/mol
# GULP energy per Si atom -5592.619540 kJ/mol
# Density = 1.951261 g / cm^3
# Si number density = 19.557122 Si / 1000 Ang^3
#
#
#
# Elastic Constant Matrix: (Units=GPa)
#
#
# Indices 1 2 3 4 5 6 
#
# 1 63.2614 11.3170 -26.9440 0.0000 -0.1399 0.0000
# 2 11.3170 10.4951 2.4538 0.0000 -3.0546 0.0000
# 3 -26.9440 2.4538 50.6222 0.0000 2.2714 0.0000
# 4 0.0000 0.0000 0.0000 22.0282 0.0000 -18.3395
# 5 -0.1399 -3.0546 2.2714 0.0000 40.9980 0.0000
# 6 0.0000 0.0000 0.0000 -18.3395 0.0000 14.5610
#
#
#
# Elastic Compliance Matrix: (Units=1/GPa)
#
#
# Indices 1 2 3 4 5 6 
#
# 1 0.030342 -0.038052 0.018162 0.000000 -0.003738 0.000000
# 2 -0.038052 0.146427 -0.027904 0.000000 0.012326 0.000000
# 3 0.018162 -0.027904 0.030941 0.000000 -0.003731 0.000000
# 4 0.000000 0.000000 0.000000 -0.934264 0.000000 -1.176699
# 5 -0.003738 0.012326 -0.003731 0.000000 0.025504 0.000000
# 6 0.000000 0.000000 0.000000 -1.176699 0.000000 -1.413368
#
#
# Mechanical properties :
#
#
# Convention : Reuss Voigt Hill
#
# Bulk Modulus (GPa) = 8.91903 10.89249 9.90576
# Shear Modulus (GPa) = -2.52340 24.68756 11.08208
#
# Velocity S-wave (km/s) = -1.13713 3.55678 2.38303
# Velocity P-wave (km/s) = 1.68710 4.73807 3.55637
#
# Compressibility (1/GPa) = 0.11211982
#
# Stress axis : x y z
#
# Youngs Moduli (GPa) = 32.95777 6.82936 32.31965
#
# Poissons Ratio (x) = 0.25987 -0.58698
# Poissons Ratio (y) = 1.25412 0.90186
# Poissons Ratio (z) = -0.59857 0.19057
#
# Static dielectric constant tensor:
#      x y z
#    x 1.641560 0.000000 -0.005650 
#    y 0.000000 1.655800 0.000000 
#    z -0.005650 0.000000 1.673350 
# 
# From -- ./inp_files/260969.got.cif
#   From: 2010.05.17/outbox.cif.g08.bks.cpg/sg12_131_cif.got.tgz:260969.got - 2010.06.03 13:09:07.
