data_PCOD9208211
_publ_section_title
;
Structure prediction by ZEFSAII (Michael W. Deem and Ramdas Pophale) SiO2 
 PCOD9208211
Probable space group: C 2/M
;
_chemical_formula_sum "Si O2"
_cell_formula_units_Z 50
_cell_length_a 13.490531
_cell_length_b 24.836092
_cell_length_c 8.534451
_cell_angle_alpha 90.000000
_cell_angle_beta 52.123956
_cell_angle_gamma 90.000000
_cell_volume 2257.108703
_symmetry_space_group_name_H-M "C 2/M"
_symmetry_group_IT_number 12
_symmetry_cell_setting 'monoclinic'
loop_
_space_group_symop_operation_xyz
x,y,z
-x,y,-z
-x,-y,-z
x,-y,z
1/2+x,1/2+y,z
1/2-x,1/2+y,-z
1/2-x,1/2-y,-z
1/2+x,1/2-y,z
loop_
_atom_site_type_symbol
_atom_site_label
_atom_site_fract_x
_atom_site_fract_y
_atom_site_fract_z
Si Si1 0.676721 0.410059 0.490229
Si Si2 0.470464 0.811902 0.841276
Si Si3 0.843458 0.500000 0.965682
Si Si4 0.233414 0.692248 0.432790
Si Si5 0.386633 0.697325 0.989868
Si Si6 0.259979 0.612245 0.925679
Si Si7 0.500000 0.500000 0.500000
Si Si8 0.365754 0.000000 0.327625
O O1 0.675157 0.355745 0.594717
O O2 0.721067 0.388630 0.277957
O O3 0.565044 0.451829 0.550488
O O4 0.787957 0.447542 0.452719
O O5 0.592384 0.822553 0.619030
O O6 0.414040 0.752248 0.870727
O O7 0.500000 0.813526 0.000000
O O8 0.367815 0.856862 0.914026
O O9 0.987747 0.500000 0.770716
O O10 0.761866 0.551496 0.000127
O O11 0.854470 0.500000 0.146440
O O12 0.250000 0.750000 0.500000
O O13 0.265600 0.701514 0.220570
O O14 0.369279 0.645828 0.898966
O O15 0.500000 0.691584 0.000000
#
# Coordination Sequence:
#
# PCOD9208211 Si02
#       8
#     8   8   4   8   8   8   2   4
#     4  10  21  37  63  90 129 164 217 267 316 378
#     4  11  21  40  67  92 125 163 214 267 314 380
#     4   9  18  32  63  89 122 151 216 252 312 372
#     4  12  22  40  65  96 127 169 209 265 328 379
#     4  11  25  42  61  91 135 169 207 257 322 394
#     4  11  22  40  63  94 124 170 209 262 316 377
#     4  10  24  38  58  98 130 168 228 270 312 374
#     4   8  16  34  57  92 114 160 203 274 308 349
#
# _framework density 22.152234
#
# number of rings (size 3 to 8) (size 9 to 14) (size 15 to 20)
#    0.000    1.440    4.800    1.920    4.480    0.640 
#    0.000    2.000    0.000    1.920    0.000    0.000 
#    0.000    0.000    0.000    0.000    0.000    0.000 
#
# Total GULP energy -139342.696486 kJ/mol
# GULP energy per Si atom -5573.707859 kJ/mol
# Density = 2.210181 g / cm^3
# Si number density = 22.152234 Si / 1000 Ang^3
#
#
#
# Elastic Constant Matrix: (Units=GPa)
#
#
# Indices 1 2 3 4 5 6 
#
# 1 43.9224 41.3109 18.6548 0.0000 -8.5008 0.0000
# 2 41.3109 175.6881 12.8658 0.0000 -3.5744 0.0000
# 3 18.6548 12.8658 66.2087 0.0000 -15.4882 0.0000
# 4 0.0000 0.0000 0.0000 19.8322 0.0000 4.5999
# 5 -8.5008 -3.5744 -15.4882 0.0000 14.8274 0.0000
# 6 0.0000 0.0000 0.0000 4.5999 0.0000 36.5067
#
#
#
# Elastic Compliance Matrix: (Units=1/GPa)
#
#
# Indices 1 2 3 4 5 6 
#
# 1 0.034450 -0.007456 -0.005370 0.000000 0.012344 0.000000
# 2 -0.007456 0.007389 0.000108 0.000000 -0.002381 0.000000
# 3 -0.005370 0.000108 0.021017 0.000000 0.018901 0.000000
# 4 0.000000 0.000000 0.000000 0.051941 0.000000 -0.006545
# 5 0.012344 -0.002381 0.018901 0.000000 0.093689 0.000000
# 6 0.000000 0.000000 0.000000 -0.006545 0.000000 0.028217
#
#
# Mechanical properties :
#
#
# Convention : Reuss Voigt Hill
#
# Bulk Modulus (GPa) = 26.72357 47.94248 37.33302
# Shear Modulus (GPa) = 18.20744 28.43244 23.31994
#
# Velocity S-wave (km/s) = 2.87003 3.58649 3.24807
# Velocity P-wave (km/s) = 4.80339 6.23216 5.56383
#
# Compressibility (1/GPa) = 0.03742015
#
# Stress axis : x y z
#
# Youngs Moduli (GPa) = 29.02746 135.34042 47.57965
#
# Poissons Ratio (x) = 1.00912 0.25551
# Poissons Ratio (y) = 0.21643 -0.00514
# Poissons Ratio (z) = 0.15588 -0.01463
#
# Static dielectric constant tensor:
#      x y z
#    x 1.853310 0.000000 -0.040930 
#    y 0.000000 1.854190 0.000000 
#    z -0.040930 0.000000 1.895320 
# 
# From -- ./inp_files/66824.got.cif
#   From: 2010.05.17/outbox.cif.g08.bks.cpg/sg12_34_cif.got.tgz:66824.got - 2010.06.03 13:09:07.
