data_PCOD9208371
_publ_section_title
;
Structure prediction by ZEFSAII (Michael W. Deem and Ramdas Pophale) SiO2 
 PCOD9208371
Probable space group: C 2/M
;
_chemical_formula_sum "Si O2"
_cell_formula_units_Z 56
_cell_length_a 22.989581
_cell_length_b 26.369491
_cell_length_c 6.913989
_cell_angle_alpha 90.000000
_cell_angle_beta 132.616588
_cell_angle_gamma 90.000000
_cell_volume 3084.472720
_symmetry_space_group_name_H-M "C 2/M"
_symmetry_group_IT_number 12
_symmetry_cell_setting 'monoclinic'
loop_
_space_group_symop_operation_xyz
x,y,z
-x,y,-z
-x,-y,-z
x,-y,z
1/2+x,1/2+y,z
1/2-x,1/2+y,-z
1/2-x,1/2-y,-z
1/2+x,1/2-y,z
loop_
_atom_site_type_symbol
_atom_site_label
_atom_site_fract_x
_atom_site_fract_y
_atom_site_fract_z
Si Si1 0.210699 0.941282 0.643563
Si Si2 0.277609 0.864572 0.050325
Si Si3 0.581889 0.792918 0.769236
Si Si4 0.173611 0.776940 0.729560
Si Si5 0.408903 0.724273 0.853812
Si Si6 0.310477 0.627050 0.780144
Si Si7 0.589202 0.440803 0.701060
O O1 0.272568 0.919521 0.941774
O O2 0.210433 0.904530 0.458410
O O3 0.128285 0.938763 0.576783
O O4 0.225203 0.000000 0.625358
O O5 0.199290 0.834962 0.795721
O O6 0.351551 0.833538 0.136159
O O7 0.265840 0.861719 0.255061
O O8 0.500000 0.811934 0.500000
O O9 0.601640 0.740951 0.698304
O O10 0.584441 0.773495 0.993777
O O11 0.146431 0.762802 0.454654
O O12 0.250000 0.750000 0.000000
O O13 0.361461 0.677254 0.844954
O O14 0.500000 0.710646 0.000000
O O15 0.361606 0.590985 0.034367
O O16 0.500000 0.422096 0.500000
O O17 0.589833 0.500000 0.761103
#
# Coordination Sequence:
#
# PCOD9208371 Si02
#       7
#     8   8   8   8   8   8   8
#     4  10  21  38  58  83 115 152 199 247 293 345
#     4  10  22  39  61  85 113 156 198 243 295 352
#     4  11  23  41  60  86 124 152 194 249 300 357
#     4  10  21  38  55  82 116 155 197 235 287 347
#     4  12  24  35  57  89 122 164 198 238 296 350
#     4  11  22  34  56  83 114 155 200 237 285 349
#     4   9  20  35  51  76 113 155 196 241 286 334
#
# _framework density 18.155453000000001
#
# number of rings (size 3 to 8) (size 9 to 14) (size 15 to 20)
#    0.000    1.571    4.286    0.429    2.000    5.714 
#    0.000    2.143    0.000    0.429    0.000    1.000 
#    0.000    0.000    0.000    0.000    0.000    0.000 
#
# Total GULP energy -156013.830250 kJ/mol
# GULP energy per Si atom -5571.922509 kJ/mol
# Density = 1.811413 g / cm^3
# Si number density = 18.155453 Si / 1000 Ang^3
#
#
#
# Elastic Constant Matrix: (Units=GPa)
#
#
# Indices 1 2 3 4 5 6 
#
# 1 79.6636 32.0285 34.9438 0.0000 -7.5907 0.0000
# 2 32.0285 69.1631 26.5167 0.0000 -3.6750 0.0000
# 3 34.9438 26.5167 90.1436 0.0000 -20.8038 0.0000
# 4 0.0000 0.0000 0.0000 22.6396 0.0000 -6.9678
# 5 -7.5907 -3.6750 -20.8038 0.0000 28.8841 0.0000
# 6 0.0000 0.0000 0.0000 -6.9678 0.0000 25.4170
#
#
#
# Elastic Compliance Matrix: (Units=1/GPa)
#
#
# Indices 1 2 3 4 5 6 
#
# 1 0.017123 -0.006080 -0.004784 0.000000 0.000280 0.000000
# 2 -0.006080 0.018522 -0.003498 0.000000 -0.001761 0.000000
# 3 -0.004784 -0.003498 0.016292 0.000000 0.010032 0.000000
# 4 0.000000 0.000000 0.000000 0.048240 0.000000 0.013225
# 5 0.000280 -0.001761 0.010032 0.000000 0.041696 0.000000
# 6 0.000000 0.000000 0.000000 0.013225 0.000000 0.042969
#
#
# Mechanical properties :
#
#
# Convention : Reuss Voigt Hill
#
# Bulk Modulus (GPa) = 43.08075 47.32760 45.20418
# Shear Modulus (GPa) = 22.59335 25.08689 23.84012
#
# Velocity S-wave (km/s) = 3.53149 3.72127 3.62762
# Velocity P-wave (km/s) = 6.35680 6.67745 6.51910
#
# Compressibility (1/GPa) = 0.02321223
#
# Stress axis : x y z
#
# Youngs Moduli (GPa) = 58.40251 53.99089 61.37914
#
# Poissons Ratio (x) = 0.32827 0.29365
# Poissons Ratio (y) = 0.35509 0.21469
# Poissons Ratio (z) = 0.27941 0.18885
#
# Static dielectric constant tensor:
#      x y z
#    x 1.696530 0.000000 -0.019120 
#    y 0.000000 1.662660 0.000000 
#    z -0.019120 0.000000 1.663750 
# 
# From -- ./inp_files/22289.got.cif
#   From: 2010.05.17/outbox.cif.g08.bks.cpg/sg12_12_cif.got.tgz:22289.got - 2010.06.03 13:09:07.
