data_PCOD9208724
_publ_section_title
;
Structure prediction by ZEFSAII (Michael W. Deem and Ramdas Pophale) SiO2 
 PCOD9208724
Probable space group: C 2/M
;
_chemical_formula_sum "Si O2"
_cell_formula_units_Z 64
_cell_length_a 24.058931
_cell_length_b 7.971296
_cell_length_c 15.417441
_cell_angle_alpha 90.000000
_cell_angle_beta 86.625062
_cell_angle_gamma 90.000000
_cell_volume 2951.642097
_symmetry_space_group_name_H-M "C 2/M"
_symmetry_group_IT_number 12
_symmetry_cell_setting 'monoclinic'
loop_
_space_group_symop_operation_xyz
x,y,z
-x,y,-z
-x,-y,-z
x,-y,z
1/2+x,1/2+y,z
1/2-x,1/2+y,-z
1/2-x,1/2-y,-z
1/2+x,1/2-y,z
loop_
_atom_site_type_symbol
_atom_site_label
_atom_site_fract_x
_atom_site_fract_y
_atom_site_fract_z
Si Si1 0.465396 0.694135 0.647604
Si Si2 0.089637 0.700118 0.671164
Si Si3 0.612698 0.199675 0.190087
Si Si4 0.357084 0.794793 0.153908
Si Si5 0.730152 0.689187 0.408394
Si Si6 0.262041 0.704093 0.783407
Si Si7 0.936427 0.294972 0.990394
Si Si8 0.117472 0.696476 0.478910
O O1 0.472765 0.500000 0.625781
O O2 0.524047 0.765496 0.673950
O O3 0.420600 0.716398 0.728333
O O4 0.440708 0.783910 0.565095
O O5 0.097925 0.500000 0.669355
O O6 0.117297 0.763722 0.756709
O O7 0.114708 0.761438 0.577562
O O8 0.678443 0.234476 0.189086
O O9 0.603916 0.000000 0.199680
O O10 0.587061 0.256023 0.100872
O O11 0.292217 0.746674 0.156835
O O12 0.395383 0.738727 0.070920
O O13 0.358749 0.000000 0.154102
O O14 0.750323 0.500000 0.400993
O O15 0.750000 0.750000 0.500000
O O16 0.746777 0.768073 0.315037
O O17 0.663587 0.703916 0.420863
O O18 0.264574 0.500000 0.780800
O O19 0.936588 0.500000 0.991442
O O20 0.000000 0.240629 0.000000
O O21 0.133114 0.500000 0.476865
#
# Coordination Sequence:
#
# PCOD9208724 Si02
#       8
#     8   8   8   8   8   8   8   8
#     4  12  24  38  57  84 119 159 198 243 302 362
#     4  10  21  38  61  87 115 153 198 246 299 358
#     4  11  22  37  61  89 117 155 202 251 299 353
#     4   9  18  36  61  87 118 154 195 243 295 356
#     4  11  22  36  56  82 117 162 208 251 298 353
#     4  10  21  38  59  85 119 159 199 243 300 358
#     4   9  18  34  60  92 119 149 197 249 298 354
#     4  11  22  37  58  86 117 153 201 249 297 357
#
# _framework density 21.682845
#
# number of rings (size 3 to 8) (size 9 to 14) (size 15 to 20)
#    0.000    1.625    1.250    4.125    0.000    7.500 
#    0.000    0.625    0.000    7.500    0.000    0.000 
#    0.000    0.000    0.000    0.000    0.000    0.000 
#
# Total GULP energy -178857.716271 kJ/mol
# GULP energy per Si atom -5589.303633 kJ/mol
# Density = 2.163349 g / cm^3
# Si number density = 21.682845 Si / 1000 Ang^3
#
#
#
# Elastic Constant Matrix: (Units=GPa)
#
#
# Indices 1 2 3 4 5 6 
#
# 1 81.5166 -17.1662 30.0153 0.0000 -7.3473 0.0000
# 2 -17.1662 19.8732 4.1866 0.0000 3.0628 0.0000
# 3 30.0153 4.1866 115.8401 0.0000 -1.9750 0.0000
# 4 0.0000 0.0000 0.0000 7.1504 0.0000 -2.0715
# 5 -7.3473 3.0628 -1.9750 0.0000 40.4005 0.0000
# 6 0.0000 0.0000 0.0000 -2.0715 0.0000 23.6626
#
#
#
# Elastic Compliance Matrix: (Units=1/GPa)
#
#
# Indices 1 2 3 4 5 6 
#
# 1 0.017711 0.016112 -0.005142 0.000000 0.001748 0.000000
# 2 0.016112 0.065997 -0.006601 0.000000 -0.002396 0.000000
# 3 -0.005142 -0.006601 0.010205 0.000000 0.000064 0.000000
# 4 0.000000 0.000000 0.000000 0.143492 0.000000 0.012562
# 5 0.001748 -0.002396 0.000064 0.000000 0.025255 0.000000
# 6 0.000000 0.000000 0.000000 0.012562 0.000000 0.043360
#
#
# Mechanical properties :
#
#
# Convention : Reuss Voigt Hill
#
# Bulk Modulus (GPa) = 9.74165 27.92239 18.83202
# Shear Modulus (GPa) = 15.08308 27.58897 21.33603
#
# Velocity S-wave (km/s) = 2.64033 3.57092 3.14029
# Velocity P-wave (km/s) = 3.71452 5.46878 4.67468
#
# Compressibility (1/GPa) = 0.10265199
#
# Stress axis : x y z
#
# Youngs Moduli (GPa) = 56.46122 15.15231 97.99585
#
# Poissons Ratio (x) = -0.24414 0.50386
# Poissons Ratio (y) = -0.90973 0.64687
# Poissons Ratio (z) = 0.29031 0.10002
#
# Static dielectric constant tensor:
#      x y z
#    x 1.789520 0.000000 0.002740 
#    y 0.000000 1.790240 0.000000 
#    z 0.002740 0.000000 1.781150 
# 
# From -- ./inp_files/238721.got.cif
#   From: 2010.05.17/outbox.cif.g08.bks.cpg/sg12_120_cif.got.tgz:238721.got - 2010.06.03 13:09:07.
