data_PCOD9208306
_publ_section_title
;
Structure prediction by ZEFSAII (Michael W. Deem and Ramdas Pophale) SiO2 
 PCOD9208306
Probable space group: C 2/M
;
_chemical_formula_sum "Si O2"
_cell_formula_units_Z 48
_cell_length_a 20.407685
_cell_length_b 19.660864
_cell_length_c 8.953934
_cell_angle_alpha 90.000000
_cell_angle_beta 139.713878
_cell_angle_gamma 90.000000
_cell_volume 2323.000527
_symmetry_space_group_name_H-M "C 2/M"
_symmetry_group_IT_number 12
_symmetry_cell_setting 'monoclinic'
loop_
_space_group_symop_operation_xyz
x,y,z
-x,y,-z
-x,-y,-z
x,-y,z
1/2+x,1/2+y,z
1/2-x,1/2+y,-z
1/2-x,1/2-y,-z
1/2+x,1/2-y,z
loop_
_atom_site_type_symbol
_atom_site_label
_atom_site_fract_x
_atom_site_fract_y
_atom_site_fract_z
Si Si1 0.164597 0.799612 0.413156
Si Si2 0.002312 0.282046 0.324046
Si Si3 0.396412 0.419373 0.527351
Si Si4 0.899085 0.159647 0.020438
Si Si5 0.057445 0.425073 0.758822
Si Si6 0.717937 0.421471 0.968818
O O1 0.250000 0.750000 0.500000
O O2 0.185842 0.870618 0.534880
O O3 0.097328 0.754897 0.411072
O O4 0.108475 0.826216 0.166942
O O5 0.911551 0.232988 0.117493
O O6 0.988704 0.358893 0.243628
O O7 0.000000 0.282520 0.500000
O O8 0.390592 0.500000 0.551082
O O9 0.504872 0.388057 0.765855
O O10 0.370893 0.411093 0.307826
O O11 0.801310 0.124551 0.921820
O O12 0.049740 0.500000 0.817084
O O13 0.000000 0.429642 0.500000
O O14 0.174563 0.410460 0.923243
O O15 0.715024 0.500000 0.010248
#
# Coordination Sequence:
#
# PCOD9208306 Si02
#       6
#     8   8   8   8   8   8
#     4  11  26  41  59  93 133 171 214 263 318 384
#     4  10  21  39  64  88 120 165 214 258 318 373
#     4  10  21  41  64  93 130 168 212 264 322 390
#     4  11  22  37  63  92 131 167 202 265 329 381
#     4   9  20  37  59  88 124 161 214 268 309 370
#     4  10  21  37  65 101 127 162 213 268 320 382
#
# _framework density 20.662932000000001
#
# number of rings (size 3 to 8) (size 9 to 14) (size 15 to 20)
#    0.000    1.833    0.000    5.000    7.000    4.000 
#    0.000    0.833    0.000    2.000    0.000    0.000 
#    0.000    0.000    0.000    0.000    0.000    0.000 
#
# Total GULP energy -133799.827606 kJ/mol
# GULP energy per Si atom -5574.992817 kJ/mol
# Density = 2.061590 g / cm^3
# Si number density = 20.662932 Si / 1000 Ang^3
#
#
#
# Elastic Constant Matrix: (Units=GPa)
#
#
# Indices 1 2 3 4 5 6 
#
# 1 83.6010 63.8584 26.4668 0.0000 -14.5266 0.0000
# 2 63.8584 162.0562 18.7249 0.0000 -5.1724 0.0000
# 3 26.4668 18.7249 61.2487 0.0000 -2.3557 0.0000
# 4 0.0000 0.0000 0.0000 16.1744 0.0000 12.3059
# 5 -14.5266 -5.1724 -2.3557 0.0000 19.5111 0.0000
# 6 0.0000 0.0000 0.0000 12.3059 0.0000 40.1750
#
#
#
# Elastic Compliance Matrix: (Units=1/GPa)
#
#
# Indices 1 2 3 4 5 6 
#
# 1 0.022269 -0.007552 -0.006785 0.000000 0.013759 0.000000
# 2 -0.007552 0.009000 0.000389 0.000000 -0.003190 0.000000
# 3 -0.006785 0.000389 0.019038 0.000000 -0.002650 0.000000
# 4 0.000000 0.000000 0.000000 0.080613 0.000000 -0.024692
# 5 0.013759 -0.003190 -0.002650 0.000000 0.060331 0.000000
# 6 0.000000 0.000000 0.000000 -0.024692 0.000000 0.032455
#
#
# Mechanical properties :
#
#
# Convention : Reuss Voigt Hill
#
# Bulk Modulus (GPa) = 44.62033 58.33403 51.47718
# Shear Modulus (GPa) = 19.29980 28.36250 23.83115
#
# Velocity S-wave (km/s) = 3.05951 3.70892 3.39975
# Velocity P-wave (km/s) = 5.84141 6.82891 6.35437
#
# Compressibility (1/GPa) = 0.02241131
#
# Stress axis : x y z
#
# Youngs Moduli (GPa) = 44.90591 111.11406 52.52701
#
# Poissons Ratio (x) = 0.83913 0.35639
# Poissons Ratio (y) = 0.33913 -0.02045
# Poissons Ratio (z) = 0.30468 -0.04325
#
# Static dielectric constant tensor:
#      x y z
#    x 1.809430 0.000000 0.014790 
#    y 0.000000 1.762030 0.000000 
#    z 0.014790 0.000000 1.804540 
# 
# From -- ./inp_files/89728.got.cif
#   From: 2010.05.17/outbox.cif.g08.bks.cpg/sg12_45_cif.got.tgz:89728.got - 2010.06.03 13:09:07.
