data_PCOD9208063
_publ_section_title
;
Structure prediction by ZEFSAII (Michael W. Deem and Ramdas Pophale) SiO2 
 PCOD9208063
Probable space group: C 2/M
;
_chemical_formula_sum "Si O2"
_cell_formula_units_Z 64
_cell_length_a 33.978991
_cell_length_b 8.129116
_cell_length_c 16.712391
_cell_angle_alpha 90.000000
_cell_angle_beta 42.174258
_cell_angle_gamma 90.000000
_cell_volume 3099.315311
_symmetry_space_group_name_H-M "C 2/M"
_symmetry_group_IT_number 12
_symmetry_cell_setting 'monoclinic'
loop_
_space_group_symop_operation_xyz
x,y,z
-x,y,-z
-x,-y,-z
x,-y,z
1/2+x,1/2+y,z
1/2-x,1/2+y,-z
1/2-x,1/2-y,-z
1/2+x,1/2-y,z
loop_
_atom_site_type_symbol
_atom_site_label
_atom_site_fract_x
_atom_site_fract_y
_atom_site_fract_z
Si Si1 0.660466 0.309195 0.791796
Si Si2 0.481495 0.798584 0.280689
Si Si3 0.382501 0.192613 0.304493
Si Si4 0.611183 0.198470 0.036515
Si Si5 0.173214 0.801703 0.321011
Si Si6 0.045348 0.301820 0.498296
Si Si7 0.725954 0.198530 0.950475
Si Si8 0.710085 0.693419 0.438534
O O1 0.674703 0.500000 0.779080
O O2 0.618763 0.282026 0.778400
O O3 0.632045 0.246523 0.916507
O O4 0.721121 0.217637 0.679724
O O5 0.431549 0.746333 0.293166
O O6 0.468648 0.742784 0.390612
O O7 0.480402 0.000000 0.283068
O O8 0.545987 0.744132 0.155978
O O9 0.319734 0.216101 0.442459
O O10 0.392457 0.000000 0.274816
O O11 0.661047 0.256305 0.023847
O O12 0.610027 0.000000 0.041838
O O13 0.111676 0.746045 0.378387
O O14 0.228113 0.743625 0.186121
O O15 0.179433 0.744418 0.403080
O O16 0.175234 0.000000 0.319851
O O17 0.041460 0.500000 0.505524
O O18 0.000000 0.240553 0.500000
O O19 0.725109 0.000000 0.949509
O O20 0.750000 0.250000 0.000000
O O21 0.698329 0.500000 0.466802
#
# Coordination Sequence:
#
# PCOD9208063 Si02
#       8
#     8   8   8   8   8   8   8   8
#     4  12  25  40  60  89 120 155 199 247 300 357
#     4   9  20  38  61  88 117 155 200 242 292 349
#     4  11  22  39  62  90 121 155 197 245 296 358
#     4  10  21  42  64  84 118 160 201 246 295 351
#     4  10  21  38  60  88 122 158 194 241 300 353
#     4  10  21  37  61  92 121 154 201 247 287 345
#     4  10  22  39  61  89 120 156 198 243 294 350
#     4  11  21  39  63  89 121 158 197 244 301 355
#
# _framework density 20.649722000000001
#
# number of rings (size 3 to 8) (size 9 to 14) (size 15 to 20)
#    0.000    1.625    2.500    2.250    1.750    2.250 
#    0.000    4.375    0.000    0.000    0.000    0.000 
#    0.000    0.000    0.000    0.000    0.000    0.000 
#
# Total GULP energy -178844.205836 kJ/mol
# GULP energy per Si atom -5588.881432 kJ/mol
# Density = 2.060272 g / cm^3
# Si number density = 20.649722 Si / 1000 Ang^3
#
#
#
# Elastic Constant Matrix: (Units=GPa)
#
#
# Indices 1 2 3 4 5 6 
#
# 1 111.0516 -5.0630 25.4360 0.0001 -3.5555 0.0000
# 2 -5.0630 12.0783 -5.2870 0.0009 -0.6520 -0.0004
# 3 25.4360 -5.2870 72.8390 0.0002 -12.2780 -0.0001
# 4 0.0001 0.0009 0.0002 22.4238 0.0001 3.4707
# 5 -3.5555 -0.6520 -12.2780 0.0001 33.3540 -0.0001
# 6 0.0000 -0.0004 -0.0001 3.4707 -0.0001 22.6593
#
#
#
# Elastic Compliance Matrix: (Units=1/GPa)
#
#
# Indices 1 2 3 4 5 6 
#
# 1 0.009873 0.002703 -0.003268 0.000000 -0.000098 0.000000
# 2 0.002703 0.086810 0.006068 -0.000004 0.004219 0.000002
# 3 -0.003268 0.006068 0.016282 0.000000 0.005764 0.000000
# 4 0.000000 -0.000004 0.000000 0.045678 0.000000 -0.006996
# 5 -0.000098 0.004219 0.005764 0.000000 0.032175 0.000000
# 6 0.000000 0.000002 0.000000 -0.006996 0.000000 0.045204
#
#
# Mechanical properties :
#
#
# Convention : Reuss Voigt Hill
#
# Bulk Modulus (GPa) = 8.06632 25.12677 16.59655
# Shear Modulus (GPa) = 18.77291 27.74626 23.25959
#
# Velocity S-wave (km/s) = 3.01842 3.66958 3.35981
# Velocity P-wave (km/s) = 4.00781 5.49080 4.80684
#
# Compressibility (1/GPa) = 0.12397224
#
# Stress axis : x y z
#
# Youngs Moduli (GPa) = 101.28128 11.51937 61.41658
#
# Poissons Ratio (x) = -0.03114 0.20072
# Poissons Ratio (y) = -0.27375 -0.37270
# Poissons Ratio (z) = 0.33101 -0.06990
#
# Static dielectric constant tensor:
#      x y z
#    x 1.746870 0.000010 -0.001360 
#    y 0.000010 2.280640 0.000010 
#    z -0.001360 0.000010 1.708380 
# 
# From -- ./inp_files/249837.got.cif
#   From: 2010.05.17/outbox.cif.g08.bks.cpg/sg12_125_cif.got.tgz:249837.got - 2010.06.03 13:09:07.
