data_PCOD9208615
_publ_section_title
;
Structure prediction by ZEFSAII (Michael W. Deem and Ramdas Pophale) SiO2 
 PCOD9208615
Probable space group: C 2/M
;
_chemical_formula_sum "Si O2"
_cell_formula_units_Z 56
_cell_length_a 21.857147
_cell_length_b 8.813168
_cell_length_c 14.522378
_cell_angle_alpha 90.000000
_cell_angle_beta 90.395876
_cell_angle_gamma 90.000000
_cell_volume 2797.389190
_symmetry_space_group_name_H-M "C 2/M"
_symmetry_group_IT_number 12
_symmetry_cell_setting 'monoclinic'
loop_
_space_group_symop_operation_xyz
x,y,z
-x,y,-z
-x,-y,-z
x,-y,z
1/2+x,1/2+y,z
1/2-x,1/2+y,-z
1/2-x,1/2-y,-z
1/2+x,1/2-y,z
loop_
_atom_site_type_symbol
_atom_site_label
_atom_site_fract_x
_atom_site_fract_y
_atom_site_fract_z
Si Si1 0.005174 0.328827 0.111395
Si Si2 0.569630 0.817183 0.609164
Si Si3 0.434336 0.183734 0.607832
Si Si4 0.632117 0.182150 0.895627
Si Si5 0.868652 0.820961 0.901795
Si Si6 0.316561 0.318817 0.281122
Si Si7 0.317924 0.816943 0.722836
O O1 0.018244 0.500000 0.146293
O O2 0.062264 0.221817 0.129671
O O3 0.937342 0.280743 0.139022
O O4 0.000000 0.338463 0.000000
O O5 0.571688 0.780316 0.500354
O O6 0.501855 0.767040 0.642113
O O7 0.627439 0.746511 0.659973
O O8 0.572747 0.000000 0.619344
O O9 0.375614 0.238207 0.663496
O O10 0.434698 0.000000 0.613188
O O11 0.676689 0.253034 0.821591
O O12 0.636267 0.000000 0.898691
O O13 0.640513 0.247358 0.997866
O O14 0.825287 0.749239 0.824838
O O15 0.861262 0.000000 0.908016
O O16 0.320908 0.500000 0.278332
O O17 0.248944 0.276618 0.316543
O O18 0.321139 0.000000 0.727894
#
# Coordination Sequence:
#
# PCOD9208615 Si02
#       7
#     8   8   8   8   8   8   8
#     4   8  16  32  53  77 104 142 190 231 278 342
#     4   9  18  37  65  92 114 145 194 245 287 345
#     4   8  17  37  65  90 112 148 198 239 280 346
#     4  10  21  38  59  80 110 157 203 239 283 348
#     4  11  22  35  55  85 118 150 191 247 297 338
#     4  11  24  38  55  85 122 156 193 243 298 344
#     4  10  22  40  58  80 117 163 202 234 282 354
#
# _framework density 20.018666
#
# number of rings (size 3 to 8) (size 9 to 14) (size 15 to 20)
#    0.000    2.429    0.000    3.857    2.000    5.429 
#    0.000    2.143    0.000    0.000    0.000    0.000 
#    0.000    0.000    0.000    0.000    0.000    0.000 
#
# Total GULP energy -156315.952627 kJ/mol
# GULP energy per Si atom -5582.712594 kJ/mol
# Density = 1.997310 g / cm^3
# Si number density = 20.018666 Si / 1000 Ang^3
#
#
#
# Elastic Constant Matrix: (Units=GPa)
#
#
# Indices 1 2 3 4 5 6 
#
# 1 176.5128 47.6901 75.6303 0.0000 3.0409 0.0000
# 2 47.6901 34.2483 22.5291 0.0000 0.6968 0.0000
# 3 75.6303 22.5291 77.8918 0.0000 0.1499 0.0000
# 4 0.0000 0.0000 0.0000 16.9351 0.0000 2.2792
# 5 3.0409 0.6968 0.1499 0.0000 20.4006 0.0000
# 6 0.0000 0.0000 0.0000 2.2792 0.0000 19.6996
#
#
#
# Elastic Compliance Matrix: (Units=1/GPa)
#
#
# Indices 1 2 3 4 5 6 
#
# 1 0.012692 -0.011781 -0.008913 0.000000 -0.001424 0.000000
# 2 -0.011781 0.047022 -0.002162 0.000000 0.000166 0.000000
# 3 -0.008913 -0.002162 0.022116 0.000000 0.001240 0.000000
# 4 0.000000 0.000000 0.000000 0.059983 0.000000 -0.006940
# 5 -0.001424 0.000166 0.001240 0.000000 0.049216 0.000000
# 6 0.000000 0.000000 0.000000 -0.006940 0.000000 0.051565
#
#
# Mechanical properties :
#
#
# Convention : Reuss Voigt Hill
#
# Bulk Modulus (GPa) = 27.68732 64.48354 46.08543
# Shear Modulus (GPa) = 16.64756 20.92729 18.78742
#
# Velocity S-wave (km/s) = 2.88688 3.23676 3.06681
# Velocity P-wave (km/s) = 4.99729 6.80077 5.96755
#
# Compressibility (1/GPa) = 0.03611761
#
# Stress axis : x y z
#
# Youngs Moduli (GPa) = 78.79093 21.26660 45.21704
#
# Poissons Ratio (x) = 0.25054 0.40302
# Poissons Ratio (y) = 0.92823 0.09775
# Poissons Ratio (z) = 0.70227 0.04597
#
# Static dielectric constant tensor:
#      x y z
#    x 1.747340 0.000000 -0.017040 
#    y 0.000000 1.667460 0.000000 
#    z -0.017040 0.000000 1.716600 
# 
# From -- ./inp_files/231045.got.cif
#   From: 2010.05.17/outbox.cif.g08.bks.cpg/sg12_116_cif.got.tgz:231045.got - 2010.06.03 13:09:07.
