data_PCOD9208467
_publ_section_title
;
Structure prediction by ZEFSAII (Michael W. Deem and Ramdas Pophale) SiO2 
 PCOD9208467
Probable space group: C 2/M
;
_chemical_formula_sum "Si O2"
_cell_formula_units_Z 48
_cell_length_a 9.318697
_cell_length_b 17.721165
_cell_length_c 22.535167
_cell_angle_alpha 90.000000
_cell_angle_beta 144.819980
_cell_angle_gamma 90.000000
_cell_volume 2144.083989
_symmetry_space_group_name_H-M "C 2/M"
_symmetry_group_IT_number 12
_symmetry_cell_setting 'monoclinic'
loop_
_space_group_symop_operation_xyz
x,y,z
-x,y,-z
-x,-y,-z
x,-y,z
1/2+x,1/2+y,z
1/2-x,1/2+y,-z
1/2-x,1/2-y,-z
1/2+x,1/2-y,z
loop_
_atom_site_type_symbol
_atom_site_label
_atom_site_fract_x
_atom_site_fract_y
_atom_site_fract_z
Si Si1 0.977242 0.721335 0.928118
Si Si2 0.779956 0.631447 0.748401
Si Si3 0.660739 0.083295 0.712619
Si Si4 0.771182 0.116257 0.616901
Si Si5 0.196759 0.888657 0.115919
Si Si6 0.742160 0.204485 0.383055
O O1 0.854867 0.672268 0.835176
O O2 0.817422 0.797136 0.885888
O O3 0.000000 0.682229 0.000000
O O4 0.250000 0.750000 0.000000
O O5 0.520728 0.588190 0.669223
O O6 0.742600 0.690291 0.681975
O O7 0.027511 0.588052 0.811046
O O8 0.779438 0.095934 0.688832
O O9 0.847028 0.085758 0.831696
O O10 0.469248 0.150976 0.660934
O O11 0.540787 0.000000 0.672297
O O12 0.500000 0.093396 0.500000
O O13 0.791158 0.207045 0.616793
O O14 0.000000 0.912101 0.000000
O O15 0.000000 0.181166 0.500000
#
# Coordination Sequence:
#
# PCOD9208467 Si02
#       6
#     8   8   8   8   8   8
#     4  11  20  32  56  96 127 160 207 269 321 367
#     4  11  20  34  58  89 127 163 206 267 319 375
#     4  11  25  42  63  92 131 174 212 266 330 384
#     4  11  23  39  64  96 131 169 213 269 326 379
#     4  10  21  38  57  87 124 167 218 256 315 388
#     4  10  21  40  66  93 124 169 221 268 319 385
#
# _framework density 22.387183
#
# number of rings (size 3 to 8) (size 9 to 14) (size 15 to 20)
#    0.000    1.333    3.333    5.000    2.333    3.667 
#    0.000    3.333    0.000    1.000    0.000    0.000 
#    0.000    0.000    0.000    0.000    0.000    0.000 
#
# Total GULP energy -134140.458797 kJ/mol
# GULP energy per Si atom -5589.185783 kJ/mol
# Density = 2.233623 g / cm^3
# Si number density = 22.387183 Si / 1000 Ang^3
#
#
#
# Elastic Constant Matrix: (Units=GPa)
#
#
# Indices 1 2 3 4 5 6 
#
# 1 127.6584 -1.3148 49.8490 0.0004 8.7832 0.0006
# 2 -1.3148 82.3936 -3.2491 0.0005 3.6409 0.0003
# 3 49.8490 -3.2491 127.7670 0.0019 11.8979 0.0007
# 4 0.0004 0.0005 0.0019 -17.1990 0.0007 -1.6714
# 5 8.7832 3.6409 11.8979 0.0007 36.5922 0.0005
# 6 0.0006 0.0003 0.0007 -1.6714 0.0005 -25.4776
#
#
#
# Elastic Compliance Matrix: (Units=1/GPa)
#
#
# Indices 1 2 3 4 5 6 
#
# 1 0.009283 0.000058 -0.003519 0.000000 -0.001090 0.000000
# 2 0.000058 0.012214 0.000415 0.000000 -0.001364 0.000000
# 3 -0.003519 0.000415 0.009421 0.000001 -0.002260 0.000000
# 4 0.000000 0.000000 0.000001 -0.058516 0.000001 0.003839
# 5 -0.001090 -0.001364 -0.002260 0.000001 0.028460 0.000000
# 6 0.000000 0.000000 0.000000 0.003839 0.000000 -0.039502
#
#
# Mechanical properties :
#
#
# Convention : Reuss Voigt Hill
#
# Bulk Modulus (GPa) = 40.28062 47.59879 43.93970
# Shear Modulus (GPa) = -205.99863 18.28539 -93.85662
#
# Velocity S-wave (km/s) = -9.60292 2.86104 -6.48192
# Velocity P-wave (km/s) = 10.24319 5.67643 6.02915
#
# Compressibility (1/GPa) = 0.02482583
#
# Stress axis : x y z
#
# Youngs Moduli (GPa) = 107.72305 81.87030 106.14969
#
# Poissons Ratio (x) = -0.00471 0.37353
# Poissons Ratio (y) = -0.00620 -0.04407
# Poissons Ratio (z) = 0.37907 -0.03399
#
# Static dielectric constant tensor:
#      x y z
#    x 1.848970 0.000000 0.025080 
#    y 0.000000 1.840880 0.000000 
#    z 0.025080 0.000000 1.857250 
# 
# From -- ./inp_files/301821.got.cif
#   From: 2010.05.17/outbox.cif.g08.bks.cpg/sg12_151_cif.got.tgz:301821.got - 2010.06.03 13:09:07.
