data_PCOD9208781
_publ_section_title
;
Structure prediction by ZEFSAII (Michael W. Deem and Ramdas Pophale) SiO2 
 PCOD9208781
Probable space group: C 2/M
;
_chemical_formula_sum "Si O2"
_cell_formula_units_Z 48
_cell_length_a 20.177913
_cell_length_b 15.980486
_cell_length_c 15.070879
_cell_angle_alpha 90.000000
_cell_angle_beta 149.501205
_cell_angle_gamma 90.000000
_cell_volume 2466.369717
_symmetry_space_group_name_H-M "C 2/M"
_symmetry_group_IT_number 12
_symmetry_cell_setting 'monoclinic'
loop_
_space_group_symop_operation_xyz
x,y,z
-x,y,-z
-x,-y,-z
x,-y,z
1/2+x,1/2+y,z
1/2-x,1/2+y,-z
1/2-x,1/2-y,-z
1/2+x,1/2-y,z
loop_
_atom_site_type_symbol
_atom_site_label
_atom_site_fract_x
_atom_site_fract_y
_atom_site_fract_z
Si Si1 0.611355 0.597468 0.054151
Si Si2 0.490359 0.908958 0.763236
Si Si3 0.677497 0.752523 0.009974
Si Si4 0.900555 0.626625 0.463751
Si Si5 0.869832 0.811403 0.385122
Si Si6 0.865885 0.404539 0.801297
O O1 0.593384 0.500000 0.004711
O O2 0.615715 0.666605 0.979641
O O3 0.753684 0.604183 0.265240
O O4 0.500000 0.616433 0.000000
O O5 0.438225 0.906931 0.603255
O O6 0.380957 0.904575 0.713013
O O7 0.557793 0.000000 0.854232
O O8 0.577587 0.828774 0.884192
O O9 0.786750 0.778870 0.206355
O O10 0.750000 0.750000 0.000000
O O11 0.913118 0.727172 0.485055
O O12 0.000000 0.600293 0.500000
O O13 0.766329 0.861109 0.322988
O O14 0.000000 0.856021 0.500000
O O15 0.860533 0.500000 0.827368
O O16 0.000000 0.367934 0.000000
#
# Coordination Sequence:
#
# PCOD9208781 Si02
#       6
#     8   8   8   8   8   8
#     4  10  23  43  66  93 131 170 209 264 329 384
#     4  11  23  39  65  95 122 163 217 264 305 369
#     4  11  23  38  63  94 126 166 215 258 317 382
#     4  10  22  40  65  93 122 163 212 259 314 378
#     4  10  21  38  59  88 127 161 200 259 318 372
#     4  10  21  39  61  87 121 166 214 251 301 377
#
# _framework density 19.461801999999999
#
# number of rings (size 3 to 8) (size 9 to 14) (size 15 to 20)
#    0.000    1.667    1.667    3.500    4.667    4.333 
#    3.000    0.000    0.000    0.000    0.000    0.000 
#    0.000    0.000    0.000    0.000    0.000    0.000 
#
# Total GULP energy -133844.234052 kJ/mol
# GULP energy per Si atom -5576.843086 kJ/mol
# Density = 1.941751 g / cm^3
# Si number density = 19.461802 Si / 1000 Ang^3
#
#
#
# Elastic Constant Matrix: (Units=GPa)
#
#
# Indices 1 2 3 4 5 6 
#
# 1 173.3799 79.2605 55.2605 0.0000 13.1206 0.0000
# 2 79.2605 135.7104 43.6513 0.0000 12.2722 0.0000
# 3 55.2605 43.6513 69.7577 0.0000 17.8044 0.0000
# 4 0.0000 0.0000 0.0000 19.0367 0.0000 22.4459
# 5 13.1206 12.2722 17.8044 0.0000 43.4446 0.0000
# 6 0.0000 0.0000 0.0000 22.4459 0.0000 25.9536
#
#
#
# Elastic Compliance Matrix: (Units=1/GPa)
#
#
# Indices 1 2 3 4 5 6 
#
# 1 0.008998 -0.003713 -0.004891 0.000000 0.000335 0.000000
# 2 -0.003713 0.010760 -0.003688 0.000000 -0.000407 0.000000
# 3 -0.004891 -0.003688 0.022196 0.000000 -0.006578 0.000000
# 4 0.000000 0.000000 0.000000 -2.662664 0.000000 2.302795
# 5 0.000335 -0.000407 -0.006578 0.000000 0.025727 0.000000
# 6 0.000000 0.000000 0.000000 2.302795 0.000000 -1.953033
#
#
# Mechanical properties :
#
#
# Convention : Reuss Voigt Hill
#
# Bulk Modulus (GPa) = 57.56536 81.68809 69.62672
# Shear Modulus (GPa) = -1.10677 31.06534 14.97929
#
# Velocity S-wave (km/s) = -0.75493 3.99961 2.77731
# Velocity P-wave (km/s) = 5.37429 7.96202 6.79252
#
# Compressibility (1/GPa) = 0.01737156
#
# Stress axis : x y z
#
# Youngs Moduli (GPa) = 111.13201 92.93600 45.05229
#
# Poissons Ratio (x) = 0.34504 0.22034
# Poissons Ratio (y) = 0.41259 0.16617
# Poissons Ratio (z) = 0.54351 0.34278
#
# Static dielectric constant tensor:
#      x y z
#    x 1.675190 0.000000 -0.009600 
#    y 0.000000 1.747180 0.000000 
#    z -0.009600 0.000000 1.661650 
# 
# From -- ./inp_files/226937.got.cif
#   From: 2010.05.17/outbox.cif.g08.bks.cpg/sg12_114_cif.got.tgz:226937.got - 2010.06.03 13:09:07.
