data_PCOD9208131
_publ_section_title
;
Structure prediction by ZEFSAII (Michael W. Deem and Ramdas Pophale) SiO2 
 PCOD9208131
Probable space group: C 2/M
;
_chemical_formula_sum "Si O2"
_cell_formula_units_Z 48
_cell_length_a 22.067789
_cell_length_b 9.219421
_cell_length_c 12.250841
_cell_angle_alpha 90.000000
_cell_angle_beta 100.379692
_cell_angle_gamma 90.000000
_cell_volume 2451.672864
_symmetry_space_group_name_H-M "C 2/M"
_symmetry_group_IT_number 12
_symmetry_cell_setting 'monoclinic'
loop_
_space_group_symop_operation_xyz
x,y,z
-x,y,-z
-x,-y,-z
x,-y,z
1/2+x,1/2+y,z
1/2-x,1/2+y,-z
1/2-x,1/2-y,-z
1/2+x,1/2-y,z
loop_
_atom_site_type_symbol
_atom_site_label
_atom_site_fract_x
_atom_site_fract_y
_atom_site_fract_z
Si Si1 0.396433 0.831492 0.674724
Si Si2 0.816399 0.329683 0.018232
Si Si3 0.847464 0.331240 0.279768
Si Si4 0.254729 0.168748 0.617177
Si Si5 0.427262 0.334742 0.465551
Si Si6 0.063717 0.676981 0.079006
O O1 0.324505 0.825608 0.681970
O O2 0.403041 0.738132 0.568261
O O3 0.434500 0.781897 0.792701
O O4 0.411947 0.000000 0.655552
O O5 0.805063 0.500000 0.988638
O O6 0.844359 0.320901 0.149105
O O7 0.750000 0.250000 0.000000
O O8 0.871962 0.275701 0.957617
O O9 0.844484 0.500000 0.310074
O O10 0.790173 0.246744 0.313468
O O11 0.906019 0.258006 0.355169
O O12 0.250000 0.250000 0.500000
O O13 0.239040 0.000000 0.597454
O O14 0.500000 0.335455 0.500000
O O15 0.405275 0.500000 0.447897
O O16 0.064768 0.500000 0.075310
O O17 0.000000 0.723376 0.000000
#
# Coordination Sequence:
#
# PCOD9208131 Si02
#       6
#     8   8   8   8   8   8
#     4  10  21  37  62  89 115 153 197 245 299 357
#     4  10  22  40  63  92 123 161 206 252 305 362
#     4  11  23  38  61  92 121 156 202 248 301 361
#     4  11  21  35  57  88 122 156 196 241 295 358
#     4  11  25  41  58  84 119 160 199 245 308 365
#     4   9  19  37  62  90 118 153 201 252 302 355
#
# _framework density 19.578468000000001
#
# number of rings (size 3 to 8) (size 9 to 14) (size 15 to 20)
#    0.000    1.667    1.667    2.500    2.333    4.667 
#    0.000    0.833    0.000    1.000    0.000    0.000 
#    0.000    0.000    0.000    0.000    0.000    0.000 
#
# Total GULP energy -134009.364724 kJ/mol
# GULP energy per Si atom -5583.723530 kJ/mol
# Density = 1.953391 g / cm^3
# Si number density = 19.578468 Si / 1000 Ang^3
#
#
#
# Elastic Constant Matrix: (Units=GPa)
#
#
# Indices 1 2 3 4 5 6 
#
# 1 78.9079 19.4120 10.0710 0.0000 17.7344 0.0000
# 2 19.4120 95.5229 35.1365 0.0000 7.3572 0.0000
# 3 10.0710 35.1365 64.2588 0.0000 19.4671 0.0000
# 4 0.0000 0.0000 0.0000 17.9066 0.0000 2.3257
# 5 17.7344 7.3572 19.4671 0.0000 36.2733 0.0000
# 6 0.0000 0.0000 0.0000 2.3257 0.0000 26.8698
#
#
#
# Elastic Compliance Matrix: (Units=1/GPa)
#
#
# Indices 1 2 3 4 5 6 
#
# 1 0.014910 -0.003041 0.001609 0.000000 -0.007536 0.000000
# 2 -0.003041 0.013786 -0.007959 0.000000 0.002962 0.000000
# 3 0.001609 -0.007959 0.023180 0.000000 -0.011613 0.000000
# 4 0.000000 0.000000 0.000000 0.056480 0.000000 -0.004889
# 5 -0.007536 0.002962 -0.011613 0.000000 0.036885 0.000000
# 6 0.000000 0.000000 0.000000 -0.004889 0.000000 0.037640
#
#
# Mechanical properties :
#
#
# Convention : Reuss Voigt Hill
#
# Bulk Modulus (GPa) = 30.21722 40.88093 35.54908
# Shear Modulus (GPa) = 23.50802 27.81459 25.66131
#
# Velocity S-wave (km/s) = 3.46888 3.77327 3.62427
# Velocity P-wave (km/s) = 5.61352 6.31738 5.97582
#
# Compressibility (1/GPa) = 0.03309371
#
# Stress axis : x y z
#
# Youngs Moduli (GPa) = 67.07089 72.53635 43.14100
#
# Poissons Ratio (x) = 0.22062 -0.06943
# Poissons Ratio (y) = 0.20399 0.34336
# Poissons Ratio (z) = -0.10795 0.57731
#
# Static dielectric constant tensor:
#      x y z
#    x 1.712420 0.000000 0.009170 
#    y 0.000000 1.670350 0.000000 
#    z 0.009170 0.000000 1.699260 
# 
# From -- ./inp_files/172404.got.cif
#   From: 2010.05.17/outbox.cif.g08.bks.cpg/sg12_87_cif.got.tgz:172404.got - 2010.06.03 13:09:07.
