data_PCOD9208386
_publ_section_title
;
Structure prediction by ZEFSAII (Michael W. Deem and Ramdas Pophale) SiO2 
 PCOD9208386
Probable space group: C 2/M
;
_chemical_formula_sum "Si O2"
_cell_formula_units_Z 48
_cell_length_a 15.082614
_cell_length_b 8.181465
_cell_length_c 19.116123
_cell_angle_alpha 90.000000
_cell_angle_beta 84.485269
_cell_angle_gamma 90.000000
_cell_volume 2347.970961
_symmetry_space_group_name_H-M "C 2/M"
_symmetry_group_IT_number 12
_symmetry_cell_setting 'monoclinic'
loop_
_space_group_symop_operation_xyz
x,y,z
-x,y,-z
-x,-y,-z
x,-y,z
1/2+x,1/2+y,z
1/2-x,1/2+y,-z
1/2-x,1/2-y,-z
1/2+x,1/2-y,z
loop_
_atom_site_type_symbol
_atom_site_label
_atom_site_fract_x
_atom_site_fract_y
_atom_site_fract_z
Si Si1 0.762979 0.197813 0.392101
Si Si2 0.350967 0.192089 0.983003
Si Si3 0.441823 0.198301 0.833403
Si Si4 0.723667 0.800490 0.238993
Si Si5 0.619956 0.307927 0.870708
Si Si6 0.101492 0.696948 0.504973
O O1 0.753981 0.254629 0.312960
O O2 0.851554 0.255140 0.425585
O O3 0.674692 0.252415 0.441776
O O4 0.763247 0.000000 0.392590
O O5 0.398465 0.228998 0.052732
O O6 0.348124 0.000000 0.972887
O O7 0.250000 0.250000 0.000000
O O8 0.397317 0.258263 0.909736
O O9 0.375951 0.244597 0.775810
O O10 0.539212 0.273095 0.824772
O O11 0.449150 0.000000 0.834199
O O12 0.790538 0.745058 0.172877
O O13 0.727282 0.000000 0.238625
O O14 0.630284 0.500000 0.882461
O O15 0.098413 0.500000 0.501792
O O16 0.000000 0.756117 0.500000
#
# Coordination Sequence:
#
# PCOD9208386 Si02
#       6
#     8   8   8   8   8   8
#     4   9  18  34  56  78 105 144 178 211 260 317
#     4  11  21  36  58  80 105 140 181 226 275 323
#     4  10  21  38  56  77 106 142 179 222 273 326
#     4   9  19  37  55  74 108 146 177 212 267 325
#     4  11  22  37  55  79 107 140 182 229 270 319
#     4   9  18  33  54  82 110 136 172 219 263 307
#
# _framework density 20.443185
#
# number of rings (size 3 to 8) (size 9 to 14) (size 15 to 20)
#    0.000    2.167    1.667    1.500    0.000    5.000 
#    0.000    4.167    0.000    0.000    0.000    0.000 
#    0.000    0.000    0.000    0.000    0.000    0.000 
#
# Total GULP energy -133951.343831 kJ/mol
# GULP energy per Si atom -5581.305993 kJ/mol
# Density = 2.039666 g / cm^3
# Si number density = 20.443185 Si / 1000 Ang^3
#
#
#
# Elastic Constant Matrix: (Units=GPa)
#
#
# Indices 1 2 3 4 5 6 
#
# 1 106.1508 -3.0173 11.4217 0.0000 26.2883 0.0000
# 2 -3.0173 6.0267 -3.4481 0.0000 -3.0903 0.0000
# 3 11.4217 -3.4481 79.4083 0.0000 25.0314 0.0000
# 4 0.0000 0.0000 0.0000 19.9015 0.0000 7.6608
# 5 26.2883 -3.0903 25.0314 0.0000 24.0514 0.0000
# 6 0.0000 0.0000 0.0000 7.6608 0.0000 25.9626
#
#
#
# Elastic Compliance Matrix: (Units=1/GPa)
#
#
# Indices 1 2 3 4 5 6 
#
# 1 0.013766 -0.000712 0.004109 0.000000 -0.019414 0.000000
# 2 -0.000712 0.177700 0.000560 0.000000 0.023028 0.000000
# 3 0.004109 0.000560 0.019971 0.000000 -0.025204 0.000000
# 4 0.000000 0.000000 0.000000 0.056686 0.000000 -0.016726
# 5 -0.019414 0.023028 -0.025204 0.000000 0.091987 0.000000
# 6 0.000000 0.000000 0.000000 -0.016726 0.000000 0.043452
#
#
# Mechanical properties :
#
#
# Convention : Reuss Voigt Hill
#
# Bulk Modulus (GPa) = 4.55892 22.38869 13.47381
# Shear Modulus (GPa) = 10.66627 26.42509 18.54568
#
# Velocity S-wave (km/s) = 2.28667 3.59919 3.01521
# Velocity P-wave (km/s) = 3.03425 5.31485 4.32749
#
# Compressibility (1/GPa) = 0.21935019
#
# Stress axis : x y z
#
# Youngs Moduli (GPa) = 72.64204 5.62746 50.07156
#
# Poissons Ratio (x) = 0.00401 -0.20574
# Poissons Ratio (y) = 0.05173 -0.02802
# Poissons Ratio (z) = -0.29847 -0.00315
#
# Static dielectric constant tensor:
#      x y z
#    x 1.741040 0.000000 -0.000380 
#    y 0.000000 1.719460 0.000000 
#    z -0.000380 0.000000 1.766540 
# 
# From -- ./inp_files/267664.got.cif
#   From: 2010.05.17/outbox.cif.g08.bks.cpg/sg12_134_cif.got.tgz:267664.got - 2010.06.03 13:09:07.
