data_PCOD9208319
_publ_section_title
;
Structure prediction by ZEFSAII (Michael W. Deem and Ramdas Pophale) SiO2 
 PCOD9208319
Probable space group: C 2/M
;
_chemical_formula_sum "Si O2"
_cell_formula_units_Z 50
_cell_length_a 17.996846
_cell_length_b 9.831255
_cell_length_c 14.160646
_cell_angle_alpha 90.000000
_cell_angle_beta 68.181083
_cell_angle_gamma 90.000000
_cell_volume 2325.981881
_symmetry_space_group_name_H-M "C 2/M"
_symmetry_group_IT_number 12
_symmetry_cell_setting 'monoclinic'
loop_
_space_group_symop_operation_xyz
x,y,z
-x,y,-z
-x,-y,-z
x,-y,z
1/2+x,1/2+y,z
1/2-x,1/2+y,-z
1/2-x,1/2-y,-z
1/2+x,1/2-y,z
loop_
_atom_site_type_symbol
_atom_site_label
_atom_site_fract_x
_atom_site_fract_y
_atom_site_fract_z
Si Si1 0.658584 0.158769 0.440973
Si Si2 0.851678 0.842183 0.374761
Si Si3 0.691634 0.154251 0.924727
Si Si4 0.577904 0.285245 0.108378
Si Si5 0.425636 0.854747 0.191152
Si Si6 0.000000 0.000000 0.000000
Si Si7 0.151073 0.156055 0.267111
O O1 0.755925 0.161583 0.401212
O O2 0.630228 0.248499 0.543190
O O3 0.633511 0.237684 0.357911
O O4 0.634125 0.000000 0.455092
O O5 0.894598 0.771656 0.266379
O O6 0.874447 0.000000 0.376779
O O7 0.614681 0.151619 0.891955
O O8 0.763839 0.193692 0.821268
O O9 0.708653 0.000000 0.949682
O O10 0.663753 0.250224 0.022369
O O11 0.520737 0.155064 0.141290
O O12 0.533185 0.384527 0.058393
O O13 0.590423 0.338945 0.208090
O O14 0.399663 0.000000 0.246316
O O15 0.157019 0.000000 0.300159
#
# Coordination Sequence:
#
# PCOD9208319 Si02
#       7
#     8   8   8   8   8   2   8
#     4  10  21  39  62  94 129 162 205 259 318 375
#     4  10  21  37  65  95 125 164 208 257 311 381
#     4  10  21  39  61  88 120 161 211 261 310 370
#     4  12  24  41  61  88 128 169 215 258 311 374
#     4  11  22  38  64  91 124 167 211 258 309 377
#     4  12  24  40  58  88 122 176 208 260 306 382
#     4  11  23  40  63  92 125 165 209 266 319 366
#
# _framework density 21.496299
#
# number of rings (size 3 to 8) (size 9 to 14) (size 15 to 20)
#    0.000    1.280    4.000    1.920    1.120    3.840 
#    1.440    0.800    0.000    3.840    0.000    0.000 
#    0.000    0.000    0.000    0.000    0.000    0.000 
#
# Total GULP energy -139380.585271 kJ/mol
# GULP energy per Si atom -5575.223411 kJ/mol
# Density = 2.144737 g / cm^3
# Si number density = 21.496299 Si / 1000 Ang^3
#
#
#
# Elastic Constant Matrix: (Units=GPa)
#
#
# Indices 1 2 3 4 5 6 
#
# 1 36.6496 5.5895 -0.6386 0.0000 16.7897 0.0000
# 2 5.5895 159.1182 67.0695 0.0000 16.9438 0.0000
# 3 -0.6386 67.0695 88.7889 0.0000 27.9221 0.0000
# 4 0.0000 0.0000 0.0000 6.8435 0.0000 20.1030
# 5 16.7897 16.9438 27.9221 0.0000 32.9692 0.0000
# 6 0.0000 0.0000 0.0000 20.1030 0.0000 1.3999
#
#
#
# Elastic Compliance Matrix: (Units=1/GPa)
#
#
# Indices 1 2 3 4 5 6 
#
# 1 0.041734 -0.003481 0.012336 0.000000 -0.029912 0.000000
# 2 -0.003481 0.009572 -0.008540 0.000000 0.004086 0.000000
# 3 0.012336 -0.008540 0.025077 0.000000 -0.023131 0.000000
# 4 0.000000 0.000000 0.000000 -0.003548 0.000000 0.050952
# 5 -0.029912 0.004086 -0.023131 0.000000 0.063054 0.000000
# 6 0.000000 0.000000 0.000000 0.050952 0.000000 -0.017345
#
#
# Mechanical properties :
#
#
# Convention : Reuss Voigt Hill
#
# Bulk Modulus (GPa) = 12.98482 47.62196 30.30339
# Shear Modulus (GPa) = 34.82285 22.41161 28.61723
#
# Velocity S-wave (km/s) = 4.02922 3.23240 3.65261
# Velocity P-wave (km/s) = 5.26306 6.01106 5.64945
#
# Compressibility (1/GPa) = 0.07701300
#
# Stress axis : x y z
#
# Youngs Moduli (GPa) = 23.96105 104.47638 39.87777
#
# Poissons Ratio (x) = 0.36364 -0.49193
# Poissons Ratio (y) = 0.08340 0.34057
# Poissons Ratio (z) = -0.29558 0.89225
#
# Static dielectric constant tensor:
#      x y z
#    x 1.812640 0.000000 -0.011470 
#    y 0.000000 1.769960 0.000000 
#    z -0.011470 0.000000 1.756380 
# 
# From -- ./inp_files/230056.got.cif
#   From: 2010.05.17/outbox.cif.g08.bks.cpg/sg12_116_cif.got.tgz:230056.got - 2010.06.03 13:09:07.
