data_PCOD9208484
_publ_section_title
;
Structure prediction by ZEFSAII (Michael W. Deem and Ramdas Pophale) SiO2 
 PCOD9208484
Probable space group: C 2/M
;
_chemical_formula_sum "Si O2"
_cell_formula_units_Z 48
_cell_length_a 15.573001
_cell_length_b 32.751036
_cell_length_c 8.953362
_cell_angle_alpha 90.000000
_cell_angle_beta 150.421108
_cell_angle_gamma 90.000000
_cell_volume 2254.122801
_symmetry_space_group_name_H-M "C 2/M"
_symmetry_group_IT_number 12
_symmetry_cell_setting 'monoclinic'
loop_
_space_group_symop_operation_xyz
x,y,z
-x,y,-z
-x,-y,-z
x,-y,z
1/2+x,1/2+y,z
1/2-x,1/2+y,-z
1/2-x,1/2-y,-z
1/2+x,1/2-y,z
loop_
_atom_site_type_symbol
_atom_site_label
_atom_site_fract_x
_atom_site_fract_y
_atom_site_fract_z
Si Si1 0.771583 0.209512 0.839055
Si Si2 0.027988 0.455226 0.862706
Si Si3 0.974585 0.873480 0.140002
Si Si4 0.665418 0.126520 0.140003
Si Si5 0.067473 0.290488 0.839056
Si Si6 0.165283 0.044774 0.137296
O O1 0.638207 0.204183 0.500000
O O2 0.655093 0.215627 0.810186
O O3 0.887851 0.250000 1.000000
O O4 0.880133 0.168758 0.032222
O O5 0.099549 0.500000 0.927829
O O6 0.841727 0.450679 0.500001
O O7 0.140050 0.414705 0.005010
O O8 0.000000 0.456654 0.000000
O O9 0.157392 0.876253 0.499999
O O10 0.000000 0.872310 0.000000
O O11 0.864959 0.914705 0.005007
O O12 0.500000 0.127690 0.000000
O O13 0.652090 0.168758 0.032223
O O14 0.171722 0.000000 0.072174
O O15 0.000000 0.043346 0.000000
#
# Coordination Sequence:
#
# PCOD9208484 Si02
#       6
#     8   8   8   8   8   8
#     4  10  21  38  58  78 102 133 170 210 255 309
#     4   9  16  27  45  70 101 135 170 208 252 301
#     4  11  21  33  52  78 108 138 172 213 256 301
#     4  11  21  33  52  78 108 138 172 213 256 301
#     4  10  21  38  58  78 102 133 170 210 255 309
#     4   9  16  27  45  70 101 135 170 208 252 301
#
# _framework density 21.294315999999998
#
# number of rings (size 3 to 8) (size 9 to 14) (size 15 to 20)
#    0.000    2.000    0.000    7.000    0.000    4.667 
#    0.000    3.333    0.000    1.000    0.000    7.000 
#    0.000    0.000    0.000    0.000    0.000    0.000 
#
# Total GULP energy -133937.606888 kJ/mol
# GULP energy per Si atom -5580.733620 kJ/mol
# Density = 2.124585 g / cm^3
# Si number density = 21.294316 Si / 1000 Ang^3
#
#
#
# Elastic Constant Matrix: (Units=GPa)
#
#
# Indices 1 2 3 4 5 6 
#
# 1 19.2853 8.4679 8.3613 0.0000 -1.2497 0.0000
# 2 8.4679 230.5595 102.9363 0.0000 -7.3310 0.0000
# 3 8.3613 102.9363 188.4176 0.0000 -11.8761 0.0000
# 4 0.0000 0.0000 0.0000 -204.1410 0.0000 16.7474
# 5 -1.2497 -7.3310 -11.8761 0.0000 14.3360 0.0000
# 6 0.0000 0.0000 0.0000 16.7474 0.0000 11.5161
#
#
#
# Elastic Compliance Matrix: (Units=1/GPa)
#
#
# Indices 1 2 3 4 5 6 
#
# 1 0.053218 -0.001177 -0.001545 0.000000 0.002758 0.000000
# 2 -0.001177 0.005764 -0.003078 0.000000 0.000295 0.000000
# 3 -0.001545 -0.003078 0.007333 0.000000 0.004366 0.000000
# 4 0.000000 0.000000 0.000000 -0.004376 0.000000 0.006364
# 5 0.002758 0.000295 0.004366 0.000000 0.073762 0.000000
# 6 0.000000 0.000000 0.000000 0.006364 0.000000 0.077579
#
#
# Mechanical properties :
#
#
# Convention : Reuss Voigt Hill
#
# Bulk Modulus (GPa) = 18.27652 75.31039 46.79346
# Shear Modulus (GPa) = 20.56604 -14.42465 3.07070
#
# Velocity S-wave (km/s) = 3.11110 -2.60550 1.20215
# Velocity P-wave (km/s) = 4.63753 5.13728 4.89379
#
# Compressibility (1/GPa) = 0.05471503
#
# Stress axis : x y z
#
# Youngs Moduli (GPa) = 18.79049 173.48369 136.37334
#
# Poissons Ratio (x) = 0.20424 0.21065
# Poissons Ratio (y) = 0.02212 0.41980
# Poissons Ratio (z) = 0.02903 0.53403
#
# Static dielectric constant tensor:
#      x y z
#    x 1.776420 0.000000 0.001300 
#    y 0.000000 1.833080 0.000000 
#    z 0.001300 0.000000 1.759680 
# 
# From -- ./inp_files/170820.got.cif
#   From: 2010.05.17/outbox.cif.g08.bks.cpg/sg12_86_cif.got.tgz:170820.got - 2010.06.03 13:09:07.
