data_PCOD9208566
_publ_section_title
;
Structure prediction by ZEFSAII (Michael W. Deem and Ramdas Pophale) SiO2 
 PCOD9208566
Probable space group: C 2/M
;
_chemical_formula_sum "Si O2"
_cell_formula_units_Z 64
_cell_length_a 14.866251
_cell_length_b 9.157911
_cell_length_c 27.712673
_cell_angle_alpha 90.000000
_cell_angle_beta 51.441634
_cell_angle_gamma 90.000000
_cell_volume 2950.315037
_symmetry_space_group_name_H-M "C 2/M"
_symmetry_group_IT_number 12
_symmetry_cell_setting 'monoclinic'
loop_
_space_group_symop_operation_xyz
x,y,z
-x,y,-z
-x,-y,-z
x,-y,z
1/2+x,1/2+y,z
1/2-x,1/2+y,-z
1/2-x,1/2-y,-z
1/2+x,1/2-y,z
loop_
_atom_site_type_symbol
_atom_site_label
_atom_site_fract_x
_atom_site_fract_y
_atom_site_fract_z
Si Si1 0.383923 0.673424 0.101413
Si Si2 0.630442 0.669571 0.046724
Si Si3 0.166723 0.168969 0.144886
Si Si4 0.088243 0.168905 0.354848
Si Si5 0.126607 0.828094 0.452301
Si Si6 0.370511 0.826237 0.399101
Si Si7 0.292718 0.672399 0.240903
Si Si8 0.037620 0.672090 0.740773
O O1 0.381084 0.500000 0.091396
O O2 0.516590 0.723458 0.057282
O O3 0.293063 0.760515 0.099866
O O4 0.337580 0.692991 0.171647
O O5 0.645327 0.500000 0.028664
O O6 0.608299 0.675494 0.111716
O O7 0.750000 0.750000 0.000000
O O8 0.086743 0.258227 0.207958
O O9 0.174967 0.000000 0.156495
O O10 0.146747 0.175289 0.388017
O O11 0.167409 0.260411 0.292392
O O12 0.960837 0.236305 0.400359
O O13 0.081741 0.000000 0.342452
O O14 0.238837 0.770631 0.442120
O O15 0.000000 0.760732 0.500000
O O16 0.118134 0.000000 0.469231
O O17 0.417316 0.809285 0.328607
O O18 0.372841 0.000000 0.409540
O O19 0.290182 0.500000 0.251456
O O20 0.376958 0.750696 0.250362
O O21 0.032969 0.500000 0.752445
#
# Coordination Sequence:
#
# PCOD9208566 Si02
#       8
#     8   8   8   8   8   8   8   8
#     4  10  22  41  61  86 120 156 193 237 291 353
#     4  10  23  43  62  84 118 155 198 244 291 341
#     4  11  23  40  61  90 122 154 194 242 291 345
#     4  11  22  37  58  89 118 150 197 241 287 350
#     4   9  19  38  60  80 112 157 198 240 292 346
#     4  10  21  38  58  85 118 154 192 237 294 349
#     4  11  21  37  61  87 121 157 189 236 295 346
#     4  11  21  36  60  89 120 155 194 234 288 355
#
# _framework density 21.692598
#
# number of rings (size 3 to 8) (size 9 to 14) (size 15 to 20)
#    0.000    1.625    2.500    2.250    0.000    7.500 
#    0.000    2.500    0.000    2.625    0.000    0.000 
#    0.000    0.000    0.000    0.000    0.000    0.000 
#
# Total GULP energy -178904.990758 kJ/mol
# GULP energy per Si atom -5590.780961 kJ/mol
# Density = 2.164323 g / cm^3
# Si number density = 21.692598 Si / 1000 Ang^3
#
#
#
# Elastic Constant Matrix: (Units=GPa)
#
#
# Indices 1 2 3 4 5 6 
#
# 1 133.2195 26.7615 14.4568 0.0000 -35.5812 0.0000
# 2 26.7615 50.7718 20.1308 0.0000 -9.8202 0.0000
# 3 14.4568 20.1308 66.7703 0.0000 -30.7706 0.0000
# 4 0.0000 0.0000 0.0000 16.8719 0.0000 -8.9809
# 5 -35.5812 -9.8202 -30.7706 0.0000 46.8407 0.0000
# 6 0.0000 0.0000 0.0000 -8.9809 0.0000 34.4491
#
#
#
# Elastic Compliance Matrix: (Units=1/GPa)
#
#
# Indices 1 2 3 4 5 6 
#
# 1 0.010669 -0.005233 0.003581 0.000000 0.009360 0.000000
# 2 -0.005233 0.024941 -0.008331 0.000000 -0.004219 0.000000
# 3 0.003581 -0.008331 0.024613 0.000000 0.017143 0.000000
# 4 0.000000 0.000000 0.000000 0.068820 0.000000 0.017942
# 5 0.009360 -0.004219 0.017143 0.000000 0.038836 0.000000
# 6 0.000000 0.000000 0.000000 0.017942 0.000000 0.033706
#
#
# Mechanical properties :
#
#
# Convention : Reuss Voigt Hill
#
# Bulk Modulus (GPa) = 24.83991 41.49553 33.16772
# Shear Modulus (GPa) = 21.27934 32.25985 26.76960
#
# Velocity S-wave (km/s) = 3.13541 3.86052 3.51671
# Velocity P-wave (km/s) = 4.95817 6.24836 5.64027
#
# Compressibility (1/GPa) = 0.04025779
#
# Stress axis : x y z
#
# Youngs Moduli (GPa) = 93.73065 40.09401 40.62883
#
# Poissons Ratio (x) = 0.20981 -0.14550
# Poissons Ratio (y) = 0.49049 0.33847
# Poissons Ratio (z) = -0.33566 0.33402
#
# Static dielectric constant tensor:
#      x y z
#    x 1.809390 0.000000 -0.011280 
#    y 0.000000 1.722800 0.000000 
#    z -0.011280 0.000000 1.833210 
# 
# From -- ./inp_files/360000.got.cif
#   From: 2010.05.17/outbox.cif.g08.bks.cpg/sg12_180_cif.got.tgz:360000.got - 2010.06.03 13:09:07.
