data_PCOD9208714
_publ_section_title
;
Structure prediction by ZEFSAII (Michael W. Deem and Ramdas Pophale) SiO2 
 PCOD9208714
Probable space group: C 2/M
;
_chemical_formula_sum "Si O2"
_cell_formula_units_Z 48
_cell_length_a 10.480822
_cell_length_b 8.778636
_cell_length_c 27.763945
_cell_angle_alpha 90.000000
_cell_angle_beta 100.962174
_cell_angle_gamma 90.000000
_cell_volume 2507.874344
_symmetry_space_group_name_H-M "C 2/M"
_symmetry_group_IT_number 12
_symmetry_cell_setting 'monoclinic'
loop_
_space_group_symop_operation_xyz
x,y,z
-x,y,-z
-x,-y,-z
x,-y,z
1/2+x,1/2+y,z
1/2-x,1/2+y,-z
1/2-x,1/2-y,-z
1/2+x,1/2-y,z
loop_
_atom_site_type_symbol
_atom_site_label
_atom_site_fract_x
_atom_site_fract_y
_atom_site_fract_z
Si Si1 0.644158 0.317311 0.028791
Si Si2 0.508792 0.182598 0.302509
Si Si3 0.857780 0.316215 0.472404
Si Si4 0.294201 0.182482 0.862373
Si Si5 0.505409 0.317521 0.805298
Si Si6 0.277347 0.816248 0.358613
O O1 0.654575 0.500000 0.030382
O O2 0.668315 0.252840 0.083658
O O3 0.500000 0.277136 0.000000
O O4 0.750000 0.250000 0.000000
O O5 0.499374 0.256288 0.249286
O O6 0.385040 0.224872 0.326451
O O7 0.640709 0.239177 0.336977
O O8 0.511299 0.000000 0.298283
O O9 0.854179 0.500000 0.474574
O O10 0.750000 0.250000 0.500000
O O11 0.828155 0.272532 0.415205
O O12 0.000000 0.265852 0.500000
O O13 0.391148 0.245530 0.828829
O O14 0.145571 0.220953 0.838222
O O15 0.304800 0.000000 0.865408
O O16 0.491354 0.500000 0.804208
O O17 0.261738 0.000000 0.356387
#
# Coordination Sequence:
#
# PCOD9208714 Si02
#       6
#     8   8   8   8   8   8
#     4  11  24  41  62  90 123 159 200 245 293 347
#     4  11  23  39  61  87 115 152 196 239 288 347
#     4  10  21  38  59  85 117 152 193 240 289 345
#     4  11  24  41  63  91 120 155 199 243 292 350
#     4  11  24  41  61  88 121 154 193 242 293 348
#     4  10  22  39  59  85 118 154 192 239 293 345
#
# _framework density 19.139714999999999
#
# number of rings (size 3 to 8) (size 9 to 14) (size 15 to 20)
#    0.000    1.333    0.000    5.000    0.000   14.333 
#    0.000    0.000    0.000    0.000    0.000    0.000 
#    0.000    0.000    0.000    0.000    0.000    0.000 
#
# Total GULP energy -134277.670329 kJ/mol
# GULP energy per Si atom -5594.902930 kJ/mol
# Density = 1.909615 g / cm^3
# Si number density = 19.139715 Si / 1000 Ang^3
#
#
#
# Elastic Constant Matrix: (Units=GPa)
#
#
# Indices 1 2 3 4 5 6 
#
# 1 69.7347 14.8015 -25.4959 0.0000 -1.1289 0.0000
# 2 14.8015 20.8025 0.0471 0.0000 5.6507 0.0000
# 3 -25.4959 0.0471 58.6869 0.0000 0.2007 0.0000
# 4 0.0000 0.0000 0.0000 28.0492 0.0000 -3.8938
# 5 -1.1289 5.6507 0.2007 0.0000 43.9700 0.0000
# 6 0.0000 0.0000 0.0000 -3.8938 0.0000 35.6472
#
#
#
# Elastic Compliance Matrix: (Units=1/GPa)
#
#
# Indices 1 2 3 4 5 6 
#
# 1 0.021056 -0.015686 0.009152 0.000000 0.002515 0.000000
# 2 -0.015686 0.061495 -0.006836 0.000000 -0.008274 0.000000
# 3 0.009152 -0.006836 0.021017 0.000000 0.001017 0.000000
# 4 0.000000 0.000000 0.000000 0.036201 0.000000 0.003954
# 5 0.002515 -0.008274 0.001017 0.000000 0.023866 0.000000
# 6 0.000000 0.000000 0.000000 0.003954 0.000000 0.028485
#
#
# Mechanical properties :
#
#
# Convention : Reuss Voigt Hill
#
# Bulk Modulus (GPa) = 13.01589 14.21438 13.61514
# Shear Modulus (GPa) = 20.45251 32.19138 26.32194
#
# Velocity S-wave (km/s) = 3.27248 4.10556 3.71246
# Velocity P-wave (km/s) = 4.59282 5.46964 5.05030
#
# Compressibility (1/GPa) = 0.07682915
#
# Stress axis : x y z
#
# Youngs Moduli (GPa) = 47.49228 16.26149 47.57965
#
# Poissons Ratio (x) = 0.25507 -0.43543
# Poissons Ratio (y) = 0.74495 0.32523
# Poissons Ratio (z) = -0.43463 0.11116
#
# Static dielectric constant tensor:
#      x y z
#    x 1.626970 0.000000 0.007520 
#    y 0.000000 1.642720 0.000000 
#    z 0.007520 0.000000 1.628630 
# 
# From -- ./inp_files/371860.got.cif
#   From: 2010.05.17/outbox.cif.g08.bks.cpg/sg12_186_cif.got.tgz:371860.got - 2010.06.03 13:09:07.
