data_PCOD9208071
_publ_section_title
;
Structure prediction by ZEFSAII (Michael W. Deem and Ramdas Pophale) SiO2 
 PCOD9208071
Probable space group: C 2/M
;
_chemical_formula_sum "Si O2"
_cell_formula_units_Z 48
_cell_length_a 19.862511
_cell_length_b 17.249973
_cell_length_c 15.335688
_cell_angle_alpha 90.000000
_cell_angle_beta 28.462964
_cell_angle_gamma 90.000000
_cell_volume 2504.213202
_symmetry_space_group_name_H-M "C 2/M"
_symmetry_group_IT_number 12
_symmetry_cell_setting 'monoclinic'
loop_
_space_group_symop_operation_xyz
x,y,z
-x,y,-z
-x,-y,-z
x,-y,z
1/2+x,1/2+y,z
1/2-x,1/2+y,-z
1/2-x,1/2-y,-z
1/2+x,1/2-y,z
loop_
_atom_site_type_symbol
_atom_site_label
_atom_site_fract_x
_atom_site_fract_y
_atom_site_fract_z
Si Si1 0.121243 0.406700 0.127362
Si Si2 0.945203 0.406845 0.157103
Si Si3 0.675426 0.689022 0.520034
Si Si4 0.155100 0.909260 0.850925
Si Si5 0.589019 0.409627 0.126543
Si Si6 0.070268 0.683077 0.514688
O O1 0.110533 0.500000 0.152159
O O2 0.055181 0.386860 0.108926
O O3 0.031257 0.364018 0.304170
O O4 0.286246 0.386391 0.949275
O O5 0.930865 0.500000 0.172416
O O6 0.796737 0.368384 0.349103
O O7 0.000000 0.381520 0.000000
O O8 0.750000 0.750000 0.500000
O O9 0.549400 0.642254 0.709420
O O10 0.607521 0.736082 0.517545
O O11 0.283020 0.863171 0.663529
O O12 0.165508 0.000000 0.813661
O O13 0.157711 0.904323 0.952476
O O14 0.000000 0.880873 0.000000
O O15 0.551512 0.500000 0.183612
O O16 0.000000 0.690402 0.500000
#
# Coordination Sequence:
#
# PCOD9208071 Si02
#       6
#     8   8   8   8   8   8
#     4  10  21  41  68  94 124 166 211 261 313 372
#     4  10  23  45  70  91 118 166 223 264 303 365
#     4  12  25  41  61  93 131 169 206 255 320 374
#     4  10  21  37  61  92 125 163 209 257 307 372
#     4  10  22  41  64  89 123 165 212 260 309 367
#     4  12  24  40  60  96 133 170 203 251 320 388
#
# _framework density 19.167698000000001
#
# number of rings (size 3 to 8) (size 9 to 14) (size 15 to 20)
#    0.000    1.333    3.333    2.000    0.000    4.667 
#    0.000    0.000    0.000    5.000    0.000    0.000 
#    0.000    0.000    0.000    0.000    0.000    0.000 
#
# Total GULP energy -134151.504660 kJ/mol
# GULP energy per Si atom -5589.646027 kJ/mol
# Density = 1.912407 g / cm^3
# Si number density = 19.167698 Si / 1000 Ang^3
#
#
#
# Elastic Constant Matrix: (Units=GPa)
#
#
# Indices 1 2 3 4 5 6 
#
# 1 117.6644 24.4576 30.0940 0.0003 -3.5729 0.0000
# 2 24.4576 38.5529 45.3936 0.0007 -5.0825 0.0000
# 3 30.0940 45.3936 112.1060 0.0012 -9.7393 0.0000
# 4 0.0003 0.0007 0.0012 -426.2656 -0.0005 38.5733
# 5 -3.5729 -5.0825 -9.7393 -0.0005 31.5600 0.0000
# 6 0.0000 0.0000 0.0000 38.5733 0.0000 22.6927
#
#
#
# Elastic Compliance Matrix: (Units=1/GPa)
#
#
# Indices 1 2 3 4 5 6 
#
# 1 0.009793 -0.005953 -0.000211 0.000000 0.000085 0.000000
# 2 -0.005953 0.053296 -0.019827 0.000000 0.001790 0.000000
# 3 -0.000211 -0.019827 0.017186 0.000000 0.002087 0.000000
# 4 0.000000 0.000000 0.000000 -0.002033 0.000000 0.003456
# 5 0.000085 0.001790 0.002087 0.000000 0.032628 0.000000
# 6 0.000000 0.000000 0.000000 0.003456 0.000000 0.038192
#
#
# Mechanical properties :
#
#
# Convention : Reuss Voigt Hill
#
# Bulk Modulus (GPa) = 35.34385 52.02374 43.68380
# Shear Modulus (GPa) = 23.75596 -63.17738 -19.71071
#
# Velocity S-wave (km/s) = 3.52429 -5.74734 -3.21024
# Velocity P-wave (km/s) = 5.91947 4.10393 3.01645
#
# Compressibility (1/GPa) = 0.02829347
#
# Stress axis : x y z
#
# Youngs Moduli (GPa) = 102.11774 18.76327 58.18591
#
# Poissons Ratio (x) = 0.11169 0.01228
# Poissons Ratio (y) = 0.60787 1.15364
# Poissons Ratio (z) = 0.02155 0.37202
#
# Static dielectric constant tensor:
#      x y z
#    x 1.687060 0.000000 -0.012260 
#    y 0.000000 1.655750 0.000000 
#    z -0.012260 0.000000 1.621160 
# 
# From -- ./inp_files/226742.got.cif
#   From: 2010.05.17/outbox.cif.g08.bks.cpg/sg12_114_cif.got.tgz:226742.got - 2010.06.03 13:09:07.
