data_PCOD9208216
_publ_section_title
;
Structure prediction by ZEFSAII (Michael W. Deem and Ramdas Pophale) SiO2 
 PCOD9208216
Probable space group: C 2/M
;
_chemical_formula_sum "Si O2"
_cell_formula_units_Z 56
_cell_length_a 17.235406
_cell_length_b 22.704877
_cell_length_c 14.363179
_cell_angle_alpha 90.000000
_cell_angle_beta 150.053164
_cell_angle_gamma 90.000000
_cell_volume 2805.837564
_symmetry_space_group_name_H-M "C 2/M"
_symmetry_group_IT_number 12
_symmetry_cell_setting 'monoclinic'
loop_
_space_group_symop_operation_xyz
x,y,z
-x,y,-z
-x,-y,-z
x,-y,z
1/2+x,1/2+y,z
1/2-x,1/2+y,-z
1/2-x,1/2-y,-z
1/2+x,1/2-y,z
loop_
_atom_site_type_symbol
_atom_site_label
_atom_site_fract_x
_atom_site_fract_y
_atom_site_fract_z
Si Si1 0.298779 0.430636 0.534340
Si Si2 0.901173 0.763321 0.719808
Si Si3 0.168497 0.789902 0.717463
Si Si4 0.793964 0.358713 0.385142
Si Si5 0.393096 0.850882 0.807493
Si Si6 0.342392 0.839420 0.229144
Si Si7 0.394596 0.641428 0.170203
O O1 0.283349 0.500000 0.508641
O O2 0.252768 0.408881 0.590182
O O3 0.188131 0.395935 0.346598
O O4 0.474902 0.408912 0.698137
O O5 0.750000 0.750000 0.500000
O O6 0.831903 0.807063 0.726549
O O7 0.971645 0.702253 0.830334
O O8 0.016966 0.800810 0.777521
O O9 0.267153 0.813479 0.734209
O O10 0.212920 0.727896 0.810655
O O11 0.158158 0.841648 0.782020
O O12 0.000000 0.777661 0.500000
O O13 0.799986 0.372173 0.281827
O O14 0.971734 0.339435 0.592244
O O15 0.500000 0.877329 0.000000
O O16 0.250704 0.867742 0.048598
#
# Coordination Sequence:
#
# PCOD9208216 Si02
#       7
#     8   8   8   8   8   8   8
#     4  11  26  47  63  82 121 172 222 262 298 356
#     4  11  18  36  57  91 126 165 189 246 311 381
#     4  12  20  37  60 100 137 161 186 245 318 394
#     4  10  21  37  63  91 127 157 197 250 315 374
#     4  12  24  37  63  95 129 161 211 250 311 375
#     4  11  21  36  62 101 129 153 192 254 325 382
#     4  11  24  37  63  93 129 163 208 250 314 374
#
# _framework density 19.958390000000001
#
# number of rings (size 3 to 8) (size 9 to 14) (size 15 to 20)
#    0.000    0.857    7.143    2.143    2.000    2.000 
#    0.000    5.000    0.000    0.000    0.000    0.000 
#    0.000    0.000    0.000    0.000    0.000    0.000 
#
# Total GULP energy -156473.930483 kJ/mol
# GULP energy per Si atom -5588.354660 kJ/mol
# Density = 1.991296 g / cm^3
# Si number density = 19.958390 Si / 1000 Ang^3
#
#
#
# Elastic Constant Matrix: (Units=GPa)
#
#
# Indices 1 2 3 4 5 6 
#
# 1 61.2571 24.1804 -12.6942 0.0000 -3.4283 0.0000
# 2 24.1804 114.3756 17.3714 0.0000 -8.0999 0.0000
# 3 -12.6942 17.3714 73.9211 0.0000 -18.2606 0.0000
# 4 0.0000 0.0000 0.0000 11.3188 0.0000 -1.4419
# 5 -3.4283 -8.0999 -18.2606 0.0000 25.5512 0.0000
# 6 0.0000 0.0000 0.0000 -1.4419 0.0000 12.9764
#
#
#
# Elastic Compliance Matrix: (Units=1/GPa)
#
#
# Indices 1 2 3 4 5 6 
#
# 1 0.019657 -0.004658 0.005777 0.000000 0.005289 0.000000
# 2 -0.004658 0.010228 -0.003105 0.000000 0.000398 0.000000
# 3 0.005777 -0.003105 0.018456 0.000000 0.012981 0.000000
# 4 0.000000 0.000000 0.000000 0.089617 0.000000 0.009958
# 5 0.005289 0.000398 0.012981 0.000000 0.049250 0.000000
# 6 0.000000 0.000000 0.000000 0.009958 0.000000 0.078169
#
#
# Mechanical properties :
#
#
# Convention : Reuss Voigt Hill
#
# Bulk Modulus (GPa) = 22.53914 34.14099 28.34006
# Shear Modulus (GPa) = 17.59696 24.68236 21.13966
#
# Velocity S-wave (km/s) = 2.97253 3.52048 3.25805
# Velocity P-wave (km/s) = 4.80613 5.80243 5.32762
#
# Compressibility (1/GPa) = 0.04436727
#
# Stress axis : x y z
#
# Youngs Moduli (GPa) = 50.87335 97.77288 54.18193
#
# Poissons Ratio (x) = 0.45547 -0.31300
# Poissons Ratio (y) = 0.23699 0.16824
# Poissons Ratio (z) = -0.29389 0.30360
#
# Static dielectric constant tensor:
#      x y z
#    x 1.746960 0.000000 0.000900 
#    y 0.000000 1.671850 0.000000 
#    z 0.000900 0.000000 1.746220 
# 
# From -- ./inp_files/227663.got.cif
#   From: 2010.05.17/outbox.cif.g08.bks.cpg/sg12_114_cif.got.tgz:227663.got - 2010.06.03 13:09:07.
