data_PCOD9208968
_publ_section_title
;
Structure prediction by ZEFSAII (Michael W. Deem and Ramdas Pophale) SiO2 
 PCOD9208968
Probable space group: C 2/M
;
_chemical_formula_sum "Si O2"
_cell_formula_units_Z 64
_cell_length_a 18.934652
_cell_length_b 14.383702
_cell_length_c 19.947834
_cell_angle_alpha 90.000000
_cell_angle_beta 41.794000
_cell_angle_gamma 90.000000
_cell_volume 3620.713738
_symmetry_space_group_name_H-M "C 2/M"
_symmetry_group_IT_number 12
_symmetry_cell_setting 'monoclinic'
loop_
_space_group_symop_operation_xyz
x,y,z
-x,y,-z
-x,-y,-z
x,-y,z
1/2+x,1/2+y,z
1/2-x,1/2+y,-z
1/2-x,1/2-y,-z
1/2+x,1/2-y,z
loop_
_atom_site_type_symbol
_atom_site_label
_atom_site_fract_x
_atom_site_fract_y
_atom_site_fract_z
Si Si1 0.488422 0.891229 0.710244
Si Si2 0.564137 0.108471 0.810513
Si Si3 0.352884 0.244327 0.474797
Si Si4 0.071362 0.750807 0.015143
Si Si5 0.736596 0.733660 0.695925
Si Si6 0.534126 0.391433 0.813120
Si Si7 0.191704 0.255550 0.205824
Si Si8 0.515208 0.391600 0.309927
O O1 0.529010 0.881844 0.757898
O O2 0.574104 0.840477 0.602277
O O3 0.379412 0.835231 0.778132
O O4 0.477418 0.000000 0.702763
O O5 0.474462 0.156552 0.919673
O O6 0.669434 0.170180 0.745666
O O7 0.578949 0.000000 0.815208
O O8 0.250000 0.250000 0.500000
O O9 0.314548 0.234358 0.577788
O O10 0.423572 0.336172 0.413785
O O11 0.048365 0.831869 0.085009
O O12 0.193108 0.746262 0.908423
O O13 0.000000 0.770104 0.000000
O O14 0.648062 0.654334 0.747300
O O15 0.793142 0.721226 0.726709
O O16 0.531749 0.500000 0.831987
O O17 0.510059 0.381261 0.751339
O O18 0.124693 0.161025 0.246642
O O19 0.518113 0.500000 0.324475
#
# Coordination Sequence:
#
# PCOD9208968 Si02
#       8
#     8   8   8   8   8   8   8   8
#     4  10  23  40  59  89 121 153 193 240 293 350
#     4  10  21  38  60  88 117 148 198 244 285 347
#     4  11  19  37  67  87 115 155 198 241 287 342
#     4  11  21  39  60  88 116 155 196 239 295 344
#     4  11  21  38  59  91 116 154 194 243 293 336
#     4  10  21  38  60  88 117 148 198 244 285 347
#     4  11  23  40  58  82 125 156 187 244 297 349
#     4  10  23  40  59  89 121 153 193 240 293 350
#
# _framework density 17.676072999999999
#
# number of rings (size 3 to 8) (size 9 to 14) (size 15 to 20)
#    0.000    1.500    5.000    2.250    0.000    8.000 
#    0.000    3.750    0.000    0.000    0.000    0.000 
#    0.000    0.000    0.000    0.000    0.000    0.000 
#
# Total GULP energy -178720.647628 kJ/mol
# GULP energy per Si atom -5585.020238 kJ/mol
# Density = 1.763584 g / cm^3
# Si number density = 17.676073 Si / 1000 Ang^3
#
#
#
# Elastic Constant Matrix: (Units=GPa)
#
#
# Indices 1 2 3 4 5 6 
#
# 1 28.7994 -13.0222 -8.3456 0.0000 -11.1560 0.0000
# 2 -13.0222 36.3569 18.6562 0.0000 -12.5397 0.0000
# 3 -8.3456 18.6562 89.0211 0.0000 -9.5943 0.0000
# 4 0.0000 0.0000 0.0000 4.6251 0.0000 1.0157
# 5 -11.1560 -12.5397 -9.5943 0.0000 32.5515 0.0000
# 6 0.0000 0.0000 0.0000 1.0157 0.0000 0.7737
#
#
#
# Elastic Compliance Matrix: (Units=1/GPa)
#
#
# Indices 1 2 3 4 5 6 
#
# 1 0.065301 0.034537 0.002819 0.000000 0.036516 0.000000
# 2 0.034537 0.052833 -0.004508 0.000000 0.030860 0.000000
# 3 0.002819 -0.004508 0.012765 0.000000 0.002992 0.000000
# 4 0.000000 0.000000 0.000000 0.303785 0.000000 -0.398789
# 5 0.036516 0.030860 0.002992 0.000000 0.056005 0.000000
# 6 0.000000 0.000000 0.000000 -0.398789 0.000000 1.815975
#
#
# Mechanical properties :
#
#
# Convention : Reuss Voigt Hill
#
# Bulk Modulus (GPa) = 5.08660 16.52828 10.80744
# Shear Modulus (GPa) = 2.16779 18.04932 10.10855
#
# Velocity S-wave (km/s) = 1.10863 3.19896 2.39399
# Velocity P-wave (km/s) = 2.12666 4.79744 3.71066
#
# Compressibility (1/GPa) = 0.19659485
#
# Stress axis : x y z
#
# Youngs Moduli (GPa) = 15.31362 18.92766 78.33986
#
# Poissons Ratio (x) = -0.65370 -0.22087
# Poissons Ratio (y) = -0.52889 0.35319
# Poissons Ratio (z) = -0.04318 0.08533
#
# Static dielectric constant tensor:
#      x y z
#    x 1.582170 0.000000 0.005530 
#    y 0.000000 1.590060 0.000000 
#    z 0.005530 0.000000 1.586520 
# 
# From -- ./inp_files/270670.got.cif
#   From: 2010.05.17/outbox.cif.g08.bks.cpg/sg12_136_cif.got.tgz:270670.got - 2010.06.03 13:09:07.
