data_PCOD9208351
_publ_section_title
;
Structure prediction by ZEFSAII (Michael W. Deem and Ramdas Pophale) SiO2 
 PCOD9208351
Probable space group: C 2/M
;
_chemical_formula_sum "Si O2"
_cell_formula_units_Z 64
_cell_length_a 23.885508
_cell_length_b 9.153193
_cell_length_c 15.907258
_cell_angle_alpha 90.000000
_cell_angle_beta 93.841402
_cell_angle_gamma 90.000000
_cell_volume 3469.969104
_symmetry_space_group_name_H-M "C 2/M"
_symmetry_group_IT_number 12
_symmetry_cell_setting 'monoclinic'
loop_
_space_group_symop_operation_xyz
x,y,z
-x,y,-z
-x,-y,-z
x,-y,z
1/2+x,1/2+y,z
1/2-x,1/2+y,-z
1/2-x,1/2-y,-z
1/2+x,1/2-y,z
loop_
_atom_site_type_symbol
_atom_site_label
_atom_site_fract_x
_atom_site_fract_y
_atom_site_fract_z
Si Si1 0.603035 0.823575 0.189650
Si Si2 0.176479 0.174508 0.342599
Si Si3 0.589998 0.169559 0.448201
Si Si4 0.166575 0.326072 0.033043
Si Si5 0.211121 0.172102 0.687312
Si Si6 0.584802 0.330250 0.616468
Si Si7 0.209874 0.174183 0.881075
Si Si8 0.499859 0.168590 0.712476
O O1 0.645271 0.742646 0.257579
O O2 0.619124 0.785834 0.095954
O O3 0.539803 0.790523 0.213042
O O4 0.610973 0.000000 0.201238
O O5 0.141908 0.237095 0.418031
O O6 0.239649 0.233855 0.348276
O O7 0.174258 0.000000 0.340346
O O8 0.569563 0.235710 0.533541
O O9 0.542533 0.176733 0.371519
O O10 0.605581 0.000000 0.459882
O O11 0.164393 0.500000 0.020200
O O12 0.226348 0.291613 0.083705
O O13 0.168563 0.248540 0.943535
O O14 0.151246 0.185088 0.637219
O O15 0.203609 0.217995 0.783847
O O16 0.227752 0.000000 0.688754
O O17 0.571332 0.500000 0.601519
O O18 0.551319 0.270787 0.693726
O O19 0.202875 0.000000 0.885361
O O20 0.517861 0.000000 0.723364
#
# Coordination Sequence:
#
# PCOD9208351 Si02
#       8
#     8   8   8   8   8   8   8   8
#     4   9  17  33  54  76 106 142 169 202 259 317
#     4  11  21  32  52  81 106 131 170 217 257 296
#     4  10  21  38  58  76 102 137 169 208 262 316
#     4   9  16  28  50  77 104 132 167 207 250 299
#     4  10  21  38  53  69 104 148 175 200 254 319
#     4  11  23  36  54  77 101 133 176 220 257 298
#     4   9  17  30  49  72 103 137 168 205 248 301
#     4   9  19  35  56  77 100 134 173 209 255 311
#
# _framework density 18.443968000000002
#
# number of rings (size 3 to 8) (size 9 to 14) (size 15 to 20)
#    0.000    2.250    1.250    3.000    0.000    6.500 
#    0.000    0.000    0.000    0.750    0.000    5.250 
#    0.000    0.000    0.000    0.000    0.000    0.000 
#
# Total GULP energy -178574.512824 kJ/mol
# GULP energy per Si atom -5580.453526 kJ/mol
# Density = 1.840199 g / cm^3
# Si number density = 18.443968 Si / 1000 Ang^3
#
#
#
# Elastic Constant Matrix: (Units=GPa)
#
#
# Indices 1 2 3 4 5 6 
#
# 1 63.7700 40.2051 13.3640 0.0000 -32.3750 0.0000
# 2 40.2051 66.8563 12.0694 0.0000 -16.3717 0.0000
# 3 13.3640 12.0694 47.3190 0.0000 -27.5095 0.0000
# 4 0.0000 0.0000 0.0000 23.8159 0.0000 -7.9898
# 5 -32.3750 -16.3717 -27.5095 0.0000 32.4556 0.0000
# 6 0.0000 0.0000 0.0000 -7.9898 0.0000 24.9151
#
#
#
# Elastic Compliance Matrix: (Units=1/GPa)
#
#
# Indices 1 2 3 4 5 6 
#
# 1 0.069851 -0.027258 0.038915 0.000000 0.088912 0.000000
# 2 -0.027258 0.027742 -0.013898 0.000000 -0.024977 0.000000
# 3 0.038915 -0.013898 0.063441 0.000000 0.085581 0.000000
# 4 0.000000 0.000000 0.000000 0.047051 0.000000 0.015088
# 5 0.088912 -0.024977 0.085581 0.000000 0.179442 0.000000
# 6 0.000000 0.000000 0.000000 0.015088 0.000000 0.044975
#
#
# Mechanical properties :
#
#
# Convention : Reuss Voigt Hill
#
# Bulk Modulus (GPa) = 6.38768 34.35803 20.37286
# Shear Modulus (GPa) = 10.22145 23.72444 16.97294
#
# Velocity S-wave (km/s) = 2.35668 3.59039 3.03684
# Velocity P-wave (km/s) = 3.29788 5.98804 4.83387
#
# Compressibility (1/GPa) = 0.15655125
#
# Stress axis : x y z
#
# Youngs Moduli (GPa) = 14.31623 36.04578 15.76271
#
# Poissons Ratio (x) = 0.98255 -0.61341
# Poissons Ratio (y) = 0.39024 0.21907
# Poissons Ratio (z) = -0.55712 0.50097
#
# Static dielectric constant tensor:
#      x y z
#    x 1.643280 0.000000 -0.016720 
#    y 0.000000 1.618050 0.000000 
#    z -0.016720 0.000000 1.634490 
# 
# From -- ./inp_files/281302.got.cif
#   From: 2010.05.17/outbox.cif.g08.bks.cpg/sg12_141_cif.got.tgz:281302.got - 2010.06.03 13:09:07.
