data_PCOD9208364
_publ_section_title
;
Structure prediction by ZEFSAII (Michael W. Deem and Ramdas Pophale) SiO2 
 PCOD9208364
Probable space group: C 2/M
;
_chemical_formula_sum "Si O2"
_cell_formula_units_Z 48
_cell_length_a 15.096117
_cell_length_b 7.987474
_cell_length_c 19.171561
_cell_angle_alpha 90.000000
_cell_angle_beta 94.965328
_cell_angle_gamma 90.000000
_cell_volume 2303.028567
_symmetry_space_group_name_H-M "C 2/M"
_symmetry_group_IT_number 12
_symmetry_cell_setting 'monoclinic'
loop_
_space_group_symop_operation_xyz
x,y,z
-x,y,-z
-x,-y,-z
x,-y,z
1/2+x,1/2+y,z
1/2-x,1/2+y,-z
1/2-x,1/2-y,-z
1/2+x,1/2-y,z
loop_
_atom_site_type_symbol
_atom_site_label
_atom_site_fract_x
_atom_site_fract_y
_atom_site_fract_z
Si Si1 0.740247 0.202369 0.391253
Si Si2 0.351141 0.305081 0.018155
Si Si3 0.379012 0.195332 0.871433
Si Si4 0.775030 0.795384 0.238117
Si Si5 0.558851 0.296752 0.834411
Si Si6 0.101339 0.701934 0.495711
O O1 0.745415 0.262672 0.312128
O O2 0.830487 0.251978 0.437726
O O3 0.654542 0.261217 0.429938
O O4 0.736847 0.000000 0.389931
O O5 0.348102 0.500000 0.032101
O O6 0.398590 0.276037 0.947556
O O7 0.250000 0.250000 0.000000
O O8 0.397735 0.232324 0.089811
O O9 0.291286 0.262456 0.827447
O O10 0.461000 0.222896 0.825609
O O11 0.365375 0.000000 0.884674
O O12 0.874644 0.749499 0.222947
O O13 0.770699 0.000000 0.237562
O O14 0.551678 0.500000 0.835151
O O15 0.096802 0.500000 0.491759
O O16 0.000000 0.763429 0.500000
#
# Coordination Sequence:
#
# PCOD9208364 Si02
#       6
#     8   8   8   8   8   8
#     4   9  18  34  56  78 104 144 181 213 259 319
#     4  11  21  36  58  79 105 142 183 229 278 324
#     4  11  22  37  56  81 108 140 181 227 272 327
#     4   9  19  37  55  74 108 145 177 215 270 325
#     4  10  21  38  55  75 105 142 179 225 276 323
#     4   9  18  33  54  81 111 139 172 219 268 311
#
# _framework density 20.842122
#
# number of rings (size 3 to 8) (size 9 to 14) (size 15 to 20)
#    0.000    2.167    1.667    1.500    0.000    5.000 
#    0.000    4.167    0.000    0.000    0.000    0.000 
#    0.000    0.000    0.000    0.000    0.000    0.000 
#
# Total GULP energy -133948.310697 kJ/mol
# GULP energy per Si atom -5581.179612 kJ/mol
# Density = 2.079468 g / cm^3
# Si number density = 20.842122 Si / 1000 Ang^3
#
#
#
# Elastic Constant Matrix: (Units=GPa)
#
#
# Indices 1 2 3 4 5 6 
#
# 1 108.6544 -4.4833 11.4705 0.0000 -23.2669 0.0000
# 2 -4.4833 12.3509 -4.9672 0.0000 -0.3061 0.0000
# 3 11.4705 -4.9672 79.2074 0.0000 -21.5219 0.0000
# 4 0.0000 0.0000 0.0000 15.4725 0.0000 0.5923
# 5 -23.2669 -0.3061 -21.5219 0.0000 20.2646 0.0000
# 6 0.0000 0.0000 0.0000 0.5923 0.0000 23.8522
#
#
#
# Elastic Compliance Matrix: (Units=1/GPa)
#
#
# Indices 1 2 3 4 5 6 
#
# 1 0.013208 0.006775 0.003740 0.000000 0.019239 0.000000
# 2 0.006775 0.087869 0.009844 0.000000 0.019562 0.000000
# 3 0.003740 0.009844 0.019549 0.000000 0.025205 0.000000
# 4 0.000000 0.000000 0.000000 0.064692 0.000000 -0.001606
# 5 0.019239 0.019562 0.025205 0.000000 0.098500 0.000000
# 6 0.000000 0.000000 0.000000 -0.001606 0.000000 0.041965
#
#
# Mechanical properties :
#
#
# Convention : Reuss Voigt Hill
#
# Bulk Modulus (GPa) = 6.19788 22.69475 14.44631
# Shear Modulus (GPa) = 14.75590 25.13070 19.94330
#
# Velocity S-wave (km/s) = 2.66368 3.47618 3.09669
# Velocity P-wave (km/s) = 3.52711 5.19849 4.44211
#
# Compressibility (1/GPa) = 0.16134555
#
# Stress axis : x y z
#
# Youngs Moduli (GPa) = 75.71165 11.38053 51.15246
#
# Poissons Ratio (x) = -0.07711 -0.19129
# Poissons Ratio (y) = -0.51297 -0.50357
# Poissons Ratio (z) = -0.28314 -0.11203
#
# Static dielectric constant tensor:
#      x y z
#    x 1.760330 0.000000 -0.014530 
#    y 0.000000 1.742470 0.000000 
#    z -0.014530 0.000000 1.790060 
# 
# From -- ./inp_files/267639.got.cif
#   From: 2010.05.17/outbox.cif.g08.bks.cpg/sg12_134_cif.got.tgz:267639.got - 2010.06.03 13:09:07.
