data_PCOD9208508
_publ_section_title
;
Structure prediction by ZEFSAII (Michael W. Deem and Ramdas Pophale) SiO2 
 PCOD9208508
Probable space group: C 2/M
;
_chemical_formula_sum "Si O2"
_cell_formula_units_Z 36
_cell_length_a 5.162074
_cell_length_b 24.640953
_cell_length_c 13.814981
_cell_angle_alpha 90.000000
_cell_angle_beta 128.460962
_cell_angle_gamma 90.000000
_cell_volume 1375.978334
_symmetry_space_group_name_H-M "C 2/M"
_symmetry_group_IT_number 12
_symmetry_cell_setting 'monoclinic'
loop_
_space_group_symop_operation_xyz
x,y,z
-x,y,-z
-x,-y,-z
x,-y,z
1/2+x,1/2+y,z
1/2-x,1/2+y,-z
1/2-x,1/2-y,-z
1/2+x,1/2-y,z
loop_
_atom_site_type_symbol
_atom_site_label
_atom_site_fract_x
_atom_site_fract_y
_atom_site_fract_z
Si Si1 0.099420 0.000000 0.409909
Si Si2 0.857073 0.226561 0.675663
Si Si3 0.400021 0.558426 0.089292
Si Si4 0.108333 0.177474 0.914764
Si Si5 0.396873 0.615938 0.587257
O O1 0.500000 0.000000 0.500000
O O2 0.974711 0.941926 0.341750
O O3 0.000000 0.000000 0.500000
O O4 0.476760 0.230618 0.622457
O O5 0.993180 0.170659 0.663230
O O6 0.000262 0.224953 0.817762
O O7 0.520468 0.500000 0.158842
O O8 0.526693 0.617834 0.151745
O O9 0.500000 0.557601 0.000000
O O10 0.000000 0.558376 0.000000
O O11 0.500000 0.174018 0.000000
O O12 0.000000 0.184707 0.000000
O O13 0.500000 0.618529 0.500000
O O14 0.000000 0.614697 0.500000
#
# Coordination Sequence:
#
# PCOD9208508 Si02
#       5
#     4   8   8   8   8
#     4   8  16  34  62  90 116 148 188 236 290 358
#     4  12  26  40  58  88 121 156 206 247 286 355
#     4   8  14  27  49  74 101 134 176 228 283 336
#     4  10  21  38  58  80 113 156 199 245 293 338
#     4  10  21  40  65  91 121 154 191 241 302 354
#
# _framework density 26.163204
#
# number of rings (size 3 to 8) (size 9 to 14) (size 15 to 20)
#    0.000    2.222    0.000    2.667    0.000    5.333 
#    2.000    0.000    0.000    0.000    0.000    0.000 
#    0.000    0.000    0.000    0.000    0.000    0.000 
#
# Total GULP energy -100490.107705 kJ/mol
# GULP energy per Si atom -5582.783761 kJ/mol
# Density = 2.610365 g / cm^3
# Si number density = 26.163204 Si / 1000 Ang^3
#
#
#
# Elastic Constant Matrix: (Units=GPa)
#
#
# Indices 1 2 3 4 5 6 
#
# 1 180.6387 11.4978 34.7916 0.0000 -67.0349 0.0000
# 2 11.4978 118.7533 25.7773 0.0000 -32.1933 0.0000
# 3 34.7916 25.7773 50.1252 0.0000 -30.6394 0.0000
# 4 0.0000 0.0000 0.0000 13.4955 0.0000 -29.1085
# 5 -67.0349 -32.1933 -30.6394 0.0000 47.1669 0.0000
# 6 0.0000 0.0000 0.0000 -29.1085 0.0000 36.3945
#
#
#
# Elastic Compliance Matrix: (Units=1/GPa)
#
#
# Indices 1 2 3 4 5 6 
#
# 1 0.013968 0.004779 0.003277 0.000000 0.025242 0.000000
# 2 0.004779 0.012052 -0.000556 0.000000 0.014658 0.000000
# 3 0.003277 -0.000556 0.034127 0.000000 0.026446 0.000000
# 4 0.000000 0.000000 0.000000 -0.102190 0.000000 -0.081732
# 5 0.025242 0.014658 0.026446 0.000000 0.084260 0.000000
# 6 0.000000 0.000000 0.000000 -0.081732 0.000000 -0.037893
#
#
# Mechanical properties :
#
#
# Convention : Reuss Voigt Hill
#
# Bulk Modulus (GPa) = 13.30708 54.85007 34.07857
# Shear Modulus (GPa) = 347.88792 37.90808 192.89800
#
# Velocity S-wave (km/s) = 11.54370 3.81058 8.59586
# Velocity P-wave (km/s) = 13.51937 6.35380 10.56277
#
# Compressibility (1/GPa) = 0.07514799
#
# Stress axis : x y z
#
# Youngs Moduli (GPa) = 71.59211 82.97140 29.30233
#
# Poissons Ratio (x) = -0.39655 -0.09601
# Poissons Ratio (y) = -0.34217 0.01628
# Poissons Ratio (z) = -0.23458 0.04610
#
# Static dielectric constant tensor:
#      x y z
#    x 1.948900 0.000000 0.002370 
#    y 0.000000 2.244580 0.000000 
#    z 0.002370 0.000000 2.017110 
# 
# From -- ./inp_files/115574.got.cif
#   From: 2010.05.17/outbox.cif.g08.bks.cpg/sg12_58_cif.got.tgz:115574.got - 2010.06.03 13:09:07.
