data_PCOD9208186
_publ_section_title
;
Structure prediction by ZEFSAII (Michael W. Deem and Ramdas Pophale) SiO2 
 PCOD9208186
Probable space group: C 2/M
;
_chemical_formula_sum "Si O2"
_cell_formula_units_Z 48
_cell_length_a 28.934720
_cell_length_b 18.037546
_cell_length_c 8.687607
_cell_angle_alpha 90.000000
_cell_angle_beta 28.743337
_cell_angle_gamma 90.000000
_cell_volume 2180.418045
_symmetry_space_group_name_H-M "C 2/M"
_symmetry_group_IT_number 12
_symmetry_cell_setting 'monoclinic'
loop_
_space_group_symop_operation_xyz
x,y,z
-x,y,-z
-x,-y,-z
x,-y,z
1/2+x,1/2+y,z
1/2-x,1/2+y,-z
1/2-x,1/2-y,-z
1/2+x,1/2-y,z
loop_
_atom_site_type_symbol
_atom_site_label
_atom_site_fract_x
_atom_site_fract_y
_atom_site_fract_z
Si Si1 0.108731 0.416182 0.753722
Si Si2 0.476289 0.159088 0.744523
Si Si3 0.861406 0.828732 0.568056
Si Si4 0.149399 0.790582 0.759606
Si Si5 0.534488 0.413467 0.223119
Si Si6 0.327568 0.157878 0.715470
O O1 0.139026 0.500000 0.640246
O O2 0.173596 0.362193 0.460861
O O3 0.101844 0.397270 0.954807
O O4 0.000000 0.406610 0.000000
O O5 0.500000 0.177919 0.500000
O O6 0.577069 0.121502 0.496344
O O7 0.436566 0.232832 0.946554
O O8 0.857233 0.816142 0.397922
O O9 0.952117 0.875941 0.357681
O O10 0.853072 0.745001 0.660341
O O11 0.765560 0.864579 0.919229
O O12 0.250000 0.750000 0.500000
O O13 0.128224 0.863363 0.922352
O O14 0.500000 0.407459 0.500000
O O15 0.548211 0.500000 0.146180
#
# Coordination Sequence:
#
# PCOD9208186 Si02
#       6
#     8   8   8   8   8   8
#     4   9  19  36  58  85 123 167 211 265 333 400
#     4  11  21  37  61  93 133 174 225 288 346 412
#     4  11  23  40  68  99 133 183 233 288 347 424
#     4  12  25  41  67 102 136 182 241 298 351 419
#     4  11  27  48  71 104 147 190 236 298 366 431
#     4  10  21  37  62  96 130 171 231 279 340 422
#
# _framework density 22.014126999999998
#
# number of rings (size 3 to 8) (size 9 to 14) (size 15 to 20)
#    0.000    1.333    3.333    2.000    4.667    2.333 
#    0.000    2.500    0.000    4.000    0.000    0.000 
#    0.000    0.000    0.000    0.000    0.000    0.000 
#
# Total GULP energy -133818.926183 kJ/mol
# GULP energy per Si atom -5575.788591 kJ/mol
# Density = 2.196402 g / cm^3
# Si number density = 22.014127 Si / 1000 Ang^3
#
#
#
# Elastic Constant Matrix: (Units=GPa)
#
#
# Indices 1 2 3 4 5 6 
#
# 1 86.8306 28.6344 60.3721 0.0000 10.1233 0.0000
# 2 28.6344 104.0743 43.4838 0.0000 -4.9236 0.0000
# 3 60.3721 43.4838 155.1758 0.0000 11.0443 0.0000
# 4 0.0000 0.0000 0.0000 24.9495 0.0000 7.3758
# 5 10.1233 -4.9236 11.0443 0.0000 40.7432 0.0000
# 6 0.0000 0.0000 0.0000 7.3758 0.0000 17.8552
#
#
#
# Elastic Compliance Matrix: (Units=1/GPa)
#
#
# Indices 1 2 3 4 5 6 
#
# 1 0.016487 -0.002353 -0.005550 0.000000 -0.002876 0.000000
# 2 -0.002353 0.011413 -0.002470 0.000000 0.002633 0.000000
# 3 -0.005550 -0.002470 0.009400 0.000000 -0.001468 0.000000
# 4 0.000000 0.000000 0.000000 0.045657 0.000000 -0.018860
# 5 -0.002876 0.002633 -0.001468 0.000000 0.025975 0.000000
# 6 0.000000 0.000000 0.000000 -0.018860 0.000000 0.063797
#
#
# Mechanical properties :
#
#
# Convention : Reuss Voigt Hill
#
# Bulk Modulus (GPa) = 60.41207 67.89569 64.15388
# Shear Modulus (GPa) = 25.12653 30.94893 28.03773
#
# Velocity S-wave (km/s) = 3.38210 3.75356 3.57266
# Velocity P-wave (km/s) = 6.53861 7.04943 6.79882
#
# Compressibility (1/GPa) = 0.01655298
#
# Stress axis : x y z
#
# Youngs Moduli (GPa) = 60.65361 87.62291 106.38026
#
# Poissons Ratio (x) = 0.20620 0.59044
# Poissons Ratio (y) = 0.14273 0.26275
# Poissons Ratio (z) = 0.33664 0.21642
#
# Static dielectric constant tensor:
#      x y z
#    x 1.904720 0.000000 -0.009790 
#    y 0.000000 1.830580 0.000000 
#    z -0.009790 0.000000 1.877390 
# 
# From -- ./inp_files/112721.got.cif
#   From: 2010.05.17/outbox.cif.g08.bks.cpg/sg12_57_cif.got.tgz:112721.got - 2010.06.03 13:09:07.
