data_PCOD9208705
_publ_section_title
;
Structure prediction by ZEFSAII (Michael W. Deem and Ramdas Pophale) SiO2 
 PCOD9208705
Probable space group: C 2/M
;
_chemical_formula_sum "Si O2"
_cell_formula_units_Z 56
_cell_length_a 29.118588
_cell_length_b 8.019702
_cell_length_c 16.858290
_cell_angle_alpha 90.000000
_cell_angle_beta 40.761314
_cell_angle_gamma 90.000000
_cell_volume 2570.365834
_symmetry_space_group_name_H-M "C 2/M"
_symmetry_group_IT_number 12
_symmetry_cell_setting 'monoclinic'
loop_
_space_group_symop_operation_xyz
x,y,z
-x,y,-z
-x,-y,-z
x,-y,z
1/2+x,1/2+y,z
1/2-x,1/2+y,-z
1/2-x,1/2-y,-z
1/2+x,1/2-y,z
loop_
_atom_site_type_symbol
_atom_site_label
_atom_site_fract_x
_atom_site_fract_y
_atom_site_fract_z
Si Si1 0.051783 0.805082 0.684990
Si Si2 0.030377 0.690197 0.541532
Si Si3 0.414044 0.199761 0.939647
Si Si4 0.287766 0.702146 0.531640
Si Si5 0.340454 0.306566 0.705331
Si Si6 0.297998 0.800244 0.202979
Si Si7 0.331594 0.200082 0.891195
O O1 0.019892 0.775721 0.638968
O O2 0.131346 0.735583 0.578097
O O3 0.996253 0.734709 0.820586
O O4 0.057043 0.000000 0.693217
O O5 0.004600 0.500000 0.581423
O O6 0.113099 0.696886 0.413923
O O7 0.000000 0.767142 0.500000
O O8 0.373580 0.261743 0.913322
O O9 0.405676 0.000000 0.950785
O O10 0.372152 0.264096 0.071890
O O11 0.291684 0.500000 0.534487
O O12 0.250000 0.750000 0.500000
O O13 0.240205 0.764370 0.667793
O O14 0.354336 0.500000 0.667858
O O15 0.258751 0.277140 0.793484
O O16 0.358899 0.269273 0.771788
O O17 0.305679 0.000000 0.205188
O O18 0.336443 0.000000 0.882737
O O19 0.250000 0.250000 0.000000
#
# Coordination Sequence:
#
# PCOD9208705 Si02
#       7
#     8   8   8   8   8   8   8
#     4  11  23  40  62  90 124 160 200 253 310 365
#     4  11  23  37  54  82 121 163 207 252 297 357
#     4  10  21  38  59  84 121 165 204 247 300 357
#     4  10  22  43  69  94 119 151 198 253 312 374
#     4  11  20  35  56  80 114 157 204 255 301 348
#     4   9  18  38  62  84 115 155 195 241 296 356
#     4  11  21  33  51  80 119 165 213 256 298 354
#
# _framework density 21.786781999999999
#
# number of rings (size 3 to 8) (size 9 to 14) (size 15 to 20)
#    0.000    1.571    2.857    2.571    0.000    6.857 
#    0.000    1.429    0.000    4.286    0.000    0.000 
#    0.000    0.000    0.000    0.000    0.000    0.000 
#
# Total GULP energy -156343.624744 kJ/mol
# GULP energy per Si atom -5583.700884 kJ/mol
# Density = 2.173719 g / cm^3
# Si number density = 21.786782 Si / 1000 Ang^3
#
#
#
# Elastic Constant Matrix: (Units=GPa)
#
#
# Indices 1 2 3 4 5 6 
#
# 1 82.3875 1.7976 57.0115 0.0077 5.1158 -0.0010
# 2 1.7976 22.6948 12.3406 0.0092 1.2942 -0.0122
# 3 57.0115 12.3406 211.0114 0.0195 3.3887 -0.0076
# 4 0.0077 0.0092 0.0195 28.9567 -0.0091 -0.9694
# 5 5.1158 1.2942 3.3887 -0.0091 22.9010 -0.0008
# 6 -0.0010 -0.0122 -0.0076 -0.9694 -0.0008 20.0472
#
#
#
# Elastic Compliance Matrix: (Units=1/GPa)
#
#
# Indices 1 2 3 4 5 6 
#
# 1 0.015135 0.001200 -0.004114 -0.000003 -0.002840 0.000000
# 2 0.001200 0.045715 -0.002959 -0.000013 -0.002414 0.000026
# 3 -0.004114 -0.002959 0.006020 -0.000002 0.000195 0.000000
# 4 -0.000003 -0.000013 -0.000002 0.034590 0.000015 0.001673
# 5 -0.002840 -0.002414 0.000195 0.000015 0.044408 0.000001
# 6 0.000000 0.000026 0.000000 0.001673 0.000001 0.049963
#
#
# Mechanical properties :
#
#
# Convention : Reuss Voigt Hill
#
# Bulk Modulus (GPa) = 18.14079 50.93256 34.53668
# Shear Modulus (GPa) = 22.12867 30.71058 26.41963
#
# Velocity S-wave (km/s) = 3.19045 3.75853 3.48608
# Velocity P-wave (km/s) = 4.68151 6.50107 5.66482
#
# Compressibility (1/GPa) = 0.05512438
#
# Stress axis : x y z
#
# Youngs Moduli (GPa) = 66.07396 21.87484 166.10098
#
# Poissons Ratio (x) = -0.02625 0.68328
# Poissons Ratio (y) = -0.07929 0.49149
# Poissons Ratio (z) = 0.27181 0.06473
#
# Static dielectric constant tensor:
#      x y z
#    x 1.776740 0.000000 -0.033880 
#    y 0.000000 1.770260 0.000000 
#    z -0.033880 0.000000 1.861280 
# 
# From -- ./inp_files/292405.got.cif
#   From: 2010.05.17/outbox.cif.g08.bks.cpg/sg12_147_cif.got.tgz:292405.got - 2010.06.03 13:09:07.
