data_PCOD9208890
_publ_section_title
;
Structure prediction by ZEFSAII (Michael W. Deem and Ramdas Pophale) SiO2 
 PCOD9208890
Probable space group: C 2/M
;
_chemical_formula_sum "Si O2"
_cell_formula_units_Z 56
_cell_length_a 16.120518
_cell_length_b 7.929009
_cell_length_c 17.568086
_cell_angle_alpha 90.000000
_cell_angle_beta 75.061842
_cell_angle_gamma 90.000000
_cell_volume 2169.658898
_symmetry_space_group_name_H-M "C 2/M"
_symmetry_group_IT_number 12
_symmetry_cell_setting 'monoclinic'
loop_
_space_group_symop_operation_xyz
x,y,z
-x,y,-z
-x,-y,-z
x,-y,z
1/2+x,1/2+y,z
1/2-x,1/2+y,-z
1/2-x,1/2-y,-z
1/2+x,1/2-y,z
loop_
_atom_site_type_symbol
_atom_site_label
_atom_site_fract_x
_atom_site_fract_y
_atom_site_fract_z
Si Si1 0.680055 0.805348 0.626632
Si Si2 0.536691 0.305620 0.760618
Si Si3 0.346585 0.701697 0.950784
Si Si4 0.913403 0.304424 0.659523
Si Si5 0.713860 0.200488 0.191676
Si Si6 0.097624 0.207166 0.903637
Si Si7 0.634549 0.696054 0.480175
O O1 0.633613 0.702881 0.703986
O O2 0.624599 0.792465 0.561477
O O3 0.773996 0.745533 0.577799
O O4 0.684942 0.000000 0.648536
O O5 0.508192 0.500000 0.767614
O O6 0.483421 0.209468 0.709352
O O7 0.537943 0.241694 0.847221
O O8 0.353969 0.500000 0.945067
O O9 0.349507 0.769923 0.864873
O O10 0.250000 0.750000 0.000000
O O11 0.406971 0.758812 0.006667
O O12 0.900632 0.500000 0.644369
O O13 0.829622 0.229084 0.722437
O O14 0.929319 0.215198 0.575771
O O15 0.807173 0.263930 0.145766
O O16 0.721618 0.000000 0.199465
O O17 0.094538 0.000000 0.904859
O O18 0.642083 0.500000 0.498638
#
# Coordination Sequence:
#
# PCOD9208890 Si02
#       7
#     8   8   8   8   8   8   8
#     4  10  21  38  60  86 113 139 174 221 271 320
#     4  11  22  37  56  78 109 147 186 224 267 322
#     4   9  16  29  51  79 107 135 174 222 271 320
#     4  11  23  38  55  78 112 148 182 224 273 321
#     4   9  18  34  55  78 105 139 179 222 271 323
#     4   8  16  32  54  78 103 136 177 220 267 318
#     4  10  21  38  61  87 111 139 179 221 265 322
#
# _framework density 25.810507000000001
#
# number of rings (size 3 to 8) (size 9 to 14) (size 15 to 20)
#    0.000    2.286    0.000    3.857    0.000    4.571 
#    0.000   12.143    0.000    4.286    0.000    0.000 
#    0.000    0.000    0.000    0.000    0.000    0.000 
#
# Total GULP energy -156591.361943 kJ/mol
# GULP energy per Si atom -5592.548641 kJ/mol
# Density = 2.575176 g / cm^3
# Si number density = 25.810507 Si / 1000 Ang^3
#
#
#
# Elastic Constant Matrix: (Units=GPa)
#
#
# Indices 1 2 3 4 5 6 
#
# 1 77.0024 -2.9335 23.2967 0.0000 23.0112 0.0000
# 2 -2.9335 54.7727 8.9202 0.0000 0.2275 0.0000
# 3 23.2967 8.9202 193.9259 0.0000 23.6493 0.0000
# 4 0.0000 0.0000 0.0000 23.5255 0.0000 10.8822
# 5 23.0112 0.2275 23.6493 0.0000 51.2518 0.0000
# 6 0.0000 0.0000 0.0000 10.8822 0.0000 20.5965
#
#
#
# Elastic Compliance Matrix: (Units=1/GPa)
#
#
# Indices 1 2 3 4 5 6 
#
# 1 0.015256 0.001024 -0.001106 0.000000 -0.006344 0.000000
# 2 0.001024 0.018469 -0.000961 0.000000 -0.000098 0.000000
# 3 -0.001106 -0.000961 0.005587 0.000000 -0.002077 0.000000
# 4 0.000000 0.000000 0.000000 0.056256 0.000000 -0.029723
# 5 -0.006344 -0.000098 -0.002077 0.000000 0.023319 0.000000
# 6 0.000000 0.000000 0.000000 -0.029723 0.000000 0.064256
#
#
# Mechanical properties :
#
#
# Convention : Reuss Voigt Hill
#
# Bulk Modulus (GPa) = 26.86313 42.69642 34.77977
# Shear Modulus (GPa) = 25.29882 38.83594 32.06738
#
# Velocity S-wave (km/s) = 3.13417 3.88320 3.52862
# Velocity P-wave (km/s) = 4.85055 6.05672 5.48688
#
# Compressibility (1/GPa) = 0.03722575
#
# Stress axis : x y z
#
# Youngs Moduli (GPa) = 65.54782 54.14495 178.98748
#
# Poissons Ratio (x) = -0.05542 0.19800
# Poissons Ratio (y) = -0.06709 0.17192
# Poissons Ratio (z) = 0.07251 0.05201
#
# Static dielectric constant tensor:
#      x y z
#    x 2.188520 0.000000 0.008700 
#    y 0.000000 1.883910 0.000000 
#    z 0.008700 0.000000 1.992280 
# 
# From -- ./inp_files/280214.got.cif
#   From: 2010.05.17/outbox.cif.g08.bks.cpg/sg12_141_cif.got.tgz:280214.got - 2010.06.03 13:09:07.
