data_PCOD9208886
_publ_section_title
;
Structure prediction by ZEFSAII (Michael W. Deem and Ramdas Pophale) SiO2 
 PCOD9208886
Probable space group: C 2/M
;
_chemical_formula_sum "Si O2"
_cell_formula_units_Z 64
_cell_length_a 14.076748
_cell_length_b 9.890172
_cell_length_c 26.655701
_cell_angle_alpha 90.000000
_cell_angle_beta 52.547696
_cell_angle_gamma 90.000000
_cell_volume 2946.050015
_symmetry_space_group_name_H-M "C 2/M"
_symmetry_group_IT_number 12
_symmetry_cell_setting 'monoclinic'
loop_
_space_group_symop_operation_xyz
x,y,z
-x,y,-z
-x,-y,-z
x,-y,z
1/2+x,1/2+y,z
1/2-x,1/2+y,-z
1/2-x,1/2-y,-z
1/2+x,1/2-y,z
loop_
_atom_site_type_symbol
_atom_site_label
_atom_site_fract_x
_atom_site_fract_y
_atom_site_fract_z
Si Si1 0.410235 0.344562 0.455897
Si Si2 0.289062 0.159100 0.411202
Si Si3 0.123279 0.337515 0.880028
Si Si4 0.979213 0.768976 0.276468
Si Si5 0.823056 0.350990 0.853367
Si Si6 0.139732 0.347508 0.043704
Si Si7 0.132171 0.851401 0.322164
Si Si8 0.665539 0.653417 0.769218
O O1 0.373459 0.500000 0.454472
O O2 0.355163 0.236842 0.435217
O O3 0.350639 0.318589 0.529176
O O4 0.549724 0.342320 0.397872
O O5 0.358065 0.209228 0.339803
O O6 0.310062 0.000000 0.406435
O O7 0.139770 0.500000 0.869317
O O8 0.225911 0.268273 0.880321
O O9 0.135873 0.254754 0.824063
O O10 0.986748 0.313796 0.941102
O O11 0.935167 0.847795 0.241527
O O12 0.077502 0.667281 0.221723
O O13 0.047075 0.845070 0.299944
O O14 0.766232 0.500000 0.867239
O O15 0.881945 0.346986 0.889293
O O16 0.172591 0.500000 0.018088
O O17 0.250000 0.250000 0.000000
O O18 0.216885 0.723129 0.291438
O O19 0.192636 0.000000 0.302895
O O20 0.685771 0.500000 0.779513
#
# Coordination Sequence:
#
# PCOD9208886 Si02
#       8
#     8   8   8   8   8   8   8   8
#     4   8  16  32  52  79 116 156 201 253 311 373
#     4   9  17  30  54  84 113 155 205 253 307 372
#     4  11  24  43  66  95 131 167 207 253 306 365
#     4  11  22  37  61  91 125 159 207 254 318 367
#     4  11  23  41  65  96 131 167 209 256 305 362
#     4  10  24  46  69  97 132 169 207 248 300 359
#     4  10  21  38  60  85 120 162 206 258 318 376
#     4  12  25  39  60  92 126 162 210 260 313 374
#
# _framework density 21.724004000000001
#
# number of rings (size 3 to 8) (size 9 to 14) (size 15 to 20)
#    0.000    1.750    2.500    1.500    0.000    6.500 
#    0.000    3.125    0.000    3.000    0.000    0.000 
#    0.000    0.000    0.000    0.000    0.000    0.000 
#
# Total GULP energy -178445.318368 kJ/mol
# GULP energy per Si atom -5576.416199 kJ/mol
# Density = 2.167456 g / cm^3
# Si number density = 21.724004 Si / 1000 Ang^3
#
#
#
# Elastic Constant Matrix: (Units=GPa)
#
#
# Indices 1 2 3 4 5 6 
#
# 1 75.1943 21.3636 -5.3711 0.0000 6.9279 0.0000
# 2 21.3636 111.9479 24.9453 0.0000 -15.7995 0.0000
# 3 -5.3711 24.9453 67.6936 0.0000 -14.8290 0.0000
# 4 0.0000 0.0000 0.0000 22.2970 0.0000 -4.0690
# 5 6.9279 -15.7995 -14.8290 0.0000 36.4203 0.0000
# 6 0.0000 0.0000 0.0000 -4.0690 0.0000 17.3375
#
#
#
# Elastic Compliance Matrix: (Units=1/GPa)
#
#
# Indices 1 2 3 4 5 6 
#
# 1 0.014832 -0.003745 0.001738 0.000000 -0.003738 0.000000
# 2 -0.003745 0.010992 -0.003455 0.000000 0.004074 0.000000
# 3 0.001738 -0.003455 0.017328 0.000000 0.005226 0.000000
# 4 0.000000 0.000000 0.000000 0.046856 0.000000 0.010997
# 5 -0.003738 0.004074 0.005226 0.000000 0.032064 0.000000
# 6 0.000000 0.000000 0.000000 0.010997 0.000000 0.060259
#
#
# Mechanical properties :
#
#
# Convention : Reuss Voigt Hill
#
# Bulk Modulus (GPa) = 31.02982 37.41239 34.22111
# Shear Modulus (GPa) = 24.50994 29.47081 26.99038
#
# Velocity S-wave (km/s) = 3.36258 3.68720 3.52862
# Velocity P-wave (km/s) = 5.42131 5.94864 5.69109
#
# Compressibility (1/GPa) = 0.03222706
#
# Stress axis : x y z
#
# Youngs Moduli (GPa) = 67.42393 90.97179 57.70846
#
# Poissons Ratio (x) = 0.34071 -0.10030
# Poissons Ratio (y) = 0.25252 0.19941
# Poissons Ratio (z) = -0.11718 0.31435
#
# Static dielectric constant tensor:
#      x y z
#    x 1.814510 0.000000 -0.011460 
#    y 0.000000 1.021840 0.000000 
#    z -0.011460 0.000000 1.837980 
# 
# From -- ./inp_files/375473.got.cif
#   From: 2010.05.17/outbox.cif.g08.bks.cpg/sg12_188_cif.got.tgz:375473.got - 2010.06.03 13:09:07.
