data_PCOD9208624
_publ_section_title
;
Structure prediction by ZEFSAII (Michael W. Deem and Ramdas Pophale) SiO2 
 PCOD9208624
Probable space group: C 2/M
;
_chemical_formula_sum "Si O2"
_cell_formula_units_Z 64
_cell_length_a 17.779598
_cell_length_b 13.829640
_cell_length_c 14.800532
_cell_angle_alpha 90.000000
_cell_angle_beta 118.800405
_cell_angle_gamma 90.000000
_cell_volume 3189.073827
_symmetry_space_group_name_H-M "C 2/M"
_symmetry_group_IT_number 12
_symmetry_cell_setting 'monoclinic'
loop_
_space_group_symop_operation_xyz
x,y,z
-x,y,-z
-x,-y,-z
x,-y,z
1/2+x,1/2+y,z
1/2-x,1/2+y,-z
1/2-x,1/2-y,-z
1/2+x,1/2-y,z
loop_
_atom_site_type_symbol
_atom_site_label
_atom_site_fract_x
_atom_site_fract_y
_atom_site_fract_z
Si Si1 0.052925 0.114940 0.665768
Si Si2 0.184763 0.382066 0.440349
Si Si3 0.824914 0.610732 0.856857
Si Si4 0.598779 0.884291 0.580372
Si Si5 0.847494 0.612656 0.084490
Si Si6 0.373765 0.616597 0.492970
Si Si7 0.681306 0.755883 0.784105
Si Si8 0.956974 0.384970 0.783583
O O1 0.096842 0.135080 0.592985
O O2 0.110467 0.174716 0.767505
O O3 0.954317 0.147418 0.601013
O O4 0.056180 0.000000 0.682748
O O5 0.186270 0.500000 0.434114
O O6 0.155398 0.361104 0.525032
O O7 0.280008 0.348646 0.467761
O O8 0.110850 0.346948 0.328978
O O9 0.796344 0.500000 0.816319
O O10 0.758872 0.692923 0.789081
O O11 0.913892 0.626552 0.856640
O O12 0.832721 0.616796 0.969033
O O13 0.500000 0.858695 0.500000
O O14 0.636984 0.828762 0.687889
O O15 0.600483 0.000000 0.597375
O O16 0.837978 0.500000 0.105234
O O17 0.790492 0.681589 0.113513
O O18 0.945082 0.646517 0.161266
O O19 0.371909 0.500000 0.498681
O O20 0.962346 0.500000 0.769889
#
# Coordination Sequence:
#
# PCOD9208624 Si02
#       8
#     8   8   8   8   8   8   8   8
#     4   9  18  32  50  73 107 147 180 221 270 320
#     4   9  16  30  53  77 103 140 181 218 258 314
#     4  10  21  38  60  84 109 136 177 238 297 337
#     4  10  22  38  53  74 112 157 192 220 256 314
#     4  10  21  38  59  81 107 142 184 233 285 334
#     4   8  15  30  50  71 101 142 184 219 261 311
#     4  12  22  34  54  83 112 145 187 222 272 328
#     4   9  17  34  59  83 106 139 181 230 284 331
#
# _framework density 20.068522000000002
#
# number of rings (size 3 to 8) (size 9 to 14) (size 15 to 20)
#    0.000    2.375    0.000    3.750    1.750    5.500 
#    2.250    1.250    0.000    0.000    0.000    0.000 
#    0.000    6.000    0.000    0.000    0.000    0.000 
#
# Total GULP energy -178675.833953 kJ/mol
# GULP energy per Si atom -5583.619811 kJ/mol
# Density = 2.002284 g / cm^3
# Si number density = 20.068522 Si / 1000 Ang^3
#
#
#
# Elastic Constant Matrix: (Units=GPa)
#
#
# Indices 1 2 3 4 5 6 
#
# 1 70.6056 28.2132 6.2408 0.0000 7.5930 0.0000
# 2 28.2132 78.3471 12.6793 0.0000 -6.3859 0.0000
# 3 6.2408 12.6793 34.1364 0.0000 -6.4252 0.0000
# 4 0.0000 0.0000 0.0000 23.8787 0.0000 1.9381
# 5 7.5930 -6.3859 -6.4252 0.0000 27.1085 0.0000
# 6 0.0000 0.0000 0.0000 1.9381 0.0000 17.7806
#
#
#
# Elastic Compliance Matrix: (Units=1/GPa)
#
#
# Indices 1 2 3 4 5 6 
#
# 1 0.017753 -0.006625 -0.002109 0.000000 -0.007033 0.000000
# 2 -0.006625 0.016167 -0.003902 0.000000 0.004739 0.000000
# 3 -0.002109 -0.003902 0.032518 0.000000 0.007379 0.000000
# 4 0.000000 0.000000 0.000000 0.042252 0.000000 -0.004606
# 5 -0.007033 0.004739 0.007379 0.000000 0.041724 0.000000
# 6 0.000000 0.000000 0.000000 -0.004606 0.000000 0.056743
#
#
# Mechanical properties :
#
#
# Convention : Reuss Voigt Hill
#
# Bulk Modulus (GPa) = 24.29110 30.81729 27.55419
# Shear Modulus (GPa) = 20.31274 22.81727 21.56501
#
# Velocity S-wave (km/s) = 3.18491 3.37555 3.28162
# Velocity P-wave (km/s) = 5.06510 5.53009 5.30269
#
# Compressibility (1/GPa) = 0.04116733
#
# Stress axis : x y z
#
# Youngs Moduli (GPa) = 56.32786 61.85386 30.75234
#
# Poissons Ratio (x) = 0.40978 0.06485
# Poissons Ratio (y) = 0.37317 0.11999
# Poissons Ratio (z) = 0.11878 0.24134
#
# Static dielectric constant tensor:
#      x y z
#    x 1.700870 0.000000 0.016530 
#    y 0.000000 1.738840 0.000000 
#    z 0.016530 0.000000 1.730630 
# 
# From -- ./inp_files/225338.got.cif
#   From: 2010.05.17/outbox.cif.g08.bks.cpg/sg12_113_cif.got.tgz:225338.got - 2010.06.03 13:09:07.
