data_PCOD9208430
_publ_section_title
;
Structure prediction by ZEFSAII (Michael W. Deem and Ramdas Pophale) SiO2 
 PCOD9208430
Probable space group: C 2/M
;
_chemical_formula_sum "Si O2"
_cell_formula_units_Z 56
_cell_length_a 20.459497
_cell_length_b 7.590314
_cell_length_c 26.477840
_cell_angle_alpha 90.000000
_cell_angle_beta 140.028423
_cell_angle_gamma 90.000000
_cell_volume 2641.483250
_symmetry_space_group_name_H-M "C 2/M"
_symmetry_group_IT_number 12
_symmetry_cell_setting 'monoclinic'
loop_
_space_group_symop_operation_xyz
x,y,z
-x,y,-z
-x,-y,-z
x,-y,z
1/2+x,1/2+y,z
1/2-x,1/2+y,-z
1/2-x,1/2-y,-z
1/2+x,1/2-y,z
loop_
_atom_site_type_symbol
_atom_site_label
_atom_site_fract_x
_atom_site_fract_y
_atom_site_fract_z
Si Si1 0.216050 0.201655 0.351457
Si Si2 0.222750 0.708873 0.240460
Si Si3 0.012138 0.704492 0.762770
Si Si4 0.064447 0.287655 0.683317
Si Si5 0.369120 0.211544 0.069119
Si Si6 0.012445 0.284499 0.064755
Si Si7 0.935028 0.715866 0.510782
O O1 0.234504 0.206095 0.302262
O O2 0.318452 0.276118 0.437026
O O3 0.108411 0.289570 0.298982
O O4 0.205049 0.000000 0.361638
O O5 0.213166 0.500000 0.243671
O O6 0.321146 0.743711 0.265033
O O7 0.120190 0.769442 0.152298
O O8 0.043588 0.500000 0.778994
O O9 0.038108 0.781499 0.723349
O O10 0.071879 0.781187 0.846341
O O11 0.054224 0.500000 0.677931
O O12 0.990212 0.225350 0.594541
O O13 0.424024 0.274658 0.050560
O O14 0.381723 0.000000 0.076448
O O15 0.250000 0.250000 0.000000
O O16 0.011706 0.500000 0.063153
O O17 0.000000 0.224103 0.000000
O O18 0.933357 0.500000 0.508981
O O19 0.000000 0.769973 0.500000
#
# Coordination Sequence:
#
# PCOD9208430 Si02
#       7
#     8   8   8   8   8   8   8
#     4  11  21  36  61  84 110 150 194 229 272 336
#     4  11  21  36  59  85 115 146 187 234 280 329
#     4  10  22  40  58  81 117 152 183 230 287 333
#     4  10  21  38  59  82 113 152 188 226 282 336
#     4  10  21  38  57  80 113 147 182 224 277 335
#     4   9  19  36  57  80 109 145 181 224 279 331
#     4   9  17  33  56  82 111 145 186 231 278 329
#
# _framework density 21.200209999999998
#
# number of rings (size 3 to 8) (size 9 to 14) (size 15 to 20)
#    0.000    2.000    2.857    0.857    2.000    1.714 
#    0.000    2.143    0.000    2.143    0.000    0.000 
#    0.000    0.000    0.000    0.000    0.000    0.000 
#
# Total GULP energy -156436.907308 kJ/mol
# GULP energy per Si atom -5587.032404 kJ/mol
# Density = 2.115196 g / cm^3
# Si number density = 21.200210 Si / 1000 Ang^3
#
#
#
# Elastic Constant Matrix: (Units=GPa)
#
#
# Indices 1 2 3 4 5 6 
#
# 1 183.4295 -3.3736 103.1341 0.0000 -0.6188 0.0000
# 2 -3.3736 44.9393 1.9474 0.0001 -10.8149 -0.0001
# 3 103.1341 1.9474 176.3731 0.0000 11.8327 0.0000
# 4 0.0000 0.0001 0.0000 6.7273 0.0000 12.6561
# 5 -0.6188 -10.8149 11.8327 0.0000 30.7778 0.0000
# 6 0.0000 -0.0001 0.0000 12.6561 0.0000 12.0934
#
#
#
# Elastic Compliance Matrix: (Units=1/GPa)
#
#
# Indices 1 2 3 4 5 6 
#
# 1 0.008338 0.001480 -0.005069 0.000000 0.002636 0.000000
# 2 0.001480 0.024699 -0.001768 0.000001 0.009389 -0.000001
# 3 -0.005069 -0.001768 0.008932 0.000000 -0.004157 0.000000
# 4 0.000000 0.000001 0.000000 -0.153428 0.000000 0.160567
# 5 0.002636 0.009389 -0.004157 0.000000 0.037441 0.000000
# 6 0.000000 -0.000001 0.000000 0.160567 0.000000 -0.085348
#
#
# Mechanical properties :
#
#
# Convention : Reuss Voigt Hill
#
# Bulk Modulus (GPa) = 31.99404 67.57308 49.78356
# Shear Modulus (GPa) = -36.17048 30.12194 -3.02427
#
# Velocity S-wave (km/s) = -4.13502 3.77348 -1.19567
# Velocity P-wave (km/s) = 2.77015 7.13642 4.65053
#
# Compressibility (1/GPa) = 0.03125582
#
# Stress axis : x y z
#
# Youngs Moduli (GPa) = 119.93741 40.48687 111.95544
#
# Poissons Ratio (x) = -0.05992 0.56747
# Poissons Ratio (y) = -0.17751 0.19794
# Poissons Ratio (z) = 0.60792 0.07158
#
# Static dielectric constant tensor:
#      x y z
#    x 1.727500 0.000000 -0.017430 
#    y 0.000000 1.792470 0.000000 
#    z -0.017430 0.000000 1.737450 
# 
# From -- ./inp_files/363231.got.cif
#   From: 2010.05.17/outbox.cif.g08.bks.cpg/sg12_182_cif.got.tgz:363231.got - 2010.06.03 13:09:07.
