data_PCOD9208184
_publ_section_title
;
Structure prediction by ZEFSAII (Michael W. Deem and Ramdas Pophale) SiO2 
 PCOD9208184
Probable space group: C 2/M
;
_chemical_formula_sum "Si O2"
_cell_formula_units_Z 60
_cell_length_a 19.066381
_cell_length_b 28.368819
_cell_length_c 5.516213
_cell_angle_alpha 90.000000
_cell_angle_beta 117.404210
_cell_angle_gamma 90.000000
_cell_volume 2648.845788
_symmetry_space_group_name_H-M "C 2/M"
_symmetry_group_IT_number 12
_symmetry_cell_setting 'monoclinic'
loop_
_space_group_symop_operation_xyz
x,y,z
-x,y,-z
-x,-y,-z
x,-y,z
1/2+x,1/2+y,z
1/2-x,1/2+y,-z
1/2-x,1/2-y,-z
1/2+x,1/2-y,z
loop_
_atom_site_type_symbol
_atom_site_label
_atom_site_fract_x
_atom_site_fract_y
_atom_site_fract_z
Si Si1 0.077428 0.308051 0.453802
Si Si2 0.769808 0.053920 0.471427
Si Si3 0.387965 0.052488 0.114081
Si Si4 0.836267 0.775980 0.649726
Si Si5 0.203613 0.378631 0.760212
Si Si6 0.048119 0.183705 0.817062
Si Si7 0.000000 0.618269 0.000000
Si Si8 0.153812 0.128438 0.658043
O O1 0.101511 0.259447 0.373029
O O2 0.156444 0.329960 0.689979
O O3 0.060656 0.346372 0.219766
O O4 0.000000 0.307383 0.500000
O O5 0.690253 0.050601 0.180264
O O6 0.752446 0.097856 0.622323
O O7 0.845887 0.076057 0.455983
O O8 0.781771 0.000000 0.583997
O O9 0.454559 0.084642 0.107862
O O10 0.415039 0.000000 0.202787
O O11 0.360177 0.080013 0.304897
O O12 0.750000 0.750000 0.500000
O O13 0.841220 0.826132 0.515043
O O14 0.875133 0.785517 0.977398
O O15 0.263510 0.372256 0.072714
O O16 0.087156 0.137610 0.755318
O O17 0.000000 0.201506 0.500000
O O18 0.000000 0.177621 0.000000
#
# Coordination Sequence:
#
# PCOD9208184 Si02
#       8
#     8   8   8   8   8   8   4   8
#     4  12  27  42  65  97 147 199 255 320 389 450
#     4  10  21  41  71 106 144 192 250 316 387 464
#     4  10  21  37  62  95 137 194 259 316 379 454
#     4  12  29  49  76 112 149 209 267 325 393 473
#     4  11  22  42  66 101 146 195 252 318 384 459
#     4  12  27  51  79 113 152 199 256 319 389 471
#     4  12  23  40  58  92 144 196 251 322 380 456
#     4  11  25  46  74 106 148 191 253 319 384 467
#
# _framework density 22.651375000000002
#
# number of rings (size 3 to 8) (size 9 to 14) (size 15 to 20)
#    0.000    0.800    4.000    3.000    4.667    2.667 
#    0.000    0.667    0.000    0.800    0.000    0.000 
#    0.000    0.000    0.000    0.000    0.000    0.000 
#
# Total GULP energy -167200.427709 kJ/mol
# GULP energy per Si atom -5573.347590 kJ/mol
# Density = 2.259982 g / cm^3
# Si number density = 22.651375 Si / 1000 Ang^3
#
#
#
# Elastic Constant Matrix: (Units=GPa)
#
#
# Indices 1 2 3 4 5 6 
#
# 1 96.2911 49.2709 24.0499 0.0000 -11.5763 0.0000
# 2 49.2709 130.5028 17.1213 0.0000 -8.3206 0.0000
# 3 24.0499 17.1213 84.3242 0.0000 8.3379 0.0000
# 4 0.0000 0.0000 0.0000 51.8603 0.0000 -7.5226
# 5 -11.5763 -8.3206 8.3379 0.0000 28.3376 0.0000
# 6 0.0000 0.0000 0.0000 -7.5226 0.0000 56.1093
#
#
#
# Elastic Compliance Matrix: (Units=1/GPa)
#
#
# Indices 1 2 3 4 5 6 
#
# 1 0.014320 -0.004562 -0.003712 0.000000 0.005603 0.000000
# 2 -0.004562 0.009558 -0.000755 0.000000 0.001165 0.000000
# 3 -0.003712 -0.000755 0.013640 0.000000 -0.005751 0.000000
# 4 0.000000 0.000000 0.000000 0.019665 0.000000 0.002636
# 5 0.005603 0.001165 -0.005751 0.000000 0.039612 0.000000
# 6 0.000000 0.000000 0.000000 0.002636 0.000000 0.018176
#
#
# Mechanical properties :
#
#
# Convention : Reuss Voigt Hill
#
# Bulk Modulus (GPa) = 51.38653 54.66693 53.02673
# Shear Modulus (GPa) = 35.83824 41.97316 38.90570
#
# Velocity S-wave (km/s) = 3.98196 4.30933 4.14887
# Velocity P-wave (km/s) = 6.62393 6.99620 6.81261
#
# Compressibility (1/GPa) = 0.01946035
#
# Stress axis : x y z
#
# Youngs Moduli (GPa) = 69.83073 104.61922 73.31617
#
# Poissons Ratio (x) = 0.47732 0.27214
# Poissons Ratio (y) = 0.31860 0.05533
# Poissons Ratio (z) = 0.25920 0.07896
#
# Static dielectric constant tensor:
#      x y z
#    x 1.891830 0.000000 0.090580 
#    y 0.000000 1.876800 0.000000 
#    z 0.090580 0.000000 2.221970 
# 
# From -- ./inp_files/18344.got.cif
#   From: 2010.05.17/outbox.cif.g08.bks.cpg/sg12_10_cif.got.tgz:18344.got - 2010.06.03 13:09:07.
