data_PCOD9208841
_publ_section_title
;
Structure prediction by ZEFSAII (Michael W. Deem and Ramdas Pophale) SiO2 
 PCOD9208841
Probable space group: C 2/M
;
_chemical_formula_sum "Si O2"
_cell_formula_units_Z 40
_cell_length_a 26.594915
_cell_length_b 10.395937
_cell_length_c 13.431546
_cell_angle_alpha 90.000000
_cell_angle_beta 29.927961
_cell_angle_gamma 90.000000
_cell_volume 1852.725585
_symmetry_space_group_name_H-M "C 2/M"
_symmetry_group_IT_number 12
_symmetry_cell_setting 'monoclinic'
loop_
_space_group_symop_operation_xyz
x,y,z
-x,y,-z
-x,-y,-z
x,-y,z
1/2+x,1/2+y,z
1/2-x,1/2+y,-z
1/2-x,1/2-y,-z
1/2+x,1/2-y,z
loop_
_atom_site_type_symbol
_atom_site_label
_atom_site_fract_x
_atom_site_fract_y
_atom_site_fract_z
Si Si1 0.993909 0.142460 0.819005
Si Si2 0.781082 0.151809 0.802158
Si Si3 0.379997 0.349536 0.827279
Si Si4 0.374674 0.138192 0.307318
Si Si5 0.791912 0.228570 0.265672
O O1 0.978551 0.163238 0.726975
O O2 0.057560 0.248138 0.766451
O O3 0.119075 0.152736 0.942062
O O4 0.035363 0.000000 0.764962
O O5 0.875702 0.164633 0.715223
O O6 0.780883 0.207096 0.691289
O O7 0.755757 0.000000 0.841773
O O8 0.694703 0.239455 0.002682
O O9 0.346286 0.500000 0.902759
O O10 0.273571 0.144303 0.546864
O O11 0.344362 0.165751 0.246045
O O12 0.424186 0.000000 0.233890
#
# Coordination Sequence:
#
# PCOD9208841 Si02
#       5
#     8   8   8   8   8
#     4  10  21  38  60  84 113 150 186 224 277 337
#     4   9  16  30  55  82 107 141 185 230 275 326
#     4   8  16  31  52  81 113 143 179 224 277 335
#     4  11  24  39  57  84 115 148 190 235 276 326
#     4  10  22  38  59  82 113 149 187 230 281 332
#
# _framework density 21.589814000000001
#
# number of rings (size 3 to 8) (size 9 to 14) (size 15 to 20)
#    0.000    2.400    0.000    1.800    0.000   11.200 
#    0.000    1.000    0.000    4.800    0.000    0.000 
#    0.000    0.000    0.000    0.000    0.000    0.000 
#
# Total GULP energy -111541.371639 kJ/mol
# GULP energy per Si atom -5577.068582 kJ/mol
# Density = 2.154067 g / cm^3
# Si number density = 21.589814 Si / 1000 Ang^3
#
#
#
# Elastic Constant Matrix: (Units=GPa)
#
#
# Indices 1 2 3 4 5 6 
#
# 1 163.1849 58.6605 13.1203 0.0000 13.1779 0.0000
# 2 58.6605 124.4068 9.2532 0.0000 -4.6908 0.0000
# 3 13.1203 9.2532 45.7184 0.0000 3.5643 0.0000
# 4 0.0000 0.0000 0.0000 1.5476 0.0000 -15.0610
# 5 13.1779 -4.6908 3.5643 0.0000 32.2213 0.0000
# 6 0.0000 0.0000 0.0000 -15.0610 0.0000 24.2241
#
#
#
# Elastic Compliance Matrix: (Units=1/GPa)
#
#
# Indices 1 2 3 4 5 6 
#
# 1 0.007870 -0.003757 -0.001215 0.000000 -0.003631 0.000000
# 2 -0.003757 0.010016 -0.001193 0.000000 0.003127 0.000000
# 3 -0.001215 -0.001193 0.022633 0.000000 -0.002180 0.000000
# 4 0.000000 0.000000 0.000000 -0.127936 0.000000 -0.079543
# 5 -0.003631 0.003127 -0.002180 0.000000 0.033217 0.000000
# 6 0.000000 0.000000 0.000000 -0.079543 0.000000 -0.008173
#
#
# Mechanical properties :
#
#
# Convention : Reuss Voigt Hill
#
# Bulk Modulus (GPa) = 35.47454 55.04201 45.25827
# Shear Modulus (GPa) = -123.00819 28.41702 -47.29558
#
# Velocity S-wave (km/s) = -7.55637 3.63192 -4.68551
# Velocity P-wave (km/s) = 7.72431 6.56792 2.87466
#
# Compressibility (1/GPa) = 0.02818923
#
# Stress axis : x y z
#
# Youngs Moduli (GPa) = 127.07240 99.83666 44.18313
#
# Poissons Ratio (x) = 0.37511 0.05368
# Poissons Ratio (y) = 0.47744 0.05270
# Poissons Ratio (z) = 0.15438 0.11908
#
# Static dielectric constant tensor:
#      x y z
#    x 1.810860 0.000000 0.008120 
#    y 0.000000 1.752410 0.000000 
#    z 0.008120 0.000000 1.808050 
# 
# From -- ./inp_files/239196.got.cif
#   From: 2010.05.17/outbox.cif.g08.bks.cpg/sg12_120_cif.got.tgz:239196.got - 2010.06.03 13:09:07.
