data_PCOD9208489
_publ_section_title
;
Structure prediction by ZEFSAII (Michael W. Deem and Ramdas Pophale) SiO2 
 PCOD9208489
Probable space group: C 2/M
;
_chemical_formula_sum "Si O2"
_cell_formula_units_Z 56
_cell_length_a 18.021810
_cell_length_b 9.175574
_cell_length_c 29.503319
_cell_angle_alpha 90.000000
_cell_angle_beta 140.203873
_cell_angle_gamma 90.000000
_cell_volume 3122.638387
_symmetry_space_group_name_H-M "C 2/M"
_symmetry_group_IT_number 12
_symmetry_cell_setting 'monoclinic'
loop_
_space_group_symop_operation_xyz
x,y,z
-x,y,-z
-x,-y,-z
x,-y,z
1/2+x,1/2+y,z
1/2-x,1/2+y,-z
1/2-x,1/2-y,-z
1/2+x,1/2-y,z
loop_
_atom_site_type_symbol
_atom_site_label
_atom_site_fract_x
_atom_site_fract_y
_atom_site_fract_z
Si Si1 0.303871 0.173409 0.211722
Si Si2 0.126351 0.325312 0.935328
Si Si3 0.521873 0.330148 0.645904
Si Si4 0.345390 0.668700 0.649522
Si Si5 0.837597 0.324148 0.505158
Si Si6 0.525969 0.174184 0.791115
Si Si7 0.966482 0.828335 0.931978
O O1 0.360649 0.259814 0.280012
O O2 0.376053 0.212648 0.200234
O O3 0.168986 0.201144 0.140200
O O4 0.320077 0.000000 0.226697
O O5 0.139498 0.500000 0.941049
O O6 0.068693 0.279226 0.860506
O O7 0.043661 0.272097 0.936527
O O8 0.250000 0.250000 0.000000
O O9 0.534352 0.500000 0.640510
O O10 0.432895 0.320489 0.647222
O O11 0.461522 0.241366 0.576914
O O12 0.340751 0.500000 0.660722
O O13 0.219934 0.711379 0.570520
O O14 0.405318 0.759528 0.717120
O O15 0.835925 0.500000 0.509490
O O16 0.750000 0.250000 0.500000
O O17 0.515610 0.000000 0.786372
O O18 0.988076 0.000000 0.931844
O O19 0.000000 0.806090 0.000000
#
# Coordination Sequence:
#
# PCOD9208489 Si02
#       7
#     8   8   8   8   8   8   8
#     4   9  17  31  51  72  98 133 168 205 251 299
#     4  11  23  38  56  79 105 134 170 210 254 304
#     4   9  16  25  39  63  95 129 165 204 246 293
#     4   8  15  25  39  63  94 127 163 204 246 290
#     4   9  15  23  36  59  92 127 164 204 247 294
#     4   9  18  32  50  72  99 132 168 206 249 299
#     4  10  21  38  58  79 104 134 169 209 255 307
#
# _framework density 17.933551999999999
#
# number of rings (size 3 to 8) (size 9 to 14) (size 15 to 20)
#    0.000    2.714    0.000    3.000    0.000    8.286 
#    0.000    2.857    0.000    0.000    0.000    1.000 
#    0.000    8.000    0.000    0.000    0.000    0.000 
#
# Total GULP energy -156053.343554 kJ/mol
# GULP energy per Si atom -5573.333698 kJ/mol
# Density = 1.789273 g / cm^3
# Si number density = 17.933552 Si / 1000 Ang^3
#
#
#
# Elastic Constant Matrix: (Units=GPa)
#
#
# Indices 1 2 3 4 5 6 
#
# 1 28.9168 29.7237 36.0188 0.0000 -3.9440 0.0000
# 2 29.7237 65.2320 80.5019 0.0000 -3.2392 0.0000
# 3 36.0188 80.5019 188.6361 0.0000 -7.0387 0.0000
# 4 0.0000 0.0000 0.0000 35.6089 0.0000 -0.1397
# 5 -3.9440 -3.2392 -7.0387 0.0000 16.3910 0.0000
# 6 0.0000 0.0000 0.0000 -0.1397 0.0000 17.5536
#
#
#
# Elastic Compliance Matrix: (Units=1/GPa)
#
#
# Indices 1 2 3 4 5 6 
#
# 1 0.066741 -0.030944 0.000846 0.000000 0.010307 0.000000
# 2 -0.030944 0.046737 -0.014197 0.000000 -0.004306 0.000000
# 3 0.000846 -0.014197 0.011282 0.000000 0.002243 0.000000
# 4 0.000000 0.000000 0.000000 0.028084 0.000000 0.000224
# 5 0.010307 -0.004306 0.002243 0.000000 0.063602 0.000000
# 6 0.000000 0.000000 0.000000 0.000224 0.000000 0.056970
#
#
# Mechanical properties :
#
#
# Convention : Reuss Voigt Hill
#
# Bulk Modulus (GPa) = 27.64725 63.91930 45.78328
# Shear Modulus (GPa) = 13.36678 23.01341 18.19009
#
# Velocity S-wave (km/s) = 2.73307 3.58615 3.18827
# Velocity P-wave (km/s) = 5.04079 7.27097 6.25606
#
# Compressibility (1/GPa) = 0.03616996
#
# Stress axis : x y z
#
# Youngs Moduli (GPa) = 14.98334 21.39636 88.63551
#
# Poissons Ratio (x) = 0.66209 -0.07503
# Poissons Ratio (y) = 0.46364 1.25840
# Poissons Ratio (z) = -0.01268 0.30377
#
# Static dielectric constant tensor:
#      x y z
#    x 1.608750 0.000000 0.005920 
#    y 0.000000 1.589840 0.000000 
#    z 0.005920 0.000000 1.633280 
# 
# From -- ./inp_files/377732.got.cif
#   From: 2010.05.17/outbox.cif.g08.bks.cpg/sg12_189_cif.got.tgz:377732.got - 2010.06.03 13:09:07.
