data_PCOD9208169
_publ_section_title
;
Structure prediction by ZEFSAII (Michael W. Deem and Ramdas Pophale) SiO2 
 PCOD9208169
Probable space group: C 2/M
;
_chemical_formula_sum "Si O2"
_cell_formula_units_Z 56
_cell_length_a 23.994692
_cell_length_b 8.840987
_cell_length_c 14.923877
_cell_angle_alpha 90.000000
_cell_angle_beta 110.918937
_cell_angle_gamma 90.000000
_cell_volume 2957.227225
_symmetry_space_group_name_H-M "C 2/M"
_symmetry_group_IT_number 12
_symmetry_cell_setting 'monoclinic'
loop_
_space_group_symop_operation_xyz
x,y,z
-x,y,-z
-x,-y,-z
x,-y,z
1/2+x,1/2+y,z
1/2-x,1/2+y,-z
1/2-x,1/2-y,-z
1/2+x,1/2-y,z
loop_
_atom_site_type_symbol
_atom_site_label
_atom_site_fract_x
_atom_site_fract_y
_atom_site_fract_z
Si Si1 0.069342 0.679158 0.692865
Si Si2 0.449737 0.318400 0.685278
Si Si3 0.109800 0.819340 0.539891
Si Si4 0.852690 0.181850 0.776817
Si Si5 0.184833 0.679815 0.063161
Si Si6 0.262438 0.818591 0.409373
Si Si7 0.824659 0.820372 0.134886
O O1 0.068604 0.500000 0.683381
O O2 0.068366 0.755634 0.594512
O O3 0.129612 0.733878 0.775567
O O4 0.012836 0.736496 0.716704
O O5 0.458659 0.500000 0.691803
O O6 0.414618 0.282346 0.572977
O O7 0.408443 0.277301 0.745735
O O8 0.175123 0.747627 0.588325
O O9 0.113738 0.000000 0.549629
O O10 0.850413 0.263242 0.870598
O O11 0.792458 0.219817 0.687282
O O12 0.853310 0.000000 0.789847
O O13 0.178438 0.500000 0.046586
O O14 0.255480 0.711937 0.118442
O O15 0.166742 0.765806 0.962296
O O16 0.250000 0.750000 0.500000
O O17 0.265777 0.000000 0.417718
O O18 0.834343 0.000000 0.148178
#
# Coordination Sequence:
#
# PCOD9208169 Si02
#       7
#     8   8   8   8   8   8   8
#     4  12  25  39  58  87 117 150 196 249 294 341
#     4  10  22  41  59  79 114 160 202 240 285 347
#     4  11  22  39  60  84 115 157 201 243 292 349
#     4  10  21  38  58  84 118 158 196 232 287 351
#     4  10  21  37  62  94 120 146 185 238 292 343
#     4  11  21  35  56  85 119 154 193 240 289 341
#     4  10  21  40  64  88 117 154 190 232 289 351
#
# _framework density 18.936657
#
# number of rings (size 3 to 8) (size 9 to 14) (size 15 to 20)
#    0.000    1.429    1.429    4.286    0.000    8.571 
#    0.000    0.714    0.000    4.286    0.000    0.000 
#    0.000    0.000    0.000    0.000    0.000    0.000 
#
# Total GULP energy -156581.663513 kJ/mol
# GULP energy per Si atom -5592.202268 kJ/mol
# Density = 1.889356 g / cm^3
# Si number density = 18.936657 Si / 1000 Ang^3
#
#
#
# Elastic Constant Matrix: (Units=GPa)
#
#
# Indices 1 2 3 4 5 6 
#
# 1 69.9041 23.1504 26.1557 0.0000 -19.3326 0.0000
# 2 23.1504 39.6005 20.8000 0.0000 -6.1445 0.0000
# 3 26.1557 20.8000 59.4355 0.0000 -25.2208 0.0000
# 4 0.0000 0.0000 0.0000 30.3421 0.0000 -3.0484
# 5 -19.3326 -6.1445 -25.2208 0.0000 29.3523 0.0000
# 6 0.0000 0.0000 0.0000 -3.0484 0.0000 32.3900
#
#
#
# Elastic Compliance Matrix: (Units=1/GPa)
#
#
# Indices 1 2 3 4 5 6 
#
# 1 0.021034 -0.009999 -0.001207 0.000000 0.010724 0.000000
# 2 -0.009999 0.036066 -0.012295 0.000000 -0.009600 0.000000
# 3 -0.001207 -0.012295 0.031838 0.000000 0.023988 0.000000
# 4 0.000000 0.000000 0.000000 0.033272 0.000000 0.003131
# 5 0.010724 -0.009600 0.023988 0.000000 0.059734 0.000000
# 6 0.000000 0.000000 0.000000 0.003131 0.000000 0.031168
#
#
# Mechanical properties :
#
#
# Convention : Reuss Voigt Hill
#
# Bulk Modulus (GPa) = 23.84569 34.35027 29.09798
# Shear Modulus (GPa) = 18.24204 25.00580 21.62392
#
# Velocity S-wave (km/s) = 3.10711 3.63781 3.38288
# Velocity P-wave (km/s) = 5.04894 5.98530 5.53695
#
# Compressibility (1/GPa) = 0.04193630
#
# Stress axis : x y z
#
# Youngs Moduli (GPa) = 47.54234 27.72699 31.40918
#
# Poissons Ratio (x) = 0.27723 0.03790
# Poissons Ratio (y) = 0.47536 0.38619
# Poissons Ratio (z) = 0.05737 0.34091
#
# Static dielectric constant tensor:
#      x y z
#    x 1.655530 0.000000 -0.005130 
#    y 0.000000 1.626340 0.000000 
#    z -0.005130 0.000000 1.641030 
# 
# From -- ./inp_files/237829.got.cif
#   From: 2010.05.17/outbox.cif.g08.bks.cpg/sg12_119_cif.got.tgz:237829.got - 2010.06.03 13:09:07.
