data_PCOD9208316
_publ_section_title
;
Structure prediction by ZEFSAII (Michael W. Deem and Ramdas Pophale) SiO2 
 PCOD9208316
Probable space group: C 2/M
;
_chemical_formula_sum "Si O2"
_cell_formula_units_Z 40
_cell_length_a 9.142901
_cell_length_b 24.896348
_cell_length_c 15.674500
_cell_angle_alpha 90.000000
_cell_angle_beta 146.193493
_cell_angle_gamma 90.000000
_cell_volume 1985.146964
_symmetry_space_group_name_H-M "C 2/M"
_symmetry_group_IT_number 12
_symmetry_cell_setting 'monoclinic'
loop_
_space_group_symop_operation_xyz
x,y,z
-x,y,-z
-x,-y,-z
x,-y,z
1/2+x,1/2+y,z
1/2-x,1/2+y,-z
1/2-x,1/2-y,-z
1/2+x,1/2-y,z
loop_
_atom_site_type_symbol
_atom_site_label
_atom_site_fract_x
_atom_site_fract_y
_atom_site_fract_z
Si Si1 0.736617 0.211091 0.335444
Si Si2 0.331204 0.000000 0.002528
Si Si3 0.902064 0.885957 0.085366
Si Si4 0.281466 0.293367 0.157575
Si Si5 0.936055 0.614477 0.252870
Si Si6 0.680396 0.000000 0.342330
O O1 0.502455 0.252775 0.233522
O O2 0.784050 0.196800 0.259789
O O3 0.660961 0.159085 0.354967
O O4 0.000000 0.236307 0.500000
O O5 0.149122 0.052182 0.917958
O O6 0.500000 0.000000 0.000000
O O7 0.543915 0.000000 0.182504
O O8 0.808605 0.847261 0.115282
O O9 0.206716 0.876020 0.210431
O O10 0.721251 0.878676 0.913414
O O11 0.000000 0.267793 0.000000
O O12 0.063195 0.555420 0.324178
O O13 0.000000 0.000000 0.500000
#
# Coordination Sequence:
#
# PCOD9208316 Si02
#       6
#     8   4   8   8   8   4
#     4  12  26  42  64  93 130 166 208 261 322 374
#     4  10  21  37  65  93 126 156 208 262 308 360
#     4  10  21  38  65  95 122 160 212 264 304 360
#     4  12  24  42  66  93 123 167 214 260 311 373
#     4  10  21  39  64  93 125 162 210 257 310 370
#     4  10  21  39  65  91 126 167 202 250 316 378
#
# _framework density 20.149642
#
# number of rings (size 3 to 8) (size 9 to 14) (size 15 to 20)
#    0.000    1.200    2.000    4.200    5.600    2.400 
#    0.000    0.000    0.000    1.200    0.000    0.000 
#    0.000    0.000    0.000    0.000    0.000    0.000 
#
# Total GULP energy -111771.666894 kJ/mol
# GULP energy per Si atom -5588.583345 kJ/mol
# Density = 2.010378 g / cm^3
# Si number density = 20.149642 Si / 1000 Ang^3
#
#
#
# Elastic Constant Matrix: (Units=GPa)
#
#
# Indices 1 2 3 4 5 6 
#
# 1 115.7398 31.5360 42.0542 0.0000 22.0234 0.0000
# 2 31.5360 103.1688 30.3392 0.0000 11.8912 0.0000
# 3 42.0542 30.3392 101.0246 0.0001 19.7678 -0.0001
# 4 0.0000 0.0000 0.0001 47.3221 0.0000 5.9810
# 5 22.0234 11.8912 19.7678 0.0000 20.2345 0.0000
# 6 0.0000 0.0000 -0.0001 5.9810 0.0000 10.6529
#
#
#
# Elastic Compliance Matrix: (Units=1/GPa)
#
#
# Indices 1 2 3 4 5 6 
#
# 1 0.011833 -0.001788 -0.002565 0.000000 -0.009323 0.000000
# 2 -0.001788 0.011153 -0.002106 0.000000 -0.002550 0.000000
# 3 -0.002565 -0.002106 0.013365 0.000000 -0.009028 0.000000
# 4 0.000000 0.000000 0.000000 0.022746 0.000000 -0.012770
# 5 -0.009323 -0.002550 -0.009028 0.000000 0.069886 0.000000
# 6 0.000000 0.000000 0.000000 -0.012770 0.000000 0.101041
#
#
# Mechanical properties :
#
#
# Convention : Reuss Voigt Hill
#
# Bulk Modulus (GPa) = 42.67389 58.64352 50.65870
# Shear Modulus (GPa) = 19.93996 30.04217 24.99106
#
# Velocity S-wave (km/s) = 3.14919 3.86548 3.52557
# Velocity P-wave (km/s) = 5.86922 7.00641 6.46287
#
# Compressibility (1/GPa) = 0.02343354
#
# Stress axis : x y z
#
# Youngs Moduli (GPa) = 84.50795 89.66409 74.82172
#
# Poissons Ratio (x) = 0.16035 0.19188
# Poissons Ratio (y) = 0.15113 0.15756
# Poissons Ratio (z) = 0.21672 0.18882
#
# Static dielectric constant tensor:
#      x y z
#    x 1.697250 0.000000 0.004750 
#    y 0.000000 1.694810 0.000000 
#    z 0.004750 0.000000 1.720090 
# 
# From -- ./inp_files/259782.got.cif
#   From: 2010.05.17/outbox.cif.g08.bks.cpg/sg12_130_cif.got.tgz:259782.got - 2010.06.03 13:09:07.
