data_PCOD9208009
_publ_section_title
;
Structure prediction by ZEFSAII (Michael W. Deem and Ramdas Pophale) SiO2 
 PCOD9208009
Probable space group: C 2/M
;
_chemical_formula_sum "Si O2"
_cell_formula_units_Z 58
_cell_length_a 8.984005
_cell_length_b 18.281041
_cell_length_c 16.234906
_cell_angle_alpha 90.000000
_cell_angle_beta 98.095565
_cell_angle_gamma 90.000000
_cell_volume 2639.800105
_symmetry_space_group_name_H-M "C 2/M"
_symmetry_group_IT_number 12
_symmetry_cell_setting 'monoclinic'
loop_
_space_group_symop_operation_xyz
x,y,z
-x,y,-z
-x,-y,-z
x,-y,z
1/2+x,1/2+y,z
1/2-x,1/2+y,-z
1/2-x,1/2-y,-z
1/2+x,1/2-y,z
loop_
_atom_site_type_symbol
_atom_site_label
_atom_site_fract_x
_atom_site_fract_y
_atom_site_fract_z
Si Si1 0.975250 0.916838 0.595238
Si Si2 0.823554 0.797578 0.694801
Si Si3 0.765482 0.372917 0.713189
Si Si4 0.745251 0.605480 0.074606
Si Si5 0.500000 0.500000 0.000000
Si Si6 0.967391 0.222102 0.875757
Si Si7 0.397762 0.080562 0.253596
Si Si8 0.281518 0.852116 0.903383
O O1 0.885906 0.846044 0.624055
O O2 0.000000 0.908789 0.500000
O O3 0.134327 0.912074 0.654111
O O4 0.913250 0.000000 0.604624
O O5 0.769300 0.713249 0.685468
O O6 0.694138 0.850795 0.718936
O O7 0.949522 0.790193 0.776529
O O8 0.744077 0.382888 0.810210
O O9 0.929746 0.406052 0.711540
O O10 0.589241 0.561281 0.061216
O O11 0.678705 0.682980 0.097059
O O12 0.860528 0.580766 0.153103
O O13 0.801748 0.598614 0.985372
O O14 0.129012 0.193148 0.913706
O O15 0.931106 0.304556 0.898829
O O16 0.350319 0.000000 0.280210
#
# Coordination Sequence:
#
# PCOD9208009 Si02
#       8
#     8   8   8   8   2   8   8   8
#     4  11  24  45  72 104 134 166 211 262 329 410
#     4  10  22  42  70  96 130 173 221 266 319 398
#     4  11  24  44  68  96 132 172 216 276 330 386
#     4  11  23  38  57  87 125 173 224 270 312 381
#     4  12  20  40  56  78 128 168 230 268 310 380
#     4  10  21  37  61  88 120 167 215 268 319 375
#     4  11  24  43  63  93 135 175 223 273 330 383
#     4  11  22  39  60  89 125 166 216 275 323 373
#
# _framework density 21.971360000000001
#
# number of rings (size 3 to 8) (size 9 to 14) (size 15 to 20)
#    0.000    1.241    3.448    2.069    9.655    1.103 
#    9.931    1.379    0.000    2.483    0.000    0.000 
#    0.000    0.000    0.000    0.000    0.000    0.000 
#
# Total GULP energy -161550.804391 kJ/mol
# GULP energy per Si atom -5570.717393 kJ/mol
# Density = 2.192135 g / cm^3
# Si number density = 21.971360 Si / 1000 Ang^3
#
#
#
# Elastic Constant Matrix: (Units=GPa)
#
#
# Indices 1 2 3 4 5 6 
#
# 1 59.4062 9.8606 22.3974 0.0000 -8.6272 0.0000
# 2 9.8606 103.1256 16.0221 0.0000 -19.1554 0.0000
# 3 22.3974 16.0221 94.7249 0.0000 -26.2911 0.0000
# 4 0.0000 0.0000 0.0000 18.3135 0.0000 12.7351
# 5 -8.6272 -19.1554 -26.2911 0.0000 27.8465 0.0000
# 6 0.0000 0.0000 0.0000 12.7351 0.0000 1.2984
#
#
#
# Elastic Compliance Matrix: (Units=1/GPa)
#
#
# Indices 1 2 3 4 5 6 
#
# 1 0.018651 -0.000902 -0.003829 0.000000 0.001542 0.000000
# 2 -0.000902 0.011169 0.000514 0.000000 0.007888 0.000000
# 3 -0.003829 0.000514 0.015102 0.000000 0.013425 0.000000
# 4 0.000000 0.000000 0.000000 -0.009381 0.000000 0.092013
# 5 0.001542 0.007888 0.013425 0.000000 0.054491 0.000000
# 6 0.000000 0.000000 0.000000 0.092013 0.000000 -0.132318
#
#
# Mechanical properties :
#
#
# Convention : Reuss Voigt Hill
#
# Bulk Modulus (GPa) = 27.40802 39.31301 33.36051
# Shear Modulus (GPa) = -230.51143 23.42345 -103.54399
#
# Velocity S-wave (km/s) = -10.25389 3.26865 -6.87234
# Velocity P-wave (km/s) = 11.29992 5.67248 6.91054
#
# Compressibility (1/GPa) = 0.03648567
#
# Stress axis : x y z
#
# Youngs Moduli (GPa) = 53.61744 89.53691 66.21821
#
# Poissons Ratio (x) = 0.08075 0.25356
# Poissons Ratio (y) = 0.04836 -0.03401
# Poissons Ratio (z) = 0.20531 -0.04598
#
# Static dielectric constant tensor:
#      x y z
#    x 1.853840 0.000000 -0.026900 
#    y 0.000000 1.767470 0.000000 
#    z -0.026900 0.000000 1.754080 
# 
# From -- ./inp_files/301147.got.cif
#   From: 2010.05.17/outbox.cif.g08.bks.cpg/sg12_151_cif.got.tgz:301147.got - 2010.06.03 13:09:07.
