data_PCOD9208952
_publ_section_title
;
Structure prediction by ZEFSAII (Michael W. Deem and Ramdas Pophale) SiO2 
 PCOD9208952
Probable space group: C 2/M
;
_chemical_formula_sum "Si O2"
_cell_formula_units_Z 56
_cell_length_a 15.140128
_cell_length_b 8.658299
_cell_length_c 24.355351
_cell_angle_alpha 90.000000
_cell_angle_beta 63.054637
_cell_angle_gamma 90.000000
_cell_volume 2846.086990
_symmetry_space_group_name_H-M "C 2/M"
_symmetry_group_IT_number 12
_symmetry_cell_setting 'monoclinic'
loop_
_space_group_symop_operation_xyz
x,y,z
-x,y,-z
-x,-y,-z
x,-y,z
1/2+x,1/2+y,z
1/2-x,1/2+y,-z
1/2-x,1/2-y,-z
1/2+x,1/2-y,z
loop_
_atom_site_type_symbol
_atom_site_label
_atom_site_fract_x
_atom_site_fract_y
_atom_site_fract_z
Si Si1 0.184905 0.680683 0.766653
Si Si2 0.149739 0.814220 0.000698
Si Si3 0.919546 0.178541 0.307040
Si Si4 0.280430 0.822022 0.433523
Si Si5 0.928758 0.186989 0.097434
Si Si6 0.600511 0.179162 0.305771
Si Si7 0.428054 0.678825 0.569368
O O1 0.209195 0.500000 0.762173
O O2 0.123697 0.717083 0.729010
O O3 0.122018 0.733371 0.836735
O O4 0.285495 0.778037 0.734397
O O5 0.045263 0.770248 0.059140
O O6 0.155840 0.000000 0.000984
O O7 0.250000 0.750000 0.000000
O O8 0.129572 0.771751 0.942479
O O9 0.862534 0.223584 0.378967
O O10 0.033518 0.216800 0.285276
O O11 0.903191 0.000000 0.298444
O O12 0.250000 0.750000 0.500000
O O13 0.182777 0.820849 0.423128
O O14 0.312710 0.000000 0.431063
O O15 0.924443 0.000000 0.103916
O O16 0.570672 0.220026 0.376647
O O17 0.582072 0.000000 0.299972
O O18 0.500000 0.730769 0.500000
O O19 0.454856 0.500000 0.575395
#
# Coordination Sequence:
#
# PCOD9208952 Si02
#       7
#     8   8   8   8   8   8   8
#     4  12  25  43  65  93 129 169 215 265 320 383
#     4   9  19  37  64  94 130 169 211 259 308 366
#     4  12  25  43  65  89 122 163 209 263 320 380
#     4  11  22  37  60  89 124 159 203 257 315 382
#     4   9  20  40  62  90 128 173 213 254 312 373
#     4  12  25  42  65  91 121 161 209 261 319 384
#     4  10  21  38  60  87 121 158 199 253 315 379
#
# _framework density 19.676138999999999
#
# number of rings (size 3 to 8) (size 9 to 14) (size 15 to 20)
#    0.000    1.286    1.429    6.000    0.000    4.286 
#    0.000    4.286    0.000    0.000    0.000    0.000 
#    0.000    0.000    0.000    0.000    0.000    0.000 
#
# Total GULP energy -156559.420791 kJ/mol
# GULP energy per Si atom -5591.407885 kJ/mol
# Density = 1.963136 g / cm^3
# Si number density = 19.676139 Si / 1000 Ang^3
#
#
#
# Elastic Constant Matrix: (Units=GPa)
#
#
# Indices 1 2 3 4 5 6 
#
# 1 101.9636 -4.7252 25.6346 0.0000 -6.5312 0.0000
# 2 -4.7252 54.9920 11.5453 0.0000 -1.9068 0.0000
# 3 25.6346 11.5453 103.1590 0.0000 -4.0158 0.0000
# 4 0.0000 0.0000 0.0000 31.2020 0.0000 1.5780
# 5 -6.5312 -1.9068 -4.0158 0.0000 15.2993 0.0000
# 6 0.0000 0.0000 0.0000 1.5780 0.0000 32.8651
#
#
#
# Elastic Compliance Matrix: (Units=1/GPa)
#
#
# Indices 1 2 3 4 5 6 
#
# 1 0.010830 0.001643 -0.002715 0.000000 0.004115 0.000000
# 2 0.001643 0.018920 -0.002432 0.000000 0.002421 0.000000
# 3 -0.002715 -0.002432 0.010693 0.000000 0.001345 0.000000
# 4 0.000000 0.000000 0.000000 0.032127 0.000000 -0.001543
# 5 0.004115 0.002421 0.001345 0.000000 0.067774 0.000000
# 6 0.000000 0.000000 0.000000 -0.001543 0.000000 0.030502
#
#
# Mechanical properties :
#
#
# Convention : Reuss Voigt Hill
#
# Bulk Modulus (GPa) = 29.90760 36.11377 33.01068
# Shear Modulus (GPa) = 26.45539 31.05061 28.75300
#
# Velocity S-wave (km/s) = 3.67078 3.97682 3.82686
# Velocity P-wave (km/s) = 5.76186 6.28337 6.02826
#
# Compressibility (1/GPa) = 0.03343632
#
# Stress axis : x y z
#
# Youngs Moduli (GPa) = 92.33857 52.85380 93.52015
#
# Poissons Ratio (x) = -0.08685 0.25389
# Poissons Ratio (y) = -0.15173 0.22740
# Poissons Ratio (z) = 0.25068 0.12852
#
# Static dielectric constant tensor:
#      x y z
#    x 1.682640 0.000000 -0.007620 
#    y 0.000000 1.664980 0.000000 
#    z -0.007620 0.000000 1.671920 
# 
# From -- ./inp_files/338539.got.cif
#   From: 2010.05.17/outbox.cif.g08.bks.cpg/sg12_170_cif.got.tgz:338539.got - 2010.06.03 13:09:07.
