data_PCOD9208515
_publ_section_title
;
Structure prediction by ZEFSAII (Michael W. Deem and Ramdas Pophale) SiO2 
 PCOD9208515
Probable space group: C 2/M
;
_chemical_formula_sum "Si O2"
_cell_formula_units_Z 40
_cell_length_a 17.041355
_cell_length_b 13.358209
_cell_length_c 13.026311
_cell_angle_alpha 90.000000
_cell_angle_beta 47.664535
_cell_angle_gamma 90.000000
_cell_volume 2192.018433
_symmetry_space_group_name_H-M "C 2/M"
_symmetry_group_IT_number 12
_symmetry_cell_setting 'monoclinic'
loop_
_space_group_symop_operation_xyz
x,y,z
-x,y,-z
-x,-y,-z
x,-y,z
1/2+x,1/2+y,z
1/2-x,1/2+y,-z
1/2-x,1/2-y,-z
1/2+x,1/2-y,z
loop_
_atom_site_type_symbol
_atom_site_label
_atom_site_fract_x
_atom_site_fract_y
_atom_site_fract_z
Si Si1 0.996676 0.885774 0.123572
Si Si2 0.620315 0.117746 0.354072
Si Si3 0.457339 0.110871 0.152747
Si Si4 0.791233 0.783614 0.352604
Si Si5 0.128127 0.275348 0.129257
O O1 0.878128 0.871998 0.270779
O O2 0.067676 0.822434 0.139212
O O3 0.031469 0.000000 0.091258
O O4 0.000000 0.850969 0.000000
O O5 0.500000 0.115387 0.500000
O O6 0.695372 0.175547 0.368395
O O7 0.622718 0.184896 0.249681
O O8 0.653152 0.000000 0.309436
O O9 0.361973 0.190110 0.249042
O O10 0.560666 0.140772 0.127705
O O11 0.420366 0.000000 0.214783
O O12 0.500000 0.110572 0.000000
O O13 0.750000 0.750000 0.500000
O O14 0.250000 0.250000 0.000000
#
# Coordination Sequence:
#
# PCOD9208515 Si02
#       5
#     8   8   8   8   8
#     4  10  21  38  60  85 115 154 195 233 279 337
#     4  11  23  39  60  86 116 150 189 236 291 345
#     4  10  21  38  58  81 113 153 193 232 279 337
#     4  11  22  38  60  83 112 148 192 239 281 338
#     4  11  21  35  57  87 120 148 187 238 285 336
#
# _framework density 18.248021000000001
#
# number of rings (size 3 to 8) (size 9 to 14) (size 15 to 20)
#    0.000    1.400    0.000    8.400    0.000    6.400 
#    0.000    1.000    0.000    2.400    0.000    0.000 
#    0.000    0.000    0.000    0.000    0.000    0.000 
#
# Total GULP energy -111435.521302 kJ/mol
# GULP energy per Si atom -5571.776065 kJ/mol
# Density = 1.820649 g / cm^3
# Si number density = 18.248021 Si / 1000 Ang^3
#
#
#
# Elastic Constant Matrix: (Units=GPa)
#
#
# Indices 1 2 3 4 5 6 
#
# 1 173.7346 57.3608 63.3442 0.0000 6.1732 0.0000
# 2 57.3608 132.5238 40.6423 0.0000 7.6792 0.0000
# 3 63.3442 40.6423 117.6629 0.0000 9.3666 0.0000
# 4 0.0000 0.0000 0.0000 19.3850 0.0000 5.2832
# 5 6.1732 7.6792 9.3666 0.0000 37.9507 0.0000
# 6 0.0000 0.0000 0.0000 5.2832 0.0000 -16.1737
#
#
#
# Elastic Compliance Matrix: (Units=1/GPa)
#
#
# Indices 1 2 3 4 5 6 
#
# 1 0.007752 -0.002323 -0.003374 0.000000 0.000042 0.000000
# 2 -0.002323 0.009174 -0.001837 0.000000 -0.001025 0.000000
# 3 -0.003374 -0.001837 0.011094 0.000000 -0.001818 0.000000
# 4 0.000000 0.000000 0.000000 0.047369 0.000000 0.015473
# 5 0.000042 -0.001025 -0.001818 0.000000 0.026999 0.000000
# 6 0.000000 0.000000 0.000000 0.015473 0.000000 -0.056774
#
#
# Mechanical properties :
#
#
# Convention : Reuss Voigt Hill
#
# Bulk Modulus (GPa) = 77.20388 82.95731 80.08060
# Shear Modulus (GPa) = 76.92474 25.73733 51.33104
#
# Velocity S-wave (km/s) = 6.49974 3.75963 5.30949
# Velocity P-wave (km/s) = 9.93624 8.02534 9.03147
#
# Compressibility (1/GPa) = 0.01295272
#
# Stress axis : x y z
#
# Youngs Moduli (GPa) = 129.00711 109.00517 90.13547
#
# Poissons Ratio (x) = 0.25320 0.30412
# Poissons Ratio (y) = 0.29966 0.16555
# Poissons Ratio (z) = 0.43528 0.20021
#
# Static dielectric constant tensor:
#      x y z
#    x 1.537020 0.000000 -0.006800 
#    y 0.000000 1.666310 0.000000 
#    z -0.006800 0.000000 1.616710 
# 
# From -- ./inp_files/142516.got.cif
#   From: 2010.05.17/outbox.cif.g08.bks.cpg/sg12_72_cif.got.tgz:142516.got - 2010.06.03 13:09:07.
