data_PCOD9208980
_publ_section_title
;
Structure prediction by ZEFSAII (Michael W. Deem and Ramdas Pophale) SiO2 
 PCOD9208980
Probable space group: C 2/M
;
_chemical_formula_sum "Si O2"
_cell_formula_units_Z 64
_cell_length_a 23.351457
_cell_length_b 23.681855
_cell_length_c 16.814019
_cell_angle_alpha 90.000000
_cell_angle_beta 18.466388
_cell_angle_gamma 90.000000
_cell_volume 2945.204777
_symmetry_space_group_name_H-M "C 2/M"
_symmetry_group_IT_number 12
_symmetry_cell_setting 'monoclinic'
loop_
_space_group_symop_operation_xyz
x,y,z
-x,y,-z
-x,-y,-z
x,-y,z
1/2+x,1/2+y,z
1/2-x,1/2+y,-z
1/2-x,1/2-y,-z
1/2+x,1/2-y,z
loop_
_atom_site_type_symbol
_atom_site_label
_atom_site_fract_x
_atom_site_fract_y
_atom_site_fract_z
Si Si1 0.240761 0.338257 0.304301
Si Si2 0.550454 0.336966 0.626270
Si Si3 0.219330 0.563452 0.215540
Si Si4 0.700628 0.934362 0.765289
Si Si5 0.101737 0.624413 0.047676
Si Si6 0.779601 0.815817 0.437047
Si Si7 0.671936 0.864805 0.127355
Si Si8 0.686439 0.730157 0.301293
O O1 0.278415 0.398045 0.212377
O O2 0.310890 0.327089 0.301519
O O3 0.291318 0.288321 0.177039
O O4 0.018851 0.336592 0.599530
O O5 0.637525 0.395941 0.481127
O O6 0.580844 0.334073 0.679693
O O7 0.654769 0.292287 0.433090
O O8 0.340425 0.324968 0.887136
O O9 0.291196 0.500000 0.125247
O O10 0.251475 0.594864 0.090236
O O11 0.000000 0.560506 0.500000
O O12 0.678081 0.922473 0.888271
O O13 0.724523 0.000000 0.714601
O O14 0.500000 0.915531 0.000000
O O15 0.208713 0.681563 0.883657
O O16 0.131800 0.604541 0.097639
O O17 0.895620 0.645124 0.312712
O O18 0.750000 0.750000 0.500000
O O19 0.500000 0.739096 0.500000
#
# Coordination Sequence:
#
# PCOD9208980 Si02
#       8
#     8   8   8   8   8   8   8   8
#     4  10  22  39  60  87 118 159 205 243 299 360
#     4  11  22  38  58  90 122 154 194 244 299 354
#     4   9  19  39  62  85 117 157 201 249 296 346
#     4  10  21  39  62  86 121 162 199 245 302 362
#     4  10  22  38  60  89 120 159 202 245 300 366
#     4  11  22  39  57  87 120 155 200 248 295 358
#     4  10  21  38  60  88 121 153 197 246 297 352
#     4  11  20  35  59  87 123 155 193 239 304 363
#
# _framework density 21.730238
#
# number of rings (size 3 to 8) (size 9 to 14) (size 15 to 20)
#    0.000    1.750    3.750    1.125    0.000    3.500 
#    0.000    5.000    0.000    0.750    0.000    0.000 
#    0.000    0.000    0.000    0.000    0.000    0.000 
#
# Total GULP energy -178509.857461 kJ/mol
# GULP energy per Si atom -5578.433046 kJ/mol
# Density = 2.168078 g / cm^3
# Si number density = 21.730238 Si / 1000 Ang^3
#
#
#
# Elastic Constant Matrix: (Units=GPa)
#
#
# Indices 1 2 3 4 5 6 
#
# 1 135.0905 32.8278 23.0648 -0.0329 4.6479 0.0206
# 2 32.8278 76.5681 1.4573 -0.0308 7.5129 0.0021
# 3 23.0648 1.4573 51.3534 -0.0441 2.7134 -0.0019
# 4 -0.0329 -0.0308 -0.0441 8.6070 0.0230 -4.9670
# 5 4.6479 7.5129 2.7134 0.0230 31.9324 -0.0080
# 6 0.0206 0.0021 -0.0019 -4.9670 -0.0080 17.1845
#
#
#
# Elastic Compliance Matrix: (Units=1/GPa)
#
#
# Indices 1 2 3 4 5 6 
#
# 1 0.008993 -0.003772 -0.003927 -0.000006 -0.000088 -0.000013
# 2 -0.003772 0.014954 0.001433 0.000067 -0.003091 0.000021
# 3 -0.003927 0.001433 0.021279 0.000128 -0.001574 0.000043
# 4 -0.000006 0.000067 0.000128 0.139444 -0.000116 0.040304
# 5 -0.000088 -0.003091 -0.001574 -0.000116 0.032190 -0.000018
# 6 -0.000013 0.000021 0.000043 0.040304 -0.000018 0.069841
#
#
# Mechanical properties :
#
#
# Convention : Reuss Voigt Hill
#
# Bulk Modulus (GPa) = 30.58736 41.96800 36.27768
# Shear Modulus (GPa) = 16.12221 25.25560 20.68890
#
# Velocity S-wave (km/s) = 2.72679 3.41285 3.08893
# Velocity P-wave (km/s) = 4.90105 5.90637 5.42704
#
# Compressibility (1/GPa) = 0.03269324
#
# Stress axis : x y z
#
# Youngs Moduli (GPa) = 111.20199 66.87366 46.99380
#
# Poissons Ratio (x) = 0.25226 0.18456
# Poissons Ratio (y) = 0.41947 -0.06735
# Poissons Ratio (z) = 0.43672 -0.09585
#
# Static dielectric constant tensor:
#      x y z
#    x 1.814810 -0.000010 -0.016210 
#    y -0.000010 1.780430 0.000000 
#    z -0.016210 0.000000 1.883990 
# 
# From -- ./inp_files/291082.got.cif
#   From: 2010.05.17/outbox.cif.g08.bks.cpg/sg12_146_cif.got.tgz:291082.got - 2010.06.03 13:09:07.
