data_PCOD9208483
_publ_section_title
;
Structure prediction by ZEFSAII (Michael W. Deem and Ramdas Pophale) SiO2 
 PCOD9208483
Probable space group: C 2/M
;
_chemical_formula_sum "Si O2"
_cell_formula_units_Z 56
_cell_length_a 27.575314
_cell_length_b 8.639636
_cell_length_c 17.850679
_cell_angle_alpha 90.000000
_cell_angle_beta 125.885164
_cell_angle_gamma 90.000000
_cell_volume 3445.556520
_symmetry_space_group_name_H-M "C 2/M"
_symmetry_group_IT_number 12
_symmetry_cell_setting 'monoclinic'
loop_
_space_group_symop_operation_xyz
x,y,z
-x,y,-z
-x,-y,-z
x,-y,z
1/2+x,1/2+y,z
1/2-x,1/2+y,-z
1/2-x,1/2-y,-z
1/2+x,1/2-y,z
loop_
_atom_site_type_symbol
_atom_site_label
_atom_site_fract_x
_atom_site_fract_y
_atom_site_fract_z
Si Si1 0.026745 0.316843 0.292279
Si Si2 0.402700 0.686156 0.895230
Si Si3 0.962645 0.185166 0.540550
Si Si4 0.341444 0.316036 0.606783
Si Si5 0.484536 0.313813 0.107500
Si Si6 0.789889 0.316423 0.714575
Si Si7 0.830118 0.315757 0.435049
O O1 0.038434 0.500000 0.301913
O O2 0.009717 0.264146 0.360359
O O3 0.088174 0.224875 0.330860
O O4 0.982763 0.269371 0.185542
O O5 0.395976 0.500000 0.884903
O O6 0.453646 0.728269 0.879901
O O7 0.340209 0.764346 0.819120
O O8 0.431329 0.724538 0.001656
O O9 0.894423 0.244787 0.472235
O O10 0.000000 0.220833 0.500000
O O11 0.961560 0.000000 0.550453
O O12 0.332541 0.500000 0.598587
O O13 0.314125 0.243739 0.656480
O O14 0.317127 0.242905 0.507984
O O15 0.485134 0.500000 0.117994
O O16 0.784370 0.500000 0.708172
O O17 0.724635 0.241439 0.665231
O O18 0.833997 0.500000 0.438801
#
# Coordination Sequence:
#
# PCOD9208483 Si02
#       7
#     8   8   8   8   8   8   8
#     4  11  20  30  49  76 103 132 167 205 249 296
#     4   9  18  31  48  69  96 136 175 210 247 285
#     4  10  21  38  58  78 100 127 161 204 253 300
#     4  11  20  32  47  66  97 133 170 206 242 289
#     4   9  17  31  49  69  98 134 173 210 247 290
#     4  12  22  32  46  69 100 134 170 206 245 290
#     4  11  22  35  51  71  97 129 165 203 246 297
#
# _framework density 16.252818000000001
#
# number of rings (size 3 to 8) (size 9 to 14) (size 15 to 20)
#    0.000    1.571    1.429    8.571    0.000    1.714 
#    0.000    1.429    0.000    0.000    0.000    1.000 
#    0.000    0.000    0.000    0.000    0.000    0.000 
#
# Total GULP energy -156355.029256 kJ/mol
# GULP energy per Si atom -5584.108188 kJ/mol
# Density = 1.621583 g / cm^3
# Si number density = 16.252818 Si / 1000 Ang^3
#
#
#
# Elastic Constant Matrix: (Units=GPa)
#
#
# Indices 1 2 3 4 5 6 
#
# 1 55.3599 20.5425 43.0110 0.0000 -8.2418 0.0000
# 2 20.5425 64.3198 35.7986 0.0000 -1.6673 0.0000
# 3 43.0110 35.7986 121.4768 0.0000 1.7061 0.0000
# 4 0.0000 0.0000 0.0000 28.6304 0.0000 2.4097
# 5 -8.2418 -1.6673 1.7061 0.0000 17.0251 0.0000
# 6 0.0000 0.0000 0.0000 2.4097 0.0000 17.2221
#
#
#
# Elastic Compliance Matrix: (Units=1/GPa)
#
#
# Indices 1 2 3 4 5 6 
#
# 1 0.028835 -0.003632 -0.009343 0.000000 0.014540 0.000000
# 2 -0.003632 0.019152 -0.004366 0.000000 0.000555 0.000000
# 3 -0.009343 -0.004366 0.012914 0.000000 -0.006245 0.000000
# 4 0.000000 0.000000 0.000000 0.035344 0.000000 -0.004945
# 5 0.014540 0.000555 -0.006245 0.000000 0.066455 0.000000
# 6 0.000000 0.000000 0.000000 -0.004945 0.000000 0.058757
#
#
# Mechanical properties :
#
#
# Convention : Reuss Voigt Hill
#
# Bulk Modulus (GPa) = 38.14067 48.87341 43.50704
# Shear Modulus (GPa) = 18.87648 22.02915 20.45282
#
# Velocity S-wave (km/s) = 3.41167 3.68558 3.55127
# Velocity P-wave (km/s) = 6.24799 6.94603 6.60624
#
# Compressibility (1/GPa) = 0.02621873
#
# Stress axis : x y z
#
# Youngs Moduli (GPa) = 34.67970 52.21515 77.43259
#
# Poissons Ratio (x) = 0.18966 0.72349
# Poissons Ratio (y) = 0.12597 0.33804
# Poissons Ratio (z) = 0.32403 0.22795
#
# Static dielectric constant tensor:
#      x y z
#    x 1.524900 0.000000 0.008120 
#    y 0.000000 1.539850 0.000000 
#    z 0.008120 0.000000 1.584500 
# 
# From -- ./inp_files/291972.got.cif
#   From: 2010.05.17/outbox.cif.g08.bks.cpg/sg12_146_cif.got.tgz:291972.got - 2010.06.03 13:09:07.
