data_PCOD9208388
_publ_section_title
;
Structure prediction by ZEFSAII (Michael W. Deem and Ramdas Pophale) SiO2 
 PCOD9208388
Probable space group: C 2/M
;
_chemical_formula_sum "Si O2"
_cell_formula_units_Z 56
_cell_length_a 22.754521
_cell_length_b 8.668330
_cell_length_c 16.046473
_cell_angle_alpha 90.000000
_cell_angle_beta 82.945096
_cell_angle_gamma 90.000000
_cell_volume 3141.102674
_symmetry_space_group_name_H-M "C 2/M"
_symmetry_group_IT_number 12
_symmetry_cell_setting 'monoclinic'
loop_
_space_group_symop_operation_xyz
x,y,z
-x,y,-z
-x,-y,-z
x,-y,z
1/2+x,1/2+y,z
1/2-x,1/2+y,-z
1/2-x,1/2-y,-z
1/2+x,1/2-y,z
loop_
_atom_site_type_symbol
_atom_site_label
_atom_site_fract_x
_atom_site_fract_y
_atom_site_fract_z
Si Si1 0.982009 0.313807 0.868810
Si Si2 0.275471 0.185352 0.082359
Si Si3 0.800122 0.685417 0.553953
Si Si4 0.919842 0.178369 0.732359
Si Si5 0.435302 0.816166 0.552759
Si Si6 0.591839 0.186959 0.961860
Si Si7 0.705368 0.817705 0.251007
O O1 0.981290 0.500000 0.859094
O O2 0.971431 0.230945 0.784486
O O3 0.042406 0.267855 0.903883
O O4 0.930084 0.267859 0.942497
O O5 0.343422 0.239594 0.072294
O O6 0.243932 0.239226 0.172466
O O7 0.273235 0.000000 0.078994
O O8 0.250000 0.250000 0.000000
O O9 0.795595 0.500000 0.552403
O O10 0.750000 0.750000 0.500000
O O11 0.870344 0.721766 0.522691
O O12 0.788159 0.734767 0.652959
O O13 0.936565 0.215205 0.635331
O O14 0.862447 0.281922 0.760598
O O15 0.904898 0.000000 0.746459
O O16 0.500000 0.794732 0.500000
O O17 0.431055 0.000000 0.573504
O O18 0.591562 0.000000 0.962566
O O19 0.716167 0.000000 0.247437
#
# Coordination Sequence:
#
# PCOD9208388 Si02
#       7
#     8   8   8   8   8   8   8
#     4   9  16  33  56  74  99 140 181 217 260 317
#     4  11  21  34  53  81 112 144 183 228 274 320
#     4   9  19  36  59  83 108 143 184 229 283 334
#     4  11  21  33  53  82 109 136 173 221 275 322
#     4   9  19  38  60  81 107 142 186 226 267 330
#     4   8  17  32  52  75 101 137 182 221 258 310
#     4  10  21  38  56  77 107 147 189 225 266 327
#
# _framework density 17.828135
#
# number of rings (size 3 to 8) (size 9 to 14) (size 15 to 20)
#    0.000    2.429    0.000    4.714    0.000    4.286 
#    2.571    3.571    0.000    0.000    0.000    0.000 
#    0.000    0.000    0.000    0.000    0.000    0.000 
#
# Total GULP energy -155973.982281 kJ/mol
# GULP energy per Si atom -5570.499367 kJ/mol
# Density = 1.778756 g / cm^3
# Si number density = 17.828135 Si / 1000 Ang^3
#
#
#
# Elastic Constant Matrix: (Units=GPa)
#
#
# Indices 1 2 3 4 5 6 
#
# 1 100.3765 25.5898 59.3552 0.0000 -7.5298 0.0000
# 2 25.5898 27.6091 28.6855 0.0000 -0.2512 0.0000
# 3 59.3552 28.6855 78.5158 0.0000 12.2054 0.0000
# 4 0.0000 0.0000 0.0000 28.8145 0.0000 -0.2279
# 5 -7.5298 -0.2512 12.2054 0.0000 28.3626 0.0000
# 6 0.0000 0.0000 0.0000 -0.2279 0.0000 24.2074
#
#
#
# Elastic Compliance Matrix: (Units=1/GPa)
#
#
# Indices 1 2 3 4 5 6 
#
# 1 0.022299 -0.001262 -0.018556 0.000000 0.013894 0.000000
# 2 -0.001262 0.061457 -0.023075 0.000000 0.010139 0.000000
# 3 -0.018556 -0.023075 0.038572 0.000000 -0.021730 0.000000
# 4 0.000000 0.000000 0.000000 0.034707 0.000000 0.000327
# 5 0.013894 0.010139 -0.021730 0.000000 0.048387 0.000000
# 6 0.000000 0.000000 0.000000 0.000327 0.000000 0.041313
#
#
# Mechanical properties :
#
#
# Convention : Reuss Voigt Hill
#
# Bulk Modulus (GPa) = 27.36603 48.19583 37.78093
# Shear Modulus (GPa) = 14.50521 22.46829 18.48675
#
# Velocity S-wave (km/s) = 2.85549 3.55388 3.22365
# Velocity P-wave (km/s) = 5.12396 6.62815 5.92399
#
# Compressibility (1/GPa) = 0.03654165
#
# Stress axis : x y z
#
# Youngs Moduli (GPa) = 44.84426 16.27160 25.92521
#
# Poissons Ratio (x) = 0.02054 0.48108
# Poissons Ratio (y) = 0.05660 0.59822
# Poissons Ratio (z) = 0.83214 0.37547
#
# Static dielectric constant tensor:
#      x y z
#    x 1.637850 0.000000 -0.015160 
#    y 0.000000 1.604180 0.000000 
#    z -0.015160 0.000000 1.610580 
# 
# From -- ./inp_files/230960.got.cif
#   From: 2010.05.17/outbox.cif.g08.bks.cpg/sg12_116_cif.got.tgz:230960.got - 2010.06.03 13:09:07.
