data_PCOD9208903
_publ_section_title
;
Structure prediction by ZEFSAII (Michael W. Deem and Ramdas Pophale) SiO2 
 PCOD9208903
Probable space group: C 2/M
;
_chemical_formula_sum "Si O2"
_cell_formula_units_Z 58
_cell_length_a 7.341620
_cell_length_b 19.728464
_cell_length_c 17.524751
_cell_angle_alpha 90.000000
_cell_angle_beta 95.140352
_cell_angle_gamma 90.000000
_cell_volume 2528.057046
_symmetry_space_group_name_H-M "C 2/M"
_symmetry_group_IT_number 12
_symmetry_cell_setting 'monoclinic'
loop_
_space_group_symop_operation_xyz
x,y,z
-x,y,-z
-x,-y,-z
x,-y,z
1/2+x,1/2+y,z
1/2-x,1/2+y,-z
1/2-x,1/2-y,-z
1/2+x,1/2-y,z
loop_
_atom_site_type_symbol
_atom_site_label
_atom_site_fract_x
_atom_site_fract_y
_atom_site_fract_z
Si Si1 0.141368 0.317932 0.400565
Si Si2 0.000000 0.500000 0.000000
Si Si3 0.358483 0.425097 0.697773
Si Si4 0.275675 0.668105 0.567353
Si Si5 0.790616 0.423352 0.732875
Si Si6 0.322155 0.676563 0.823324
Si Si7 0.276401 0.373676 0.985992
Si Si8 0.755077 0.673989 0.855469
O O1 0.284448 0.329278 0.475942
O O2 0.148071 0.236605 0.390441
O O3 0.174047 0.368238 0.331931
O O4 0.938645 0.332946 0.421615
O O5 0.159676 0.441091 0.994006
O O6 0.278387 0.500000 0.701374
O O7 0.354330 0.396860 0.612041
O O8 0.570949 0.429450 0.726876
O O9 0.263764 0.370866 0.750761
O O10 0.861402 0.500000 0.724129
O O11 0.846173 0.389305 0.815300
O O12 0.236039 0.655845 0.900819
O O13 0.537902 0.665570 0.840264
O O14 0.298443 0.756657 0.813572
O O15 0.500000 0.383668 0.000000
O O16 0.212856 0.325002 0.053075
#
# Coordination Sequence:
#
# PCOD9208903 Si02
#       8
#     8   2   8   8   8   8   8   8
#     4  10  21  38  60  86 116 153 198 248 303 362
#     4  12  26  40  68 102 124 168 218 256 312 402
#     4  10  22  39  59  87 121 160 201 245 306 367
#     4  10  21  38  60  86 116 153 198 248 303 362
#     4  10  22  39  59  87 121 160 201 245 306 367
#     4  10  22  40  64  89 122 162 203 256 311 362
#     4  10  24  44  65  94 133 168 208 267 313 364
#     4  10  22  40  64  89 122 162 203 256 311 362
#
# _framework density 22.942522
#
# number of rings (size 3 to 8) (size 9 to 14) (size 15 to 20)
#    0.000    1.931    0.000    2.276    3.862    6.069 
#    0.000    2.759    0.000    0.000    0.000    0.000 
#    0.000    0.000    0.000    0.000    0.000    0.000 
#
# Total GULP energy -161743.541570 kJ/mol
# GULP energy per Si atom -5577.363502 kJ/mol
# Density = 2.289030 g / cm^3
# Si number density = 22.942522 Si / 1000 Ang^3
#
#
#
# Elastic Constant Matrix: (Units=GPa)
#
#
# Indices 1 2 3 4 5 6 
#
# 1 55.7800 -5.1495 -0.3760 0.0000 -3.3928 0.0000
# 2 -5.1495 131.4363 49.6120 0.0000 -8.8993 0.0000
# 3 -0.3760 49.6120 94.9851 0.0000 -11.7890 0.0000
# 4 0.0000 0.0000 0.0000 -25.7030 0.0000 0.5044
# 5 -3.3928 -8.8993 -11.7890 0.0000 25.5767 0.0000
# 6 0.0000 0.0000 0.0000 0.5044 0.0000 25.9985
#
#
#
# Elastic Compliance Matrix: (Units=1/GPa)
#
#
# Indices 1 2 3 4 5 6 
#
# 1 0.018176 0.000923 -0.000075 0.000000 0.002698 0.000000
# 2 0.000923 0.009552 -0.004834 0.000000 0.001218 0.000000
# 3 -0.000075 -0.004834 0.013622 0.000000 0.004587 0.000000
# 4 0.000000 0.000000 0.000000 -0.038891 0.000000 0.000755
# 5 0.002698 0.001218 0.004587 0.000000 0.041994 0.000000
# 6 0.000000 0.000000 0.000000 0.000755 0.000000 0.038449
#
#
# Mechanical properties :
#
#
# Convention : Reuss Voigt Hill
#
# Bulk Modulus (GPa) = 29.96062 41.15271 35.55667
# Shear Modulus (GPa) = 49.01960 21.04875 35.03418
#
# Velocity S-wave (km/s) = 4.62738 3.03224 3.91198
# Velocity P-wave (km/s) = 6.45272 5.49869 5.99471
#
# Compressibility (1/GPa) = 0.03337714
#
# Stress axis : x y z
#
# Youngs Moduli (GPa) = 55.01649 104.69499 73.41131
#
# Poissons Ratio (x) = -0.09666 0.00554
# Poissons Ratio (y) = -0.05079 0.35488
# Poissons Ratio (z) = 0.00415 0.50611
#
# Static dielectric constant tensor:
#      x y z
#    x 1.890580 0.000000 0.014260 
#    y 0.000000 1.835160 0.000000 
#    z 0.014260 0.000000 1.894400 
# 
# From -- ./inp_files/257108.got.cif
#   From: 2010.05.17/outbox.cif.g08.bks.cpg/sg12_129_cif.got.tgz:257108.got - 2010.06.03 13:09:07.
