data_PCOD9208824
_publ_section_title
;
Structure prediction by ZEFSAII (Michael W. Deem and Ramdas Pophale) SiO2 
 PCOD9208824
Probable space group: C 2/M
;
_chemical_formula_sum "Si O2"
_cell_formula_units_Z 40
_cell_length_a 17.752233
_cell_length_b 13.891933
_cell_length_c 14.909944
_cell_angle_alpha 90.000000
_cell_angle_beta 33.325575
_cell_angle_gamma 90.000000
_cell_volume 2020.119446
_symmetry_space_group_name_H-M "C 2/M"
_symmetry_group_IT_number 12
_symmetry_cell_setting 'monoclinic'
loop_
_space_group_symop_operation_xyz
x,y,z
-x,y,-z
-x,-y,-z
x,-y,z
1/2+x,1/2+y,z
1/2-x,1/2+y,-z
1/2-x,1/2-y,-z
1/2+x,1/2-y,z
loop_
_atom_site_type_symbol
_atom_site_label
_atom_site_fract_x
_atom_site_fract_y
_atom_site_fract_z
Si Si1 0.211350 0.888042 0.717802
Si Si2 0.018285 0.389596 0.655879
Si Si3 0.737949 0.709377 0.875325
Si Si4 0.468238 0.702305 0.259716
Si Si5 0.073473 0.112551 0.331218
O O1 0.372803 0.881968 0.533313
O O2 0.182546 0.829972 0.836376
O O3 0.131361 0.845130 0.712800
O O4 0.175495 0.000000 0.765171
O O5 0.016861 0.500000 0.687543
O O6 0.868703 0.355386 0.773084
O O7 0.065446 0.312779 0.683360
O O8 0.796409 0.816896 0.805331
O O9 0.620145 0.701898 0.066079
O O10 0.475882 0.645296 0.346124
O O11 0.000000 0.128153 0.500000
O O12 0.107122 0.000000 0.289026
#
# Coordination Sequence:
#
# PCOD9208824 Si02
#       5
#     8   8   8   8   8
#     4  11  23  39  60  85 115 151 190 235 286 338
#     4  10  21  38  60  83 112 152 193 233 279 335
#     4  11  22  37  60  88 117 148 187 237 286 336
#     4  11  23  38  59  87 118 149 186 237 288 336
#     4  10  21  38  60  84 114 154 195 232 275 336
#
# _framework density 19.800809999999998
#
# number of rings (size 3 to 8) (size 9 to 14) (size 15 to 20)
#    0.000    1.400    0.000    7.800    0.000    8.000 
#    0.000    3.000    0.000    2.400    0.000    0.000 
#    0.000    0.000    0.000    0.000    0.000    0.000 
#
# Total GULP energy -111827.949715 kJ/mol
# GULP energy per Si atom -5591.397486 kJ/mol
# Density = 1.975574 g / cm^3
# Si number density = 19.800810 Si / 1000 Ang^3
#
#
#
# Elastic Constant Matrix: (Units=GPa)
#
#
# Indices 1 2 3 4 5 6 
#
# 1 102.6558 46.4462 13.4216 0.0000 22.7432 0.0000
# 2 46.4462 147.3386 31.6618 0.0000 15.4110 0.0000
# 3 13.4216 31.6618 75.4055 0.0000 8.9855 0.0000
# 4 0.0000 0.0000 0.0000 -58.5447 0.0000 -11.6464
# 5 22.7432 15.4110 8.9855 0.0000 30.2681 0.0000
# 6 0.0000 0.0000 0.0000 -11.6464 0.0000 15.6421
#
#
#
# Elastic Compliance Matrix: (Units=1/GPa)
#
#
# Indices 1 2 3 4 5 6 
#
# 1 0.013012 -0.003256 0.000019 0.000000 -0.008125 0.000000
# 2 -0.003256 0.008542 -0.002883 0.000000 -0.001047 0.000000
# 3 0.000019 -0.002883 0.014820 0.000000 -0.002946 0.000000
# 4 0.000000 0.000000 0.000000 -0.014877 0.000000 -0.011077
# 5 -0.008125 -0.001047 -0.002946 0.000000 0.040551 0.000000
# 6 0.000000 0.000000 0.000000 -0.011077 0.000000 0.055683
#
#
# Mechanical properties :
#
#
# Convention : Reuss Voigt Hill
#
# Bulk Modulus (GPa) = 41.43270 56.49544 48.96407
# Shear Modulus (GPa) = 36.22817 13.06446 24.64631
#
# Velocity S-wave (km/s) = 4.28206 2.57143 3.53188
# Velocity P-wave (km/s) = 6.73930 6.11639 6.43539
#
# Compressibility (1/GPa) = 0.02413553
#
# Stress axis : x y z
#
# Youngs Moduli (GPa) = 76.85163 117.06186 67.47808
#
# Poissons Ratio (x) = 0.38117 -0.00131
# Poissons Ratio (y) = 0.25024 0.19451
# Poissons Ratio (z) = -0.00149 0.33744
#
# Static dielectric constant tensor:
#      x y z
#    x 1.695310 0.000000 -0.008860 
#    y 0.000000 1.685700 0.000000 
#    z -0.008860 0.000000 1.708380 
# 
# From -- ./inp_files/58959.got.cif
#   From: 2010.05.17/outbox.cif.g08.bks.cpg/sg12_30_cif.got.tgz:58959.got - 2010.06.03 13:09:07.
