data_PCOD9208540
_publ_section_title
;
Structure prediction by ZEFSAII (Michael W. Deem and Ramdas Pophale) SiO2 
 PCOD9208540
Probable space group: C 2/M
;
_chemical_formula_sum "Si O2"
_cell_formula_units_Z 64
_cell_length_a 23.751303
_cell_length_b 9.317366
_cell_length_c 15.111856
_cell_angle_alpha 90.000000
_cell_angle_beta 93.099982
_cell_angle_gamma 90.000000
_cell_volume 3339.353752
_symmetry_space_group_name_H-M "C 2/M"
_symmetry_group_IT_number 12
_symmetry_cell_setting 'monoclinic'
loop_
_space_group_symop_operation_xyz
x,y,z
-x,y,-z
-x,-y,-z
x,-y,z
1/2+x,1/2+y,z
1/2-x,1/2+y,-z
1/2-x,1/2-y,-z
1/2+x,1/2-y,z
loop_
_atom_site_type_symbol
_atom_site_label
_atom_site_fract_x
_atom_site_fract_y
_atom_site_fract_z
Si Si1 0.393762 0.664228 0.992077
Si Si2 0.064816 0.172568 0.485181
Si Si3 0.407596 0.168667 0.168156
Si Si4 0.769706 0.165707 0.914806
Si Si5 0.740259 0.170953 0.267682
Si Si6 0.862441 0.170701 0.336307
Si Si7 0.116079 0.671380 0.320252
Si Si8 0.539644 0.832863 0.142074
O O1 0.406681 0.500000 0.016499
O O2 0.382711 0.753724 0.079874
O O3 0.337591 0.666726 0.927842
O O4 0.442487 0.736171 0.938543
O O5 0.104441 0.209922 0.571938
O O6 0.088569 0.247021 0.399804
O O7 0.000000 0.213571 0.500000
O O8 0.066177 0.000000 0.474057
O O9 0.386581 0.243083 0.255284
O O10 0.475105 0.185732 0.164644
O O11 0.394433 0.000000 0.167038
O O12 0.752226 0.244421 0.823441
O O13 0.750689 0.000000 0.914879
O O14 0.750000 0.250000 0.000000
O O15 0.795186 0.195616 0.332580
O O16 0.681099 0.212346 0.307562
O O17 0.737175 0.000000 0.247699
O O18 0.871058 0.000000 0.322207
O O19 0.114270 0.500000 0.336224
O O20 0.079754 0.699088 0.228810
O O21 0.548127 0.000000 0.117755
#
# Coordination Sequence:
#
# PCOD9208540 Si02
#       8
#     8   8   8   8   8   8   8   8
#     4  11  23  37  55  83 116 152 195 239 290 350
#     4  10  22  40  62  89 121 155 191 237 294 353
#     4  11  23  37  57  85 116 153 196 242 292 346
#     4  11  23  37  56  83 115 155 201 244 289 346
#     4  10  21  39  61  84 115 154 196 242 294 347
#     4  10  22  40  60  85 117 153 195 240 289 348
#     4  10  21  38  62  88 116 152 194 244 297 347
#     4  10  21  38  58  83 116 153 194 240 291 346
#
# _framework density 19.165385000000001
#
# number of rings (size 3 to 8) (size 9 to 14) (size 15 to 20)
#    0.000    1.625    1.250    3.000    0.000    9.750 
#    0.000    0.000    0.000    0.000    0.000    0.000 
#    0.000    0.000    0.000    0.000    0.000    0.000 
#
# Total GULP energy -178874.527276 kJ/mol
# GULP energy per Si atom -5589.828977 kJ/mol
# Density = 1.912176 g / cm^3
# Si number density = 19.165385 Si / 1000 Ang^3
#
#
#
# Elastic Constant Matrix: (Units=GPa)
#
#
# Indices 1 2 3 4 5 6 
#
# 1 91.9660 35.9816 38.1651 0.0000 7.3753 0.0000
# 2 35.9816 52.8933 42.5901 0.0000 -3.0863 0.0000
# 3 38.1651 42.5901 88.1616 0.0000 -4.2247 0.0000
# 4 0.0000 0.0000 0.0000 30.1524 0.0000 -8.8274
# 5 7.3753 -3.0863 -4.2247 0.0000 33.5529 0.0000
# 6 0.0000 0.0000 0.0000 -8.8274 0.0000 24.2675
#
#
#
# Elastic Compliance Matrix: (Units=1/GPa)
#
#
# Indices 1 2 3 4 5 6 
#
# 1 0.015859 -0.008760 -0.002857 0.000000 -0.004651 0.000000
# 2 -0.008760 0.035812 -0.013339 0.000000 0.003540 0.000000
# 3 -0.002857 -0.013339 0.019110 0.000000 0.001807 0.000000
# 4 0.000000 0.000000 0.000000 0.037118 0.000000 0.013502
# 5 -0.004651 0.003540 0.001807 0.000000 0.031379 0.000000
# 6 0.000000 0.000000 0.000000 0.013502 0.000000 0.046119
#
#
# Mechanical properties :
#
#
# Convention : Reuss Voigt Hill
#
# Bulk Modulus (GPa) = 47.91360 51.83273 49.87317
# Shear Modulus (GPa) = 20.63864 25.34685 22.99274
#
# Velocity S-wave (km/s) = 3.28513 3.64061 3.46743
# Velocity P-wave (km/s) = 6.28043 6.69147 6.48920
#
# Compressibility (1/GPa) = 0.02087090
#
# Stress axis : x y z
#
# Youngs Moduli (GPa) = 63.05420 27.92354 52.32905
#
# Poissons Ratio (x) = 0.24461 0.14948
# Poissons Ratio (y) = 0.55235 0.69800
# Poissons Ratio (z) = 0.18012 0.37246
#
# Static dielectric constant tensor:
#      x y z
#    x 1.692650 0.000000 0.022430 
#    y 0.000000 1.647770 0.000000 
#    z 0.022430 0.000000 1.612030 
# 
# From -- ./inp_files/238758.got.cif
#   From: 2010.05.17/outbox.cif.g08.bks.cpg/sg12_120_cif.got.tgz:238758.got - 2010.06.03 13:09:07.
