data_PCOD9208164
_publ_section_title
;
Structure prediction by ZEFSAII (Michael W. Deem and Ramdas Pophale) SiO2 
 PCOD9208164
Probable space group: C 2/M
;
_chemical_formula_sum "Si O2"
_cell_formula_units_Z 48
_cell_length_a 20.301743
_cell_length_b 15.831158
_cell_length_c 24.366202
_cell_angle_alpha 90.000000
_cell_angle_beta 163.729510
_cell_angle_gamma 90.000000
_cell_volume 2194.113486
_symmetry_space_group_name_H-M "C 2/M"
_symmetry_group_IT_number 12
_symmetry_cell_setting 'monoclinic'
loop_
_space_group_symop_operation_xyz
x,y,z
-x,y,-z
-x,-y,-z
x,-y,z
1/2+x,1/2+y,z
1/2-x,1/2+y,-z
1/2-x,1/2-y,-z
1/2+x,1/2-y,z
loop_
_atom_site_type_symbol
_atom_site_label
_atom_site_fract_x
_atom_site_fract_y
_atom_site_fract_z
Si Si1 0.415809 0.398446 0.258953
Si Si2 0.851437 0.096220 0.007644
Si Si3 0.865736 0.334049 0.064489
Si Si4 0.605800 0.903051 0.413260
Si Si5 0.144516 0.356651 0.567238
Si Si6 0.427258 0.664662 0.502078
O O1 0.396260 0.500000 0.235794
O O2 0.665991 0.366878 0.433825
O O3 0.428927 0.377216 0.333569
O O4 0.223388 0.351560 0.068136
O O5 0.744516 0.096022 0.983228
O O6 0.644879 0.133987 0.804659
O O7 0.911774 0.000000 0.039322
O O8 0.088429 0.149805 0.198475
O O9 0.147319 0.341321 0.290272
O O10 0.750000 0.250000 0.000000
O O11 0.644584 0.901362 0.508947
O O12 0.589997 0.000000 0.381445
O O13 0.031111 0.265372 0.465720
O O14 0.000000 0.399569 0.500000
O O15 0.500000 0.631802 0.500000
#
# Coordination Sequence:
#
# PCOD9208164 Si02
#       6
#     8   8   8   8   8   8
#     4  11  24  42  68  97 129 170 222 278 329 391
#     4  11  22  38  63  96 130 167 215 266 319 390
#     4  12  23  40  70  99 126 172 221 270 322 388
#     4  10  21  37  62  93 125 168 215 263 324 391
#     4  11  24  41  62  92 133 174 214 270 328 387
#     4  11  26  44  65  97 134 172 220 275 333 389
#
# _framework density 21.876715999999998
#
# number of rings (size 3 to 8) (size 9 to 14) (size 15 to 20)
#    0.000    1.000    5.000    1.000    2.333    5.000 
#    0.000    5.833    0.000    0.000    0.000    0.000 
#    0.000    0.000    0.000    0.000    0.000    0.000 
#
# Total GULP energy -134040.989099 kJ/mol
# GULP energy per Si atom -5585.041212 kJ/mol
# Density = 2.182692 g / cm^3
# Si number density = 21.876716 Si / 1000 Ang^3
#
#
#
# Elastic Constant Matrix: (Units=GPa)
#
#
# Indices 1 2 3 4 5 6 
#
# 1 104.9886 -0.3346 14.9374 0.1045 -11.6980 -0.0967
# 2 -0.3346 62.7595 4.1366 0.0968 -12.3870 -0.0513
# 3 14.9374 4.1366 80.4478 0.1869 -28.0925 -0.1034
# 4 0.1045 0.0968 0.1869 11.9928 -0.0016 -14.0692
# 5 -11.6980 -12.3870 -28.0925 -0.0016 38.9237 0.0431
# 6 -0.0967 -0.0513 -0.1034 -14.0692 0.0431 9.6294
#
#
#
# Elastic Compliance Matrix: (Units=1/GPa)
#
#
# Indices 1 2 3 4 5 6 
#
# 1 0.009945 0.000602 -0.001025 -0.000028 0.002441 0.000040
# 2 0.000602 0.017150 0.001304 0.000094 0.006580 0.000219
# 3 -0.001025 0.001304 0.016834 0.000166 0.012256 0.000365
# 4 -0.000028 0.000094 0.000166 -0.116778 0.000325 -0.170618
# 5 0.002441 0.006580 0.012256 0.000325 0.037364 0.000499
# 6 0.000040 0.000219 0.000365 -0.170618 0.000499 -0.145431
#
#
# Mechanical properties :
#
#
# Convention : Reuss Voigt Hill
#
# Bulk Modulus (GPa) = 21.88644 31.74164 26.81404
# Shear Modulus (GPa) = -29.85974 27.40627 -1.22674
#
# Velocity S-wave (km/s) = -3.69848 3.54327 -0.74964
# Velocity P-wave (km/s) = 2.86568 5.59290 3.39620
#
# Compressibility (1/GPa) = 0.04569039
#
# Stress axis : x y z
#
# Youngs Moduli (GPa) = 100.55698 58.30976 59.40525
#
# Poissons Ratio (x) = -0.03512 0.06090
# Poissons Ratio (y) = -0.06057 -0.07746
# Poissons Ratio (z) = 0.10308 -0.07604
#
# Static dielectric constant tensor:
#      x y z
#    x 1.791380 -0.000030 0.002680 
#    y -0.000030 1.848980 -0.000050 
#    z 0.002680 -0.000050 1.820780 
# 
# From -- ./inp_files/285324.got.cif
#   From: 2010.05.17/outbox.cif.g08.bks.cpg/sg12_143_cif.got.tgz:285324.got - 2010.06.03 13:09:07.
