data_PCOD9208152
_publ_section_title
;
Structure prediction by ZEFSAII (Michael W. Deem and Ramdas Pophale) SiO2 
 PCOD9208152
Probable space group: C 2/M
;
_chemical_formula_sum "Si O2"
_cell_formula_units_Z 64
_cell_length_a 19.728868
_cell_length_b 8.946005
_cell_length_c 30.265149
_cell_angle_alpha 90.000000
_cell_angle_beta 38.020162
_cell_angle_gamma 90.000000
_cell_volume 3290.119220
_symmetry_space_group_name_H-M "C 2/M"
_symmetry_group_IT_number 12
_symmetry_cell_setting 'monoclinic'
loop_
_space_group_symop_operation_xyz
x,y,z
-x,y,-z
-x,-y,-z
x,-y,z
1/2+x,1/2+y,z
1/2-x,1/2+y,-z
1/2-x,1/2-y,-z
1/2+x,1/2-y,z
loop_
_atom_site_type_symbol
_atom_site_label
_atom_site_fract_x
_atom_site_fract_y
_atom_site_fract_z
Si Si1 0.688535 0.176670 0.899102
Si Si2 0.304522 0.820185 0.515493
Si Si3 0.329122 0.678120 0.995834
Si Si4 0.278311 0.176973 0.277293
Si Si5 0.917168 0.822337 0.128403
Si Si6 0.139278 0.822568 0.678537
Si Si7 0.923702 0.825468 0.731302
Si Si8 0.554131 0.822349 0.374214
O O1 0.602675 0.251851 0.909557
O O2 0.807601 0.196171 0.814877
O O3 0.666555 0.000000 0.914528
O O4 0.690730 0.252091 0.945745
O O5 0.250000 0.750000 0.500000
O O6 0.233508 0.780224 0.594881
O O7 0.432579 0.777765 0.452839
O O8 0.299440 0.000000 0.513577
O O9 0.311874 0.500000 0.006057
O O10 0.458265 0.705180 0.919604
O O11 0.250000 0.750000 0.000000
O O12 0.332237 0.249290 0.206115
O O13 0.347172 0.229781 0.284116
O O14 0.154799 0.239181 0.345744
O O15 0.277265 0.000000 0.273014
O O16 0.899203 0.000000 0.135407
O O17 0.022903 0.799778 0.714334
O O18 0.150059 0.000000 0.683006
O O19 0.937791 0.722318 0.681477
O O20 0.930002 0.000000 0.713550
O O21 0.566896 0.000000 0.373149
#
# Coordination Sequence:
#
# PCOD9208152 Si02
#       8
#     8   8   8   8   8   8   8   8
#     4  11  23  40  66  99 130 165 211 255 305 371
#     4  10  21  37  62  92 122 162 209 258 312 372
#     4  11  26  45  66  95 131 168 209 255 311 369
#     4  12  26  42  62  92 126 163 210 261 314 370
#     4  11  24  44  68  93 125 166 209 256 310 370
#     4  10  22  41  62  88 127 167 204 255 317 375
#     4  10  21  38  63  93 125 163 208 256 308 367
#     4  11  22  38  63  93 125 163 209 258 311 373
#
# _framework density 19.452183000000002
#
# number of rings (size 3 to 8) (size 9 to 14) (size 15 to 20)
#    0.000    1.250    2.500    3.000    1.750    6.000 
#    0.000    2.500    0.000    0.000    0.000    0.000 
#    0.000    0.000    0.000    0.000    0.000    0.000 
#
# Total GULP energy -178983.048672 kJ/mol
# GULP energy per Si atom -5593.220271 kJ/mol
# Density = 1.940791 g / cm^3
# Si number density = 19.452183 Si / 1000 Ang^3
#
#
#
# Elastic Constant Matrix: (Units=GPa)
#
#
# Indices 1 2 3 4 5 6 
#
# 1 98.4979 48.8893 28.2794 0.0000 -6.8373 -0.0002
# 2 48.8893 75.8300 39.3170 -0.0001 -14.3121 0.0001
# 3 28.2794 39.3170 61.2246 0.0000 -10.3053 -0.0001
# 4 0.0000 -0.0001 0.0000 21.0811 0.0000 0.1595
# 5 -6.8373 -14.3121 -10.3053 0.0000 31.3582 0.0004
# 6 -0.0002 0.0001 -0.0001 0.1595 0.0004 39.3685
#
#
#
# Elastic Compliance Matrix: (Units=1/GPa)
#
#
# Indices 1 2 3 4 5 6 
#
# 1 0.015031 -0.009340 -0.001176 0.000000 -0.001372 0.000000
# 2 -0.009340 0.026387 -0.011588 0.000000 0.006199 0.000000
# 3 -0.001176 -0.011588 0.024754 0.000000 0.002590 0.000000
# 4 0.000000 0.000000 0.000000 0.047437 0.000000 -0.000192
# 5 -0.001372 0.006199 0.002590 0.000000 0.035271 0.000000
# 6 0.000000 0.000000 0.000000 -0.000192 0.000000 0.025402
#
#
# Mechanical properties :
#
#
# Convention : Reuss Voigt Hill
#
# Bulk Modulus (GPa) = 45.52753 52.05823 48.79288
# Shear Modulus (GPa) = 22.14254 26.29934 24.22094
#
# Velocity S-wave (km/s) = 3.37754 3.68094 3.53250
# Velocity P-wave (km/s) = 6.21820 6.69970 6.46344
#
# Compressibility (1/GPa) = 0.02196473
#
# Stress axis : x y z
#
# Youngs Moduli (GPa) = 66.53050 37.89718 40.39819
#
# Poissons Ratio (x) = 0.35396 0.04749
# Poissons Ratio (y) = 0.62140 0.46812
# Poissons Ratio (z) = 0.07821 0.43914
#
# Static dielectric constant tensor:
#      x y z
#    x 1.656040 0.000000 -0.018370 
#    y 0.000000 1.651630 0.000000 
#    z -0.018370 0.000000 1.673780 
# 
# From -- ./inp_files/378212.got.cif
#   From: 2010.05.17/outbox.cif.g08.bks.cpg/sg12_190_cif.got.tgz:378212.got - 2010.06.03 13:09:07.
