data_PCOD9208771
_publ_section_title
;
Structure prediction by ZEFSAII (Michael W. Deem and Ramdas Pophale) SiO2 
 PCOD9208771
Probable space group: C 2/M
;
_chemical_formula_sum "Si O2"
_cell_formula_units_Z 50
_cell_length_a 17.627882
_cell_length_b 9.826485
_cell_length_c 25.764466
_cell_angle_alpha 90.000000
_cell_angle_beta 35.435380
_cell_angle_gamma 90.000000
_cell_volume 2587.533628
_symmetry_space_group_name_H-M "C 2/M"
_symmetry_group_IT_number 12
_symmetry_cell_setting 'monoclinic'
loop_
_space_group_symop_operation_xyz
x,y,z
-x,y,-z
-x,-y,-z
x,-y,z
1/2+x,1/2+y,z
1/2-x,1/2+y,-z
1/2-x,1/2-y,-z
1/2+x,1/2-y,z
loop_
_atom_site_type_symbol
_atom_site_label
_atom_site_fract_x
_atom_site_fract_y
_atom_site_fract_z
Si Si1 0.937565 0.274218 0.445661
Si Si2 0.875100 0.156427 0.936908
Si Si3 0.665023 0.851775 0.609292
Si Si4 0.000000 0.500000 0.500000
Si Si5 0.464270 0.847526 0.080073
Si Si6 0.612350 0.343176 0.728186
Si Si7 0.775707 0.842710 0.716540
O O1 0.821278 0.169680 0.523897
O O2 0.886877 0.341336 0.420404
O O3 0.958103 0.381170 0.480474
O O4 0.076101 0.202580 0.358457
O O5 0.959539 0.226882 0.934647
O O6 0.970085 0.158571 0.833978
O O7 0.841924 0.000000 0.966604
O O8 0.750000 0.250000 0.000000
O O9 0.608966 0.729380 0.674881
O O10 0.629651 0.000000 0.650539
O O11 0.313147 0.832492 0.181786
O O12 0.503866 0.000000 0.077267
O O13 0.500000 0.843774 0.000000
O O14 0.658950 0.500000 0.699466
O O15 0.707788 0.255862 0.712137
O O16 0.769789 0.000000 0.702710
#
# Coordination Sequence:
#
# PCOD9208771 Si02
#       7
#     8   8   8   2   8   8   8
#     4  11  25  39  65  90 125 163 213 255 316 375
#     4  10  21  38  59  88 120 160 208 255 311 377
#     4  11  24  42  61  92 128 163 208 265 317 370
#     4  12  24  44  62  92 118 166 210 252 320 380
#     4   9  19  37  61  89 124 163 204 255 312 370
#     4  10  23  39  62  89 122 162 208 262 319 377
#     4  10  21  39  62  91 123 164 214 260 309 383
#
# _framework density 19.323419999999999
#
# number of rings (size 3 to 8) (size 9 to 14) (size 15 to 20)
#    0.000    1.760    0.800    2.400    4.480    4.800 
#    0.000    5.600    0.000    0.000    0.000    0.000 
#    0.000    0.000    0.000    0.000    0.000    0.000 
#
# Total GULP energy -139309.740243 kJ/mol
# GULP energy per Si atom -5572.389610 kJ/mol
# Density = 1.927944 g / cm^3
# Si number density = 19.323420 Si / 1000 Ang^3
#
#
#
# Elastic Constant Matrix: (Units=GPa)
#
#
# Indices 1 2 3 4 5 6 
#
# 1 96.1542 59.6259 54.4856 0.0000 3.8773 0.0000
# 2 59.6259 173.0522 64.8860 0.0000 -6.6659 0.0000
# 3 54.4856 64.8860 80.5581 0.0000 -2.0223 0.0000
# 4 0.0000 0.0000 0.0000 20.8025 0.0000 9.4199
# 5 3.8773 -6.6659 -2.0223 0.0000 32.7288 0.0000
# 6 0.0000 0.0000 0.0000 9.4199 0.0000 5.3463
#
#
#
# Elastic Compliance Matrix: (Units=1/GPa)
#
#
# Indices 1 2 3 4 5 6 
#
# 1 0.017800 -0.002454 -0.010143 0.000000 -0.003235 0.000000
# 2 -0.002454 0.008671 -0.005280 0.000000 0.001730 0.000000
# 3 -0.010143 -0.005280 0.023567 0.000000 0.001582 0.000000
# 4 0.000000 0.000000 0.000000 0.237798 0.000000 -0.418986
# 5 -0.003235 0.001730 0.001582 0.000000 0.031388 0.000000
# 6 0.000000 0.000000 0.000000 -0.418986 0.000000 0.925276
#
#
# Mechanical properties :
#
#
# Convention : Reuss Voigt Hill
#
# Bulk Modulus (GPa) = 70.02244 78.63996 74.33120
# Shear Modulus (GPa) = 3.89100 23.15999 13.52549
#
# Velocity S-wave (km/s) = 1.42056 3.46576 2.64853
# Velocity P-wave (km/s) = 6.24551 7.53660 6.92123
#
# Compressibility (1/GPa) = 0.01428114
#
# Stress axis : x y z
#
# Youngs Moduli (GPa) = 56.17910 115.32854 42.43250
#
# Poissons Ratio (x) = 0.28307 0.43041
# Poissons Ratio (y) = 0.13789 0.22406
# Poissons Ratio (z) = 0.56985 0.60899
#
# Static dielectric constant tensor:
#      x y z
#    x 1.649470 0.000000 -0.004730 
#    y 0.000000 1.668060 0.000000 
#    z -0.004730 0.000000 1.700520 
# 
# From -- ./inp_files/362647.got.cif
#   From: 2010.05.17/outbox.cif.g08.bks.cpg/sg12_182_cif.got.tgz:362647.got - 2010.06.03 13:09:07.
