data_PCOD9208034
_publ_section_title
;
Structure prediction by ZEFSAII (Michael W. Deem and Ramdas Pophale) SiO2 
 PCOD9208034
Probable space group: C 2/M
;
_chemical_formula_sum "Si O2"
_cell_formula_units_Z 40
_cell_length_a 8.924773
_cell_length_b 22.127215
_cell_length_c 14.280564
_cell_angle_alpha 90.000000
_cell_angle_beta 43.094941
_cell_angle_gamma 90.000000
_cell_volume 1926.739780
_symmetry_space_group_name_H-M "C 2/M"
_symmetry_group_IT_number 12
_symmetry_cell_setting 'monoclinic'
loop_
_space_group_symop_operation_xyz
x,y,z
-x,y,-z
-x,-y,-z
x,-y,z
1/2+x,1/2+y,z
1/2-x,1/2+y,-z
1/2-x,1/2-y,-z
1/2+x,1/2-y,z
loop_
_atom_site_type_symbol
_atom_site_label
_atom_site_fract_x
_atom_site_fract_y
_atom_site_fract_z
Si Si1 0.247845 0.625541 0.598275
Si Si2 0.494021 0.746609 0.100013
Si Si3 0.151951 0.070654 0.646980
Si Si4 0.333627 0.115412 0.155812
Si Si5 0.882890 0.674033 0.644342
O O1 0.500000 0.648441 0.500000
O O2 0.276397 0.583125 0.493715
O O3 0.164857 0.596903 0.734366
O O4 0.057815 0.671447 0.649200
O O5 0.385504 0.812768 0.137617
O O6 0.336021 0.711026 0.239177
O O7 0.500000 0.710899 0.000000
O O8 0.750000 0.750000 0.000000
O O9 0.304618 0.107320 0.648747
O O10 0.909383 0.098816 0.766081
O O11 0.151865 0.000000 0.665479
O O12 0.500000 0.091189 0.000000
O O13 0.000000 0.700475 0.500000
#
# Coordination Sequence:
#
# PCOD9208034 Si02
#       5
#     8   8   8   8   8
#     4   9  20  37  58  85 115 153 198 250 305 359
#     4  11  22  38  61  89 126 165 202 252 312 372
#     4  10  22  40  60  86 122 161 202 251 309 368
#     4  10  21  38  59  87 120 159 203 247 302 367
#     4  10  21  37  61  90 120 160 207 257 306 363
#
# _framework density 20.760456999999999
#
# number of rings (size 3 to 8) (size 9 to 14) (size 15 to 20)
#    0.000    2.000    0.000    3.600    0.000   10.000 
#    0.000    8.000    0.000    4.200    0.000    0.000 
#    0.000    0.000    0.000    0.000    0.000    0.000 
#
# Total GULP energy -111412.476694 kJ/mol
# GULP energy per Si atom -5570.623835 kJ/mol
# Density = 2.071321 g / cm^3
# Si number density = 20.760457 Si / 1000 Ang^3
#
#
#
# Elastic Constant Matrix: (Units=GPa)
#
#
# Indices 1 2 3 4 5 6 
#
# 1 135.4434 22.1850 63.1555 0.0000 -19.4635 0.0000
# 2 22.1850 93.3570 36.7805 0.0000 -22.7677 0.0000
# 3 63.1555 36.7805 190.2766 0.0000 -16.5425 0.0000
# 4 0.0000 0.0000 0.0000 10.1334 0.0000 -5.0988
# 5 -19.4635 -22.7677 -16.5425 0.0000 33.9059 0.0000
# 6 0.0000 0.0000 0.0000 -5.0988 0.0000 20.8224
#
#
#
# Elastic Compliance Matrix: (Units=1/GPa)
#
#
# Indices 1 2 3 4 5 6 
#
# 1 0.009222 -0.000193 -0.002689 0.000000 0.003853 0.000000
# 2 -0.000193 0.013436 -0.001836 0.000000 0.008015 0.000000
# 3 -0.002689 -0.001836 0.006539 0.000000 0.000414 0.000000
# 4 0.000000 0.000000 0.000000 0.112550 0.000000 0.027560
# 5 0.003853 0.008015 0.000414 0.000000 0.037289 0.000000
# 6 0.000000 0.000000 0.000000 0.027560 0.000000 0.054774
#
#
# Mechanical properties :
#
#
# Convention : Reuss Voigt Hill
#
# Bulk Modulus (GPa) = 50.60421 73.70213 62.15317
# Shear Modulus (GPa) = 20.01341 32.76942 26.39141
#
# Velocity S-wave (km/s) = 3.10823 3.97729 3.56931
# Velocity P-wave (km/s) = 6.10816 7.52795 6.85491
#
# Compressibility (1/GPa) = 0.01976120
#
# Stress axis : x y z
#
# Youngs Moduli (GPa) = 108.43541 74.42912 152.93151
#
# Poissons Ratio (x) = 0.01433 0.41120
# Poissons Ratio (y) = 0.02088 0.28083
# Poissons Ratio (z) = 0.29156 0.13668
#
# Static dielectric constant tensor:
#      x y z
#    x 1.659300 0.000000 0.112660 
#    y 0.000000 1.732760 0.000000 
#    z 0.112660 0.000000 1.719610 
# 
# From -- ./inp_files/170355.got.cif
#   From: 2010.05.17/outbox.cif.g08.bks.cpg/sg12_86_cif.got.tgz:170355.got - 2010.06.03 13:09:07.
