data_PCOD9208384
_publ_section_title
;
Structure prediction by ZEFSAII (Michael W. Deem and Ramdas Pophale) SiO2 
 PCOD9208384
Probable space group: C 2/M
;
_chemical_formula_sum "Si O2"
_cell_formula_units_Z 56
_cell_length_a 14.962706
_cell_length_b 7.569221
_cell_length_c 19.502300
_cell_angle_alpha 90.000000
_cell_angle_beta 101.581465
_cell_angle_gamma 90.000000
_cell_volume 2163.783376
_symmetry_space_group_name_H-M "C 2/M"
_symmetry_group_IT_number 12
_symmetry_cell_setting 'monoclinic'
loop_
_space_group_symop_operation_xyz
x,y,z
-x,y,-z
-x,-y,-z
x,-y,z
1/2+x,1/2+y,z
1/2-x,1/2+y,-z
1/2-x,1/2-y,-z
1/2+x,1/2-y,z
loop_
_atom_site_type_symbol
_atom_site_label
_atom_site_fract_x
_atom_site_fract_y
_atom_site_fract_z
Si Si1 0.341394 0.301371 0.973520
Si Si2 0.809991 0.715671 0.228161
Si Si3 0.884392 0.214173 0.829494
Si Si4 0.368154 0.204988 0.454323
Si Si5 0.977308 0.283501 0.346319
Si Si6 0.919561 0.296052 0.118339
Si Si7 0.172215 0.285738 0.398329
O O1 0.324768 0.500000 0.949564
O O2 0.368318 0.216725 0.905488
O O3 0.250000 0.250000 0.000000
O O4 0.418067 0.294097 0.044328
O O5 0.810941 0.500000 0.230182
O O6 0.706149 0.771723 0.225365
O O7 0.893415 0.778161 0.287324
O O8 0.839914 0.769198 0.155990
O O9 0.984895 0.280204 0.827410
O O10 0.889473 0.000000 0.826894
O O11 0.448240 0.274118 0.418603
O O12 0.272725 0.216422 0.397420
O O13 0.347427 0.278404 0.526236
O O14 0.389030 0.000000 0.469566
O O15 0.976772 0.500000 0.345379
O O16 0.080482 0.229771 0.344783
O O17 0.902324 0.500000 0.100936
O O18 0.178224 0.500000 0.397956
#
# Coordination Sequence:
#
# PCOD9208384 Si02
#       7
#     8   8   8   8   8   8   8
#     4  11  21  36  59  83 109 138 171 216 267 315
#     4   9  19  36  53  73 105 140 175 214 261 309
#     4  10  21  38  56  77 105 138 172 214 264 315
#     4   9  17  30  50  77 104 132 171 215 258 308
#     4   9  17  31  53  74  98 140 180 210 251 310
#     4  11  22  37  56  81 107 137 176 219 262 314
#     4   9  17  30  50  77 105 132 169 216 262 306
#
# _framework density 25.880593000000001
#
# number of rings (size 3 to 8) (size 9 to 14) (size 15 to 20)
#    0.000    2.286    1.429    1.714    0.000    5.714 
#    0.000    0.714    0.000    6.857    0.000    0.000 
#    0.000    0.000    0.000    0.000    0.000    0.000 
#
# Total GULP energy -156460.981237 kJ/mol
# GULP energy per Si atom -5587.892187 kJ/mol
# Density = 2.582169 g / cm^3
# Si number density = 25.880593 Si / 1000 Ang^3
#
#
#
# Elastic Constant Matrix: (Units=GPa)
#
#
# Indices 1 2 3 4 5 6 
#
# 1 152.4620 -8.7589 9.2039 0.0000 29.0229 0.0000
# 2 -8.7589 62.6569 -10.3301 0.0000 -3.0832 0.0000
# 3 9.2039 -10.3301 64.7836 0.0000 24.5134 0.0000
# 4 0.0000 0.0000 0.0000 8.0758 0.0000 8.5404
# 5 29.0229 -3.0832 24.5134 0.0000 48.5941 0.0000
# 6 0.0000 0.0000 0.0000 8.5404 0.0000 19.4532
#
#
#
# Elastic Compliance Matrix: (Units=1/GPa)
#
#
# Indices 1 2 3 4 5 6 
#
# 1 0.007487 0.000961 0.000937 0.000000 -0.004884 0.000000
# 2 0.000961 0.016519 0.002865 0.000000 -0.000971 0.000000
# 3 0.000937 0.002865 0.019654 0.000000 -0.010293 0.000000
# 4 0.000000 0.000000 0.000000 0.231141 0.000000 -0.101476
# 5 -0.004884 -0.000971 -0.010293 0.000000 0.028626 0.000000
# 6 0.000000 0.000000 0.000000 -0.101476 0.000000 0.095956
#
#
# Mechanical properties :
#
#
# Convention : Reuss Voigt Hill
#
# Bulk Modulus (GPa) = 18.80163 28.90361 23.85262
# Shear Modulus (GPa) = 12.26736 34.54380 23.40558
#
# Velocity S-wave (km/s) = 2.17951 3.65737 3.01053
# Velocity P-wave (km/s) = 3.68975 5.38771 4.61745
#
# Compressibility (1/GPa) = 0.05318687
#
# Stress axis : x y z
#
# Youngs Moduli (GPa) = 133.55960 60.53706 50.87944
#
# Poissons Ratio (x) = -0.05817 -0.04770
# Poissons Ratio (y) = -0.12834 -0.14577
# Poissons Ratio (z) = -0.12520 -0.17343
#
# Static dielectric constant tensor:
#      x y z
#    x 2.017470 0.000000 0.020430 
#    y 0.000000 1.961280 0.000000 
#    z 0.020430 0.000000 2.147900 
# 
# From -- ./inp_files/338184.got.cif
#   From: 2010.05.17/outbox.cif.g08.bks.cpg/sg12_170_cif.got.tgz:338184.got - 2010.06.03 13:09:07.
