data_PCOD9208642
_publ_section_title
;
Structure prediction by ZEFSAII (Michael W. Deem and Ramdas Pophale) SiO2 
 PCOD9208642
Probable space group: C 2/M
;
_chemical_formula_sum "Si O2"
_cell_formula_units_Z 64
_cell_length_a 16.205927
_cell_length_b 7.917166
_cell_length_c 19.808086
_cell_angle_alpha 90.000000
_cell_angle_beta 79.975630
_cell_angle_gamma 90.000000
_cell_volume 2502.678077
_symmetry_space_group_name_H-M "C 2/M"
_symmetry_group_IT_number 12
_symmetry_cell_setting 'monoclinic'
loop_
_space_group_symop_operation_xyz
x,y,z
-x,y,-z
-x,-y,-z
x,-y,z
1/2+x,1/2+y,z
1/2-x,1/2+y,-z
1/2-x,1/2-y,-z
1/2+x,1/2-y,z
loop_
_atom_site_type_symbol
_atom_site_label
_atom_site_fract_x
_atom_site_fract_y
_atom_site_fract_z
Si Si1 0.643622 0.804319 0.167163
Si Si2 0.343111 0.799389 0.460453
Si Si3 0.819412 0.301620 0.079795
Si Si4 0.375354 0.801695 0.207965
Si Si5 0.066928 0.195304 0.044971
Si Si6 0.584925 0.702198 0.415235
Si Si7 0.767316 0.707252 0.338350
Si Si8 0.515764 0.302933 0.289888
O O1 0.727964 0.725072 0.124644
O O2 0.604829 0.714109 0.238198
O O3 0.656475 0.000000 0.180665
O O4 0.578069 0.788755 0.113986
O O5 0.250000 0.750000 0.500000
O O6 0.410550 0.736674 0.505275
O O7 0.336182 0.738063 0.384457
O O8 0.349806 0.000000 0.459130
O O9 0.832023 0.500000 0.063844
O O10 0.879241 0.233002 0.132155
O O11 0.845278 0.206317 0.008572
O O12 0.297101 0.730928 0.261773
O O13 0.452040 0.784420 0.247955
O O14 0.359986 0.000000 0.200005
O O15 0.047834 0.000000 0.061814
O O16 0.000000 0.264189 0.000000
O O17 0.581197 0.500000 0.410018
O O18 0.676392 0.761991 0.375864
O O19 0.523443 0.768155 0.365189
O O20 0.766429 0.500000 0.338389
O O21 0.493871 0.500000 0.295785
#
# Coordination Sequence:
#
# PCOD9208642 Si02
#       8
#     8   8   8   8   8   8   8   8
#     4  12  25  41  63  89 117 150 192 238 282 337
#     4   9  16  28  50  79 109 142 183 232 282 335
#     4  11  23  40  63  89 118 153 193 237 284 335
#     4  10  21  38  59  82 112 151 191 232 283 342
#     4  11  24  42  64  90 122 157 191 232 281 333
#     4   9  18  34  55  78 107 145 187 232 283 338
#     4   8  15  31  54  78 105 141 185 228 275 333
#     4  11  23  39  58  82 115 151 188 235 290 343
#
# _framework density 25.572606
#
# number of rings (size 3 to 8) (size 9 to 14) (size 15 to 20)
#    0.000    1.875    0.000    5.250    0.000    7.000 
#    0.000    3.750    0.000    3.750    0.000    0.000 
#    0.000    0.000    0.000    0.000    0.000    0.000 
#
# Total GULP energy -178968.417568 kJ/mol
# GULP energy per Si atom -5592.763049 kJ/mol
# Density = 2.551440 g / cm^3
# Si number density = 25.572606 Si / 1000 Ang^3
#
#
#
# Elastic Constant Matrix: (Units=GPa)
#
#
# Indices 1 2 3 4 5 6 
#
# 1 72.7323 -8.5349 0.2449 0.0000 19.4126 0.0000
# 2 -8.5349 67.0778 1.0052 0.0000 5.0100 0.0000
# 3 0.2449 1.0052 153.5357 0.0000 17.9043 0.0000
# 4 0.0000 0.0000 0.0000 23.7334 0.0000 3.8168
# 5 19.4126 5.0100 17.9043 0.0000 46.7566 0.0000
# 6 0.0000 0.0000 0.0000 3.8168 0.0000 25.6994
#
#
#
# Elastic Compliance Matrix: (Units=1/GPa)
#
#
# Indices 1 2 3 4 5 6 
#
# 1 0.015971 0.002559 0.000799 0.000000 -0.007211 0.000000
# 2 0.002559 0.015440 0.000222 0.000000 -0.002802 0.000000
# 3 0.000799 0.000222 0.006858 0.000000 -0.002981 0.000000
# 4 0.000000 0.000000 0.000000 0.043166 0.000000 -0.006411
# 5 -0.007211 -0.002802 -0.002981 0.000000 0.025823 0.000000
# 6 0.000000 0.000000 0.000000 -0.006411 0.000000 0.039863
#
#
# Mechanical properties :
#
#
# Convention : Reuss Voigt Hill
#
# Bulk Modulus (GPa) = 22.01334 30.97512 26.49423
# Shear Modulus (GPa) = 32.23611 39.27993 35.75802
#
# Velocity S-wave (km/s) = 3.55430 3.92346 3.74343
# Velocity P-wave (km/s) = 5.04688 5.71521 5.39141
#
# Compressibility (1/GPa) = 0.04542700
#
# Stress axis : x y z
#
# Youngs Moduli (GPa) = 62.61232 64.76859 145.81305
#
# Poissons Ratio (x) = -0.16573 -0.11646
# Poissons Ratio (y) = -0.16021 -0.03230
# Poissons Ratio (z) = -0.05001 -0.01435
#
# Static dielectric constant tensor:
#      x y z
#    x 2.149430 0.000000 0.024500 
#    y 0.000000 1.880180 0.000000 
#    z 0.024500 0.000000 2.019030 
# 
# From -- ./inp_files/313981.got.cif
#   From: 2010.05.17/outbox.cif.g08.bks.cpg/sg12_157_cif.got.tgz:313981.got - 2010.06.03 13:09:07.
