data_PCOD9208665
_publ_section_title
;
Structure prediction by ZEFSAII (Michael W. Deem and Ramdas Pophale) SiO2 
 PCOD9208665
Probable space group: C 2/M
;
_chemical_formula_sum "Si O2"
_cell_formula_units_Z 64
_cell_length_a 10.315361
_cell_length_b 15.681501
_cell_length_c 23.171492
_cell_angle_alpha 90.000000
_cell_angle_beta 115.858228
_cell_angle_gamma 90.000000
_cell_volume 3372.940859
_symmetry_space_group_name_H-M "C 2/M"
_symmetry_group_IT_number 12
_symmetry_cell_setting 'monoclinic'
loop_
_space_group_symop_operation_xyz
x,y,z
-x,y,-z
-x,-y,-z
x,-y,z
1/2+x,1/2+y,z
1/2-x,1/2+y,-z
1/2-x,1/2-y,-z
1/2+x,1/2-y,z
loop_
_atom_site_type_symbol
_atom_site_label
_atom_site_fract_x
_atom_site_fract_y
_atom_site_fract_z
Si Si1 0.894361 0.903431 0.566923
Si Si2 0.188761 0.599105 0.833105
Si Si3 0.827056 0.738149 0.075650
Si Si4 0.587963 0.158540 0.076713
Si Si5 0.137138 0.590097 0.202966
Si Si6 0.904891 0.244956 0.659765
Si Si7 0.260696 0.229171 0.257587
Si Si8 0.279571 0.596165 0.417240
O O1 0.867996 0.829714 0.607569
O O2 0.803523 0.891716 0.490485
O O3 0.061833 0.899259 0.580256
O O4 0.867179 0.000000 0.583147
O O5 0.235452 0.500000 0.843859
O O6 0.211690 0.651548 0.897304
O O7 0.250761 0.656731 0.793630
O O8 0.014338 0.598824 0.792972
O O9 0.751241 0.812532 0.096817
O O10 0.994370 0.732588 0.091124
O O11 0.750000 0.750000 0.000000
O O12 0.593799 0.088313 0.126984
O O13 0.500000 0.139761 0.000000
O O14 0.207028 0.500000 0.232975
O O15 0.227339 0.675011 0.229330
O O16 0.851242 0.215128 0.712283
O O17 0.818171 0.330457 0.627546
O O18 0.073713 0.266620 0.690223
O O19 0.223689 0.500000 0.396673
#
# Coordination Sequence:
#
# PCOD9208665 Si02
#       8
#     8   8   8   8   8   8   8   8
#     4   9  19  38  63  91 121 152 194 244 296 350
#     4  10  21  39  61  84 116 158 198 239 296 358
#     4   9  17  32  58  83 109 145 184 238 293 344
#     4   9  17  31  57  85 109 142 183 237 297 343
#     4  10  21  38  59  83 114 153 197 243 292 349
#     4  12  23  38  61  90 119 156 203 243 290 346
#     4  12  24  38  59  84 119 163 199 243 290 343
#     4   9  19  38  64  90 119 157 194 239 298 357
#
# _framework density 18.974540000000001
#
# number of rings (size 3 to 8) (size 9 to 14) (size 15 to 20)
#    0.000    2.000    3.750    1.125    0.000    2.250 
#    0.000    1.875    0.000    4.875    0.000    0.000 
#    0.000    0.000    0.000    0.000    0.000    0.000 
#
# Total GULP energy -178270.700856 kJ/mol
# GULP energy per Si atom -5570.959402 kJ/mol
# Density = 1.893135 g / cm^3
# Si number density = 18.974540 Si / 1000 Ang^3
#
#
#
# Elastic Constant Matrix: (Units=GPa)
#
#
# Indices 1 2 3 4 5 6 
#
# 1 27.2747 -3.1900 -2.6666 0.0000 -4.7995 0.0000
# 2 -3.1900 109.7535 42.1074 0.0000 -6.9207 0.0000
# 3 -2.6666 42.1074 50.3428 0.0000 -12.8250 0.0000
# 4 0.0000 0.0000 0.0000 5.4878 0.0000 9.1051
# 5 -4.7995 -6.9207 -12.8250 0.0000 32.8831 0.0000
# 6 0.0000 0.0000 0.0000 9.1051 0.0000 18.9127
#
#
#
# Elastic Compliance Matrix: (Units=1/GPa)
#
#
# Indices 1 2 3 4 5 6 
#
# 1 0.038286 0.000132 0.003717 0.000000 0.007066 0.000000
# 2 0.000132 0.013506 -0.011725 0.000000 -0.001711 0.000000
# 3 0.003717 -0.011725 0.032618 0.000000 0.010797 0.000000
# 4 0.000000 0.000000 0.000000 0.905499 0.000000 -0.435931
# 5 0.007066 -0.001711 0.010797 0.000000 0.035293 0.000000
# 6 0.000000 0.000000 0.000000 -0.435931 0.000000 0.262743
#
#
# Mechanical properties :
#
#
# Convention : Reuss Voigt Hill
#
# Bulk Modulus (GPa) = 14.56473 28.87473 21.71973
# Shear Modulus (GPa) = 3.76908 21.53141 12.65025
#
# Velocity S-wave (km/s) = 1.41092 3.37226 2.58485
# Velocity P-wave (km/s) = 3.21665 5.51485 4.51444
#
# Compressibility (1/GPa) = 0.06865902
#
# Stress axis : x y z
#
# Youngs Moduli (GPa) = 26.11897 74.04274 30.65757
#
# Poissons Ratio (x) = -0.00978 -0.11397
# Poissons Ratio (y) = -0.00345 0.35947
# Poissons Ratio (z) = -0.09710 0.86817
#
# Static dielectric constant tensor:
#      x y z
#    x 1.677490 0.000000 -0.005200 
#    y 0.000000 1.664620 0.000000 
#    z -0.005200 0.000000 1.711840 
# 
# From -- ./inp_files/335666.got.cif
#   From: 2010.05.17/outbox.cif.g08.bks.cpg/sg12_168_cif.got.tgz:335666.got - 2010.06.03 13:09:07.
