data_PCOD9208372
_publ_section_title
;
Structure prediction by ZEFSAII (Michael W. Deem and Ramdas Pophale) SiO2 
 PCOD9208372
Probable space group: C 2/M
;
_chemical_formula_sum "Si O2"
_cell_formula_units_Z 34
_cell_length_a 15.593343
_cell_length_b 17.270348
_cell_length_c 9.333728
_cell_angle_alpha 90.000000
_cell_angle_beta 30.640563
_cell_angle_gamma 90.000000
_cell_volume 1281.055809
_symmetry_space_group_name_H-M "C 2/M"
_symmetry_group_IT_number 12
_symmetry_cell_setting 'monoclinic'
loop_
_space_group_symop_operation_xyz
x,y,z
-x,y,-z
-x,-y,-z
x,-y,z
1/2+x,1/2+y,z
1/2-x,1/2+y,-z
1/2-x,1/2-y,-z
1/2+x,1/2-y,z
loop_
_atom_site_type_symbol
_atom_site_label
_atom_site_fract_x
_atom_site_fract_y
_atom_site_fract_z
Si Si1 0.394063 0.112449 0.932841
Si Si2 0.319757 0.261469 0.195029
Si Si3 0.079980 0.138177 0.532173
Si Si4 0.254776 0.914830 0.831394
Si Si5 0.000000 0.500000 0.000000
O O1 0.223219 0.082595 0.261486
O O2 0.375607 0.089716 0.795925
O O3 0.370557 0.204725 0.987195
O O4 0.529270 0.068822 0.834075
O O5 0.223983 0.340102 0.297510
O O6 0.500000 0.278700 0.000000
O O7 0.189709 0.202578 0.456752
O O8 0.933413 0.099634 0.832566
O O9 0.000000 0.173224 0.500000
O O10 0.262211 0.000000 0.756459
#
# Coordination Sequence:
#
# PCOD9208372 Si02
#       5
#     8   8   8   8   2
#     4   9  19  33  54  84 113 147 180 243 290 331
#     4  10  21  38  55  83 119 157 190 234 289 345
#     4   8  19  34  56  83 112 146 189 237 285 338
#     4  11  21  35  61  86 113 152 198 232 287 346
#     4  12  16  32  58  84 120 138 192 248 288 320
#
# _framework density 26.540607999999999
#
# number of rings (size 3 to 8) (size 9 to 14) (size 15 to 20)
#    1.412    0.941    2.353    0.706    1.647    2.824 
#    0.000    0.000    0.000    0.706    3.059    0.000 
#    0.000    0.000    0.000    0.000    0.000    0.000 
#
# Total GULP energy -94661.736867 kJ/mol
# GULP energy per Si atom -5568.337463 kJ/mol
# Density = 2.648020 g / cm^3
# Si number density = 26.540608 Si / 1000 Ang^3
#
#
#
# Elastic Constant Matrix: (Units=GPa)
#
#
# Indices 1 2 3 4 5 6 
#
# 1 89.9775 61.3967 16.9828 -0.0011 -18.6419 0.0008
# 2 61.3967 219.8699 12.9692 0.0000 -13.9380 0.0001
# 3 16.9828 12.9692 89.0730 -0.0012 10.8976 0.0006
# 4 -0.0011 0.0000 -0.0012 8.4553 0.0008 30.7008
# 5 -18.6419 -13.9380 10.8976 0.0008 34.4157 -0.0003
# 6 0.0008 0.0001 0.0006 30.7008 -0.0003 -17.8190
#
#
#
# Elastic Compliance Matrix: (Units=1/GPa)
#
#
# Indices 1 2 3 4 5 6 
#
# 1 0.016058 -0.003750 -0.003531 0.000000 0.008298 0.000000
# 2 -0.003750 0.005622 -0.000139 0.000000 0.000290 0.000000
# 3 -0.003531 -0.000139 0.012651 0.000000 -0.005975 0.000000
# 4 0.000000 0.000000 0.000000 0.016300 0.000000 0.028083
# 5 0.008298 0.000290 -0.005975 0.000000 0.035560 -0.000001
# 6 0.000000 0.000000 0.000000 0.028083 -0.000001 -0.007734
#
#
# Mechanical properties :
#
#
# Convention : Reuss Voigt Hill
#
# Bulk Modulus (GPa) = 51.30385 64.62419 57.96402
# Shear Modulus (GPa) = 50.10348 25.51519 37.80933
#
# Velocity S-wave (km/s) = 4.34960 3.10395 3.77846
# Velocity P-wave (km/s) = 6.67815 6.10312 6.39710
#
# Compressibility (1/GPa) = 0.01949172
#
# Stress axis : x y z
#
# Youngs Moduli (GPa) = 62.27357 177.87866 79.04410
#
# Poissons Ratio (x) = 0.66701 0.27909
# Poissons Ratio (y) = 0.23351 0.01099
# Poissons Ratio (z) = 0.21988 0.02473
#
# Static dielectric constant tensor:
#      x y z
#    x 2.212560 0.000000 -0.014200 
#    y 0.000000 2.034730 0.000000 
#    z -0.014200 0.000000 2.269540 
# 
# From -- ./inp_files/143482.got.cif
#   From: 2010.05.17/outbox.cif.g08.bks.cpg/sg12_72_cif.got.tgz:143482.got - 2010.06.03 13:09:07.
