data_PCOD9208336
_publ_section_title
;
Structure prediction by ZEFSAII (Michael W. Deem and Ramdas Pophale) SiO2 
 PCOD9208336
Probable space group: C 2/M
;
_chemical_formula_sum "Si O2"
_cell_formula_units_Z 40
_cell_length_a 10.121961
_cell_length_b 16.666348
_cell_length_c 9.635285
_cell_angle_alpha 90.000000
_cell_angle_beta 90.199752
_cell_angle_gamma 90.000000
_cell_volume 1625.425359
_symmetry_space_group_name_H-M "C 2/M"
_symmetry_group_IT_number 12
_symmetry_cell_setting 'monoclinic'
loop_
_space_group_symop_operation_xyz
x,y,z
-x,y,-z
-x,-y,-z
x,-y,z
1/2+x,1/2+y,z
1/2-x,1/2+y,-z
1/2-x,1/2-y,-z
1/2+x,1/2-y,z
loop_
_atom_site_type_symbol
_atom_site_label
_atom_site_fract_x
_atom_site_fract_y
_atom_site_fract_z
Si Si1 0.213243 0.657523 0.985412
Si Si2 0.465355 0.328122 0.346564
Si Si3 0.296368 0.095848 0.555843
Si Si4 0.011306 0.342353 0.229099
Si Si5 0.285580 0.591226 0.750462
O O1 0.330672 0.610649 0.917060
O O2 0.131286 0.637520 0.839779
O O3 0.250000 0.750000 0.000000
O O4 0.118043 0.636308 0.109334
O O5 0.500000 0.297101 0.500000
O O6 0.315236 0.357617 0.353605
O O7 0.499230 0.253179 0.248099
O O8 0.564885 0.399027 0.313326
O O9 0.432184 0.115080 0.636121
O O10 0.283683 0.127224 0.397985
O O11 0.274662 0.000000 0.558270
O O12 0.238476 0.500000 0.751154
#
# Coordination Sequence:
#
# PCOD9208336 Si02
#       5
#     8   8   8   8   8
#     4  11  23  42  61  91 133 173 220 269 325 393
#     4  10  21  37  67  98 132 167 220 271 329 390
#     4  10  23  43  66 100 139 172 217 277 338 397
#     4  11  24  39  66  94 130 174 220 272 332 388
#     4  10  22  41  68  97 130 175 222 272 333 398
#
# _framework density 24.608944999999999
#
# number of rings (size 3 to 8) (size 9 to 14) (size 15 to 20)
#    0.000    1.600    2.000    1.800    2.800    5.600 
#    0.000    4.000    0.000    3.600    0.000    0.000 
#    0.000    0.000    0.000    0.000    0.000    0.000 
#
# Total GULP energy -111340.370910 kJ/mol
# GULP energy per Si atom -5567.018546 kJ/mol
# Density = 2.455293 g / cm^3
# Si number density = 24.608945 Si / 1000 Ang^3
#
#
#
# Elastic Constant Matrix: (Units=GPa)
#
#
# Indices 1 2 3 4 5 6 
#
# 1 81.9533 1.5607 40.2517 0.0000 4.3949 0.0000
# 2 1.5607 70.9440 35.6640 0.0000 -0.8083 0.0000
# 3 40.2517 35.6640 152.6670 0.0000 -26.3080 0.0000
# 4 0.0000 0.0000 0.0000 14.3318 0.0000 -22.1330
# 5 4.3949 -0.8083 -26.3080 0.0000 34.8246 0.0000
# 6 0.0000 0.0000 0.0000 -22.1330 0.0000 5.4475
#
#
#
# Elastic Compliance Matrix: (Units=1/GPa)
#
#
# Indices 1 2 3 4 5 6 
#
# 1 0.015260 0.002434 -0.005650 0.000000 -0.006137 0.000000
# 2 0.002434 0.016603 -0.005182 0.000000 -0.003836 0.000000
# 3 -0.005650 -0.005182 0.010752 0.000000 0.008715 0.000000
# 4 0.000000 0.000000 0.000000 -0.013229 0.000000 -0.053748
# 5 -0.006137 -0.003836 0.008715 0.000000 0.035985 0.000000
# 6 0.000000 0.000000 0.000000 -0.053748 0.000000 -0.034803
#
#
# Mechanical properties :
#
#
# Convention : Reuss Voigt Hill
#
# Bulk Modulus (GPa) = 38.72738 51.16856 44.94797
# Shear Modulus (GPa) = 89.33651 26.12665 57.73158
#
# Velocity S-wave (km/s) = 6.03169 3.26187 4.84876
# Velocity P-wave (km/s) = 8.01746 5.91812 7.04641
#
# Compressibility (1/GPa) = 0.02582152
#
# Stress axis : x y z
#
# Youngs Moduli (GPa) = 65.53222 60.22947 93.00549
#
# Poissons Ratio (x) = -0.14663 0.52545
# Poissons Ratio (y) = -0.15954 0.48191
# Poissons Ratio (z) = 0.37023 0.31208
#
# Static dielectric constant tensor:
#      x y z
#    x 2.273860 0.000000 0.056710 
#    y 0.000000 2.099090 0.000000 
#    z 0.056710 0.000000 2.056050 
# 
# From -- ./inp_files/47036.got.cif
#   From: 2010.05.17/outbox.cif.g08.bks.cpg/sg12_24_cif.got.tgz:47036.got - 2010.06.03 13:09:07.
