data_PCOD9208614
_publ_section_title
;
Structure prediction by ZEFSAII (Michael W. Deem and Ramdas Pophale) SiO2 
 PCOD9208614
Probable space group: C 2/M
;
_chemical_formula_sum "Si O2"
_cell_formula_units_Z 36
_cell_length_a 5.090185
_cell_length_b 13.140304
_cell_length_c 26.371196
_cell_angle_alpha 90.000000
_cell_angle_beta 89.648760
_cell_angle_gamma 90.000000
_cell_volume 1763.845923
_symmetry_space_group_name_H-M "C 2/M"
_symmetry_group_IT_number 12
_symmetry_cell_setting 'monoclinic'
loop_
_space_group_symop_operation_xyz
x,y,z
-x,y,-z
-x,-y,-z
x,-y,z
1/2+x,1/2+y,z
1/2-x,1/2+y,-z
1/2-x,1/2-y,-z
1/2+x,1/2-y,z
loop_
_atom_site_type_symbol
_atom_site_label
_atom_site_fract_x
_atom_site_fract_y
_atom_site_fract_z
Si Si1 0.937999 0.819379 0.946778
Si Si2 0.500000 0.176697 0.500000
Si Si3 0.954322 0.321536 0.610744
Si Si4 0.456976 0.679235 0.163189
Si Si5 0.548366 0.500000 0.757679
Si Si6 0.550977 0.000000 0.689456
O O1 0.141532 0.723119 0.947079
O O2 0.999181 0.869478 0.892749
O O3 0.000000 0.873485 0.000000
O O4 0.750000 0.250000 0.500000
O O5 0.510180 0.125802 0.444806
O O6 0.670226 0.268434 0.613947
O O7 0.001205 0.401622 0.654813
O O8 0.672048 0.768939 0.166503
O O9 0.493254 0.598346 0.207244
O O10 0.341475 0.500000 0.712173
O O11 0.840958 0.500000 0.735020
#
# Coordination Sequence:
#
# PCOD9208614 Si02
#       6
#     8   4   8   8   4   4
#     4   8  14  27  50  78 104 133 172 217 271 333
#     4   8  16  33  58  85 112 142 176 219 272 333
#     4  10  21  39  61  86 116 146 181 227 278 330
#     4  10  21  38  59  80 109 148 182 227 285 326
#     4  12  26  40  55  83 112 144 200 236 260 328
#     4  12  26  39  58  84 111 150 192 232 274 318
#
# _framework density 20.409945
#
# number of rings (size 3 to 8) (size 9 to 14) (size 15 to 20)
#    0.000    2.222    0.000    2.667    0.000    5.778 
#    0.000    0.556    0.000    9.333    0.000   17.111 
#    0.000    0.000    0.000    0.000    0.000    0.000 
#
# Total GULP energy -100418.588989 kJ/mol
# GULP energy per Si atom -5578.810499 kJ/mol
# Density = 2.036349 g / cm^3
# Si number density = 20.409945 Si / 1000 Ang^3
#
#
#
# Elastic Constant Matrix: (Units=GPa)
#
#
# Indices 1 2 3 4 5 6 
#
# 1 82.9259 -12.3784 -21.2351 0.0000 1.6329 0.0000
# 2 -12.3784 42.4437 27.3801 0.0000 0.3762 0.0000
# 3 -21.2351 27.3801 97.7721 0.0000 0.7967 0.0000
# 4 0.0000 0.0000 0.0000 415.0225 0.0000 26.8528
# 5 1.6329 0.3762 0.7967 0.0000 35.4781 0.0000
# 6 0.0000 0.0000 0.0000 26.8528 0.0000 13.9733
#
#
#
# Elastic Compliance Matrix: (Units=1/GPa)
#
#
# Indices 1 2 3 4 5 6 
#
# 1 0.012982 0.002404 0.002152 0.000000 -0.000671 0.000000
# 2 0.002404 0.029201 -0.007653 0.000000 -0.000248 0.000000
# 3 0.002152 -0.007653 0.012841 0.000000 -0.000306 0.000000
# 4 0.000000 0.000000 0.000000 0.002752 0.000000 -0.005288
# 5 -0.000671 -0.000248 -0.000306 0.000000 0.028227 0.000000
# 6 0.000000 0.000000 0.000000 -0.005288 0.000000 0.081727
#
#
# Mechanical properties :
#
#
# Convention : Reuss Voigt Hill
#
# Bulk Modulus (GPa) = 20.47965 23.40830 21.94397
# Shear Modulus (GPa) = 26.28798 108.18645 67.23721
#
# Velocity S-wave (km/s) = 3.59276 7.28847 5.74586
# Velocity P-wave (km/s) = 5.22174 9.07320 7.40235
#
# Compressibility (1/GPa) = 0.04882896
#
# Stress axis : x y z
#
# Youngs Moduli (GPa) = 77.02942 34.24542 77.87591
#
# Poissons Ratio (x) = -0.08232 -0.16758
# Poissons Ratio (y) = -0.18517 0.59601
# Poissons Ratio (z) = -0.16576 0.26209
#
# Static dielectric constant tensor:
#      x y z
#    x 1.677700 0.000000 0.000070 
#    y 0.000000 1.688070 0.000000 
#    z 0.000070 0.000000 1.792630 
# 
# From -- ./inp_files/330719.got.cif
#   From: 2010.05.17/outbox.cif.g08.bks.cpg/sg12_166_cif.got.tgz:330719.got - 2010.06.03 13:09:07.
