data_PCOD9208884
_publ_section_title
;
Structure prediction by ZEFSAII (Michael W. Deem and Ramdas Pophale) SiO2 
 PCOD9208884
Probable space group: C 2/M
;
_chemical_formula_sum "Si O2"
_cell_formula_units_Z 64
_cell_length_a 14.946986
_cell_length_b 8.661709
_cell_length_c 30.227849
_cell_angle_alpha 90.000000
_cell_angle_beta 60.148450
_cell_angle_gamma 90.000000
_cell_volume 3394.242004
_symmetry_space_group_name_H-M "C 2/M"
_symmetry_group_IT_number 12
_symmetry_cell_setting 'monoclinic'
loop_
_space_group_symop_operation_xyz
x,y,z
-x,y,-z
-x,-y,-z
x,-y,z
1/2+x,1/2+y,z
1/2-x,1/2+y,-z
1/2-x,1/2-y,-z
1/2+x,1/2-y,z
loop_
_atom_site_type_symbol
_atom_site_label
_atom_site_fract_x
_atom_site_fract_y
_atom_site_fract_z
Si Si1 0.425061 0.681186 0.307562
Si Si2 0.320641 0.181291 0.251407
Si Si3 0.927791 0.314227 0.057959
Si Si4 0.891925 0.314121 0.503562
Si Si5 0.019699 0.183798 0.859051
Si Si6 0.329869 0.183953 0.419012
Si Si7 0.352875 0.180850 0.762832
Si Si8 0.698169 0.683903 0.130127
O O1 0.447303 0.500000 0.299994
O O2 0.341906 0.725979 0.290891
O O3 0.385054 0.730031 0.365349
O O4 0.527920 0.774294 0.269787
O O5 0.405176 0.232726 0.194167
O O6 0.211320 0.223721 0.257220
O O7 0.329581 0.000000 0.257589
O O8 0.938577 0.500000 0.059335
O O9 0.958339 0.239648 0.096971
O O10 0.806817 0.280387 0.080438
O O11 0.000000 0.261971 0.000000
O O12 0.882113 0.500000 0.511079
O O13 0.789716 0.235673 0.548746
O O14 0.884045 0.280359 0.452913
O O15 0.000000 0.267908 0.500000
O O16 0.901934 0.217432 0.874456
O O17 0.036895 0.000000 0.851144
O O18 0.335388 0.000000 0.410868
O O19 0.311704 0.226754 0.821357
O O20 0.337569 0.000000 0.759138
O O21 0.697163 0.500000 0.140526
#
# Coordination Sequence:
#
# PCOD9208884 Si02
#       8
#     8   8   8   8   8   8   8   8
#     4  12  25  42  62  89 128 167 208 259 311 365
#     4  12  24  40  62  89 121 159 204 253 306 369
#     4  10  22  40  61  86 119 160 204 253 308 365
#     4   9  19  38  64  90 121 164 210 255 308 367
#     4  11  22  37  60  88 118 154 199 248 303 367
#     4  10  21  38  60  90 126 162 206 259 312 366
#     4  12  24  39  62  91 121 160 205 248 305 372
#     4  10  21  38  60  85 120 158 196 246 304 361
#
# _framework density 18.855461999999999
#
# number of rings (size 3 to 8) (size 9 to 14) (size 15 to 20)
#    0.000    1.250    2.500    4.125    0.000    3.000 
#    0.000    3.750    0.000    0.000    0.000    0.000 
#    0.000    0.000    0.000    0.000    0.000    0.000 
#
# Total GULP energy -178887.552523 kJ/mol
# GULP energy per Si atom -5590.236016 kJ/mol
# Density = 1.881255 g / cm^3
# Si number density = 18.855462 Si / 1000 Ang^3
#
#
#
# Elastic Constant Matrix: (Units=GPa)
#
#
# Indices 1 2 3 4 5 6 
#
# 1 74.4514 2.3329 -16.3913 0.0000 5.5913 0.0000
# 2 2.3329 33.4303 7.9747 0.0000 1.3253 0.0000
# 3 -16.3913 7.9747 38.8482 0.0000 7.2609 0.0000
# 4 0.0000 0.0000 0.0000 17.0151 0.0000 0.0304
# 5 5.5913 1.3253 7.2609 0.0000 18.1423 0.0000
# 6 0.0000 0.0000 0.0000 0.0304 0.0000 27.5006
#
#
#
# Elastic Compliance Matrix: (Units=1/GPa)
#
#
# Indices 1 2 3 4 5 6 
#
# 1 0.016124 -0.002933 0.008964 0.000000 -0.008343 0.000000
# 2 -0.002933 0.031988 -0.008146 0.000000 0.001827 0.000000
# 3 0.008964 -0.008146 0.034156 0.000000 -0.015838 0.000000
# 4 0.000000 0.000000 0.000000 0.058771 0.000000 -0.000065
# 5 -0.008343 0.001827 -0.015838 0.000000 0.063896 0.000000
# 6 0.000000 0.000000 0.000000 -0.000065 0.000000 0.036363
#
#
# Mechanical properties :
#
#
# Convention : Reuss Voigt Hill
#
# Bulk Modulus (GPa) = 12.81398 14.95140 13.88269
# Shear Modulus (GPa) = 18.41354 22.71917 20.56636
#
# Velocity S-wave (km/s) = 3.12839 3.47495 3.30621
# Velocity P-wave (km/s) = 4.45643 4.90378 4.68545
#
# Compressibility (1/GPa) = 0.07803975
#
# Stress axis : x y z
#
# Youngs Moduli (GPa) = 62.02076 31.26145 29.27761
#
# Poissons Ratio (x) = 0.09169 -0.26246
# Poissons Ratio (y) = 0.18190 0.23848
# Poissons Ratio (z) = -0.55598 0.25464
#
# Static dielectric constant tensor:
#      x y z
#    x 1.641910 0.000000 -0.006330 
#    y 0.000000 1.631480 0.000000 
#    z -0.006330 0.000000 1.617690 
# 
# From -- ./inp_files/374985.got.cif
#   From: 2010.05.17/outbox.cif.g08.bks.cpg/sg12_188_cif.got.tgz:374985.got - 2010.06.03 13:09:07.
