data_PCOD9208302
_publ_section_title
;
Structure prediction by ZEFSAII (Michael W. Deem and Ramdas Pophale) SiO2 
 PCOD9208302
Probable space group: C 2/M
;
_chemical_formula_sum "Si O2"
_cell_formula_units_Z 48
_cell_length_a 19.035610
_cell_length_b 11.869239
_cell_length_c 11.507672
_cell_angle_alpha 90.000000
_cell_angle_beta 60.451718
_cell_angle_gamma 90.000000
_cell_volume 2261.864914
_symmetry_space_group_name_H-M "C 2/M"
_symmetry_group_IT_number 12
_symmetry_cell_setting 'monoclinic'
loop_
_space_group_symop_operation_xyz
x,y,z
-x,y,-z
-x,-y,-z
x,-y,z
1/2+x,1/2+y,z
1/2-x,1/2+y,-z
1/2-x,1/2-y,-z
1/2+x,1/2-y,z
loop_
_atom_site_type_symbol
_atom_site_label
_atom_site_fract_x
_atom_site_fract_y
_atom_site_fract_z
Si Si1 0.833652 0.371420 0.612702
Si Si2 0.843386 0.129155 0.160800
Si Si3 0.877827 0.726778 0.351176
Si Si4 0.959827 0.766506 0.643563
Si Si5 0.408558 0.000000 0.925397
Si Si6 0.346450 0.755405 0.927131
Si Si7 0.601738 0.000000 0.793523
O O1 0.841582 0.500000 0.564284
O O2 0.754275 0.364973 0.755725
O O3 0.825279 0.286212 0.511047
O O4 0.913111 0.335084 0.616978
O O5 0.868146 0.173060 0.267817
O O6 0.867680 0.000000 0.124150
O O7 0.873322 0.204959 0.029840
O O8 0.864207 0.613227 0.289843
O O9 0.968014 0.731747 0.330288
O O10 0.890114 0.811975 0.786368
O O11 0.000000 0.831235 0.500000
O O12 0.374534 0.114596 0.898589
O O13 0.505664 0.000000 0.845843
O O14 0.384456 0.000000 0.080613
O O15 0.250000 0.750000 0.000000
#
# Coordination Sequence:
#
# PCOD9208302 Si02
#       7
#     8   8   8   8   4   8   4
#     4  10  21  37  64  99 134 167 209 266 327 389
#     4  11  25  43  64  93 130 178 222 262 320 388
#     4  11  21  39  65  98 134 165 207 267 330 387
#     4  10  23  38  64  96 132 163 207 265 326 385
#     4  11  24  38  62  96 127 161 209 269 329 380
#     4  12  24  41  66  94 133 167 214 266 325 389
#     4  11  20  36  64  96 128 156 203 275 334 371
#
# _framework density 21.221428
#
# number of rings (size 3 to 8) (size 9 to 14) (size 15 to 20)
#    0.000    1.167    5.833    0.500    3.500    1.667 
#    0.000    1.667    0.000    9.000    0.000    0.000 
#    0.000    0.000    0.000    0.000    0.000    0.000 
#
# Total GULP energy -133922.803216 kJ/mol
# GULP energy per Si atom -5580.116801 kJ/mol
# Density = 2.117313 g / cm^3
# Si number density = 21.221428 Si / 1000 Ang^3
#
#
#
# Elastic Constant Matrix: (Units=GPa)
#
#
# Indices 1 2 3 4 5 6 
#
# 1 73.9745 12.7437 14.2678 0.0000 15.9147 0.0000
# 2 12.7437 69.3662 20.4068 0.0000 12.8991 0.0000
# 3 14.2678 20.4068 136.1623 0.0000 9.9571 0.0000
# 4 0.0000 0.0000 0.0000 14.7905 0.0000 0.9678
# 5 15.9147 12.8991 9.9571 0.0000 28.6803 0.0000
# 6 0.0000 0.0000 0.0000 0.9678 0.0000 16.0787
#
#
#
# Elastic Compliance Matrix: (Units=1/GPa)
#
#
# Indices 1 2 3 4 5 6 
#
# 1 0.015568 -0.001146 -0.000888 0.000000 -0.007815 0.000000
# 2 -0.001146 0.016304 -0.001882 0.000000 -0.006044 0.000000
# 3 -0.000888 -0.001882 0.007820 0.000000 -0.001376 0.000000
# 4 0.000000 0.000000 0.000000 0.067878 0.000000 -0.004086
# 5 -0.007815 -0.006044 -0.001376 0.000000 0.042400 0.000000
# 6 0.000000 0.000000 0.000000 -0.004086 0.000000 0.062440
#
#
# Mechanical properties :
#
#
# Convention : Reuss Voigt Hill
#
# Bulk Modulus (GPa) = 31.38559 41.59328 36.48943
# Shear Modulus (GPa) = 21.65803 27.38221 24.52012
#
# Velocity S-wave (km/s) = 3.19811 3.59598 3.40287
# Velocity P-wave (km/s) = 5.33469 6.07319 5.71588
#
# Compressibility (1/GPa) = 0.03186176
#
# Stress axis : x y z
#
# Youngs Moduli (GPa) = 64.23366 61.33416 127.87999
#
# Poissons Ratio (x) = 0.07026 0.11357
# Poissons Ratio (y) = 0.07358 0.24061
# Poissons Ratio (z) = 0.05705 0.11540
#
# Static dielectric constant tensor:
#      x y z
#    x 1.773150 0.000000 -0.006460 
#    y 0.000000 1.720270 0.000000 
#    z -0.006460 0.000000 1.839530 
# 
# From -- ./inp_files/164740.got.cif
#   From: 2010.05.17/outbox.cif.g08.bks.cpg/sg12_83_cif.got.tgz:164740.got - 2010.06.03 13:09:07.
