data_PCOD9208224
_publ_section_title
;
Structure prediction by ZEFSAII (Michael W. Deem and Ramdas Pophale) SiO2 
 PCOD9208224
Probable space group: C 2/M
;
_chemical_formula_sum "Si O2"
_cell_formula_units_Z 56
_cell_length_a 21.271538
_cell_length_b 19.526136
_cell_length_c 17.944128
_cell_angle_alpha 90.000000
_cell_angle_beta 159.421456
_cell_angle_gamma 90.000000
_cell_volume 2619.701936
_symmetry_space_group_name_H-M "C 2/M"
_symmetry_group_IT_number 12
_symmetry_cell_setting 'monoclinic'
loop_
_space_group_symop_operation_xyz
x,y,z
-x,y,-z
-x,-y,-z
x,-y,z
1/2+x,1/2+y,z
1/2-x,1/2+y,-z
1/2-x,1/2-y,-z
1/2+x,1/2-y,z
loop_
_atom_site_type_symbol
_atom_site_label
_atom_site_fract_x
_atom_site_fract_y
_atom_site_fract_z
Si Si1 0.205809 0.293779 0.244235
Si Si2 0.801905 0.420096 0.871935
Si Si3 0.179327 0.352478 0.661339
Si Si4 0.191124 0.381080 0.355843
Si Si5 0.132227 0.922372 0.997967
Si Si6 0.894982 0.080212 0.194148
Si Si7 0.206667 0.422863 0.533213
O O1 0.246420 0.364492 0.245077
O O2 0.317576 0.229070 0.343606
O O3 0.215029 0.308453 0.342280
O O4 0.000000 0.276413 0.000000
O O5 0.756665 0.500000 0.804973
O O6 0.700488 0.397186 0.835473
O O7 0.017393 0.415292 0.123821
O O8 0.325584 0.377640 0.882906
O O9 0.183658 0.385878 0.585420
O O10 0.000000 0.377167 0.500000
O O11 0.388498 0.413405 0.563103
O O12 0.144331 0.382835 0.390828
O O13 0.206363 0.000000 0.089065
O O14 0.177770 0.891830 0.966385
O O15 0.919253 0.928926 0.759138
O O16 0.854238 0.000000 0.144384
O O17 0.129778 0.500000 0.447128
#
# Coordination Sequence:
#
# PCOD9208224 Si02
#       7
#     8   8   8   8   8   8   8
#     4  10  24  43  62  84 123 166 206 246 302 361
#     4  10  21  37  63  93 122 158 204 257 308 358
#     4  12  26  39  59  88 124 166 204 249 301 363
#     4  10  21  38  64  90 123 156 201 252 303 372
#     4   9  19  39  63  89 121 157 201 249 307 369
#     4   9  19  35  61  92 123 158 191 249 312 359
#     4  10  21  39  66  93 119 157 200 252 312 363
#
# _framework density 21.376477999999999
#
# number of rings (size 3 to 8) (size 9 to 14) (size 15 to 20)
#    0.000    2.000    0.000    3.857    4.000    6.571 
#    0.000    3.571    0.000    0.000    0.000    0.000 
#    0.000    0.000    0.000    0.000    0.000    0.000 
#
# Total GULP energy -156158.834965 kJ/mol
# GULP energy per Si atom -5577.101249 kJ/mol
# Density = 2.132782 g / cm^3
# Si number density = 21.376478 Si / 1000 Ang^3
#
#
#
# Elastic Constant Matrix: (Units=GPa)
#
#
# Indices 1 2 3 4 5 6 
#
# 1 158.1390 52.9827 31.9838 0.0001 -14.9976 0.0003
# 2 52.9827 57.5556 21.4912 -0.0011 -17.3099 0.0006
# 3 31.9838 21.4912 33.5243 -0.0056 -13.4320 0.0073
# 4 0.0001 -0.0011 -0.0056 -38.8407 -0.0027 75.4947
# 5 -14.9976 -17.3099 -13.4320 -0.0027 38.9555 0.0021
# 6 0.0003 0.0006 0.0073 75.4947 0.0021 86.7601
#
#
#
# Elastic Compliance Matrix: (Units=1/GPa)
#
#
# Indices 1 2 3 4 5 6 
#
# 1 0.009713 -0.007465 -0.005003 0.000001 -0.001303 0.000000
# 2 -0.007465 0.029819 -0.009093 0.000000 0.007241 0.000000
# 3 -0.005003 -0.009093 0.044139 -0.000005 0.009253 0.000001
# 4 0.000001 0.000000 -0.000005 -0.009566 -0.000003 0.008324
# 5 -0.001303 0.007241 0.009253 -0.000003 0.031577 0.000001
# 6 0.000000 0.000000 0.000001 0.008324 0.000001 0.004283
#
#
# Mechanical properties :
#
#
# Convention : Reuss Voigt Hill
#
# Bulk Modulus (GPa) = 24.66157 51.34827 38.00492
# Shear Modulus (GPa) = 30.01164 26.89239 28.45202
#
# Velocity S-wave (km/s) = 3.75101 3.55073 3.65224
# Velocity P-wave (km/s) = 5.50653 6.39401 5.96679
#
# Compressibility (1/GPa) = 0.04054891
#
# Stress axis : x y z
#
# Youngs Moduli (GPa) = 102.95606 33.53532 22.65588
#
# Poissons Ratio (x) = 0.25033 0.11335
# Poissons Ratio (y) = 0.76855 0.20601
# Poissons Ratio (z) = 0.51510 0.30494
#
# Static dielectric constant tensor:
#      x y z
#    x 2.040470 0.000000 -0.319720 
#    y 0.000000 1.756470 0.000000 
#    z -0.319720 0.000000 2.238220 
# 
# From -- ./inp_files/286092.got.cif
#   From: 2010.05.17/outbox.cif.g08.bks.cpg/sg12_144_cif.got.tgz:286092.got - 2010.06.03 13:09:07.
