data_PCOD9208291
_publ_section_title
;
Structure prediction by ZEFSAII (Michael W. Deem and Ramdas Pophale) SiO2 
 PCOD9208291
Probable space group: C 2/M
;
_chemical_formula_sum "Si O2"
_cell_formula_units_Z 64
_cell_length_a 16.297247
_cell_length_b 17.003707
_cell_length_c 13.755973
_cell_angle_alpha 90.000000
_cell_angle_beta 129.812699
_cell_angle_gamma 90.000000
_cell_volume 2928.130839
_symmetry_space_group_name_H-M "C 2/M"
_symmetry_group_IT_number 12
_symmetry_cell_setting 'monoclinic'
loop_
_space_group_symop_operation_xyz
x,y,z
-x,y,-z
-x,-y,-z
x,-y,z
1/2+x,1/2+y,z
1/2-x,1/2+y,-z
1/2-x,1/2-y,-z
1/2+x,1/2-y,z
loop_
_atom_site_type_symbol
_atom_site_label
_atom_site_fract_x
_atom_site_fract_y
_atom_site_fract_z
Si Si1 0.964297 0.910296 0.235327
Si Si2 0.329795 0.416267 0.332324
Si Si3 0.444986 0.233119 0.698894
Si Si4 0.610455 0.088060 0.833357
Si Si5 0.119128 0.750165 0.553180
Si Si6 0.848701 0.087105 0.940092
Si Si7 0.378002 0.117573 0.936052
Si Si8 0.664202 0.270757 0.185694
O O1 0.889549 0.909883 0.274243
O O2 0.021820 0.825242 0.286236
O O3 0.013919 0.000000 0.271964
O O4 0.900479 0.903924 0.085432
O O5 0.356055 0.500000 0.397938
O O6 0.363918 0.344097 0.424551
O O7 0.205761 0.413124 0.207093
O O8 0.534511 0.164343 0.762297
O O9 0.370669 0.219904 0.548641
O O10 0.390338 0.231178 0.762392
O O11 0.721514 0.096862 0.860770
O O12 0.565160 0.000000 0.775650
O O13 0.639789 0.086780 0.969940
O O14 0.212513 0.718637 0.692568
O O15 0.000000 0.731904 0.500000
O O16 0.883585 0.147961 0.884897
O O17 0.870471 0.000000 0.921162
O O18 0.354053 0.210872 0.916535
O O19 0.500000 0.102341 0.000000
#
# Coordination Sequence:
#
# PCOD9208291 Si02
#       8
#     8   8   8   8   8   8   8   8
#     4  10  21  37  64  96 126 162 204 257 323 389
#     4  10  21  38  61  96 127 156 205 261 321 385
#     4  12  24  42  62  89 131 170 213 267 319 379
#     4  11  23  39  64  95 128 172 216 264 320 381
#     4  11  23  42  64  88 117 169 216 267 312 368
#     4  10  22  40  63  93 130 168 216 265 310 384
#     4  11  21  38  61  96 129 164 197 259 334 386
#     4  11  25  41  62  93 126 167 215 259 323 383
#
# _framework density 21.856947000000002
#
# number of rings (size 3 to 8) (size 9 to 14) (size 15 to 20)
#    0.000    1.250    3.750    2.250    1.750    3.250 
#    0.000    1.875    0.000    3.750    0.000    0.000 
#    0.000    0.000    0.000    0.000    0.000    0.000 
#
# Total GULP energy -178701.518737 kJ/mol
# GULP energy per Si atom -5584.422461 kJ/mol
# Density = 2.180720 g / cm^3
# Si number density = 21.856947 Si / 1000 Ang^3
#
#
#
# Elastic Constant Matrix: (Units=GPa)
#
#
# Indices 1 2 3 4 5 6 
#
# 1 58.7776 9.4114 24.5475 0.0000 9.5789 0.0000
# 2 9.4114 113.0903 38.1000 0.0000 -7.8430 0.0000
# 3 24.5475 38.1000 62.5211 0.0000 -2.0246 0.0000
# 4 0.0000 0.0000 0.0000 6.8963 0.0000 -9.9217
# 5 9.5789 -7.8430 -2.0246 0.0000 32.6143 0.0000
# 6 0.0000 0.0000 0.0000 -9.9217 0.0000 4.8667
#
#
#
# Elastic Compliance Matrix: (Units=1/GPa)
#
#
# Indices 1 2 3 4 5 6 
#
# 1 0.021882 0.000851 -0.009330 0.000000 -0.006801 0.000000
# 2 0.000851 0.011329 -0.007172 0.000000 0.002029 0.000000
# 3 -0.009330 -0.007172 0.024110 0.000000 0.002512 0.000000
# 4 0.000000 0.000000 0.000000 -0.075013 0.000000 -0.152929
# 5 -0.006801 0.002029 0.002512 0.000000 0.033303 0.000000
# 6 0.000000 0.000000 0.000000 -0.152929 0.000000 -0.106297
#
#
# Mechanical properties :
#
#
# Convention : Reuss Voigt Hill
#
# Bulk Modulus (GPa) = 38.43540 42.05629 40.24585
# Shear Modulus (GPa) = -98.59680 19.69748 -39.44966
#
# Velocity S-wave (km/s) = -6.72369 3.00526 -4.25302
# Velocity P-wave (km/s) = 6.53101 5.59692 2.37999
#
# Compressibility (1/GPa) = 0.02601768
#
# Stress axis : x y z
#
# Youngs Moduli (GPa) = 45.69948 88.27201 41.47712
#
# Poissons Ratio (x) = -0.07508 0.38699
# Poissons Ratio (y) = -0.03887 0.29747
# Poissons Ratio (z) = 0.42638 0.63307
#
# Static dielectric constant tensor:
#      x y z
#    x 1.817890 0.000000 0.029480 
#    y 0.000000 1.866410 0.000000 
#    z 0.029480 0.000000 1.766000 
# 
# From -- ./inp_files/225727.got.cif
#   From: 2010.05.17/outbox.cif.g08.bks.cpg/sg12_113_cif.got.tgz:225727.got - 2010.06.03 13:09:07.
