data_PCOD9208318
_publ_section_title
;
Structure prediction by ZEFSAII (Michael W. Deem and Ramdas Pophale) SiO2 
 PCOD9208318
Probable space group: C 2/M
;
_chemical_formula_sum "Si O2"
_cell_formula_units_Z 50
_cell_length_a 14.531526
_cell_length_b 18.155414
_cell_length_c 27.593614
_cell_angle_alpha 90.000000
_cell_angle_beta 159.598023
_cell_angle_gamma 90.000000
_cell_volume 2537.808305
_symmetry_space_group_name_H-M "C 2/M"
_symmetry_group_IT_number 12
_symmetry_cell_setting 'monoclinic'
loop_
_space_group_symop_operation_xyz
x,y,z
-x,y,-z
-x,-y,-z
x,-y,z
1/2+x,1/2+y,z
1/2-x,1/2+y,-z
1/2-x,1/2-y,-z
1/2+x,1/2-y,z
loop_
_atom_site_type_symbol
_atom_site_label
_atom_site_fract_x
_atom_site_fract_y
_atom_site_fract_z
Si Si1 0.266282 0.144861 0.436519
Si Si2 0.965004 0.413240 0.691408
Si Si3 0.548366 0.586787 0.138962
Si Si4 0.057802 0.347980 0.840526
Si Si5 0.980157 0.087723 0.387555
Si Si6 0.500000 0.000000 0.500000
Si Si7 0.657071 0.310166 0.277773
O O1 0.526114 0.194440 0.574155
O O2 0.122120 0.176311 0.317756
O O3 0.083526 0.132785 0.392364
O O4 0.381481 0.065392 0.477123
O O5 0.968885 0.500000 0.706510
O O6 0.675232 0.394549 0.528665
O O7 0.170404 0.403109 0.748807
O O8 0.053131 0.368219 0.781492
O O9 0.492927 0.500000 0.113360
O O10 0.562223 0.620862 0.199189
O O11 0.327462 0.627463 0.998474
O O12 0.816636 0.392307 0.745632
O O13 0.992026 0.262171 0.812984
O O14 0.006019 0.000000 0.391443
#
# Coordination Sequence:
#
# PCOD9208318 Si02
#       7
#     8   8   8   8   8   2   8
#     4  10  21  37  65  95 117 157 210 264 296 361
#     4  10  22  39  65  90 118 167 219 254 294 363
#     4  11  23  43  69  90 118 167 217 254 299 368
#     4  12  25  40  58  91 139 161 195 256 321 377
#     4  11  22  38  64  95 123 162 210 263 311 350
#     4   8  16  32  64  84 120 138 208 260 292 332
#     4  10  24  39  64  92 125 162 208 251 319 363
#
# _framework density 19.70204
#
# number of rings (size 3 to 8) (size 9 to 14) (size 15 to 20)
#    0.000    1.600    2.400    2.880    8.960    4.480 
#    0.000    2.400    0.000    1.920    0.000    0.000 
#    0.000    0.000    0.000    0.000    0.000    0.000 
#
# Total GULP energy -139490.331854 kJ/mol
# GULP energy per Si atom -5579.613274 kJ/mol
# Density = 1.965720 g / cm^3
# Si number density = 19.702040 Si / 1000 Ang^3
#
#
#
# Elastic Constant Matrix: (Units=GPa)
#
#
# Indices 1 2 3 4 5 6 
#
# 1 58.3766 22.8406 18.3271 0.0272 -25.3452 -0.0154
# 2 22.8406 15.5315 -77.7391 -0.0982 40.6812 0.1040
# 3 18.3271 -77.7391 -126.0844 -0.1498 78.0465 0.1589
# 4 0.0272 -0.0982 -0.1498 21.3468 0.0783 6.7495
# 5 -25.3452 40.6812 78.0465 0.0783 -19.4209 -0.0749
# 6 -0.0154 0.1040 0.1589 6.7495 -0.0749 5.6499
#
#
#
# Elastic Compliance Matrix: (Units=1/GPa)
#
#
# Indices 1 2 3 4 5 6 
#
# 1 0.018786 -0.002422 0.009473 0.000030 0.008480 -0.000094
# 2 -0.002422 0.016560 -0.008649 0.000025 0.003091 -0.000057
# 3 0.009473 -0.008649 0.013505 -0.000132 0.023789 0.000279
# 4 0.000030 0.000025 -0.000132 0.075275 0.000132 -0.089921
# 5 0.008480 0.003091 0.023789 0.000132 0.039520 -0.000337
# 6 -0.000094 -0.000057 0.000279 -0.089921 -0.000337 0.284403
#
#
# Mechanical properties :
#
#
# Convention : Reuss Voigt Hill
#
# Bulk Modulus (GPa) = 21.90402 -13.92435 3.98983
# Shear Modulus (GPa) = 10.71894 0.47484 5.59689
#
# Velocity S-wave (km/s) = 2.33502 0.49146 1.68729
# Velocity P-wave (km/s) = 4.29087 2.60015 2.41359
#
# Compressibility (1/GPa) = 0.04565372
#
# Stress axis : x y z
#
# Youngs Moduli (GPa) = 53.23232 60.38619 74.04768
#
# Poissons Ratio (x) = 0.14626 -0.70146
# Poissons Ratio (y) = 0.12893 0.64047
# Poissons Ratio (z) = -0.50427 0.52230
#
# Static dielectric constant tensor:
#      x y z
#    x 1.682400 0.000000 -0.010400 
#    y 0.000000 1.685790 -0.000010 
#    z -0.010400 -0.000010 1.670060 
# 
# From -- ./inp_files/376915.got.cif
#   From: 2010.05.17/outbox.cif.g08.bks.cpg/sg12_189_cif.got.tgz:376915.got - 2010.06.03 13:09:07.
