data_PCOD9208656
_publ_section_title
;
Structure prediction by ZEFSAII (Michael W. Deem and Ramdas Pophale) SiO2 
 PCOD9208656
Probable space group: C 2/M
;
_chemical_formula_sum "Si O2"
_cell_formula_units_Z 56
_cell_length_a 18.291029
_cell_length_b 7.691507
_cell_length_c 19.039386
_cell_angle_alpha 90.000000
_cell_angle_beta 77.029455
_cell_angle_gamma 90.000000
_cell_volume 2610.224934
_symmetry_space_group_name_H-M "C 2/M"
_symmetry_group_IT_number 12
_symmetry_cell_setting 'monoclinic'
loop_
_space_group_symop_operation_xyz
x,y,z
-x,y,-z
-x,-y,-z
x,-y,z
1/2+x,1/2+y,z
1/2-x,1/2+y,-z
1/2-x,1/2-y,-z
1/2+x,1/2-y,z
loop_
_atom_site_type_symbol
_atom_site_label
_atom_site_fract_x
_atom_site_fract_y
_atom_site_fract_z
Si Si1 0.554858 0.702623 0.136032
Si Si2 0.759885 0.704006 0.280427
Si Si3 0.407254 0.713650 0.716546
Si Si4 0.613946 0.797927 0.850251
Si Si5 0.333556 0.291737 0.007449
Si Si6 0.807650 0.792558 0.425667
Si Si7 0.975097 0.787323 0.427734
O O1 0.576267 0.500000 0.135972
O O2 0.569175 0.773730 0.210918
O O3 0.467744 0.713820 0.135452
O O4 0.607265 0.776218 0.063260
O O5 0.756133 0.500000 0.262462
O O6 0.676996 0.773603 0.282483
O O7 0.826733 0.778540 0.218278
O O8 0.779674 0.720093 0.357664
O O9 0.408432 0.500000 0.714937
O O10 0.465997 0.768805 0.644296
O O11 0.648681 0.783661 0.920067
O O12 0.601329 0.000000 0.835539
O O13 0.341711 0.500000 0.012034
O O14 0.250000 0.250000 0.000000
O O15 0.750000 0.750000 0.500000
O O16 0.891063 0.729810 0.427148
O O17 0.811316 0.000000 0.417282
O O18 0.000000 0.731399 0.500000
O O19 0.974698 0.000000 0.428336
#
# Coordination Sequence:
#
# PCOD9208656 Si02
#       7
#     8   8   8   8   8   8   8
#     4  10  21  38  59  83 112 151 197 239 285 345
#     4  10  21  38  59  83 113 148 186 231 284 341
#     4   9  17  33  57  80 106 143 187 233 278 332
#     4  11  23  38  58  86 119 153 190 236 292 349
#     4  11  23  39  60  85 115 152 196 244 292 347
#     4  11  22  36  57  84 113 146 186 233 284 339
#     4   9  17  30  52  80 105 136 182 228 269 323
#
# _framework density 21.454087999999999
#
# number of rings (size 3 to 8) (size 9 to 14) (size 15 to 20)
#    0.000    1.857    0.000    4.286    0.000    9.714 
#    0.000    0.714    0.000    9.429    0.000    0.000 
#    0.000    0.000    0.000    0.000    0.000    0.000 
#
# Total GULP energy -156535.375593 kJ/mol
# GULP energy per Si atom -5590.549128 kJ/mol
# Density = 2.140526 g / cm^3
# Si number density = 21.454088 Si / 1000 Ang^3
#
#
#
# Elastic Constant Matrix: (Units=GPa)
#
#
# Indices 1 2 3 4 5 6 
#
# 1 165.7299 -22.7464 83.8276 0.0000 -10.9991 0.0000
# 2 -22.7464 35.6990 -20.1518 0.0000 -7.3081 0.0000
# 3 83.8276 -20.1518 185.1232 0.0000 -16.1135 0.0000
# 4 0.0000 0.0000 0.0000 13.7170 0.0000 5.0805
# 5 -10.9991 -7.3081 -16.1135 0.0000 47.4291 0.0000
# 6 0.0000 0.0000 0.0000 5.0805 0.0000 23.4768
#
#
#
# Elastic Compliance Matrix: (Units=1/GPa)
#
#
# Indices 1 2 3 4 5 6 
#
# 1 0.008266 0.003739 -0.003214 0.000000 0.001401 0.000000
# 2 0.003739 0.033216 0.002518 0.000000 0.006841 0.000000
# 3 -0.003214 0.002518 0.007316 0.000000 0.002128 0.000000
# 4 0.000000 0.000000 0.000000 0.079255 0.000000 -0.017151
# 5 0.001401 0.006841 0.002128 0.000000 0.023186 0.000000
# 6 0.000000 0.000000 0.000000 -0.017151 0.000000 0.046307
#
#
# Mechanical properties :
#
#
# Convention : Reuss Voigt Hill
#
# Bulk Modulus (GPa) = 18.21977 52.04567 35.13272
# Shear Modulus (GPa) = 23.83738 39.96608 31.90173
#
# Velocity S-wave (km/s) = 3.33691 4.32078 3.86032
# Velocity P-wave (km/s) = 4.83296 7.01455 6.02335
#
# Compressibility (1/GPa) = 0.05488544
#
# Stress axis : x y z
#
# Youngs Moduli (GPa) = 120.98124 30.10564 136.67773
#
# Poissons Ratio (x) = -0.11257 0.43927
# Poissons Ratio (y) = -0.45239 -0.34415
# Poissons Ratio (z) = 0.38882 -0.07581
#
# Static dielectric constant tensor:
#      x y z
#    x 1.727330 0.000000 -0.017240 
#    y 0.000000 1.791560 0.000000 
#    z -0.017240 0.000000 1.737330 
# 
# From -- ./inp_files/275200.got.cif
#   From: 2010.05.17/outbox.cif.g08.bks.cpg/sg12_138_cif.got.tgz:275200.got - 2010.06.03 13:09:07.
