data_PCOD9208111
_publ_section_title
;
Structure prediction by ZEFSAII (Michael W. Deem and Ramdas Pophale) SiO2 
 PCOD9208111
Probable space group: C 2/M
;
_chemical_formula_sum "Si O2"
_cell_formula_units_Z 52
_cell_length_a 8.461152
_cell_length_b 20.647807
_cell_length_c 19.511759
_cell_angle_alpha 90.000000
_cell_angle_beta 43.916124
_cell_angle_gamma 90.000000
_cell_volume 2364.350193
_symmetry_space_group_name_H-M "C 2/M"
_symmetry_group_IT_number 12
_symmetry_cell_setting 'monoclinic'
loop_
_space_group_symop_operation_xyz
x,y,z
-x,y,-z
-x,-y,-z
x,-y,z
1/2+x,1/2+y,z
1/2-x,1/2+y,-z
1/2-x,1/2-y,-z
1/2+x,1/2-y,z
loop_
_atom_site_type_symbol
_atom_site_label
_atom_site_fract_x
_atom_site_fract_y
_atom_site_fract_z
Si Si1 0.695287 0.302326 0.395020
Si Si2 0.129214 0.826289 0.120216
Si Si3 0.733766 0.574877 0.833797
Si Si4 0.982748 0.182406 0.315090
Si Si5 0.641955 0.067517 0.599297
Si Si6 0.772891 0.681224 0.931755
Si Si7 0.500000 0.111681 0.500000
O O1 0.500000 0.266166 0.500000
O O2 0.916512 0.257797 0.326428
O O3 0.620180 0.320842 0.342574
O O4 0.733717 0.366134 0.426275
O O5 0.093302 0.747637 0.127073
O O6 0.947290 0.877719 0.146631
O O7 0.121542 0.839453 0.204198
O O8 0.311543 0.831901 0.000694
O O9 0.659427 0.500000 0.872651
O O10 0.815720 0.616723 0.874005
O O11 0.934521 0.569703 0.716850
O O12 0.736851 0.147562 0.402361
O O13 0.563948 0.070781 0.546055
O O14 0.762681 0.000000 0.575239
O O15 0.500000 0.694832 0.000000
#
# Coordination Sequence:
#
# PCOD9208111 Si02
#       7
#     8   8   8   8   8   8   4
#     4  12  24  40  59  91 126 168 208 260 314 371
#     4  10  21  37  61  97 123 163 211 268 317 380
#     4  10  21  40  66  93 126 169 215 265 321 389
#     4  12  24  38  66  93 128 163 210 262 316 373
#     4  11  24  42  62  88 124 166 214 258 314 383
#     4   9  20  37  61  94 127 161 211 265 323 379
#     4  12  21  42  64  94 121 162 212 264 308 372
#
# _framework density 21.993359000000002
#
# number of rings (size 3 to 8) (size 9 to 14) (size 15 to 20)
#    0.000    1.231    3.846    2.538    4.308    3.077 
#    0.000    0.769    0.000    0.462    0.000    0.000 
#    0.000    0.000    0.000    0.000    0.000    0.000 
#
# Total GULP energy -144837.945338 kJ/mol
# GULP energy per Si atom -5570.690205 kJ/mol
# Density = 2.194330 g / cm^3
# Si number density = 21.993359 Si / 1000 Ang^3
#
#
#
# Elastic Constant Matrix: (Units=GPa)
#
#
# Indices 1 2 3 4 5 6 
#
# 1 61.7519 37.6449 41.8128 0.0000 31.1201 -0.0001
# 2 37.6449 131.5214 30.9584 0.0000 4.8496 0.0000
# 3 41.8128 30.9584 114.1459 0.0002 44.3528 0.0000
# 4 0.0000 0.0000 0.0002 14.3255 -0.0001 24.6872
# 5 31.1201 4.8496 44.3528 -0.0001 51.5369 0.0001
# 6 -0.0001 0.0000 0.0000 24.6872 0.0001 65.1876
#
#
#
# Elastic Compliance Matrix: (Units=1/GPa)
#
#
# Indices 1 2 3 4 5 6 
#
# 1 0.030422 -0.007358 -0.003424 0.000000 -0.014730 0.000000
# 2 -0.007358 0.010002 -0.002070 0.000000 0.005284 0.000000
# 3 -0.003424 -0.002070 0.014569 -0.000001 -0.010276 0.000000
# 4 0.000000 0.000000 -0.000001 0.200956 0.000001 -0.076104
# 5 -0.014730 0.005284 -0.010276 0.000001 0.036645 -0.000001
# 6 0.000000 0.000000 0.000000 -0.076104 -0.000001 0.044162
#
#
# Mechanical properties :
#
#
# Convention : Reuss Voigt Hill
#
# Bulk Modulus (GPa) = 34.14486 58.69460 46.41973
# Shear Modulus (GPa) = 13.43277 39.34354 26.38816
#
# Velocity S-wave (km/s) = 2.47405 4.23411 3.46761
# Velocity P-wave (km/s) = 4.87032 7.11680 6.09791
#
# Compressibility (1/GPa) = 0.02928698
#
# Stress axis : x y z
#
# Youngs Moduli (GPa) = 32.87132 99.98031 68.63666
#
# Poissons Ratio (x) = 0.73568 0.23504
# Poissons Ratio (y) = 0.24188 0.14211
# Poissons Ratio (z) = 0.11256 0.20700
#
# Static dielectric constant tensor:
#      x y z
#    x 1.839210 0.000000 -0.082410 
#    y 0.000000 1.786190 0.000000 
#    z -0.082410 0.000000 1.982300 
# 
# From -- ./inp_files/258438.got.cif
#   From: 2010.05.17/outbox.cif.g08.bks.cpg/sg12_130_cif.got.tgz:258438.got - 2010.06.03 13:09:07.
