data_PCOD9208397
_publ_section_title
;
Structure prediction by ZEFSAII (Michael W. Deem and Ramdas Pophale) SiO2 
 PCOD9208397
Probable space group: C 2/M
;
_chemical_formula_sum "Si O2"
_cell_formula_units_Z 64
_cell_length_a 31.242846
_cell_length_b 8.405988
_cell_length_c 18.935886
_cell_angle_alpha 90.000000
_cell_angle_beta 140.482258
_cell_angle_gamma 90.000000
_cell_volume 3164.452622
_symmetry_space_group_name_H-M "C 2/M"
_symmetry_group_IT_number 12
_symmetry_cell_setting 'monoclinic'
loop_
_space_group_symop_operation_xyz
x,y,z
-x,y,-z
-x,-y,-z
x,-y,z
1/2+x,1/2+y,z
1/2-x,1/2+y,-z
1/2-x,1/2-y,-z
1/2+x,1/2-y,z
loop_
_atom_site_type_symbol
_atom_site_label
_atom_site_fract_x
_atom_site_fract_y
_atom_site_fract_z
Si Si1 0.602644 0.806647 0.670204
Si Si2 0.232229 0.812910 0.307768
Si Si3 0.361060 0.315690 0.535338
Si Si4 0.745394 0.192691 0.914104
Si Si5 0.852704 0.808342 0.937061
Si Si6 0.535026 0.807706 0.436614
Si Si7 0.358313 0.812641 0.684216
Si Si8 0.504041 0.191333 0.923867
O O1 0.675798 0.752610 0.788458
O O2 0.578264 0.758981 0.560964
O O3 0.541988 0.760949 0.645788
O O4 0.603934 0.000000 0.670675
O O5 0.302111 0.722248 0.404858
O O6 0.187452 0.758060 0.184713
O O7 0.190019 0.782179 0.325018
O O8 0.246598 0.000000 0.317046
O O9 0.361235 0.500000 0.553932
O O10 0.430840 0.264631 0.588645
O O11 0.345015 0.218127 0.585462
O O12 0.809346 0.245576 0.949065
O O13 0.744523 0.000000 0.912442
O O14 0.750000 0.250000 0.000000
O O15 0.853711 0.000000 0.938413
O O16 0.928762 0.750259 0.028126
O O17 0.537777 0.000000 0.435315
O O18 0.435081 0.763329 0.797788
O O19 0.350610 0.000000 0.690506
O O20 0.506813 0.000000 0.929163
O O21 0.500000 0.248866 0.000000
#
# Coordination Sequence:
#
# PCOD9208397 Si02
#       8
#     8   8   8   8   8   8   8   8
#     4   8  16  34  62  85 109 144 189 238 287 345
#     4  11  22  39  62  86 113 150 194 240 289 348
#     4  12  25  38  54  83 121 156 190 236 290 347
#     4  10  21  38  56  83 118 153 191 234 285 341
#     4  10  22  38  62  90 118 153 195 242 292 348
#     4   9  17  35  62  87 107 142 190 239 291 346
#     4  11  23  40  60  83 115 154 192 238 289 345
#     4  10  21  39  62  87 116 150 193 243 288 340
#
# _framework density 20.224665999999999
#
# number of rings (size 3 to 8) (size 9 to 14) (size 15 to 20)
#    0.000    1.875    1.250    3.750    0.000    5.250 
#    0.000    7.500    0.000    0.000    0.000    0.000 
#    0.000    0.000    0.000    0.000    0.000    0.000 
#
# Total GULP energy -178807.010661 kJ/mol
# GULP energy per Si atom -5587.719083 kJ/mol
# Density = 2.017863 g / cm^3
# Si number density = 20.224666 Si / 1000 Ang^3
#
#
#
# Elastic Constant Matrix: (Units=GPa)
#
#
# Indices 1 2 3 4 5 6 
#
# 1 126.3352 2.8304 18.8834 0.0000 15.6429 0.0000
# 2 2.8304 13.2680 6.6563 0.0000 4.4259 0.0000
# 3 18.8834 6.6563 54.3274 0.0000 20.6828 0.0000
# 4 0.0000 0.0000 0.0000 -30.9079 0.0000 -5.8335
# 5 15.6429 4.4259 20.6828 0.0000 30.5074 0.0000
# 6 0.0000 0.0000 0.0000 -5.8335 0.0000 29.0367
#
#
#
# Elastic Compliance Matrix: (Units=1/GPa)
#
#
# Indices 1 2 3 4 5 6 
#
# 1 0.008576 0.000132 -0.001773 0.000000 -0.003214 0.000000
# 2 0.000132 0.081340 -0.007405 0.000000 -0.006848 0.000000
# 3 -0.001773 -0.007405 0.025846 0.000000 -0.015539 0.000000
# 4 0.000000 0.000000 0.000000 -0.031172 0.000000 -0.006263
# 5 -0.003214 -0.006848 -0.015539 0.000000 0.045956 0.000000
# 6 0.000000 0.000000 0.000000 -0.006263 0.000000 0.033181
#
#
# Mechanical properties :
#
#
# Convention : Reuss Voigt Hill
#
# Bulk Modulus (GPa) = 10.23848 27.85229 19.04539
# Shear Modulus (GPa) = 23.32361 16.76461 20.04411
#
# Velocity S-wave (km/s) = 3.39960 2.88222 3.15155
# Velocity P-wave (km/s) = 4.52582 4.98774 4.76239
#
# Compressibility (1/GPa) = 0.09767075
#
# Stress axis : x y z
#
# Youngs Moduli (GPa) = 116.61103 12.29403 38.68997
#
# Poissons Ratio (x) = -0.00163 0.06861
# Poissons Ratio (y) = -0.01545 0.28650
# Poissons Ratio (z) = 0.20679 0.09104
#
# Static dielectric constant tensor:
#      x y z
#    x 1.702870 0.000000 0.005700 
#    y 0.000000 1.698000 0.000000 
#    z 0.005700 0.000000 1.709280 
# 
# From -- ./inp_files/295789.got.cif
#   From: 2010.05.17/outbox.cif.g08.bks.cpg/sg12_148_cif.got.tgz:295789.got - 2010.06.03 13:09:07.
