data_PCOD9208982
_publ_section_title
;
Structure prediction by ZEFSAII (Michael W. Deem and Ramdas Pophale) SiO2 
 PCOD9208982
Probable space group: C 2/M
;
_chemical_formula_sum "Si O2"
_cell_formula_units_Z 48
_cell_length_a 25.294386
_cell_length_b 7.993302
_cell_length_c 19.305546
_cell_angle_alpha 90.000000
_cell_angle_beta 147.006760
_cell_angle_gamma 90.000000
_cell_volume 2125.505847
_symmetry_space_group_name_H-M "C 2/M"
_symmetry_group_IT_number 12
_symmetry_cell_setting 'monoclinic'
loop_
_space_group_symop_operation_xyz
x,y,z
-x,y,-z
-x,-y,-z
x,-y,z
1/2+x,1/2+y,z
1/2-x,1/2+y,-z
1/2-x,1/2-y,-z
1/2+x,1/2-y,z
loop_
_atom_site_type_symbol
_atom_site_label
_atom_site_fract_x
_atom_site_fract_y
_atom_site_fract_z
Si Si1 0.183710 0.799670 0.525183
Si Si2 0.112767 0.805233 0.190575
Si Si3 0.102090 0.199663 0.581882
Si Si4 0.841117 0.308634 0.055443
Si Si5 0.691833 0.696577 0.135073
Si Si6 0.453590 0.697487 0.743079
O O1 0.281761 0.710509 0.656875
O O2 0.109399 0.778232 0.507388
O O3 0.132610 0.734294 0.399699
O O4 0.203317 0.000000 0.541140
O O5 0.127648 0.735871 0.129488
O O6 0.045033 0.732631 0.176858
O O7 0.087847 0.000000 0.152903
O O8 0.196570 0.285736 0.718130
O O9 0.000000 0.258340 0.500000
O O10 0.111091 0.000000 0.605809
O O11 0.858944 0.500000 0.091423
O O12 0.942807 0.216333 0.179041
O O13 0.750000 0.250000 0.000000
O O14 0.818938 0.285272 0.949828
O O15 0.668585 0.500000 0.099449
O O16 0.434583 0.500000 0.728833
#
# Coordination Sequence:
#
# PCOD9208982 Si02
#       6
#     8   8   8   8   8   8
#     4   9  18  32  54  86 122 157 194 240 293 348
#     4   9  19  36  60  89 123 158 195 242 294 346
#     4   9  18  32  53  83 116 155 198 243 297 349
#     4  12  27  45  63  85 114 153 197 247 298 354
#     4  10  21  39  60  85 117 155 197 245 295 346
#     4  10  21  38  60  88 121 161 201 240 292 351
#
# _framework density 22.58286
#
# number of rings (size 3 to 8) (size 9 to 14) (size 15 to 20)
#    0.000    2.167    0.000    2.500    2.333    3.000 
#    0.000    3.333    0.000    0.000    0.000    0.000 
#    0.000    0.000    0.000    0.000    0.000    0.000 
#
# Total GULP energy -134061.233136 kJ/mol
# GULP energy per Si atom -5585.884714 kJ/mol
# Density = 2.253146 g / cm^3
# Si number density = 22.582860 Si / 1000 Ang^3
#
#
#
# Elastic Constant Matrix: (Units=GPa)
#
#
# Indices 1 2 3 4 5 6 
#
# 1 124.1117 12.1179 35.2925 0.0000 10.6285 0.0000
# 2 12.1179 25.7174 -6.2237 0.0000 -3.0781 0.0000
# 3 35.2925 -6.2237 76.3549 0.0000 -11.1825 0.0000
# 4 0.0000 0.0000 0.0000 21.9166 0.0000 0.4689
# 5 10.6285 -3.0781 -11.1825 0.0000 36.1808 0.0000
# 6 0.0000 0.0000 0.0000 0.4689 0.0000 15.0188
#
#
#
# Elastic Compliance Matrix: (Units=1/GPa)
#
#
# Indices 1 2 3 4 5 6 
#
# 1 0.011218 -0.007623 -0.006687 0.000000 -0.006011 0.000000
# 2 -0.007623 0.045586 0.008521 0.000000 0.008751 0.000000
# 3 -0.006687 0.008521 0.018095 0.000000 0.008282 0.000000
# 4 0.000000 0.000000 0.000000 0.045658 0.000000 -0.001426
# 5 -0.006011 0.008751 0.008282 0.000000 0.032709 0.000000
# 6 0.000000 0.000000 0.000000 -0.001426 0.000000 0.066628
#
#
# Mechanical properties :
#
#
# Convention : Reuss Voigt Hill
#
# Bulk Modulus (GPa) = 15.79272 34.28416 25.03844
# Shear Modulus (GPa) = 19.79589 26.95639 23.37614
#
# Velocity S-wave (km/s) = 2.96394 3.45870 3.22083
# Velocity P-wave (km/s) = 4.32685 5.58252 4.99431
#
# Compressibility (1/GPa) = 0.06332032
#
# Stress axis : x y z
#
# Youngs Moduli (GPa) = 89.14476 21.93668 55.26433
#
# Poissons Ratio (x) = 0.16723 0.36953
# Poissons Ratio (y) = 0.67958 -0.47090
# Poissons Ratio (z) = 0.59608 -0.18692
#
# Static dielectric constant tensor:
#      x y z
#    x 1.801770 0.000000 -0.042200 
#    y 0.000000 1.810410 0.000000 
#    z -0.042200 0.000000 1.812120 
# 
# From -- ./inp_files/327305.got.cif
#   From: 2010.05.17/outbox.cif.g08.bks.cpg/sg12_164_cif.got.tgz:327305.got - 2010.06.03 13:09:07.
