data_PCOD9208852
_publ_section_title
;
Structure prediction by ZEFSAII (Michael W. Deem and Ramdas Pophale) SiO2 
 PCOD9208852
Probable space group: C 2/M
;
_chemical_formula_sum "Si O2"
_cell_formula_units_Z 56
_cell_length_a 18.398628
_cell_length_b 8.399879
_cell_length_c 19.138013
_cell_angle_alpha 90.000000
_cell_angle_beta 76.058589
_cell_angle_gamma 90.000000
_cell_volume 2870.581734
_symmetry_space_group_name_H-M "C 2/M"
_symmetry_group_IT_number 12
_symmetry_cell_setting 'monoclinic'
loop_
_space_group_symop_operation_xyz
x,y,z
-x,y,-z
-x,-y,-z
x,-y,z
1/2+x,1/2+y,z
1/2-x,1/2+y,-z
1/2-x,1/2-y,-z
1/2+x,1/2-y,z
loop_
_atom_site_type_symbol
_atom_site_label
_atom_site_fract_x
_atom_site_fract_y
_atom_site_fract_z
Si Si1 0.059914 0.805539 0.427973
Si Si2 0.227403 0.190836 0.428731
Si Si3 0.083992 0.690863 0.999073
Si Si4 0.512450 0.305625 0.283913
Si Si5 0.132371 0.809007 0.140134
Si Si6 0.297057 0.309082 0.142038
Si Si7 0.655870 0.307401 0.713832
O O1 0.143676 0.753900 0.428036
O O2 0.000000 0.754183 0.500000
O O3 0.036097 0.753922 0.355992
O O4 0.059683 0.000000 0.427970
O O5 0.250000 0.250000 0.500000
O O6 0.286537 0.249257 0.357823
O O7 0.226842 0.000000 0.429211
O O8 0.084445 0.500000 0.999339
O O9 0.142307 0.749809 0.927686
O O10 0.108298 0.750708 0.069467
O O11 0.000000 0.746349 0.000000
O O12 0.512515 0.500000 0.283941
O O13 0.572452 0.253890 0.212117
O O14 0.428572 0.254259 0.284005
O O15 0.214884 0.749860 0.140367
O O16 0.132730 0.000000 0.140065
O O17 0.297334 0.500000 0.141515
O O18 0.319033 0.254062 0.214905
O O19 0.655983 0.500000 0.713203
#
# Coordination Sequence:
#
# PCOD9208852 Si02
#       7
#     8   8   8   8   8   8   8
#     4   9  17  31  54  81 108 141 184 231 274 325
#     4  11  22  36  57  84 114 149 189 235 287 341
#     4  11  24  41  61  86 117 152 193 243 297 350
#     4   9  18  34  57  84 111 145 190 235 282 339
#     4  11  22  38  61  86 116 154 198 243 287 344
#     4  11  23  39  60  87 120 155 192 236 290 351
#     4  10  21  38  60  85 114 148 187 233 285 342
#
# _framework density 19.508240000000001
#
# number of rings (size 3 to 8) (size 9 to 14) (size 15 to 20)
#    0.000    1.714    0.000    4.714    0.000    6.857 
#    0.000    1.429    0.000    9.429    0.000    0.000 
#    0.000    0.000    0.000    0.000    0.000    0.000 
#
# Total GULP energy -156547.957505 kJ/mol
# GULP energy per Si atom -5590.998482 kJ/mol
# Density = 1.946384 g / cm^3
# Si number density = 19.508240 Si / 1000 Ang^3
#
#
#
# Elastic Constant Matrix: (Units=GPa)
#
#
# Indices 1 2 3 4 5 6 
#
# 1 247.7876 33.7348 152.3267 0.0000 0.3139 0.0000
# 2 33.7348 28.0243 31.6129 0.0000 0.7599 0.0000
# 3 152.3267 31.6129 246.7069 0.0000 0.6004 0.0000
# 4 0.0000 0.0000 0.0000 20.1901 0.0000 -3.3705
# 5 0.3139 0.7599 0.6004 0.0000 47.0986 0.0000
# 6 0.0000 0.0000 0.0000 -3.3705 0.0000 14.3332
#
#
#
# Elastic Compliance Matrix: (Units=1/GPa)
#
#
# Indices 1 2 3 4 5 6 
#
# 1 0.006882 -0.004083 -0.003726 0.000000 0.000068 0.000000
# 2 -0.004083 0.044152 -0.003135 0.000000 -0.000645 0.000000
# 3 -0.003726 -0.003135 0.006756 0.000000 -0.000011 0.000000
# 4 0.000000 0.000000 0.000000 0.051553 0.000000 0.012123
# 5 0.000068 -0.000645 -0.000011 0.000000 0.021242 0.000000
# 6 0.000000 0.000000 0.000000 0.012123 0.000000 0.072619
#
#
# Mechanical properties :
#
#
# Convention : Reuss Voigt Hill
#
# Bulk Modulus (GPa) = 27.85379 106.42974 67.14177
# Shear Modulus (GPa) = 21.09165 36.64733 28.86949
#
# Velocity S-wave (km/s) = 3.29168 4.33893 3.85107
# Velocity P-wave (km/s) = 5.36244 8.93177 7.36656
#
# Compressibility (1/GPa) = 0.03590176
#
# Stress axis : x y z
#
# Youngs Moduli (GPa) = 145.30071 22.64881 148.01745
#
# Poissons Ratio (x) = 0.09247 0.55157
# Poissons Ratio (y) = 0.59326 0.46405
# Poissons Ratio (z) = 0.54144 0.07101
#
# Static dielectric constant tensor:
#      x y z
#    x 1.655650 0.000000 0.003990 
#    y 0.000000 1.681570 0.000000 
#    z 0.003990 0.000000 1.640900 
# 
# From -- ./inp_files/275341.got.cif
#   From: 2010.05.17/outbox.cif.g08.bks.cpg/sg12_138_cif.got.tgz:275341.got - 2010.06.03 13:09:07.
