data_PCOD9208181
_publ_section_title
;
Structure prediction by ZEFSAII (Michael W. Deem and Ramdas Pophale) SiO2 
 PCOD9208181
Probable space group: C 2/M
;
_chemical_formula_sum "Si O2"
_cell_formula_units_Z 58
_cell_length_a 23.216684
_cell_length_b 16.493626
_cell_length_c 13.425796
_cell_angle_alpha 90.000000
_cell_angle_beta 37.555007
_cell_angle_gamma 90.000000
_cell_volume 3133.620065
_symmetry_space_group_name_H-M "C 2/M"
_symmetry_group_IT_number 12
_symmetry_cell_setting 'monoclinic'
loop_
_space_group_symop_operation_xyz
x,y,z
-x,y,-z
-x,-y,-z
x,-y,z
1/2+x,1/2+y,z
1/2-x,1/2+y,-z
1/2-x,1/2-y,-z
1/2+x,1/2-y,z
loop_
_atom_site_type_symbol
_atom_site_label
_atom_site_fract_x
_atom_site_fract_y
_atom_site_fract_z
Si Si1 0.307079 0.591888 0.628421
Si Si2 0.182571 0.284965 0.676469
Si Si3 0.500000 0.500000 0.000000
Si Si4 0.884102 0.848003 0.073486
Si Si5 0.000750 0.286742 0.191719
Si Si6 0.499357 0.311746 0.384575
Si Si7 0.670116 0.907036 0.001243
Si Si8 0.817266 0.902049 0.957705
O O1 0.311720 0.500000 0.586294
O O2 0.239395 0.644499 0.652371
O O3 0.411624 0.627545 0.490488
O O4 0.256831 0.593787 0.804691
O O5 0.250000 0.250000 0.500000
O O6 0.160304 0.213691 0.786085
O O7 0.087862 0.315625 0.751345
O O8 0.573913 0.428248 0.935329
O O9 0.967216 0.795886 0.907136
O O10 0.818449 0.873004 0.070288
O O11 0.087991 0.348546 0.075910
O O12 0.980536 0.261528 0.333346
O O13 0.500000 0.288687 0.500000
O O14 0.596185 0.356287 0.217074
O O15 0.636138 0.000000 0.054913
O O16 0.718852 0.881798 0.037988
O O17 0.830869 0.000000 0.933019
#
# Coordination Sequence:
#
# PCOD9208181 Si02
#       8
#     8   8   2   8   8   8   8   8
#     4  11  23  40  63  94 125 162 206 259 309 370
#     4  12  24  44  61  89 128 166 205 255 317 372
#     4  12  20  40  68  96 120 166 206 258 316 372
#     4  11  23  39  65  91 125 159 208 258 311 372
#     4  11  23  41  64  91 122 164 206 261 306 371
#     4  11  22  37  61  94 128 163 202 257 318 370
#     4  10  22  40  66  90 123 163 212 257 308 372
#     4  10  21  37  62  95 126 165 207 258 313 369
#
# _framework density 18.508945000000001
#
# number of rings (size 3 to 8) (size 9 to 14) (size 15 to 20)
#    0.000    1.103    6.207    0.414    0.000    4.414 
#    6.207    1.379    0.000    0.414    0.000    0.000 
#    0.000    0.000    0.000    0.000    0.000    0.000 
#
# Total GULP energy -161629.741856 kJ/mol
# GULP energy per Si atom -5573.439374 kJ/mol
# Density = 1.846682 g / cm^3
# Si number density = 18.508945 Si / 1000 Ang^3
#
#
#
# Elastic Constant Matrix: (Units=GPa)
#
#
# Indices 1 2 3 4 5 6 
#
# 1 105.0873 35.8583 26.8812 0.0000 -4.2692 0.0000
# 2 35.8583 72.6662 17.3996 0.0000 -7.4735 0.0000
# 3 26.8812 17.3996 57.4429 0.0000 9.4852 0.0000
# 4 0.0000 0.0000 0.0000 9.4946 0.0000 -3.1773
# 5 -4.2692 -7.4735 9.4852 0.0000 32.2914 0.0000
# 6 0.0000 0.0000 0.0000 -3.1773 0.0000 21.1720
#
#
#
# Elastic Compliance Matrix: (Units=1/GPa)
#
#
# Indices 1 2 3 4 5 6 
#
# 1 0.012433 -0.004821 -0.004672 0.000000 0.001900 0.000000
# 2 -0.004821 0.017516 -0.003798 0.000000 0.004532 0.000000
# 3 -0.004672 -0.003798 0.022062 0.000000 -0.007977 0.000000
# 4 0.000000 0.000000 0.000000 0.110891 0.000000 0.016641
# 5 0.001900 0.004532 -0.007977 0.000000 0.034611 0.000000
# 6 0.000000 0.000000 0.000000 0.016641 0.000000 0.049730
#
#
# Mechanical properties :
#
#
# Convention : Reuss Voigt Hill
#
# Bulk Modulus (GPa) = 39.32350 43.94162 41.63256
# Shear Modulus (GPa) = 17.71149 22.92876 20.32013
#
# Velocity S-wave (km/s) = 3.09676 3.52347 3.31698
# Velocity P-wave (km/s) = 5.83767 6.35180 6.10015
#
# Compressibility (1/GPa) = 0.02543009
#
# Stress axis : x y z
#
# Youngs Moduli (GPa) = 80.42938 57.08990 45.32614
#
# Poissons Ratio (x) = 0.27525 0.21175
# Poissons Ratio (y) = 0.38778 0.17214
# Poissons Ratio (z) = 0.37574 0.21682
#
# Static dielectric constant tensor:
#      x y z
#    x 1.547160 0.000000 -0.010370 
#    y 0.000000 1.622990 0.000000 
#    z -0.010370 0.000000 1.624830 
# 
# From -- ./inp_files/168955.got.cif
#   From: 2010.05.17/outbox.cif.g08.bks.cpg/sg12_85_cif.got.tgz:168955.got - 2010.06.03 13:09:07.
