data_PCOD9208794
_publ_section_title
;
Structure prediction by ZEFSAII (Michael W. Deem and Ramdas Pophale) SiO2 
 PCOD9208794
Probable space group: C 2/M
;
_chemical_formula_sum "Si O2"
_cell_formula_units_Z 64
_cell_length_a 16.477220
_cell_length_b 18.063752
_cell_length_c 15.764924
_cell_angle_alpha 90.000000
_cell_angle_beta 132.885034
_cell_angle_gamma 90.000000
_cell_volume 3438.129528
_symmetry_space_group_name_H-M "C 2/M"
_symmetry_group_IT_number 12
_symmetry_cell_setting 'monoclinic'
loop_
_space_group_symop_operation_xyz
x,y,z
-x,y,-z
-x,-y,-z
x,-y,z
1/2+x,1/2+y,z
1/2-x,1/2+y,-z
1/2-x,1/2-y,-z
1/2+x,1/2-y,z
loop_
_atom_site_type_symbol
_atom_site_label
_atom_site_fract_x
_atom_site_fract_y
_atom_site_fract_z
Si Si1 0.548753 0.683755 0.123356
Si Si2 0.634606 0.208061 0.930360
Si Si3 0.129298 0.418036 0.614919
Si Si4 0.752615 0.303549 0.740997
Si Si5 0.154344 0.791677 0.483493
Si Si6 0.370767 0.084091 0.932333
Si Si7 0.159016 0.087355 0.345745
Si Si8 0.078149 0.713100 0.702201
O O1 0.451402 0.734405 0.090910
O O2 0.652101 0.740421 0.185347
O O3 0.586913 0.622403 0.217941
O O4 0.500000 0.654052 0.000000
O O5 0.585393 0.187769 0.803885
O O6 0.750000 0.250000 0.000000
O O7 0.646405 0.138188 0.000252
O O8 0.161452 0.500000 0.671133
O O9 0.213281 0.403318 0.596746
O O10 0.129990 0.351518 0.681520
O O11 0.000000 0.421799 0.500000
O O12 0.699104 0.305217 0.609869
O O13 0.806178 0.380219 0.807513
O O14 0.657855 0.282287 0.740586
O O15 0.250000 0.750000 0.500000
O O16 0.135095 0.865463 0.413459
O O17 0.044861 0.740373 0.408529
O O18 0.337611 0.000000 0.926143
O O19 0.500000 0.085741 0.000000
O O20 0.139594 0.000000 0.343099
#
# Coordination Sequence:
#
# PCOD9208794 Si02
#       8
#     8   8   8   8   8   8   8   8
#     4  12  21  41  66  89 122 166 216 257 308 377
#     4  12  22  39  66  94 120 166 207 259 310 372
#     4  10  21  38  59  89 130 162 196 257 317 365
#     4  12  21  40  65  92 123 168 212 255 313 377
#     4  12  23  38  64  94 126 169 214 257 307 383
#     4  11  24  43  65  95 129 164 212 270 324 373
#     4  11  24  42  63  95 131 165 208 263 318 374
#     4  12  22  37  65  96 123 159 218 258 306 378
#
# _framework density 18.614771999999999
#
# number of rings (size 3 to 8) (size 9 to 14) (size 15 to 20)
#    0.000    0.500    7.500    1.875    0.000    1.250 
#    0.000    2.500    0.000    1.500    0.000    0.000 
#    0.000    0.000    0.000    0.000    0.000    0.000 
#
# Total GULP energy -178714.799960 kJ/mol
# GULP energy per Si atom -5584.837499 kJ/mol
# Density = 1.857240 g / cm^3
# Si number density = 18.614772 Si / 1000 Ang^3
#
#
#
# Elastic Constant Matrix: (Units=GPa)
#
#
# Indices 1 2 3 4 5 6 
#
# 1 69.0789 28.2396 29.6828 0.0000 6.4110 0.0000
# 2 28.2396 118.7663 41.1842 0.0000 -3.0649 0.0000
# 3 29.6828 41.1842 123.7482 0.0000 -12.4298 0.0000
# 4 0.0000 0.0000 0.0000 28.2518 0.0000 -18.7579
# 5 6.4110 -3.0649 -12.4298 0.0000 39.3244 0.0000
# 6 0.0000 0.0000 0.0000 -18.7579 0.0000 108.7301
#
#
#
# Elastic Compliance Matrix: (Units=1/GPa)
#
#
# Indices 1 2 3 4 5 6 
#
# 1 0.017692 -0.003048 -0.003659 0.000000 -0.004278 0.000000
# 2 -0.003048 0.010046 -0.002565 0.000000 0.000469 0.000000
# 3 -0.003659 -0.002565 0.010175 0.000000 0.003613 0.000000
# 4 0.000000 0.000000 0.000000 0.039975 0.000000 0.006896
# 5 -0.004278 0.000469 0.003613 0.000000 0.027305 0.000000
# 6 0.000000 0.000000 0.000000 0.006896 0.000000 0.010387
#
#
# Mechanical properties :
#
#
# Convention : Reuss Voigt Hill
#
# Bulk Modulus (GPa) = 51.63026 56.64517 54.13771
# Shear Modulus (GPa) = 35.56670 49.42705 42.49688
#
# Velocity S-wave (km/s) = 4.37586 5.15851 4.78322
# Velocity P-wave (km/s) = 7.30255 8.12260 7.72347
#
# Compressibility (1/GPa) = 0.01936849
#
# Stress axis : x y z
#
# Youngs Moduli (GPa) = 56.52416 99.53886 98.27869
#
# Poissons Ratio (x) = 0.30342 0.35958
# Poissons Ratio (y) = 0.17230 0.25210
# Poissons Ratio (z) = 0.20681 0.25534
#
# Static dielectric constant tensor:
#      x y z
#    x 1.741190 0.000000 0.045490 
#    y 0.000000 1.722190 0.000000 
#    z 0.045490 0.000000 1.700760 
# 
# From -- ./inp_files/216835.got.cif
#   From: 2010.05.17/outbox.cif.g08.bks.cpg/sg12_109_cif.got.tgz:216835.got - 2010.06.03 13:09:07.
