data_PCOD9208118
_publ_section_title
;
Structure prediction by ZEFSAII (Michael W. Deem and Ramdas Pophale) SiO2 
 PCOD9208118
Probable space group: C 2/M
;
_chemical_formula_sum "Si O2"
_cell_formula_units_Z 48
_cell_length_a 15.344195
_cell_length_b 31.180269
_cell_length_c 5.920261
_cell_angle_alpha 90.000000
_cell_angle_beta 118.423222
_cell_angle_gamma 90.000000
_cell_volume 2491.029111
_symmetry_space_group_name_H-M "C 2/M"
_symmetry_group_IT_number 12
_symmetry_cell_setting 'monoclinic'
loop_
_space_group_symop_operation_xyz
x,y,z
-x,y,-z
-x,-y,-z
x,-y,z
1/2+x,1/2+y,z
1/2-x,1/2+y,-z
1/2-x,1/2-y,-z
1/2+x,1/2-y,z
loop_
_atom_site_type_symbol
_atom_site_label
_atom_site_fract_x
_atom_site_fract_y
_atom_site_fract_z
Si Si1 0.679637 0.686985 0.344230
Si Si2 0.896903 0.883825 0.481820
Si Si3 0.618830 0.550715 0.181713
Si Si4 0.820180 0.270165 0.895510
Si Si5 0.248676 0.117956 0.082490
Si Si6 0.552338 0.149038 0.815264
O O1 0.596353 0.654778 0.333102
O O2 0.752679 0.705910 0.625085
O O3 0.634785 0.728034 0.165723
O O4 0.744495 0.655131 0.266439
O O5 0.857401 0.926556 0.551799
O O6 0.000000 0.894227 0.500000
O O7 0.821886 0.866929 0.204484
O O8 0.632411 0.500000 0.192612
O O9 0.692381 0.575660 0.103554
O O10 0.500000 0.559357 0.000000
O O11 0.750000 0.250000 0.000000
O O12 0.897405 0.304248 0.087379
O O13 0.358105 0.115271 0.116278
O O14 0.500000 0.149462 0.500000
O O15 0.500000 0.140651 0.000000
#
# Coordination Sequence:
#
# PCOD9208118 Si02
#       6
#     8   8   8   8   8   8
#     4  10  21  37  62  84 130 170 218 270 337 390
#     4  11  21  37  61  94 128 173 212 257 340 418
#     4  10  22  39  66 103 135 163 205 264 341 426
#     4  11  21  41  61  86 124 171 218 294 335 380
#     4  11  22  43  64  89 134 175 214 274 332 400
#     4  12  27  45  67  97 130 183 243 281 329 390
#
# _framework density 19.269144000000001
#
# number of rings (size 3 to 8) (size 9 to 14) (size 15 to 20)
#    0.000    1.167    5.000    1.000    4.667    1.000 
#    6.000    0.000    0.000    1.000    0.000    0.000 
#    0.000    0.000    0.000    0.000    0.000    0.000 
#
# Total GULP energy -133707.819181 kJ/mol
# GULP energy per Si atom -5571.159133 kJ/mol
# Density = 1.922529 g / cm^3
# Si number density = 19.269144 Si / 1000 Ang^3
#
#
#
# Elastic Constant Matrix: (Units=GPa)
#
#
# Indices 1 2 3 4 5 6 
#
# 1 125.3828 57.1221 39.4374 0.0000 -20.1270 0.0000
# 2 57.1221 129.2820 24.9464 0.0000 -14.9713 0.0000
# 3 39.4374 24.9464 91.7058 0.0000 -9.8375 0.0000
# 4 0.0000 0.0000 0.0000 8.7391 0.0000 -0.4819
# 5 -20.1270 -14.9713 -9.8375 0.0000 26.5629 0.0000
# 6 0.0000 0.0000 0.0000 -0.4819 0.0000 26.4276
#
#
#
# Elastic Compliance Matrix: (Units=1/GPa)
#
#
# Indices 1 2 3 4 5 6 
#
# 1 0.011676 -0.003879 -0.003386 0.000000 0.005406 0.000000
# 2 -0.003879 0.009868 -0.000765 0.000000 0.002339 0.000000
# 3 -0.003386 -0.000765 0.012754 0.000000 0.001727 0.000000
# 4 0.000000 0.000000 0.000000 0.114543 0.000000 0.002089
# 5 0.005406 0.002339 0.001727 0.000000 0.043701 0.000000
# 6 0.000000 0.000000 0.000000 0.002089 0.000000 0.037877
#
#
# Mechanical properties :
#
#
# Convention : Reuss Voigt Hill
#
# Bulk Modulus (GPa) = 54.83478 65.48695 60.16086
# Shear Modulus (GPa) = 19.79744 27.33690 23.56717
#
# Velocity S-wave (km/s) = 3.20881 3.77063 3.50101
# Velocity P-wave (km/s) = 6.49982 7.28121 6.90159
#
# Compressibility (1/GPa) = 0.01823660
#
# Stress axis : x y z
#
# Youngs Moduli (GPa) = 85.64722 101.34199 78.40790
#
# Poissons Ratio (x) = 0.39315 0.26548
# Poissons Ratio (y) = 0.33226 0.05999
# Poissons Ratio (z) = 0.28999 0.07753
#
# Static dielectric constant tensor:
#      x y z
#    x 1.812540 0.000000 -0.161500 
#    y 0.000000 1.655280 0.000000 
#    z -0.161500 0.000000 1.905750 
# 
# From -- ./inp_files/12772.got.cif
#   From: 2010.05.17/outbox.cif.g08.bks.cpg/sg12_7_cif.got.tgz:12772.got - 2010.06.03 13:09:07.
