data_PCOD9208076
_publ_section_title
;
Structure prediction by ZEFSAII (Michael W. Deem and Ramdas Pophale) SiO2 
 PCOD9208076
Probable space group: C 2/M
;
_chemical_formula_sum "Si O2"
_cell_formula_units_Z 56
_cell_length_a 9.076448
_cell_length_b 27.715257
_cell_length_c 21.675185
_cell_angle_alpha 90.000000
_cell_angle_beta 151.317578
_cell_angle_gamma 90.000000
_cell_volume 2616.963098
_symmetry_space_group_name_H-M "C 2/M"
_symmetry_group_IT_number 12
_symmetry_cell_setting 'monoclinic'
loop_
_space_group_symop_operation_xyz
x,y,z
-x,y,-z
-x,-y,-z
x,-y,z
1/2+x,1/2+y,z
1/2-x,1/2+y,-z
1/2-x,1/2-y,-z
1/2+x,1/2-y,z
loop_
_atom_site_type_symbol
_atom_site_label
_atom_site_fract_x
_atom_site_fract_y
_atom_site_fract_z
Si Si1 0.817734 0.944605 0.152659
Si Si2 0.868614 0.862355 0.271527
Si Si3 0.236573 0.396599 0.358201
Si Si4 0.825818 0.153713 0.997811
Si Si5 0.610984 0.554211 0.132946
Si Si6 0.148519 0.694883 0.737352
Si Si7 0.256839 0.725282 0.640051
O O1 0.881552 0.907812 0.230504
O O2 0.074621 0.942341 0.193759
O O3 0.789845 0.000000 0.163851
O O4 0.500000 0.932552 0.000000
O O5 0.877329 0.878612 0.345537
O O6 0.123360 0.823946 0.346526
O O7 0.533430 0.838448 0.138040
O O8 0.500000 0.415402 0.500000
O O9 0.958971 0.433434 0.243009
O O10 0.065952 0.351324 0.328361
O O11 0.891989 0.096111 0.026677
O O12 0.005432 0.178254 0.119989
O O13 0.000000 0.169887 0.000000
O O14 0.520670 0.500000 0.082140
O O15 0.134219 0.714467 0.662870
O O16 0.031561 0.736394 0.740137
O O17 0.000000 0.746286 0.500000
#
# Coordination Sequence:
#
# PCOD9208076 Si02
#       7
#     8   8   8   8   8   8   8
#     4  10  21  37  61  92 127 162 202 251 311 377
#     4  12  23  39  66  96 125 163 207 258 314 370
#     4  11  23  42  64  88 126 168 210 259 305 367
#     4  11  22  41  61  96 132 158 203 259 319 373
#     4  10  21  38  62  91 127 167 206 256 311 368
#     4  11  24  43  66  91 125 164 205 258 310 368
#     4  12  26  44  67  93 124 168 213 251 301 372
#
# _framework density 21.398848999999998
#
# number of rings (size 3 to 8) (size 9 to 14) (size 15 to 20)
#    0.000    1.000    4.286    4.286    0.000    1.714 
#    0.000    0.000    0.000    2.143    0.000    0.000 
#    0.000    0.000    0.000    0.000    0.000    0.000 
#
# Total GULP energy -156645.656823 kJ/mol
# GULP energy per Si atom -5594.487744 kJ/mol
# Density = 2.135014 g / cm^3
# Si number density = 21.398849 Si / 1000 Ang^3
#
#
#
# Elastic Constant Matrix: (Units=GPa)
#
#
# Indices 1 2 3 4 5 6 
#
# 1 87.9628 11.4213 -4.2752 -0.0035 -6.9177 0.0058
# 2 11.4213 57.8745 3.9441 -0.0045 0.3879 0.0012
# 3 -4.2752 3.9441 52.2344 0.0028 -5.5617 0.0030
# 4 -0.0035 -0.0045 0.0028 15.5696 -0.0031 -0.2199
# 5 -6.9177 0.3879 -5.5617 -0.0031 25.4327 0.0069
# 6 0.0058 0.0012 0.0030 -0.2199 0.0069 18.4494
#
#
#
# Elastic Compliance Matrix: (Units=1/GPa)
#
#
# Indices 1 2 3 4 5 6 
#
# 1 0.012058 -0.002511 0.001566 0.000002 0.003661 -0.000005
# 2 -0.002511 0.017899 -0.001698 0.000005 -0.001327 0.000000
# 3 0.001566 -0.001698 0.019913 -0.000003 0.004807 -0.000005
# 4 0.000002 0.000005 -0.000003 0.064239 0.000008 0.000766
# 5 0.003661 -0.001327 0.004807 0.000008 0.041386 -0.000017
# 6 -0.000005 0.000000 -0.000005 0.000766 -0.000017 0.054212
#
#
# Mechanical properties :
#
#
# Convention : Reuss Voigt Hill
#
# Bulk Modulus (GPa) = 22.42953 24.47246 23.45100
# Shear Modulus (GPa) = 21.75294 24.35578 23.05436
#
# Velocity S-wave (km/s) = 3.19179 3.37735 3.28588
# Velocity P-wave (km/s) = 4.90793 5.16429 5.03774
#
# Compressibility (1/GPa) = 0.04458408
#
# Stress axis : x y z
#
# Youngs Moduli (GPa) = 82.92907 55.86924 50.21927
#
# Poissons Ratio (x) = 0.14029 -0.07866
# Poissons Ratio (y) = 0.20823 0.08529
# Poissons Ratio (z) = -0.12989 0.09489
#
# Static dielectric constant tensor:
#      x y z
#    x 1.787930 0.000000 -0.001880 
#    y 0.000000 1.769970 0.000000 
#    z -0.001880 0.000000 1.759380 
# 
# From -- ./inp_files/303072.got.cif
#   From: 2010.05.17/outbox.cif.g08.bks.cpg/sg12_152_cif.got.tgz:303072.got - 2010.06.03 13:09:07.
