data_PCOD9208951
_publ_section_title
;
Structure prediction by ZEFSAII (Michael W. Deem and Ramdas Pophale) SiO2 
 PCOD9208951
Probable space group: C 2/M
;
_chemical_formula_sum "Si O2"
_cell_formula_units_Z 56
_cell_length_a 30.072182
_cell_length_b 7.844559
_cell_length_c 12.956601
_cell_angle_alpha 90.000000
_cell_angle_beta 122.234317
_cell_angle_gamma 90.000000
_cell_volume 2585.414375
_symmetry_space_group_name_H-M "C 2/M"
_symmetry_group_IT_number 12
_symmetry_cell_setting 'monoclinic'
loop_
_space_group_symop_operation_xyz
x,y,z
-x,y,-z
-x,-y,-z
x,-y,z
1/2+x,1/2+y,z
1/2-x,1/2+y,-z
1/2-x,1/2-y,-z
1/2+x,1/2-y,z
loop_
_atom_site_type_symbol
_atom_site_label
_atom_site_fract_x
_atom_site_fract_y
_atom_site_fract_z
Si Si1 0.947942 0.294680 0.494159
Si Si2 0.856935 0.709456 0.229014
Si Si3 0.785140 0.795357 0.445139
Si Si4 0.753869 0.198648 0.826485
Si Si5 0.870214 0.301011 0.019147
Si Si6 0.440637 0.795609 0.919843
Si Si7 0.598456 0.702308 0.354255
O O1 0.948411 0.500000 0.489509
O O2 0.896160 0.235004 0.368130
O O3 0.942833 0.247174 0.607349
O O4 0.000000 0.232614 0.500000
O O5 0.855997 0.500000 0.228706
O O6 0.797115 0.765120 0.175154
O O7 0.877184 0.769862 0.142902
O O8 0.750000 0.750000 0.500000
O O9 0.761229 0.716575 0.312189
O O10 0.844377 0.731579 0.539299
O O11 0.785903 0.000000 0.432842
O O12 0.808561 0.288954 0.916924
O O13 0.761189 0.000000 0.860979
O O14 0.884523 0.500000 0.044624
O O15 0.904260 0.226663 0.967555
O O16 0.416941 0.764179 0.777834
O O17 0.442971 0.000000 0.934815
O O18 0.500000 0.728162 0.000000
O O19 0.602657 0.500000 0.353598
#
# Coordination Sequence:
#
# PCOD9208951 Si02
#       7
#     8   8   8   8   8   8   8
#     4  10  21  38  66  94 119 155 201 250 297 353
#     4   9  19  36  59  90 121 153 195 245 296 350
#     4  11  23  38  59  87 120 159 200 245 297 355
#     4  11  21  36  58  87 122 157 197 243 298 360
#     4  10  21  38  60  87 121 157 200 250 298 352
#     4  10  23  41  64  89 115 154 205 252 292 347
#     4  11  24  41  61  88 125 159 194 245 304 362
#
# _framework density 21.659972
#
# number of rings (size 3 to 8) (size 9 to 14) (size 15 to 20)
#    0.000    1.714    1.429    2.571    2.000    5.143 
#    0.000    1.429    0.000    0.000    0.000    0.000 
#    0.000    0.000    0.000    0.000    0.000    0.000 
#
# Total GULP energy -156526.556598 kJ/mol
# GULP energy per Si atom -5590.234164 kJ/mol
# Density = 2.161067 g / cm^3
# Si number density = 21.659972 Si / 1000 Ang^3
#
#
#
# Elastic Constant Matrix: (Units=GPa)
#
#
# Indices 1 2 3 4 5 6 
#
# 1 137.0177 0.3069 30.3817 0.0000 -32.6318 0.0000
# 2 0.3069 28.5439 -9.6013 0.0000 0.4718 0.0000
# 3 30.3817 -9.6013 87.1289 0.0000 -29.7458 0.0000
# 4 0.0000 0.0000 0.0000 3.6830 0.0000 0.6158
# 5 -32.6318 0.4718 -29.7458 0.0000 40.1134 0.0000
# 6 0.0000 0.0000 0.0000 0.6158 0.0000 -13.4210
#
#
#
# Elastic Compliance Matrix: (Units=1/GPa)
#
#
# Indices 1 2 3 4 5 6 
#
# 1 0.009108 -0.000525 -0.000940 0.000000 0.006718 0.000000
# 2 -0.000525 0.036764 0.005277 0.000000 0.003053 0.000000
# 3 -0.000940 0.005277 0.016207 0.000000 0.011192 0.000000
# 4 0.000000 0.000000 0.000000 0.269454 0.000000 0.012362
# 5 0.006718 0.003053 0.011192 0.000000 0.038658 0.000000
# 6 0.000000 0.000000 0.000000 0.012362 0.000000 -0.073943
#
#
# Mechanical properties :
#
#
# Convention : Reuss Voigt Hill
#
# Bulk Modulus (GPa) = 14.34680 32.76278 23.55479
# Shear Modulus (GPa) = 16.03286 21.51528 18.77407
#
# Velocity S-wave (km/s) = 2.72363 3.15512 2.94728
# Velocity P-wave (km/s) = 4.06557 5.33215 4.74134
#
# Compressibility (1/GPa) = 0.06970195
#
# Stress axis : x y z
#
# Youngs Moduli (GPa) = 109.79385 27.20059 61.70029
#
# Poissons Ratio (x) = 0.01429 0.05801
# Poissons Ratio (y) = 0.05767 -0.32558
# Poissons Ratio (z) = 0.10323 -0.14353
#
# Static dielectric constant tensor:
#      x y z
#    x 1.793910 0.000000 -0.003060 
#    y 0.000000 1.794410 0.000000 
#    z -0.003060 0.000000 1.752440 
# 
# From -- ./inp_files/180737.got.cif
#   From: 2010.05.17/outbox.cif.g08.bks.cpg/sg12_91_cif.got.tgz:180737.got - 2010.06.03 13:09:07.
