data_PCOD9208142
_publ_section_title
;
Structure prediction by ZEFSAII (Michael W. Deem and Ramdas Pophale) SiO2 
 PCOD9208142
Probable space group: C 2/M
;
_chemical_formula_sum "Si O2"
_cell_formula_units_Z 48
_cell_length_a 8.407871
_cell_length_b 28.436368
_cell_length_c 10.078184
_cell_angle_alpha 90.000000
_cell_angle_beta 95.776968
_cell_angle_gamma 90.000000
_cell_volume 2397.348416
_symmetry_space_group_name_H-M "C 2/M"
_symmetry_group_IT_number 12
_symmetry_cell_setting 'monoclinic'
loop_
_space_group_symop_operation_xyz
x,y,z
-x,y,-z
-x,-y,-z
x,-y,z
1/2+x,1/2+y,z
1/2-x,1/2+y,-z
1/2-x,1/2-y,-z
1/2+x,1/2-y,z
loop_
_atom_site_type_symbol
_atom_site_label
_atom_site_fract_x
_atom_site_fract_y
_atom_site_fract_z
Si Si1 0.849265 0.447243 0.085360
Si Si2 0.157047 0.448928 0.604859
Si Si3 0.689555 0.348687 0.037853
Si Si4 0.689330 0.853485 0.491259
Si Si5 0.357928 0.708652 0.710923
Si Si6 0.735339 0.310710 0.762842
O O1 0.780941 0.500000 0.058680
O O2 0.891849 0.444226 0.245322
O O3 0.736255 0.403072 0.050320
O O4 0.000000 0.443056 0.000000
O O5 0.239227 0.500000 0.597418
O O6 0.246256 0.402222 0.563396
O O7 0.000000 0.450148 0.500000
O O8 0.770569 0.325295 0.916436
O O9 0.500000 0.344909 0.000000
O O10 0.724776 0.320497 0.175739
O O11 0.500000 0.848286 0.500000
O O12 0.782663 0.811110 0.569728
O O13 0.719018 0.851093 0.337427
O O14 0.546407 0.698873 0.731914
O O15 0.326427 0.763375 0.730546
#
# Coordination Sequence:
#
# PCOD9208142 Si02
#       6
#     8   8   8   8   8   8
#     4  10  21  37  62  91 118 152 196 243 287 343
#     4   9  19  36  59  87 119 150 189 239 290 339
#     4  10  23  40  59  86 119 156 191 239 295 346
#     4  11  22  37  60  89 115 155 193 237 292 342
#     4  11  22  42  59  85 116 155 194 244 289 348
#     4  11  24  38  61  84 118 152 197 241 290 345
#
# _framework density 20.022120999999999
#
# number of rings (size 3 to 8) (size 9 to 14) (size 15 to 20)
#    0.000    1.667    1.667    2.500    4.667    1.667 
#    0.000    0.000    0.000    3.000    0.000    0.000 
#    0.000    0.000    0.000    0.000    0.000    0.000 
#
# Total GULP energy -134010.260131 kJ/mol
# GULP energy per Si atom -5583.760839 kJ/mol
# Density = 1.997655 g / cm^3
# Si number density = 20.022121 Si / 1000 Ang^3
#
#
#
# Elastic Constant Matrix: (Units=GPa)
#
#
# Indices 1 2 3 4 5 6 
#
# 1 26.5547 -3.2325 2.8613 0.0000 -8.1619 0.0000
# 2 -3.2325 93.1937 13.0021 0.0000 -14.3668 0.0000
# 3 2.8613 13.0021 71.7907 0.0000 -21.3493 0.0000
# 4 0.0000 0.0000 0.0000 -77.4568 0.0000 50.7495
# 5 -8.1619 -14.3668 -21.3493 0.0000 27.3004 0.0000
# 6 0.0000 0.0000 0.0000 50.7495 0.0000 -30.7123
#
#
#
# Elastic Compliance Matrix: (Units=1/GPa)
#
#
# Indices 1 2 3 4 5 6 
#
# 1 0.043016 0.003727 0.002630 0.000000 0.016878 0.000000
# 2 0.003727 0.012008 -0.000147 0.000000 0.007319 0.000000
# 3 0.002630 -0.000147 0.018323 0.000000 0.015038 0.000000
# 4 0.000000 0.000000 0.000000 0.156184 0.000000 0.258081
# 5 0.016878 0.007319 0.015038 0.000000 0.057287 0.000000
# 6 0.000000 0.000000 0.000000 0.258081 0.000000 0.393898
#
#
# Mechanical properties :
#
#
# Convention : Reuss Voigt Hill
#
# Bulk Modulus (GPa) = 11.65940 24.08899 17.87420
# Shear Modulus (GPa) = 7.17478 -4.24651 1.46414
#
# Velocity S-wave (km/s) = 1.89505 -1.45791 0.85606
# Velocity P-wave (km/s) = 3.25948 3.03699 3.15020
#
# Compressibility (1/GPa) = 0.08576771
#
# Stress axis : x y z
#
# Youngs Moduli (GPa) = 23.24705 83.27516 54.57577
#
# Poissons Ratio (x) = -0.31037 -0.14352
# Poissons Ratio (y) = -0.08664 0.00802
# Poissons Ratio (z) = -0.06114 0.01224
#
# Static dielectric constant tensor:
#      x y z
#    x 1.670590 0.000000 -0.014100 
#    y 0.000000 1.739760 0.000000 
#    z -0.014100 0.000000 1.705310 
# 
# From -- ./inp_files/42146.got.cif
#   From: 2010.05.17/outbox.cif.g08.bks.cpg/sg12_22_cif.got.tgz:42146.got - 2010.06.03 13:09:07.
