data_PCOD9208303
_publ_section_title
;
Structure prediction by ZEFSAII (Michael W. Deem and Ramdas Pophale) SiO2 
 PCOD9208303
Probable space group: C 2/M
;
_chemical_formula_sum "Si O2"
_cell_formula_units_Z 44
_cell_length_a 18.499668
_cell_length_b 13.926148
_cell_length_c 17.896041
_cell_angle_alpha 90.000000
_cell_angle_beta 155.410654
_cell_angle_gamma 90.000000
_cell_volume 1918.500204
_symmetry_space_group_name_H-M "C 2/M"
_symmetry_group_IT_number 12
_symmetry_cell_setting 'monoclinic'
loop_
_space_group_symop_operation_xyz
x,y,z
-x,y,-z
-x,-y,-z
x,-y,z
1/2+x,1/2+y,z
1/2-x,1/2+y,-z
1/2-x,1/2-y,-z
1/2+x,1/2-y,z
loop_
_atom_site_type_symbol
_atom_site_label
_atom_site_fract_x
_atom_site_fract_y
_atom_site_fract_z
Si Si1 0.974144 0.799232 0.628998
Si Si2 0.642123 0.893608 0.258046
Si Si3 0.500000 0.209721 0.500000
Si Si4 0.105770 0.888274 0.898656
Si Si5 0.624253 0.684021 0.183646
Si Si6 0.500809 0.892888 0.718009
O O1 0.824547 0.876152 0.472512
O O2 0.049920 0.774198 0.618983
O O3 0.093800 0.834448 0.808412
O O4 0.900191 0.696904 0.589173
O O5 0.625398 0.800835 0.190518
O O6 0.506776 0.889168 0.199199
O O7 0.636328 0.000000 0.218431
O O8 0.323986 0.154589 0.356466
O O9 0.962330 0.851222 0.821328
O O10 0.077647 0.000000 0.857759
O O11 0.297792 0.878609 0.114224
O O12 0.500000 0.652336 0.000000
O O13 0.442850 0.000000 0.641276
#
# Coordination Sequence:
#
# PCOD9208303 Si02
#       6
#     8   8   4   8   8   8
#     4  11  21  43  64  93 131 173 216 269 337 388
#     4  10  22  39  63  98 130 167 221 274 324 392
#     4  10  26  40  66 100 128 174 222 274 330 394
#     4  11  24  41  69  99 129 176 225 271 327 397
#     4  11  24  44  66  96 137 179 218 275 337 391
#     4  10  21  37  65 100 127 165 223 276 323 392
#
# _framework density 22.934581999999999
#
# number of rings (size 3 to 8) (size 9 to 14) (size 15 to 20)
#    0.000    1.455    1.818    2.727    5.091    0.727 
#    0.000   13.182    0.000    0.000    0.000    0.000 
#    0.000    0.000    0.000    0.000    0.000    0.000 
#
# Total GULP energy -122893.385048 kJ/mol
# GULP energy per Si atom -5586.062957 kJ/mol
# Density = 2.288238 g / cm^3
# Si number density = 22.934582 Si / 1000 Ang^3
#
#
#
# Elastic Constant Matrix: (Units=GPa)
#
#
# Indices 1 2 3 4 5 6 
#
# 1 84.0530 -0.4025 13.4879 0.0013 0.8840 0.0008
# 2 -0.4025 94.5765 -4.6805 0.0018 -5.1081 0.0014
# 3 13.4879 -4.6805 43.9629 0.0010 6.1220 0.0010
# 4 0.0013 0.0018 0.0010 17.7708 0.0007 -1.6408
# 5 0.8840 -5.1081 6.1220 0.0007 46.4518 0.0005
# 6 0.0008 0.0014 0.0010 -1.6408 0.0005 -2.8789
#
#
#
# Elastic Compliance Matrix: (Units=1/GPa)
#
#
# Indices 1 2 3 4 5 6 
#
# 1 0.012518 -0.000125 -0.003890 0.000000 0.000261 0.000003
# 2 -0.000125 0.010680 0.001030 -0.000001 0.001041 0.000006
# 3 -0.003890 0.001030 0.024473 0.000000 -0.003038 0.000008
# 4 0.000000 -0.000001 0.000000 0.053459 -0.000001 -0.030468
# 5 0.000261 0.001041 -0.003038 -0.000001 0.022038 0.000003
# 6 0.000003 0.000006 0.000008 -0.030468 0.000003 -0.329987
#
#
# Mechanical properties :
#
#
# Convention : Reuss Voigt Hill
#
# Bulk Modulus (GPa) = 23.98011 26.60025 25.29018
# Shear Modulus (GPa) = -26.74524 26.54790 -0.09867
#
# Velocity S-wave (km/s) = -3.41860 3.40597 -0.20764
# Velocity P-wave (km/s) = 2.25918 5.20490 3.31565
#
# Compressibility (1/GPa) = 0.04170122
#
# Stress axis : x y z
#
# Youngs Moduli (GPa) = 79.88384 93.63169 40.86182
#
# Poissons Ratio (x) = 0.01172 0.15896
# Poissons Ratio (y) = 0.01000 -0.04211
# Poissons Ratio (z) = 0.31077 -0.09649
#
# Static dielectric constant tensor:
#      x y z
#    x 1.866620 0.000000 0.013340 
#    y 0.000000 1.851170 0.000000 
#    z 0.013340 0.000000 1.894860 
# 
# From -- ./inp_files/277920.got.cif
#   From: 2010.05.17/outbox.cif.g08.bks.cpg/sg12_139_cif.got.tgz:277920.got - 2010.06.03 13:09:07.
