data_PCOD9208119
_publ_section_title
;
Structure prediction by ZEFSAII (Michael W. Deem and Ramdas Pophale) SiO2 
 PCOD9208119
Probable space group: C 2/M
;
_chemical_formula_sum "Si O2"
_cell_formula_units_Z 56
_cell_length_a 19.903920
_cell_length_b 16.995074
_cell_length_c 14.318572
_cell_angle_alpha 90.000000
_cell_angle_beta 37.296136
_cell_angle_gamma 90.000000
_cell_volume 2934.859037
_symmetry_space_group_name_H-M "C 2/M"
_symmetry_group_IT_number 12
_symmetry_cell_setting 'monoclinic'
loop_
_space_group_symop_operation_xyz
x,y,z
-x,y,-z
-x,-y,-z
x,-y,z
1/2+x,1/2+y,z
1/2-x,1/2+y,-z
1/2-x,1/2-y,-z
1/2+x,1/2-y,z
loop_
_atom_site_type_symbol
_atom_site_label
_atom_site_fract_x
_atom_site_fract_y
_atom_site_fract_z
Si Si1 0.414331 0.092325 0.285403
Si Si2 0.876647 0.841486 0.879220
Si Si3 0.784991 0.673577 0.262813
Si Si4 0.020860 0.092219 0.871178
Si Si5 0.241657 0.816190 0.589004
Si Si6 0.948813 0.090095 0.453165
Si Si7 0.651748 0.162117 0.024044
O O1 0.376227 0.140697 0.234895
O O2 0.340144 0.124563 0.453564
O O3 0.543025 0.110296 0.160027
O O4 0.394736 0.000000 0.292582
O O5 0.873153 0.750719 0.913814
O O6 0.913041 0.891141 0.928662
O O7 0.972820 0.857178 0.697673
O O8 0.760274 0.864530 0.961126
O O9 0.757169 0.764496 0.318108
O O10 0.674565 0.623523 0.405323
O O11 0.820689 0.663837 0.116603
O O12 0.124973 0.139112 0.714437
O O13 0.046725 0.000000 0.843459
O O14 0.000000 0.118975 0.000000
O O15 0.250000 0.750000 0.500000
O O16 0.000000 0.089944 0.500000
O O17 0.948601 0.000000 0.417922
#
# Coordination Sequence:
#
# PCOD9208119 Si02
#       7
#     8   8   8   8   8   8   8
#     4  11  23  38  58  87 126 165 199 240 299 365
#     4  11  22  41  60  87 122 158 200 251 299 358
#     4  11  21  39  61  89 118 159 204 251 294 353
#     4  11  23  40  65  92 116 151 202 259 308 347
#     4  10  21  37  62  85 115 155 200 246 291 347
#     4  11  22  37  60  90 123 155 195 248 302 353
#     4  11  24  38  59  88 121 160 203 241 299 361
#
# _framework density 19.080984999999998
#
# number of rings (size 3 to 8) (size 9 to 14) (size 15 to 20)
#    0.000    1.143    1.429    6.857    0.000    2.857 
#    0.000    0.000    0.000    0.000    0.000    7.000 
#    0.000    0.000    0.000    0.000    0.000    0.000 
#
# Total GULP energy -156487.046024 kJ/mol
# GULP energy per Si atom -5588.823072 kJ/mol
# Density = 1.903756 g / cm^3
# Si number density = 19.080985 Si / 1000 Ang^3
#
#
#
# Elastic Constant Matrix: (Units=GPa)
#
#
# Indices 1 2 3 4 5 6 
#
# 1 80.7114 24.5008 52.9042 0.0000 -0.8709 0.0000
# 2 24.5008 68.9826 55.3113 0.0000 0.2453 0.0000
# 3 52.9042 55.3113 126.1525 0.0000 -8.7387 0.0000
# 4 0.0000 0.0000 0.0000 -18.4113 0.0000 26.9585
# 5 -0.8709 0.2453 -8.7387 0.0000 25.2476 0.0000
# 6 0.0000 0.0000 0.0000 26.9585 0.0000 -14.7832
#
#
#
# Elastic Compliance Matrix: (Units=1/GPa)
#
#
# Indices 1 2 3 4 5 6 
#
# 1 0.017184 -0.000329 -0.007194 0.000000 -0.001894 0.000000
# 2 -0.000329 0.022704 -0.010074 0.000000 -0.003719 0.000000
# 3 -0.007194 -0.010074 0.015727 0.000000 0.005293 0.000000
# 4 0.000000 0.000000 0.000000 0.032520 0.000000 0.059304
# 5 -0.001894 -0.003719 0.005293 0.000000 0.041411 0.000000
# 6 0.000000 0.000000 0.000000 0.059304 0.000000 0.040501
#
#
# Mechanical properties :
#
#
# Convention : Reuss Voigt Hill
#
# Bulk Modulus (GPa) = 48.96546 60.14214 54.55380
# Shear Modulus (GPa) = 23.57945 7.95264 15.76604
#
# Velocity S-wave (km/s) = 3.51915 2.04374 2.87761
# Velocity P-wave (km/s) = 6.49847 6.09566 6.30028
#
# Compressibility (1/GPa) = 0.02042256
#
# Stress axis : x y z
#
# Youngs Moduli (GPa) = 58.19229 44.04483 63.58323
#
# Poissons Ratio (x) = 0.01448 0.45739
# Poissons Ratio (y) = 0.01913 0.64056
# Poissons Ratio (z) = 0.41861 0.44372
#
# Static dielectric constant tensor:
#      x y z
#    x 1.678170 0.000000 0.012570 
#    y 0.000000 1.661700 0.000000 
#    z 0.012570 0.000000 1.653940 
# 
# From -- ./inp_files/234635.got.cif
#   From: 2010.05.17/outbox.cif.g08.bks.cpg/sg12_118_cif.got.tgz:234635.got - 2010.06.03 13:09:07.
