data_PCOD9208693
_publ_section_title
;
Structure prediction by ZEFSAII (Michael W. Deem and Ramdas Pophale) SiO2 
 PCOD9208693
Probable space group: C 2/M
;
_chemical_formula_sum "Si O2"
_cell_formula_units_Z 64
_cell_length_a 11.235010
_cell_length_b 17.719591
_cell_length_c 24.534698
_cell_angle_alpha 90.000000
_cell_angle_beta 138.012632
_cell_angle_gamma 90.000000
_cell_volume 3267.475990
_symmetry_space_group_name_H-M "C 2/M"
_symmetry_group_IT_number 12
_symmetry_cell_setting 'monoclinic'
loop_
_space_group_symop_operation_xyz
x,y,z
-x,y,-z
-x,-y,-z
x,-y,z
1/2+x,1/2+y,z
1/2-x,1/2+y,-z
1/2-x,1/2-y,-z
1/2+x,1/2-y,z
loop_
_atom_site_type_symbol
_atom_site_label
_atom_site_fract_x
_atom_site_fract_y
_atom_site_fract_z
Si Si1 0.377461 0.085623 0.818509
Si Si2 0.623840 0.584052 0.489603
Si Si3 0.911467 0.727319 0.093344
Si Si4 0.961368 0.680094 0.629009
Si Si5 0.855918 0.411453 0.402195
Si Si6 0.341245 0.311777 0.901090
Si Si7 0.497578 0.357329 0.336371
Si Si8 0.438408 0.083755 0.233915
O O1 0.524284 0.141345 0.893491
O O2 0.428940 0.084067 0.772092
O O3 0.184119 0.122864 0.756111
O O4 0.380292 0.000000 0.840049
O O5 0.500000 0.585428 0.500000
O O6 0.708838 0.500000 0.514800
O O7 0.507266 0.597625 0.396547
O O8 0.768742 0.649879 0.544217
O O9 0.824402 0.731403 0.124533
O O10 0.077118 0.775535 0.126204
O O11 0.750000 0.750000 0.000000
O O12 0.092316 0.643107 0.629501
O O13 0.999571 0.642566 0.700164
O O14 0.982427 0.769245 0.642447
O O15 0.855080 0.500000 0.386591
O O16 0.665969 0.386403 0.360132
O O17 0.000000 0.402496 0.500000
O O18 0.252644 0.390747 0.854433
O O19 0.500000 0.317029 0.000000
O O20 0.433623 0.000000 0.255915
#
# Coordination Sequence:
#
# PCOD9208693 Si02
#       8
#     8   8   8   8   8   8   8   8
#     4  10  21  39  62  87 121 160 204 252 310 374
#     4  11  23  39  61  84 114 156 206 261 318 371
#     4   9  18  36  62  90 121 155 194 242 299 366
#     4  12  25  38  60  85 121 157 209 267 314 372
#     4  11  24  42  62  83 120 168 211 263 327 385
#     4   9  18  35  61  90 120 155 194 239 300 371
#     4  12  25  38  61  86 120 160 215 261 309 380
#     4  10  21  38  59  84 118 153 194 250 314 368
#
# _framework density 19.586984999999999
#
# number of rings (size 3 to 8) (size 9 to 14) (size 15 to 20)
#    0.000    1.500    1.250    4.125    3.500    2.250 
#    2.250    1.875    0.000    3.375    0.000    0.000 
#    0.000    0.000    0.000    0.000    0.000    0.000 
#
# Total GULP energy -178579.732044 kJ/mol
# GULP energy per Si atom -5580.616626 kJ/mol
# Density = 1.954240 g / cm^3
# Si number density = 19.586985 Si / 1000 Ang^3
#
#
#
# Elastic Constant Matrix: (Units=GPa)
#
#
# Indices 1 2 3 4 5 6 
#
# 1 75.5766 28.6230 8.3698 0.0000 20.8096 0.0000
# 2 28.6230 117.6994 30.5127 0.0000 20.8007 0.0000
# 3 8.3698 30.5127 60.9520 0.0000 16.9599 0.0000
# 4 0.0000 0.0000 0.0000 25.6799 0.0000 -1.7276
# 5 20.8096 20.8007 16.9599 0.0000 28.7842 0.0000
# 6 0.0000 0.0000 0.0000 -1.7276 0.0000 24.0472
#
#
#
# Elastic Compliance Matrix: (Units=1/GPa)
#
#
# Indices 1 2 3 4 5 6 
#
# 1 0.017271 -0.002691 0.002283 0.000000 -0.011886 0.000000
# 2 -0.002691 0.010822 -0.004083 0.000000 -0.003469 0.000000
# 3 0.002283 -0.004083 0.021261 0.000000 -0.011227 0.000000
# 4 0.000000 0.000000 0.000000 0.039130 0.000000 0.002811
# 5 -0.011886 -0.003469 -0.011227 0.000000 0.052457 0.000000
# 6 0.000000 0.000000 0.000000 0.002811 0.000000 0.041787
#
#
# Mechanical properties :
#
#
# Convention : Reuss Voigt Hill
#
# Bulk Modulus (GPa) = 24.76974 43.24878 34.00926
# Shear Modulus (GPa) = 24.37041 28.15042 26.26042
#
# Velocity S-wave (km/s) = 3.53117 3.79516 3.66554
# Velocity P-wave (km/s) = 5.41286 6.42904 5.94271
#
# Compressibility (1/GPa) = 0.04037185
#
# Stress axis : x y z
#
# Youngs Moduli (GPa) = 57.90091 92.40224 47.03535
#
# Poissons Ratio (x) = 0.24868 -0.10738
# Poissons Ratio (y) = 0.15583 0.19203
# Poissons Ratio (z) = -0.13219 0.37725
#
# Static dielectric constant tensor:
#      x y z
#    x 1.710360 0.000000 0.008830 
#    y 0.000000 1.678950 0.000000 
#    z 0.008830 0.000000 1.673300 
# 
# From -- ./inp_files/358442.got.cif
#   From: 2010.05.17/outbox.cif.g08.bks.cpg/sg12_180_cif.got.tgz:358442.got - 2010.06.03 13:09:07.
