data_PCOD9208376
_publ_section_title
;
Structure prediction by ZEFSAII (Michael W. Deem and Ramdas Pophale) SiO2 
 PCOD9208376
Probable space group: C 2/M
;
_chemical_formula_sum "Si O2"
_cell_formula_units_Z 64
_cell_length_a 13.690942
_cell_length_b 18.127021
_cell_length_c 20.958859
_cell_angle_alpha 90.000000
_cell_angle_beta 147.438192
_cell_angle_gamma 90.000000
_cell_volume 2799.486944
_symmetry_space_group_name_H-M "C 2/M"
_symmetry_group_IT_number 12
_symmetry_cell_setting 'monoclinic'
loop_
_space_group_symop_operation_xyz
x,y,z
-x,y,-z
-x,-y,-z
x,-y,z
1/2+x,1/2+y,z
1/2-x,1/2+y,-z
1/2-x,1/2-y,-z
1/2+x,1/2-y,z
loop_
_atom_site_type_symbol
_atom_site_label
_atom_site_fract_x
_atom_site_fract_y
_atom_site_fract_z
Si Si1 0.827279 0.223135 0.727845
Si Si2 0.934626 0.302569 0.243038
Si Si3 0.360317 0.692428 0.016876
Si Si4 0.696760 0.087897 0.024159
Si Si5 0.987425 0.806841 0.390750
Si Si6 0.218097 0.588345 0.178985
Si Si7 0.208706 0.580854 0.592325
Si Si8 0.306103 0.085732 0.568885
O O1 0.626636 0.254591 0.625891
O O2 0.815061 0.146277 0.684050
O O3 0.946272 0.279174 0.752426
O O4 0.930148 0.209313 0.851711
O O5 0.729496 0.302773 0.102167
O O6 0.993061 0.244570 0.330424
O O7 0.999167 0.383069 0.302129
O O8 0.250000 0.750000 0.000000
O O9 0.303823 0.617797 0.022676
O O10 0.761540 0.113107 0.130296
O O11 0.701643 0.000000 0.026760
O O12 0.484062 0.109787 0.910243
O O13 0.858638 0.875096 0.302769
O O14 0.167106 0.848724 0.512681
O O15 0.227822 0.500000 0.185145
O O16 0.284648 0.500000 0.650915
O O17 0.209727 0.587441 0.516589
O O18 0.000000 0.583401 0.500000
O O19 0.274016 0.000000 0.571256
#
# Coordination Sequence:
#
# PCOD9208376 Si02
#       8
#     8   8   8   8   8   8   8   8
#     4  11  24  39  65  98 130 174 220 265 330 394
#     4  11  24  42  63  93 131 172 219 268 328 391
#     4  10  21  38  55  88 127 167 214 263 316 384
#     4   9  18  32  55  84 122 170 219 263 320 384
#     4  12  23  39  64  95 131 173 213 274 330 397
#     4   9  17  31  53  87 125 168 214 264 321 386
#     4  10  22  42  68  96 127 167 225 282 322 377
#     4  11  25  45  68  97 130 174 223 273 334 391
#
# _framework density 22.861332000000001
#
# number of rings (size 3 to 8) (size 9 to 14) (size 15 to 20)
#    0.000    1.625    1.250    5.250    1.750    2.500 
#    0.000    1.875    0.000    0.000    0.000    5.250 
#    0.000    0.000    0.000    0.000    0.000    0.000 
#
# Total GULP energy -178780.935453 kJ/mol
# GULP energy per Si atom -5586.904233 kJ/mol
# Density = 2.280930 g / cm^3
# Si number density = 22.861332 Si / 1000 Ang^3
#
#
#
# Elastic Constant Matrix: (Units=GPa)
#
#
# Indices 1 2 3 4 5 6 
#
# 1 67.2392 23.0470 6.0275 -0.0001 -2.2655 -0.0001
# 2 23.0470 102.4247 45.9651 0.0003 -9.6598 0.0000
# 3 6.0275 45.9651 121.2096 -0.0008 -15.0217 -0.0008
# 4 -0.0001 0.0003 -0.0008 26.8130 -0.0006 -3.0590
# 5 -2.2655 -9.6598 -15.0217 -0.0006 21.7540 -0.0003
# 6 -0.0001 0.0000 -0.0008 -3.0590 -0.0003 27.1951
#
#
#
# Elastic Compliance Matrix: (Units=1/GPa)
#
#
# Indices 1 2 3 4 5 6 
#
# 1 0.016167 -0.003928 0.000742 0.000000 0.000451 0.000000
# 2 -0.003928 0.012830 -0.004391 0.000000 0.002256 0.000000
# 3 0.000742 -0.004391 0.010549 0.000001 0.005412 0.000000
# 4 0.000000 0.000000 0.000001 0.037780 0.000001 0.004250
# 5 0.000451 0.002256 0.005412 0.000001 0.050755 0.000001
# 6 0.000000 0.000000 0.000000 0.004250 0.000001 0.037249
#
#
# Mechanical properties :
#
#
# Convention : Reuss Voigt Hill
#
# Bulk Modulus (GPa) = 40.99607 48.99476 44.99541
# Shear Modulus (GPa) = 26.50893 29.54136 28.02515
#
# Velocity S-wave (km/s) = 3.40892 3.59861 3.50505
# Velocity P-wave (km/s) = 5.78495 6.22451 6.00875
#
# Compressibility (1/GPa) = 0.02439258
#
# Stress axis : x y z
#
# Youngs Moduli (GPa) = 61.85283 77.94055 94.79590
#
# Poissons Ratio (x) = 0.30616 -0.07030
# Poissons Ratio (y) = 0.24297 0.41620
# Poissons Ratio (z) = -0.04587 0.34220
#
# Static dielectric constant tensor:
#      x y z
#    x 2.019620 0.000000 -0.007220 
#    y 0.000000 1.965640 0.000000 
#    z -0.007220 0.000000 1.929700 
# 
# From -- ./inp_files/340851.got.cif
#   From: 2010.05.17/outbox.cif.g08.bks.cpg/sg12_171_cif.got.tgz:340851.got - 2010.06.03 13:09:07.
