data_PCOD9208261
_publ_section_title
;
Structure prediction by ZEFSAII (Michael W. Deem and Ramdas Pophale) SiO2 
 PCOD9208261
Probable space group: C 2/M
;
_chemical_formula_sum "Si O2"
_cell_formula_units_Z 64
_cell_length_a 14.272649
_cell_length_b 13.553494
_cell_length_c 12.474550
_cell_angle_alpha 90.000000
_cell_angle_beta 90.285210
_cell_angle_gamma 90.000000
_cell_volume 2413.100228
_symmetry_space_group_name_H-M "C 2/M"
_symmetry_group_IT_number 12
_symmetry_cell_setting 'monoclinic'
loop_
_space_group_symop_operation_xyz
x,y,z
-x,y,-z
-x,-y,-z
x,-y,z
1/2+x,1/2+y,z
1/2-x,1/2+y,-z
1/2-x,1/2-y,-z
1/2+x,1/2-y,z
loop_
_atom_site_type_symbol
_atom_site_label
_atom_site_fract_x
_atom_site_fract_y
_atom_site_fract_z
Si Si1 0.009390 0.667834 0.379256
Si Si2 0.400694 0.113658 0.030824
Si Si3 0.275781 0.119529 0.672171
Si Si4 0.337027 0.110581 0.253578
Si Si5 0.997460 0.891273 0.346121
Si Si6 0.214858 0.719814 0.117415
Si Si7 0.708093 0.388273 0.439943
Si Si8 0.560533 0.611258 0.108793
O O1 0.116531 0.656371 0.342913
O O2 0.970058 0.780515 0.378182
O O3 0.000000 0.630394 0.500000
O O4 0.940745 0.609837 0.301432
O O5 0.350199 0.157825 0.136467
O O6 0.417002 0.000000 0.059782
O O7 0.500000 0.159893 0.000000
O O8 0.342984 0.122809 0.922577
O O9 0.236595 0.174502 0.777333
O O10 0.224145 0.147856 0.560325
O O11 0.273120 0.000000 0.684373
O O12 0.270396 0.154634 0.344340
O O13 0.299510 0.000000 0.234671
O O14 0.102119 0.892010 0.397875
O O15 0.999728 0.890384 0.217040
O O16 0.955082 0.000000 0.376736
O O17 0.140223 0.808512 0.136306
O O18 0.250000 0.750000 0.000000
O O19 0.744586 0.500000 0.448317
O O20 0.601265 0.500000 0.097214
O O21 0.500000 0.628101 0.000000
#
# Coordination Sequence:
#
# PCOD9208261 Si02
#       8
#     8   8   8   8   8   8   8   8
#     4  12  23  38  63 103 134 178 219 269 333 402
#     4  10  22  40  63  91 131 178 218 270 336 400
#     4  11  23  43  68 100 144 177 215 274 346 410
#     4  10  21  37  63  99 133 170 219 274 337 409
#     4  10  23  44  67  93 130 176 227 278 332 392
#     4  12  26  42  66 102 133 172 220 276 336 405
#     4   9  20  41  69  97 131 175 218 275 343 404
#     4  10  23  45  69  89 123 178 231 278 325 386
#
# _framework density 26.521899999999999
#
# number of rings (size 3 to 8) (size 9 to 14) (size 15 to 20)
#    0.000    1.500    2.500    1.875    3.500    3.250 
#    2.250    0.000    0.000    4.500    0.000    0.000 
#    0.000    0.000    0.000    0.000    0.000    0.000 
#
# Total GULP energy -178811.037618 kJ/mol
# GULP energy per Si atom -5587.844926 kJ/mol
# Density = 2.646153 g / cm^3
# Si number density = 26.521900 Si / 1000 Ang^3
#
#
#
# Elastic Constant Matrix: (Units=GPa)
#
#
# Indices 1 2 3 4 5 6 
#
# 1 59.7319 17.5510 30.3074 0.0000 5.5306 0.0000
# 2 17.5510 151.9640 58.1006 0.0000 -7.5346 0.0000
# 3 30.3074 58.1006 223.7822 0.0000 23.8237 0.0000
# 4 0.0000 0.0000 0.0000 12.9178 0.0000 4.3615
# 5 5.5306 -7.5346 23.8237 0.0000 46.4115 0.0000
# 6 0.0000 0.0000 0.0000 4.3615 0.0000 7.2858
#
#
#
# Elastic Compliance Matrix: (Units=1/GPa)
#
#
# Indices 1 2 3 4 5 6 
#
# 1 0.018285 -0.001435 -0.001954 0.000000 -0.001409 0.000000
# 2 -0.001435 0.007655 -0.002056 0.000000 0.002469 0.000000
# 3 -0.001954 -0.002056 0.005583 0.000000 -0.002967 0.000000
# 4 0.000000 0.000000 0.000000 0.097022 0.000000 -0.058080
# 5 -0.001409 0.002469 -0.002967 0.000000 0.023638 0.000000
# 6 0.000000 0.000000 0.000000 -0.058080 0.000000 0.172021
#
#
# Mechanical properties :
#
#
# Convention : Reuss Voigt Hill
#
# Bulk Modulus (GPa) = 48.46496 71.93290 60.19893
# Shear Modulus (GPa) = 14.62115 35.29098 24.95606
#
# Velocity S-wave (km/s) = 2.35049 3.65174 3.07084
# Velocity P-wave (km/s) = 5.06751 6.70532 5.94310
#
# Compressibility (1/GPa) = 0.02063346
#
# Stress axis : x y z
#
# Youngs Moduli (GPa) = 54.69012 130.63939 179.11948
#
# Poissons Ratio (x) = 0.18742 0.34998
# Poissons Ratio (y) = 0.07846 0.36826
# Poissons Ratio (z) = 0.10686 0.26859
#
# Static dielectric constant tensor:
#      x y z
#    x 3.890080 0.000000 -1.900960 
#    y 0.000000 2.332380 0.000000 
#    z -1.900960 0.000000 3.974680 
# 
# From -- ./inp_files/156648.got.cif
#   From: 2010.05.17/outbox.cif.g08.bks.cpg/sg12_79_cif.got.tgz:156648.got - 2010.06.03 13:09:07.
