data_PCOD9208233
_publ_section_title
;
Structure prediction by ZEFSAII (Michael W. Deem and Ramdas Pophale) SiO2 
 PCOD9208233
Probable space group: C 2/M
;
_chemical_formula_sum "Si O2"
_cell_formula_units_Z 36
_cell_length_a 8.476340
_cell_length_b 17.677812
_cell_length_c 10.898066
_cell_angle_alpha 90.000000
_cell_angle_beta 74.595968
_cell_angle_gamma 90.000000
_cell_volume 1574.337740
_symmetry_space_group_name_H-M "C 2/M"
_symmetry_group_IT_number 12
_symmetry_cell_setting 'monoclinic'
loop_
_space_group_symop_operation_xyz
x,y,z
-x,y,-z
-x,-y,-z
x,-y,z
1/2+x,1/2+y,z
1/2-x,1/2+y,-z
1/2-x,1/2-y,-z
1/2+x,1/2-y,z
loop_
_atom_site_type_symbol
_atom_site_label
_atom_site_fract_x
_atom_site_fract_y
_atom_site_fract_z
Si Si1 0.560912 0.081802 0.729438
Si Si2 0.332088 0.584064 0.460307
Si Si3 0.866251 0.296511 0.635545
Si Si4 0.729487 0.675128 0.160629
Si Si5 0.000000 0.210437 0.000000
O O1 0.681363 0.080116 0.587112
O O2 0.439746 0.150800 0.728168
O O3 0.673829 0.100411 0.821917
O O4 0.480188 0.000000 0.755686
O O5 0.500000 0.592083 0.500000
O O6 0.337529 0.500000 0.398062
O O7 0.286640 0.655583 0.385477
O O8 0.826081 0.216177 0.702108
O O9 0.000000 0.289314 0.500000
O O10 0.859823 0.734900 0.081103
O O11 0.584247 0.665474 0.093854
#
# Coordination Sequence:
#
# PCOD9208233 Si02
#       5
#     8   8   8   8   4
#     4  10  21  38  60  89 125 160 195 244 305 367
#     4   9  19  33  54  89 131 161 189 241 310 365
#     4  10  21  37  63  94 123 158 199 244 302 369
#     4  11  22  42  64  90 117 163 204 256 290 366
#     4  10  24  42  64  82 122 160 212 246 308 332
#
# _framework density 22.866758999999998
#
# number of rings (size 3 to 8) (size 9 to 14) (size 15 to 20)
#    0.000    2.000    2.222    0.667    3.111    7.111 
#    0.000    1.111    0.000    0.000    0.000    0.000 
#    0.000    0.000    0.000    0.000    0.000    0.000 
#
# Total GULP energy -100653.698794 kJ/mol
# GULP energy per Si atom -5591.872155 kJ/mol
# Density = 2.281471 g / cm^3
# Si number density = 22.866759 Si / 1000 Ang^3
#
#
#
# Elastic Constant Matrix: (Units=GPa)
#
#
# Indices 1 2 3 4 5 6 
#
# 1 105.9890 18.5688 15.5428 0.0000 27.5010 0.0000
# 2 18.5688 73.3991 6.9733 0.0000 12.8401 0.0000
# 3 15.5428 6.9733 46.6785 0.0000 11.1086 0.0000
# 4 0.0000 0.0000 0.0000 -9.7937 0.0000 -15.0080
# 5 27.5010 12.8401 11.1086 0.0000 40.6400 0.0000
# 6 0.0000 0.0000 0.0000 -15.0080 0.0000 5.0998
#
#
#
# Elastic Compliance Matrix: (Units=1/GPa)
#
#
# Indices 1 2 3 4 5 6 
#
# 1 0.011811 -0.001581 -0.002047 0.000000 -0.006934 0.000000
# 2 -0.001581 0.014690 -0.000875 0.000000 -0.003333 0.000000
# 3 -0.002047 -0.000875 0.023360 0.000000 -0.004724 0.000000
# 4 0.000000 0.000000 0.000000 -0.018532 0.000000 -0.054538
# 5 -0.006934 -0.003333 -0.004724 0.000000 0.031642 0.000000
# 6 0.000000 0.000000 0.000000 -0.054538 0.000000 0.035589
#
#
# Mechanical properties :
#
#
# Convention : Reuss Voigt Hill
#
# Bulk Modulus (GPa) = 24.47621 34.24847 29.36234
# Shear Modulus (GPa) = 41.25979 19.52135 30.39057
#
# Velocity S-wave (km/s) = 4.25238 2.92498 3.64954
# Velocity P-wave (km/s) = 5.90232 5.13978 5.53420
#
# Compressibility (1/GPa) = 0.04085600
#
# Stress axis : x y z
#
# Youngs Moduli (GPa) = 84.66632 68.07287 42.80913
#
# Poissons Ratio (x) = 0.10760 0.08761
# Poissons Ratio (y) = 0.13383 0.03747
# Poissons Ratio (z) = 0.17328 0.05958
#
# Static dielectric constant tensor:
#      x y z
#    x 1.879490 0.000000 0.007390 
#    y 0.000000 1.826110 0.000000 
#    z 0.007390 0.000000 1.886370 
# 
# From -- ./inp_files/118590.got.cif
#   From: 2010.05.17/outbox.cif.g08.bks.cpg/sg12_60_cif.got.tgz:118590.got - 2010.06.03 13:09:07.
