data_PCOD9208022
_publ_section_title
;
Structure prediction by ZEFSAII (Michael W. Deem and Ramdas Pophale) SiO2 
 PCOD9208022
Probable space group: C 2/M
;
_chemical_formula_sum "Si O2"
_cell_formula_units_Z 64
_cell_length_a 26.138392
_cell_length_b 13.687921
_cell_length_c 9.055264
_cell_angle_alpha 90.000000
_cell_angle_beta 96.589170
_cell_angle_gamma 90.000000
_cell_volume 3218.394020
_symmetry_space_group_name_H-M "C 2/M"
_symmetry_group_IT_number 12
_symmetry_cell_setting 'monoclinic'
loop_
_space_group_symop_operation_xyz
x,y,z
-x,y,-z
-x,-y,-z
x,-y,z
1/2+x,1/2+y,z
1/2-x,1/2+y,-z
1/2-x,1/2-y,-z
1/2+x,1/2-y,z
loop_
_atom_site_type_symbol
_atom_site_label
_atom_site_fract_x
_atom_site_fract_y
_atom_site_fract_z
Si Si1 0.582759 0.609714 0.208309
Si Si2 0.815523 0.886983 0.943107
Si Si3 0.625330 0.257188 0.802399
Si Si4 0.228245 0.303576 0.722835
Si Si5 0.231136 0.611690 0.408394
Si Si6 0.938691 0.207032 0.498404
Si Si7 0.942828 0.693141 0.954895
Si Si8 0.108693 0.388183 0.348798
O O1 0.565112 0.500000 0.166488
O O2 0.641780 0.618543 0.173517
O O3 0.577516 0.631194 0.379720
O O4 0.553844 0.696832 0.113024
O O5 0.764608 0.833773 0.869241
O O6 0.804987 0.000000 0.970990
O O7 0.842410 0.833966 0.089079
O O8 0.668382 0.188541 0.742832
O O9 0.590832 0.306911 0.665080
O O10 0.588538 0.201119 0.904157
O O11 0.242078 0.368600 0.584749
O O12 0.239129 0.192353 0.676184
O O13 0.242752 0.500000 0.372632
O O14 0.169984 0.629979 0.368927
O O15 0.920059 0.311773 0.555433
O O16 0.000000 0.204808 0.500000
O O17 0.912503 0.631936 0.822303
O O18 0.000000 0.655468 0.000000
O O19 0.099951 0.500000 0.389638
#
# Coordination Sequence:
#
# PCOD9208022 Si02
#       8
#     8   8   8   8   8   8   8   8
#     4   9  20  38  60  83 115 160 201 241 294 363
#     4  10  22  39  60  88 125 163 199 240 301 372
#     4  11  22  37  60  91 123 156 197 253 305 350
#     4  11  21  37  61  88 125 161 195 249 301 364
#     4  10  21  37  61  89 118 160 203 241 295 365
#     4  11  22  39  61  87 120 155 200 257 309 352
#     4  10  21  40  62  85 116 159 202 247 304 363
#     4  10  21  41  62  83 115 157 205 245 293 362
#
# _framework density 19.885694999999998
#
# number of rings (size 3 to 8) (size 9 to 14) (size 15 to 20)
#    0.000    1.750    1.250    4.500    1.750    2.000 
#    0.000    5.625    0.000    0.750    0.000    0.000 
#    0.000    0.000    0.000    0.000    0.000    0.000 
#
# Total GULP energy -178793.543903 kJ/mol
# GULP energy per Si atom -5587.298247 kJ/mol
# Density = 1.984043 g / cm^3
# Si number density = 19.885695 Si / 1000 Ang^3
#
#
#
# Elastic Constant Matrix: (Units=GPa)
#
#
# Indices 1 2 3 4 5 6 
#
# 1 69.8847 -1.3790 35.1524 0.0000 9.4053 0.0000
# 2 -1.3790 38.3144 -12.0485 0.0000 -10.5997 0.0000
# 3 35.1524 -12.0485 70.2772 0.0000 2.8531 0.0000
# 4 0.0000 0.0000 0.0000 3.3826 0.0000 -2.6348
# 5 9.4053 -10.5997 2.8531 0.0000 29.7278 0.0000
# 6 0.0000 0.0000 0.0000 -2.6348 0.0000 14.7937
#
#
#
# Elastic Compliance Matrix: (Units=1/GPa)
#
#
# Indices 1 2 3 4 5 6 
#
# 1 0.020621 -0.004635 -0.010819 0.000000 -0.007138 0.000000
# 2 -0.004635 0.031533 0.007237 0.000000 0.012015 0.000000
# 3 -0.010819 0.007237 0.020719 0.000000 0.004015 0.000000
# 4 0.000000 0.000000 0.000000 0.343251 0.000000 0.061135
# 5 -0.007138 0.012015 0.004015 0.000000 0.039796 0.000000
# 6 0.000000 0.000000 0.000000 0.061135 0.000000 0.078485
#
#
# Mechanical properties :
#
#
# Convention : Reuss Voigt Hill
#
# Bulk Modulus (GPa) = 17.71881 24.65843 21.18862
# Shear Modulus (GPa) = 8.77731 20.03091 14.40411
#
# Velocity S-wave (km/s) = 2.10320 3.17725 2.69429
# Velocity P-wave (km/s) = 3.85067 5.08791 4.51190
#
# Compressibility (1/GPa) = 0.05643718
#
# Stress axis : x y z
#
# Youngs Moduli (GPa) = 48.49517 31.71316 48.26549
#
# Poissons Ratio (x) = 0.14699 0.52219
# Poissons Ratio (y) = 0.22477 -0.34928
# Poissons Ratio (z) = 0.52468 -0.22950
#
# Static dielectric constant tensor:
#      x y z
#    x 1.676810 0.000000 -0.002310 
#    y 0.000000 1.690750 0.000000 
#    z -0.002310 0.000000 1.708260 
# 
# From -- ./inp_files/96884.got.cif
#   From: 2010.05.17/outbox.cif.g08.bks.cpg/sg12_49_cif.got.tgz:96884.got - 2010.06.03 13:09:07.
