data_PCOD9208934
_publ_section_title
;
Structure prediction by ZEFSAII (Michael W. Deem and Ramdas Pophale) SiO2 
 PCOD9208934
Probable space group: C 2/M
;
_chemical_formula_sum "Si O2"
_cell_formula_units_Z 64
_cell_length_a 26.700859
_cell_length_b 8.507256
_cell_length_c 16.504281
_cell_angle_alpha 90.000000
_cell_angle_beta 65.514663
_cell_angle_gamma 90.000000
_cell_volume 3411.810386
_symmetry_space_group_name_H-M "C 2/M"
_symmetry_group_IT_number 12
_symmetry_cell_setting 'monoclinic'
loop_
_space_group_symop_operation_xyz
x,y,z
-x,y,-z
-x,-y,-z
x,-y,z
1/2+x,1/2+y,z
1/2-x,1/2+y,-z
1/2-x,1/2-y,-z
1/2+x,1/2-y,z
loop_
_atom_site_type_symbol
_atom_site_label
_atom_site_fract_x
_atom_site_fract_y
_atom_site_fract_z
Si Si1 0.783827 0.190600 0.593597
Si Si2 0.440410 0.174389 0.078241
Si Si3 0.947719 0.188359 0.252395
Si Si4 0.929700 0.191222 0.786163
Si Si5 0.128770 0.819676 0.006553
Si Si6 0.332632 0.812389 0.392443
Si Si7 0.835642 0.807879 0.729395
Si Si8 0.743171 0.184528 0.915284
O O1 0.718486 0.232257 0.633270
O O2 0.811609 0.263362 0.495448
O O3 0.816738 0.240407 0.652202
O O4 0.786369 0.000000 0.586371
O O5 0.444289 0.231223 0.167170
O O6 0.412955 0.302062 0.038817
O O7 0.413704 0.000000 0.092532
O O8 0.500000 0.157921 0.000000
O O9 0.891248 0.233946 0.335044
O O10 0.006119 0.238759 0.253810
O O11 0.950006 0.000000 0.242030
O O12 0.893215 0.241228 0.732967
O O13 0.929140 0.000000 0.787326
O O14 0.898582 0.239471 0.890847
O O15 0.180751 0.724955 0.939334
O O16 0.144924 0.000000 0.010122
O O17 0.339190 0.000000 0.383063
O O18 0.787702 0.752219 0.822541
O O19 0.836264 0.000000 0.727537
O O20 0.751710 0.000000 0.911376
O O21 0.750000 0.250000 0.000000
#
# Coordination Sequence:
#
# PCOD9208934 Si02
#       8
#     8   8   8   8   8   8   8   8
#     4   9  19  38  64  86 108 143 185 231 287 346
#     4  11  23  37  54  80 114 152 195 239 285 335
#     4  11  22  37  59  85 113 151 194 234 282 344
#     4   9  18  34  56  80 111 149 192 236 281 331
#     4  11  21  36  54  77 113 154 196 241 286 336
#     4  10  21  38  60  87 118 145 177 231 292 347
#     4   9  18  35  58  83 110 145 191 240 284 332
#     4  11  21  34  54  81 115 154 194 239 288 341
#
# _framework density 18.758369999999999
#
# number of rings (size 3 to 8) (size 9 to 14) (size 15 to 20)
#    0.000    1.875    2.500    1.875    1.750    1.000 
#    0.000    1.875    0.000    3.750    0.000    0.000 
#    0.000    0.000    0.000    0.000    0.000    0.000 
#
# Total GULP energy -178373.515189 kJ/mol
# GULP energy per Si atom -5574.172350 kJ/mol
# Density = 1.871568 g / cm^3
# Si number density = 18.758370 Si / 1000 Ang^3
#
#
#
# Elastic Constant Matrix: (Units=GPa)
#
#
# Indices 1 2 3 4 5 6 
#
# 1 133.5917 11.5299 57.4873 0.0000 6.9623 0.0000
# 2 11.5299 28.0636 10.7483 0.0000 -1.8712 0.0000
# 3 57.4873 10.7483 77.4879 0.0000 5.1120 0.0000
# 4 0.0000 0.0000 0.0000 30.1803 0.0000 -5.8634
# 5 6.9623 -1.8712 5.1120 0.0000 34.4449 0.0000
# 6 0.0000 0.0000 0.0000 -5.8634 0.0000 25.5488
#
#
#
# Elastic Compliance Matrix: (Units=1/GPa)
#
#
# Indices 1 2 3 4 5 6 
#
# 1 0.011099 -0.001597 -0.007936 0.000000 -0.001152 0.000000
# 2 -0.001597 0.038141 -0.004306 0.000000 0.003034 0.000000
# 3 -0.007936 -0.004306 0.019491 0.000000 -0.001522 0.000000
# 4 0.000000 0.000000 0.000000 0.034681 0.000000 0.007959
# 5 -0.001152 0.003034 -0.001522 0.000000 0.029656 0.000000
# 6 0.000000 0.000000 0.000000 0.007959 0.000000 0.040967
#
#
# Mechanical properties :
#
#
# Convention : Reuss Voigt Hill
#
# Bulk Modulus (GPa) = 24.35945 44.29715 34.32830
# Shear Modulus (GPa) = 23.21304 28.65996 25.93650
#
# Velocity S-wave (km/s) = 3.52159 3.91301 3.72245
# Velocity P-wave (km/s) = 5.43595 6.63938 6.06758
#
# Compressibility (1/GPa) = 0.04105183
#
# Stress axis : x y z
#
# Youngs Moduli (GPa) = 90.10179 26.21857 51.30618
#
# Poissons Ratio (x) = 0.04187 0.40718
# Poissons Ratio (y) = 0.14390 0.22092
# Poissons Ratio (z) = 0.71508 0.11289
#
# Static dielectric constant tensor:
#      x y z
#    x 2.334760 0.000000 -0.108050 
#    y 0.000000 1.706170 0.000000 
#    z -0.108050 0.000000 1.633560 
# 
# From -- ./inp_files/243801.got.cif
#   From: 2010.05.17/outbox.cif.g08.bks.cpg/sg12_122_cif.got.tgz:243801.got - 2010.06.03 13:09:07.
