data_PCOD9208597
_publ_section_title
;
Structure prediction by ZEFSAII (Michael W. Deem and Ramdas Pophale) SiO2 
 PCOD9208597
Probable space group: C 2/M
;
_chemical_formula_sum "Si O2"
_cell_formula_units_Z 64
_cell_length_a 9.486032
_cell_length_b 21.561985
_cell_length_c 22.711922
_cell_angle_alpha 90.000000
_cell_angle_beta 44.075499
_cell_angle_gamma 90.000000
_cell_volume 3231.396952
_symmetry_space_group_name_H-M "C 2/M"
_symmetry_group_IT_number 12
_symmetry_cell_setting 'monoclinic'
loop_
_space_group_symop_operation_xyz
x,y,z
-x,y,-z
-x,-y,-z
x,-y,z
1/2+x,1/2+y,z
1/2-x,1/2+y,-z
1/2-x,1/2-y,-z
1/2+x,1/2-y,z
loop_
_atom_site_type_symbol
_atom_site_label
_atom_site_fract_x
_atom_site_fract_y
_atom_site_fract_z
Si Si1 0.343655 0.371179 0.790248
Si Si2 0.942542 0.569591 0.948562
Si Si3 0.121642 0.827928 0.013181
Si Si4 0.410313 0.269614 0.864265
Si Si5 0.515134 0.818055 0.560730
Si Si6 0.210364 0.930356 0.624629
Si Si7 0.793431 0.212490 0.694285
Si Si8 0.945795 0.877642 0.451259
O O1 0.340904 0.328925 0.848686
O O2 0.530792 0.417074 0.724944
O O3 0.369658 0.320992 0.730432
O O4 0.136943 0.409638 0.851976
O O5 0.875441 0.500000 0.951930
O O6 0.782852 0.624433 0.989755
O O7 0.000000 0.567276 0.000000
O O8 0.233298 0.773008 0.943569
O O9 0.993559 0.797469 0.104437
O O10 0.000000 0.863420 0.000000
O O11 0.563978 0.230415 0.778433
O O12 0.500000 0.787208 0.500000
O O13 0.382918 0.880404 0.589234
O O14 0.408133 0.774788 0.640658
O O15 0.744257 0.833753 0.511169
O O16 0.114781 0.920114 0.587413
O O17 0.287403 0.000000 0.605926
O O18 0.856940 0.162542 0.626205
O O19 0.000000 0.903676 0.500000
#
# Coordination Sequence:
#
# PCOD9208597 Si02
#       8
#     8   8   8   8   8   8   8   8
#     4  11  21  38  62  95 118 157 208 251 302 363
#     4  11  23  41  64  86 121 167 210 248 294 366
#     4  11  24  40  61  96 128 159 203 253 312 362
#     4  11  22  37  62  92 131 161 195 251 312 376
#     4  10  21  38  58  89 123 158 203 249 302 361
#     4  10  22  41  64  86 118 164 210 252 294 355
#     4  11  21  35  59  90 123 160 194 247 314 361
#     4  10  23  37  57  89 122 158 201 253 304 361
#
# _framework density 19.805675999999998
#
# number of rings (size 3 to 8) (size 9 to 14) (size 15 to 20)
#    0.000    1.375    3.750    1.875    3.500    2.750 
#    0.000    0.000    0.000    0.000    0.000    0.000 
#    0.000    0.000    0.000    0.000    0.000    0.000 
#
# Total GULP energy -178394.485552 kJ/mol
# GULP energy per Si atom -5574.827674 kJ/mol
# Density = 1.976060 g / cm^3
# Si number density = 19.805676 Si / 1000 Ang^3
#
#
#
# Elastic Constant Matrix: (Units=GPa)
#
#
# Indices 1 2 3 4 5 6 
#
# 1 53.9277 7.1846 11.9982 0.0005 14.9887 -0.0003
# 2 7.1846 75.2865 37.7258 0.0003 17.2488 -0.0003
# 3 11.9982 37.7258 94.4142 -0.0008 1.3554 0.0002
# 4 0.0005 0.0003 -0.0008 4.3295 0.0000 11.4997
# 5 14.9887 17.2488 1.3554 0.0000 26.5100 0.0001
# 6 -0.0003 -0.0003 0.0002 11.4997 0.0001 6.1851
#
#
#
# Elastic Compliance Matrix: (Units=1/GPa)
#
#
# Indices 1 2 3 4 5 6 
#
# 1 0.023179 0.003245 -0.004027 0.000002 -0.015011 -0.000002
# 2 0.003245 0.020585 -0.008425 0.000002 -0.014798 -0.000002
# 3 -0.004027 -0.008425 0.014369 -0.000002 0.007024 0.000002
# 4 0.000002 0.000002 -0.000002 -0.058646 -0.000003 0.109038
# 5 -0.015011 -0.014798 0.007024 -0.000003 0.055478 0.000003
# 6 -0.000002 -0.000002 0.000002 0.109038 0.000003 -0.041051
#
#
# Mechanical properties :
#
#
# Convention : Reuss Voigt Hill
#
# Bulk Modulus (GPa) = 25.17681 37.49397 31.33539
# Shear Modulus (GPa) = 109.72549 18.51956 64.12252
#
# Velocity S-wave (km/s) = 7.45126 3.06120 5.69615
# Velocity P-wave (km/s) = 9.31493 5.60951 7.68877
#
# Compressibility (1/GPa) = 0.03971909
#
# Stress axis : x y z
#
# Youngs Moduli (GPa) = 43.14232 48.57883 69.59391
#
# Poissons Ratio (x) = -0.15763 0.28024
# Poissons Ratio (y) = -0.13999 0.58635
# Poissons Ratio (z) = 0.17372 0.40929
#
# Static dielectric constant tensor:
#      x y z
#    x 1.758520 0.000000 -0.009180 
#    y 0.000000 1.698110 0.000000 
#    z -0.009180 0.000000 1.765720 
# 
# From -- ./inp_files/302301.got.cif
#   From: 2010.05.17/outbox.cif.g08.bks.cpg/sg12_152_cif.got.tgz:302301.got - 2010.06.03 13:09:07.
