data_PCOD9208562
_publ_section_title
;
Structure prediction by ZEFSAII (Michael W. Deem and Ramdas Pophale) SiO2 
 PCOD9208562
Probable space group: C 2/M
;
_chemical_formula_sum "Si O2"
_cell_formula_units_Z 52
_cell_length_a 14.954397
_cell_length_b 18.209605
_cell_length_c 19.720638
_cell_angle_alpha 90.000000
_cell_angle_beta 149.543430
_cell_angle_gamma 90.000000
_cell_volume 2722.073966
_symmetry_space_group_name_H-M "C 2/M"
_symmetry_group_IT_number 12
_symmetry_cell_setting 'monoclinic'
loop_
_space_group_symop_operation_xyz
x,y,z
-x,y,-z
-x,-y,-z
x,-y,z
1/2+x,1/2+y,z
1/2-x,1/2+y,-z
1/2-x,1/2-y,-z
1/2+x,1/2-y,z
loop_
_atom_site_type_symbol
_atom_site_label
_atom_site_fract_x
_atom_site_fract_y
_atom_site_fract_z
Si Si1 0.653611 0.688430 0.649874
Si Si2 0.789060 0.584857 0.850095
Si Si3 0.685383 0.284839 0.871300
Si Si4 0.935807 0.289226 0.611871
Si Si5 0.500000 0.295436 0.000000
Si Si6 0.580644 0.316384 0.197505
Si Si7 0.842780 0.414785 0.452540
O O1 0.500000 0.661902 0.500000
O O2 0.743780 0.622673 0.749039
O O3 0.549014 0.742830 0.631948
O O4 0.804396 0.741871 0.719444
O O5 0.736851 0.500000 0.818696
O O6 0.682357 0.634782 0.833839
O O7 0.000000 0.588556 0.000000
O O8 0.546611 0.224412 0.752290
O O9 0.615950 0.301792 0.901708
O O10 0.865476 0.255206 0.954515
O O11 0.750000 0.250000 0.500000
O O12 0.900596 0.368577 0.556558
O O13 0.584827 0.337275 0.119877
O O14 0.677352 0.375429 0.308171
O O15 0.810402 0.500000 0.446187
O O16 0.000000 0.409257 0.500000
#
# Coordination Sequence:
#
# PCOD9208562 Si02
#       7
#     8   8   8   8   4   8   8
#     4  11  19  35  59  86 124 153 201 252 305 364
#     4  10  21  38  58  84 124 163 200 252 307 365
#     4  11  21  36  63  87 119 158 205 249 303 357
#     4  11  18  36  59  88 118 155 197 249 299 360
#     4  12  22  38  58  92 116 156 220 252 292 358
#     4  12  21  37  60  88 121 159 204 258 297 360
#     4  11  21  36  59  89 122 161 197 243 311 368
#
# _framework density 19.103081
#
# number of rings (size 3 to 8) (size 9 to 14) (size 15 to 20)
#    0.000    0.923    8.462    0.462    0.000    0.923 
#    0.000    0.385    0.000    3.692    0.000    4.308 
#    0.000    0.000    0.000    0.000    0.000    0.000 
#
# Total GULP energy -144827.694711 kJ/mol
# GULP energy per Si atom -5570.295950 kJ/mol
# Density = 1.905960 g / cm^3
# Si number density = 19.103081 Si / 1000 Ang^3
#
#
#
# Elastic Constant Matrix: (Units=GPa)
#
#
# Indices 1 2 3 4 5 6 
#
# 1 109.4062 38.6033 22.6813 -0.0007 1.3889 -0.0003
# 2 38.6033 117.7515 25.2705 -0.0009 -4.1820 -0.0003
# 3 22.6813 25.2705 71.2514 -0.0006 -4.0724 -0.0018
# 4 -0.0007 -0.0009 -0.0006 22.1381 -0.0001 -5.1692
# 5 1.3889 -4.1820 -4.0724 -0.0001 39.5375 -0.0006
# 6 -0.0003 -0.0003 -0.0018 -5.1692 -0.0006 15.0421
#
#
#
# Elastic Compliance Matrix: (Units=1/GPa)
#
#
# Indices 1 2 3 4 5 6 
#
# 1 0.010718 -0.003035 -0.002390 0.000000 -0.000944 0.000000
# 2 -0.003035 0.010067 -0.002553 0.000000 0.000909 0.000000
# 3 -0.002390 -0.002553 0.015783 0.000001 0.001440 0.000002
# 4 0.000000 0.000000 0.000001 0.049112 0.000000 0.016877
# 5 -0.000944 0.000909 0.001440 0.000000 0.025570 0.000001
# 6 0.000000 0.000000 0.000002 0.016877 0.000001 0.072280
#
#
# Mechanical properties :
#
#
# Convention : Reuss Voigt Hill
#
# Bulk Modulus (GPa) = 48.50793 52.39103 50.44948
# Shear Modulus (GPa) = 24.22998 29.46715 26.84857
#
# Velocity S-wave (km/s) = 3.56530 3.93177 3.75301
# Velocity P-wave (km/s) = 6.51125 6.93518 6.72655
#
# Compressibility (1/GPa) = 0.02061518
#
# Stress axis : x y z
#
# Youngs Moduli (GPa) = 93.29800 99.33069 63.35886
#
# Poissons Ratio (x) = 0.30142 0.15140
# Poissons Ratio (y) = 0.28312 0.16173
# Poissons Ratio (z) = 0.22295 0.25356
#
# Static dielectric constant tensor:
#      x y z
#    x 1.731540 0.000000 -0.043400 
#    y 0.000000 1.635450 0.000000 
#    z -0.043400 0.000000 1.813220 
# 
# From -- ./inp_files/311530.got.cif
#   From: 2010.05.17/outbox.cif.g08.bks.cpg/sg12_156_cif.got.tgz:311530.got - 2010.06.03 13:09:07.
