data_PCOD9208685
_publ_section_title
;
Structure prediction by ZEFSAII (Michael W. Deem and Ramdas Pophale) SiO2 
 PCOD9208685
Probable space group: C 2/M
;
_chemical_formula_sum "Si O2"
_cell_formula_units_Z 56
_cell_length_a 10.194163
_cell_length_b 8.837552
_cell_length_c 33.445136
_cell_angle_alpha 90.000000
_cell_angle_beta 112.549954
_cell_angle_gamma 90.000000
_cell_volume 2782.754122
_symmetry_space_group_name_H-M "C 2/M"
_symmetry_group_IT_number 12
_symmetry_cell_setting 'monoclinic'
loop_
_space_group_symop_operation_xyz
x,y,z
-x,y,-z
-x,-y,-z
x,-y,z
1/2+x,1/2+y,z
1/2-x,1/2+y,-z
1/2-x,1/2-y,-z
1/2+x,1/2-y,z
loop_
_atom_site_type_symbol
_atom_site_label
_atom_site_fract_x
_atom_site_fract_y
_atom_site_fract_z
Si Si1 0.430785 0.319146 0.904780
Si Si2 0.600166 0.680531 0.234928
Si Si3 0.902901 0.182340 0.526009
Si Si4 0.274675 0.319443 0.185555
Si Si5 0.885233 0.679625 0.675663
Si Si6 0.059683 0.181084 0.625216
Si Si7 0.231022 0.319225 0.954014
O O1 0.445763 0.500000 0.903658
O O2 0.322124 0.261302 0.858673
O O3 0.360560 0.281061 0.939486
O O4 0.584066 0.243282 0.918966
O O5 0.621014 0.500000 0.235355
O O6 0.441448 0.715674 0.200283
O O7 0.717216 0.762982 0.221648
O O8 0.604505 0.736572 0.280881
O O9 0.750000 0.250000 0.500000
O O10 0.000000 0.226264 0.500000
O O11 0.973212 0.231727 0.575984
O O12 0.894646 0.000000 0.526055
O O13 0.257997 0.500000 0.180701
O O14 0.901437 0.500000 0.683725
O O15 0.727247 0.708987 0.640050
O O16 0.999678 0.738729 0.657489
O O17 0.041190 0.000000 0.627707
O O18 0.224279 0.500000 0.956146
O O19 0.250000 0.250000 0.000000
#
# Coordination Sequence:
#
# PCOD9208685 Si02
#       7
#     8   8   8   8   8   8   8
#     4  11  24  41  62  90 122 157 200 247 296 352
#     4  11  24  41  62  89 121 156 195 242 295 349
#     4  10  21  38  59  84 116 152 192 240 291 345
#     4  11  24  41  62  89 120 156 198 242 292 350
#     4  11  23  39  61  87 116 153 196 240 289 347
#     4  10  22  39  58  84 118 153 192 240 292 347
#     4  11  24  41  63  91 123 160 202 248 298 353
#
# _framework density 20.123949
#
# number of rings (size 3 to 8) (size 9 to 14) (size 15 to 20)
#    0.000    1.286    0.000    5.143    0.000   15.143 
#    0.000    0.000    0.000    0.000    0.000    0.000 
#    0.000    0.000    0.000    0.000    0.000    0.000 
#
# Total GULP energy -156694.219325 kJ/mol
# GULP energy per Si atom -5596.222119 kJ/mol
# Density = 2.007815 g / cm^3
# Si number density = 20.123949 Si / 1000 Ang^3
#
#
#
# Elastic Constant Matrix: (Units=GPa)
#
#
# Indices 1 2 3 4 5 6 
#
# 1 65.4804 18.5576 -26.2316 0.0000 -2.9241 0.0000
# 2 18.5576 18.7980 -2.9876 0.0000 -1.0986 0.0000
# 3 -26.2316 -2.9876 53.7738 0.0000 -1.4944 0.0000
# 4 0.0000 0.0000 0.0000 31.5877 0.0000 2.9668
# 5 -2.9241 -1.0986 -1.4944 0.0000 38.1103 0.0000
# 6 0.0000 0.0000 0.0000 2.9668 0.0000 34.7734
#
#
#
# Elastic Compliance Matrix: (Units=1/GPa)
#
#
# Indices 1 2 3 4 5 6 
#
# 1 0.027162 -0.024812 0.011922 0.000000 0.001836 0.000000
# 2 -0.024812 0.076443 -0.007857 0.000000 -0.000008 0.000000
# 3 0.011922 -0.007857 0.024021 0.000000 0.001630 0.000000
# 4 0.000000 0.000000 0.000000 0.031914 0.000000 -0.002723
# 5 0.001836 -0.000008 0.001630 0.000000 0.026444 0.000000
# 6 0.000000 0.000000 0.000000 -0.002723 0.000000 0.028990
#
#
# Mechanical properties :
#
#
# Convention : Reuss Voigt Hill
#
# Bulk Modulus (GPa) = 11.61006 12.96991 12.28998
# Shear Modulus (GPa) = 17.53289 30.80852 24.17070
#
# Velocity S-wave (km/s) = 2.95489 3.91697 3.46944
# Velocity P-wave (km/s) = 4.17416 5.18805 4.70847
#
# Compressibility (1/GPa) = 0.08613218
#
# Stress axis : x y z
#
# Youngs Moduli (GPa) = 36.81631 13.08164 41.63004
#
# Poissons Ratio (x) = 0.32459 -0.49633
# Poissons Ratio (y) = 0.91350 0.32709
# Poissons Ratio (z) = -0.43894 0.10278
#
# Static dielectric constant tensor:
#      x y z
#    x 1.674880 0.000000 0.004090 
#    y 0.000000 1.673920 0.000000 
#    z 0.004090 0.000000 1.700450 
# 
# From -- ./inp_files/373641.got.cif
#   From: 2010.05.17/outbox.cif.g08.bks.cpg/sg12_187_cif.got.tgz:373641.got - 2010.06.03 13:09:07.
