data_PCOD9208635
_publ_section_title
;
Structure prediction by ZEFSAII (Michael W. Deem and Ramdas Pophale) SiO2 
 PCOD9208635
Probable space group: C 2/M
;
_chemical_formula_sum "Si O2"
_cell_formula_units_Z 48
_cell_length_a 23.705467
_cell_length_b 27.592048
_cell_length_c 12.594668
_cell_angle_alpha 90.000000
_cell_angle_beta 160.235601
_cell_angle_gamma 90.000000
_cell_volume 2785.689592
_symmetry_space_group_name_H-M "C 2/M"
_symmetry_group_IT_number 12
_symmetry_cell_setting 'monoclinic'
loop_
_space_group_symop_operation_xyz
x,y,z
-x,y,-z
-x,-y,-z
x,-y,z
1/2+x,1/2+y,z
1/2-x,1/2+y,-z
1/2-x,1/2-y,-z
1/2+x,1/2-y,z
loop_
_atom_site_type_symbol
_atom_site_label
_atom_site_fract_x
_atom_site_fract_y
_atom_site_fract_z
Si Si1 0.373892 0.302806 0.875716
Si Si2 0.501824 0.197195 0.875716
Si Si3 0.780819 0.627905 0.872591
Si Si4 0.908227 0.872095 0.127408
Si Si5 0.687894 0.803137 0.875788
Si Si6 0.187913 0.556775 0.875827
O O1 0.184574 0.300810 0.500000
O O2 0.500000 0.305803 0.000000
O O3 0.413721 0.250001 0.000003
O O4 0.397121 0.351124 0.988477
O O5 0.500000 0.194199 0.000000
O O6 0.591358 0.148877 0.988480
O O7 0.599747 0.623366 0.500000
O O8 0.792174 0.670836 0.977498
O O9 0.806060 0.582100 0.996952
O O10 0.814675 0.829164 0.022499
O O11 0.809109 0.917900 0.003051
O O12 0.500000 0.807021 0.500000
O O13 0.750000 0.750000 0.000000
O O14 0.225900 0.500000 0.951801
O O15 0.000000 0.563288 0.500000
#
# Coordination Sequence:
#
# PCOD9208635 Si02
#       6
#     8   8   8   8   8   8
#     4  11  21  35  53  77 109 145 183 218 257 305
#     4  11  21  35  53  77 109 145 183 218 257 305
#     4  11  21  34  52  76 104 136 174 214 260 312
#     4  11  21  34  52  76 104 136 174 214 260 312
#     4  11  20  31  46  69 101 135 170 210 257 307
#     4  10  21  38  59  82 106 134 171 218 271 321
#
# _framework density 17.230922
#
# number of rings (size 3 to 8) (size 9 to 14) (size 15 to 20)
#    0.000    1.167    0.000   12.000    0.000    1.333 
#    0.000    0.000    0.000    1.000    0.000    0.000 
#    0.000    0.000    0.000    0.000    0.000    0.000 
#
# Total GULP energy -133751.132744 kJ/mol
# GULP energy per Si atom -5572.963864 kJ/mol
# Density = 1.719170 g / cm^3
# Si number density = 17.230922 Si / 1000 Ang^3
#
#
#
# Elastic Constant Matrix: (Units=GPa)
#
#
# Indices 1 2 3 4 5 6 
#
# 1 83.9852 48.4838 39.2701 0.0000 0.6302 0.0000
# 2 48.4838 135.9184 60.3586 0.0000 1.0302 0.0000
# 3 39.2701 60.3586 152.3869 0.0000 5.2972 0.0000
# 4 0.0000 0.0000 0.0000 25.7246 0.0000 1.9008
# 5 0.6302 1.0302 5.2972 0.0000 26.3961 0.0000
# 6 0.0000 0.0000 0.0000 1.9008 0.0000 3.7781
#
#
#
# Elastic Compliance Matrix: (Units=1/GPa)
#
#
# Indices 1 2 3 4 5 6 
#
# 1 0.015582 -0.004578 -0.002211 0.000000 0.000250 0.000000
# 2 -0.004578 0.010276 -0.002901 0.000000 0.000290 0.000000
# 3 -0.002211 -0.002901 0.008333 0.000000 -0.001506 0.000000
# 4 0.000000 0.000000 0.000000 0.040374 0.000000 -0.020313
# 5 0.000250 0.000290 -0.001506 0.000000 0.038169 0.000000
# 6 0.000000 0.000000 0.000000 -0.020313 0.000000 0.274901
#
#
# Mechanical properties :
#
#
# Convention : Reuss Voigt Hill
#
# Bulk Modulus (GPa) = 67.51278 74.27948 70.89613
# Shear Modulus (GPa) = 12.13733 26.12497 19.13115
#
# Velocity S-wave (km/s) = 2.65692 3.89802 3.33570
# Velocity P-wave (km/s) = 6.97700 7.96626 7.48798
#
# Compressibility (1/GPa) = 0.01481201
#
# Stress axis : x y z
#
# Youngs Moduli (GPa) = 64.17790 97.31017 120.00203
#
# Poissons Ratio (x) = 0.44552 0.26528
# Poissons Ratio (y) = 0.29383 0.34808
# Poissons Ratio (z) = 0.14188 0.28226
#
# Static dielectric constant tensor:
#      x y z
#    x 1.596830 0.000000 -0.001660 
#    y 0.000000 1.576560 0.000000 
#    z -0.001660 0.000000 1.577640 
# 
# From -- ./inp_files/178584.got.cif
#   From: 2010.05.17/outbox.cif.g08.bks.cpg/sg12_90_cif.got.tgz:178584.got - 2010.06.03 13:09:07.
