data_PCOD9208603
_publ_section_title
;
Structure prediction by ZEFSAII (Michael W. Deem and Ramdas Pophale) SiO2 
 PCOD9208603
Probable space group: C 2/M
;
_chemical_formula_sum "Si O2"
_cell_formula_units_Z 32
_cell_length_a 13.575765
_cell_length_b 16.820630
_cell_length_c 5.717000
_cell_angle_alpha 90.000000
_cell_angle_beta 93.359765
_cell_angle_gamma 90.000000
_cell_volume 1303.249799
_symmetry_space_group_name_H-M "C 2/M"
_symmetry_group_IT_number 12
_symmetry_cell_setting 'monoclinic'
loop_
_space_group_symop_operation_xyz
x,y,z
-x,y,-z
-x,-y,-z
x,-y,z
1/2+x,1/2+y,z
1/2-x,1/2+y,-z
1/2-x,1/2-y,-z
1/2+x,1/2-y,z
loop_
_atom_site_type_symbol
_atom_site_label
_atom_site_fract_x
_atom_site_fract_y
_atom_site_fract_z
Si Si1 0.897426 0.632070 0.062711
Si Si2 0.771266 0.000000 0.927377
Si Si3 0.735772 0.172998 0.337929
Si Si4 0.217895 0.000000 0.560365
Si Si5 0.051095 0.792014 0.754420
O O1 0.807077 0.573076 0.088344
O O2 0.927073 0.696723 0.258743
O O3 0.854912 0.686625 0.846352
O O4 0.000000 0.592450 0.000000
O O5 0.834915 0.000000 0.699051
O O6 0.825985 0.000000 0.183904
O O7 0.750000 0.250000 0.500000
O O8 0.840972 0.169382 0.223480
O O9 0.722167 0.083506 0.434547
O O10 0.000000 0.816393 0.500000
O O11 0.000000 0.808545 0.000000
#
# Coordination Sequence:
#
# PCOD9208603 Si02
#       5
#     8   4   8   4   8
#     4  10  21  38  62  96 128 165 209 256 319 394
#     4  10  21  38  58  91 132 164 196 257 322 386
#     4  11  22  43  69  95 130 173 211 267 325 375
#     4  10  24  40  63  95 124 162 220 257 309 390
#     4  11  24  41  63  93 125 167 222 268 313 376
#
# _framework density 24.554003999999999
#
# number of rings (size 3 to 8) (size 9 to 14) (size 15 to 20)
#    0.000    1.500    0.000    5.625    0.000   10.000 
#    0.000    6.875    0.000    0.000    0.000    0.875 
#    0.000    0.000    0.000    0.000    0.000    0.000 
#
# Total GULP energy -89109.661840 kJ/mol
# GULP energy per Si atom -5569.353865 kJ/mol
# Density = 2.449812 g / cm^3
# Si number density = 24.554004 Si / 1000 Ang^3
#
#
#
# Elastic Constant Matrix: (Units=GPa)
#
#
# Indices 1 2 3 4 5 6 
#
# 1 98.5486 28.4887 39.8053 0.0000 0.2625 0.0000
# 2 28.4887 110.6526 19.2586 0.0000 0.3044 0.0000
# 3 39.8053 19.2586 205.5490 0.0000 0.5677 0.0000
# 4 0.0000 0.0000 0.0000 -44.3565 0.0000 -8.7200
# 5 0.2625 0.3044 0.5677 0.0000 31.0640 0.0000
# 6 0.0000 0.0000 0.0000 -8.7200 0.0000 10.4711
#
#
#
# Elastic Compliance Matrix: (Units=1/GPa)
#
#
# Indices 1 2 3 4 5 6 
#
# 1 0.011736 -0.002669 -0.002023 0.000000 -0.000036 0.000000
# 2 -0.002669 0.009794 -0.000401 0.000000 -0.000066 0.000000
# 3 -0.002023 -0.000401 0.005294 0.000000 -0.000076 0.000000
# 4 0.000000 0.000000 0.000000 -0.019373 0.000000 -0.016133
# 5 -0.000036 -0.000066 -0.000076 0.000000 0.032194 0.000000
# 6 0.000000 0.000000 0.000000 -0.016133 0.000000 0.082066
#
#
# Mechanical properties :
#
#
# Convention : Reuss Voigt Hill
#
# Bulk Modulus (GPa) = 60.09658 65.53946 62.81802
# Shear Modulus (GPa) = 36.37874 21.24890 28.81382
#
# Velocity S-wave (km/s) = 3.85331 2.94495 3.42934
# Velocity P-wave (km/s) = 6.65775 6.18979 6.42803
#
# Compressibility (1/GPa) = 0.01663988
#
# Stress axis : x y z
#
# Youngs Moduli (GPa) = 85.20799 102.09847 188.87799
#
# Poissons Ratio (x) = 0.27255 0.38201
# Poissons Ratio (y) = 0.22746 0.07565
# Poissons Ratio (z) = 0.17233 0.04090
#
# Static dielectric constant tensor:
#      x y z
#    x 1.891730 0.000000 -0.080820 
#    y 0.000000 2.010640 0.000000 
#    z -0.080820 0.000000 2.139860 
# 
# From -- ./inp_files/9983.got.cif
#   From: 2010.05.17/outbox.cif.g08.bks.cpg/sg12_5_cif.got.tgz:9983.got - 2010.06.03 13:09:07.
