data_PCOD9208283
_publ_section_title
;
Structure prediction by ZEFSAII (Michael W. Deem and Ramdas Pophale) SiO2 
 PCOD9208283
Probable space group: C 2/M
;
_chemical_formula_sum "Si O2"
_cell_formula_units_Z 52
_cell_length_a 18.146407
_cell_length_b 22.882089
_cell_length_c 9.094038
_cell_angle_alpha 90.000000
_cell_angle_beta 44.045462
_cell_angle_gamma 90.000000
_cell_volume 2625.251480
_symmetry_space_group_name_H-M "C 2/M"
_symmetry_group_IT_number 12
_symmetry_cell_setting 'monoclinic'
loop_
_space_group_symop_operation_xyz
x,y,z
-x,y,-z
-x,-y,-z
x,-y,z
1/2+x,1/2+y,z
1/2-x,1/2+y,-z
1/2-x,1/2-y,-z
1/2+x,1/2-y,z
loop_
_atom_site_type_symbol
_atom_site_label
_atom_site_fract_x
_atom_site_fract_y
_atom_site_fract_z
Si Si1 0.155651 0.000000 0.835635
Si Si2 0.353551 0.188493 0.949873
Si Si3 0.265097 0.812110 0.392719
Si Si4 0.800525 0.387195 0.613313
Si Si5 0.500000 0.872044 0.500000
Si Si6 0.038054 0.000000 0.691728
Si Si7 0.952413 0.129749 0.408668
Si Si8 0.333533 0.324353 0.970003
O O1 0.224658 0.057942 0.729895
O O2 0.091715 0.000000 0.774706
O O3 0.085396 0.000000 0.084319
O O4 0.445563 0.162630 0.714662
O O5 0.355631 0.256956 0.909284
O O6 0.344195 0.189013 0.139380
O O7 0.244090 0.157296 0.052219
O O8 0.250000 0.750000 0.500000
O O9 0.311673 0.860936 0.436036
O O10 0.148936 0.834261 0.502595
O O11 0.905441 0.403987 0.551938
O O12 0.742798 0.334354 0.782816
O O13 0.067771 0.939862 0.567960
O O14 0.000000 0.146957 0.500000
O O15 0.056500 0.142905 0.161024
#
# Coordination Sequence:
#
# PCOD9208283 Si02
#       8
#     4   8   8   8   4   4   8   8
#     4  11  22  41  68  90 134 168 212 279 322 392
#     4  10  22  41  62  92 134 169 219 268 322 392
#     4  12  25  41  63 100 135 168 212 270 332 397
#     4  11  23  44  64  93 130 170 222 268 326 386
#     4  10  26  43  68  90 122 183 228 268 326 386
#     4  11  23  40  64 101 132 173 215 266 340 394
#     4  12  24  40  67  97 133 176 217 267 332 398
#     4  10  21  37  64  93 128 174 211 262 325 396
#
# _framework density 19.807625999999999
#
# number of rings (size 3 to 8) (size 9 to 14) (size 15 to 20)
#    0.000    1.077    6.154    0.231    3.231    1.538 
#    0.000    0.000    0.000    2.769    0.000    0.000 
#    0.000    0.000    0.000    0.000    0.000    0.000 
#
# Total GULP energy -144847.111202 kJ/mol
# GULP energy per Si atom -5571.042739 kJ/mol
# Density = 1.976254 g / cm^3
# Si number density = 19.807626 Si / 1000 Ang^3
#
#
#
# Elastic Constant Matrix: (Units=GPa)
#
#
# Indices 1 2 3 4 5 6 
#
# 1 95.9505 27.9236 26.3171 0.0000 2.6397 0.0000
# 2 27.9236 75.6398 8.1169 0.0000 -5.0052 0.0000
# 3 26.3171 8.1169 89.6547 0.0000 12.6585 0.0000
# 4 0.0000 0.0000 0.0000 16.0695 0.0000 2.8156
# 5 2.6397 -5.0052 12.6585 0.0000 31.9312 0.0000
# 6 0.0000 0.0000 0.0000 2.8156 0.0000 23.9648
#
#
#
# Elastic Compliance Matrix: (Units=1/GPa)
#
#
# Indices 1 2 3 4 5 6 
#
# 1 0.012582 -0.004326 -0.003240 0.000000 -0.000434 0.000000
# 2 -0.004326 0.015065 -0.000506 0.000000 0.002920 0.000000
# 3 -0.003240 -0.000506 0.012843 0.000000 -0.004903 0.000000
# 4 0.000000 0.000000 0.000000 0.063538 0.000000 -0.007465
# 5 -0.000434 0.002920 -0.004903 0.000000 0.033755 0.000000
# 6 0.000000 0.000000 0.000000 -0.007465 0.000000 0.042605
#
#
# Mechanical properties :
#
#
# Convention : Reuss Voigt Hill
#
# Bulk Modulus (GPa) = 41.07633 42.88447 41.98040
# Shear Modulus (GPa) = 24.43236 27.65225 26.04230
#
# Velocity S-wave (km/s) = 3.51591 3.74042 3.62990
# Velocity P-wave (km/s) = 6.10449 6.35230 6.22963
#
# Compressibility (1/GPa) = 0.02434492
#
# Stress axis : x y z
#
# Youngs Moduli (GPa) = 79.48123 66.37902 77.86238
#
# Poissons Ratio (x) = 0.28713 0.25230
# Poissons Ratio (y) = 0.34381 0.03943
# Poissons Ratio (z) = 0.25755 0.03362
#
# Static dielectric constant tensor:
#      x y z
#    x 1.759540 0.000000 0.008810 
#    y 0.000000 1.680070 0.000000 
#    z 0.008810 0.000000 1.772500 
# 
# From -- ./inp_files/77964.got.cif
#   From: 2010.05.17/outbox.cif.g08.bks.cpg/sg12_39_cif.got.tgz:77964.got - 2010.06.03 13:09:07.
