data_PCOD9208751
_publ_section_title
;
Structure prediction by ZEFSAII (Michael W. Deem and Ramdas Pophale) SiO2 
 PCOD9208751
Probable space group: C 2/M
;
_chemical_formula_sum "Si O2"
_cell_formula_units_Z 64
_cell_length_a 14.887082
_cell_length_b 8.736243
_cell_length_c 23.574442
_cell_angle_alpha 90.000000
_cell_angle_beta 65.691576
_cell_angle_gamma 90.000000
_cell_volume 2794.199800
_symmetry_space_group_name_H-M "C 2/M"
_symmetry_group_IT_number 12
_symmetry_cell_setting 'monoclinic'
loop_
_space_group_symop_operation_xyz
x,y,z
-x,y,-z
-x,-y,-z
x,-y,z
1/2+x,1/2+y,z
1/2-x,1/2+y,-z
1/2-x,1/2-y,-z
1/2+x,1/2-y,z
loop_
_atom_site_type_symbol
_atom_site_label
_atom_site_fract_x
_atom_site_fract_y
_atom_site_fract_z
Si Si1 0.818615 0.681951 0.402454
Si Si2 0.308951 0.320043 0.898724
Si Si3 0.978944 0.823467 0.647005
Si Si4 0.024907 0.178720 0.852009
Si Si5 0.838453 0.677721 0.768474
Si Si6 0.327298 0.177218 0.264666
Si Si7 0.896493 0.181278 0.546803
Si Si8 0.895810 0.178052 0.046065
O O1 0.825059 0.500000 0.413366
O O2 0.827065 0.699436 0.331938
O O3 0.709118 0.742005 0.445838
O O4 0.912984 0.770707 0.401129
O O5 0.296780 0.500000 0.908214
O O6 0.414044 0.275717 0.898479
O O7 0.324617 0.276653 0.828529
O O8 0.208246 0.244216 0.945374
O O9 0.936923 0.721142 0.708410
O O10 0.905201 0.812677 0.612758
O O11 0.982799 0.000000 0.664052
O O12 0.068481 0.281262 0.790910
O O13 0.096158 0.187357 0.887693
O O14 0.020953 0.000000 0.835216
O O15 0.836911 0.500000 0.784352
O O16 0.750877 0.717157 0.747483
O O17 0.302097 0.000000 0.259904
O O18 0.000000 0.251251 0.500000
O O19 0.897066 0.000000 0.531089
O O20 0.897189 0.000000 0.028288
O O21 0.000000 0.248923 0.000000
#
# Coordination Sequence:
#
# PCOD9208751 Si02
#       8
#     8   8   8   8   8   8   8   8
#     4  10  21  38  59  87 120 155 195 238 294 354
#     4  11  23  39  61  90 121 154 198 246 292 347
#     4  11  22  38  60  89 119 154 198 242 292 349
#     4  10  22  39  59  87 121 157 193 239 293 348
#     4  12  23  37  60  88 120 156 191 237 300 356
#     4  11  21  36  60  89 119 154 193 238 292 355
#     4   9  19  38  61  83 115 159 201 243 293 348
#     4  10  22  41  62  85 118 161 204 246 295 347
#
# _framework density 22.904589999999999
#
# number of rings (size 3 to 8) (size 9 to 14) (size 15 to 20)
#    0.000    1.500    2.500    3.000    0.000    5.250 
#    0.000    0.000    0.000    2.625    0.000    0.000 
#    0.000    0.000    0.000    0.000    0.000    0.000 
#
# Total GULP energy -178957.117290 kJ/mol
# GULP energy per Si atom -5592.409915 kJ/mol
# Density = 2.285246 g / cm^3
# Si number density = 22.904590 Si / 1000 Ang^3
#
#
#
# Elastic Constant Matrix: (Units=GPa)
#
#
# Indices 1 2 3 4 5 6 
#
# 1 120.3613 23.2198 13.3328 0.0000 -35.9609 0.0000
# 2 23.2198 25.2707 6.3881 0.0000 -9.9168 0.0000
# 3 13.3328 6.3881 82.0253 0.0000 -34.8270 0.0000
# 4 0.0000 0.0000 0.0000 20.7918 0.0000 -11.7130
# 5 -35.9609 -9.9168 -34.8270 0.0000 47.6011 0.0000
# 6 0.0000 0.0000 0.0000 -11.7130 0.0000 26.1263
#
#
#
# Elastic Compliance Matrix: (Units=1/GPa)
#
#
# Indices 1 2 3 4 5 6 
#
# 1 0.012529 -0.008389 0.002747 0.000000 0.009727 0.000000
# 2 -0.008389 0.048737 -0.001178 0.000000 0.002954 0.000000
# 3 0.002747 -0.001178 0.018298 0.000000 0.015217 0.000000
# 4 0.000000 0.000000 0.000000 0.064348 0.000000 0.028848
# 5 0.009727 0.002954 0.015217 0.000000 0.040105 0.000000
# 6 0.000000 0.000000 0.000000 0.028848 0.000000 0.051209
#
#
# Mechanical properties :
#
#
# Convention : Reuss Voigt Hill
#
# Bulk Modulus (GPa) = 15.16930 34.83764 25.00347
# Shear Modulus (GPa) = 18.46119 31.21829 24.83974
#
# Velocity S-wave (km/s) = 2.84210 3.69585 3.29673
# Velocity P-wave (km/s) = 4.17220 5.78406 5.04294
#
# Compressibility (1/GPa) = 0.06592262
#
# Stress axis : x y z
#
# Youngs Moduli (GPa) = 79.81744 20.51845 54.65204
#
# Poissons Ratio (x) = 0.17213 -0.15012
# Poissons Ratio (y) = 0.66960 0.06437
# Poissons Ratio (z) = -0.21924 0.02417
#
# Static dielectric constant tensor:
#      x y z
#    x 1.879560 0.000000 -0.027620 
#    y 0.000000 1.772210 0.000000 
#    z -0.027620 0.000000 1.907090 
# 
# From -- ./inp_files/375453.got.cif
#   From: 2010.05.17/outbox.cif.g08.bks.cpg/sg12_188_cif.got.tgz:375453.got - 2010.06.03 13:09:07.
