data_PCOD9208262
_publ_section_title
;
Structure prediction by ZEFSAII (Michael W. Deem and Ramdas Pophale) SiO2 
 PCOD9208262
Probable space group: C 2/M
;
_chemical_formula_sum "Si O2"
_cell_formula_units_Z 56
_cell_length_a 13.220259
_cell_length_b 21.732077
_cell_length_c 9.831069
_cell_angle_alpha 90.000000
_cell_angle_beta 63.875733
_cell_angle_gamma 90.000000
_cell_volume 2535.954492
_symmetry_space_group_name_H-M "C 2/M"
_symmetry_group_IT_number 12
_symmetry_cell_setting 'monoclinic'
loop_
_space_group_symop_operation_xyz
x,y,z
-x,y,-z
-x,-y,-z
x,-y,z
1/2+x,1/2+y,z
1/2-x,1/2+y,-z
1/2-x,1/2-y,-z
1/2+x,1/2-y,z
loop_
_atom_site_type_symbol
_atom_site_label
_atom_site_fract_x
_atom_site_fract_y
_atom_site_fract_z
Si Si1 0.902421 0.068827 0.223691
Si Si2 0.823330 0.296987 0.360682
Si Si3 0.953055 0.352752 0.670816
Si Si4 0.703694 0.569349 0.414271
Si Si5 0.386137 0.624689 0.789879
Si Si6 0.718992 0.928374 0.095169
Si Si7 0.214900 0.750937 0.177777
O O1 0.850560 0.069110 0.404842
O O2 0.804584 0.080375 0.172465
O O3 0.009310 0.113039 0.172751
O O4 0.947264 0.000000 0.171044
O O5 0.750000 0.250000 0.500000
O O6 0.776671 0.367494 0.375543
O O7 0.817511 0.267919 0.214669
O O8 0.949299 0.308138 0.334506
O O9 0.906695 0.407125 0.792382
O O10 0.842257 0.310273 0.731611
O O11 0.000000 0.376761 0.500000
O O12 0.753728 0.500000 0.365217
O O13 0.617265 0.581417 0.340874
O O14 0.376022 0.694607 0.749767
O O15 0.272541 0.609150 0.939861
O O16 0.721463 0.000000 0.059384
O O17 0.250000 0.750000 0.000000
#
# Coordination Sequence:
#
# PCOD9208262 Si02
#       7
#     8   8   8   8   8   8   8
#     4  10  21  37  63  99 134 173 218 267 331 401
#     4  11  25  44  71  97 132 179 225 275 341 405
#     4  12  25  44  71  95 133 176 224 282 334 402
#     4  10  22  40  64  98 135 172 225 279 332 407
#     4  11  22  39  67  95 136 177 216 278 343 397
#     4  11  24  42  65  98 136 176 226 276 332 403
#     4  11  25  45  65  98 131 168 224 277 336 400
#
# _framework density 22.082414
#
# number of rings (size 3 to 8) (size 9 to 14) (size 15 to 20)
#    0.000    1.143    2.857    3.000    2.000    3.714 
#    2.571    0.000    0.000    2.571    0.000    0.000 
#    0.000    0.000    0.000    0.000    0.000    0.000 
#
# Total GULP energy -156293.303586 kJ/mol
# GULP energy per Si atom -5581.903700 kJ/mol
# Density = 2.203215 g / cm^3
# Si number density = 22.082414 Si / 1000 Ang^3
#
#
#
# Elastic Constant Matrix: (Units=GPa)
#
#
# Indices 1 2 3 4 5 6 
#
# 1 36.3042 -3.3301 -13.5885 0.0000 4.0330 0.0000
# 2 -3.3301 104.9076 -9.9302 0.0000 -5.7463 0.0000
# 3 -13.5885 -9.9302 95.9842 0.0000 11.7218 0.0000
# 4 0.0000 0.0000 0.0000 23.4878 0.0000 2.3417
# 5 4.0330 -5.7463 11.7218 0.0000 28.5725 0.0000
# 6 0.0000 0.0000 0.0000 2.3417 0.0000 29.7346
#
#
#
# Elastic Compliance Matrix: (Units=1/GPa)
#
#
# Indices 1 2 3 4 5 6 
#
# 1 0.030259 0.001111 0.005151 0.000000 -0.006161 0.000000
# 2 0.001111 0.009738 0.000994 0.000000 0.001394 0.000000
# 3 0.005151 0.000994 0.011912 0.000000 -0.005414 0.000000
# 4 0.000000 0.000000 0.000000 0.042912 0.000000 -0.003379
# 5 -0.006161 0.001394 -0.005414 0.000000 0.038370 0.000000
# 6 0.000000 0.000000 0.000000 -0.003379 0.000000 0.033897
#
#
# Mechanical properties :
#
#
# Convention : Reuss Voigt Hill
#
# Bulk Modulus (GPa) = 15.05536 20.38871 17.72204
# Shear Modulus (GPa) = 28.61791 33.96197 31.28994
#
# Velocity S-wave (km/s) = 3.60385 3.92594 3.76834
# Velocity P-wave (km/s) = 4.91422 5.45928 5.19391
#
# Compressibility (1/GPa) = 0.06642151
#
# Stress axis : x y z
#
# Youngs Moduli (GPa) = 33.04760 102.69127 83.95136
#
# Poissons Ratio (x) = -0.11405 -0.43244
# Poissons Ratio (y) = -0.03670 -0.08349
# Poissons Ratio (z) = -0.17023 -0.10213
#
# Static dielectric constant tensor:
#      x y z
#    x 1.857690 0.000000 0.006950 
#    y 0.000000 1.855800 0.000000 
#    z 0.006950 0.000000 1.818060 
# 
# From -- ./inp_files/65791.got.cif
#   From: 2010.05.17/outbox.cif.g08.bks.cpg/sg12_33_cif.got.tgz:65791.got - 2010.06.03 13:09:07.
