data_PCOD9208989
_publ_section_title
;
Structure prediction by ZEFSAII (Michael W. Deem and Ramdas Pophale) SiO2 
 PCOD9208989
Probable space group: C 2/M
;
_chemical_formula_sum "Si O2"
_cell_formula_units_Z 58
_cell_length_a 18.241208
_cell_length_b 7.709648
_cell_length_c 20.155241
_cell_angle_alpha 90.000000
_cell_angle_beta 60.914961
_cell_angle_gamma 90.000000
_cell_volume 2477.065411
_symmetry_space_group_name_H-M "C 2/M"
_symmetry_group_IT_number 12
_symmetry_cell_setting 'monoclinic'
loop_
_space_group_symop_operation_xyz
x,y,z
-x,y,-z
-x,-y,-z
x,-y,z
1/2+x,1/2+y,z
1/2-x,1/2+y,-z
1/2-x,1/2-y,-z
1/2+x,1/2-y,z
loop_
_atom_site_type_symbol
_atom_site_label
_atom_site_fract_x
_atom_site_fract_y
_atom_site_fract_z
Si Si1 0.777785 0.288752 0.116768
Si Si2 0.593126 0.296869 0.159655
Si Si3 0.393140 0.297945 0.596505
Si Si4 0.558816 0.702543 0.031628
Si Si5 0.431962 0.197437 0.296691
Si Si6 0.285873 0.789361 0.263636
Si Si7 0.653779 0.302415 0.537520
Si Si8 0.000000 0.500000 0.500000
O O1 0.780198 0.500000 0.113947
O O2 0.683689 0.227610 0.141202
O O3 0.801208 0.235279 0.181416
O O4 0.846202 0.218574 0.035851
O O5 0.608381 0.500000 0.139947
O O6 0.556930 0.221762 0.106566
O O7 0.521435 0.284499 0.246391
O O8 0.416684 0.500000 0.601401
O O9 0.309166 0.246287 0.673020
O O10 0.367687 0.289596 0.530038
O O11 0.463977 0.153155 0.566690
O O12 0.533970 0.500000 0.047998
O O13 0.500000 0.781372 0.000000
O O14 0.357466 0.273222 0.282890
O O15 0.399083 0.198652 0.385880
O O16 0.444545 0.000000 0.269774
O O17 0.287209 0.000000 0.266165
O O18 0.643123 0.500000 0.563009
O O19 0.750000 0.250000 0.500000
#
# Coordination Sequence:
#
# PCOD9208989 Si02
#       8
#     8   8   8   8   8   8   8   2
#     4  10  21  38  62  86 118 162 205 247 307 379
#     4  10  22  39  57  87 124 161 201 249 313 379
#     4  10  23  43  63  90 129 171 211 274 333 383
#     4  10  21  38  60  88 124 158 197 252 308 367
#     4  11  22  37  62  91 121 157 209 265 310 375
#     4   9  19  39  61  85 120 162 205 259 321 373
#     4  11  22  38  64  91 123 162 210 267 327 379
#     4  12  26  40  64  94 124 164 228 258 322 422
#
# _framework density 23.414804
#
# number of rings (size 3 to 8) (size 9 to 14) (size 15 to 20)
#    0.000    1.793    1.379    2.276    1.931    2.483 
#    2.483    2.759    0.000    0.000    0.000    0.000 
#    0.000    0.000    0.000    0.000    0.000    0.000 
#
# Total GULP energy -161829.322288 kJ/mol
# GULP energy per Si atom -5580.321458 kJ/mol
# Density = 2.336151 g / cm^3
# Si number density = 23.414804 Si / 1000 Ang^3
#
#
#
# Elastic Constant Matrix: (Units=GPa)
#
#
# Indices 1 2 3 4 5 6 
#
# 1 64.4375 5.8808 -2.4959 -0.0001 -5.9704 0.0002
# 2 5.8808 39.6615 -2.2426 -0.0002 13.0100 -0.0002
# 3 -2.4959 -2.2426 90.2376 0.0000 -12.4502 -0.0001
# 4 -0.0001 -0.0002 0.0000 16.1897 0.0000 -7.3739
# 5 -5.9704 13.0100 -12.4502 0.0000 34.0750 -0.0001
# 6 0.0002 -0.0002 -0.0001 -7.3739 -0.0001 7.2017
#
#
#
# Elastic Compliance Matrix: (Units=1/GPa)
#
#
# Indices 1 2 3 4 5 6 
#
# 1 0.016354 -0.003919 0.001008 0.000000 0.004730 -0.000001
# 2 -0.003919 0.029824 -0.001088 0.000001 -0.012471 0.000002
# 3 0.001008 -0.001088 0.011757 0.000000 0.004888 0.000000
# 4 0.000000 0.000001 0.000000 0.115747 0.000000 0.118514
# 5 0.004730 -0.012471 0.004888 0.000000 0.036723 0.000000
# 6 -0.000001 0.000002 0.000000 0.118514 0.000000 0.260204
#
#
# Mechanical properties :
#
#
# Convention : Reuss Voigt Hill
#
# Bulk Modulus (GPa) = 20.02597 21.84680 20.93638
# Shear Modulus (GPa) = 10.09584 24.37290 17.23437
#
# Velocity S-wave (km/s) = 2.07872 3.22983 2.71596
# Velocity P-wave (km/s) = 3.78586 4.82282 4.33546
#
# Compressibility (1/GPa) = 0.04993517
#
# Stress axis : x y z
#
# Youngs Moduli (GPa) = 61.14747 33.53021 85.05540
#
# Poissons Ratio (x) = 0.13142 -0.08570
# Poissons Ratio (y) = 0.23967 0.09253
# Poissons Ratio (z) = -0.06161 0.03648
#
# Static dielectric constant tensor:
#      x y z
#    x 1.920930 0.000000 0.024420 
#    y 0.000000 1.919110 0.000000 
#    z 0.024420 0.000000 1.855750 
# 
# From -- ./inp_files/314757.got.cif
#   From: 2010.05.17/outbox.cif.g08.bks.cpg/sg12_158_cif.got.tgz:314757.got - 2010.06.03 13:09:07.
