data_PCOD9208175
_publ_section_title
;
Structure prediction by ZEFSAII (Michael W. Deem and Ramdas Pophale) SiO2 
 PCOD9208175
Probable space group: C 2/M
;
_chemical_formula_sum "Si O2"
_cell_formula_units_Z 48
_cell_length_a 29.507834
_cell_length_b 15.035485
_cell_length_c 14.684878
_cell_angle_alpha 90.000000
_cell_angle_beta 19.392667
_cell_angle_gamma 90.000000
_cell_volume 2163.296555
_symmetry_space_group_name_H-M "C 2/M"
_symmetry_group_IT_number 12
_symmetry_cell_setting 'monoclinic'
loop_
_space_group_symop_operation_xyz
x,y,z
-x,y,-z
-x,-y,-z
x,-y,z
1/2+x,1/2+y,z
1/2-x,1/2+y,-z
1/2-x,1/2-y,-z
1/2+x,1/2-y,z
loop_
_atom_site_type_symbol
_atom_site_label
_atom_site_fract_x
_atom_site_fract_y
_atom_site_fract_z
Si Si1 0.659936 0.325157 0.788507
Si Si2 0.936607 0.797386 0.713560
Si Si3 0.084708 0.400855 0.211248
Si Si4 0.847493 0.096568 0.590565
Si Si5 0.344010 0.344368 0.400147
Si Si6 0.765785 0.601014 0.778963
O O1 0.680955 0.380371 0.654638
O O2 0.738626 0.234043 0.620856
O O3 0.714642 0.367177 0.777413
O O4 0.499129 0.308836 0.103845
O O5 0.903554 0.693466 0.760420
O O6 0.000000 0.834522 0.500000
O O7 0.055356 0.823044 0.561284
O O8 0.803302 0.841624 0.010292
O O9 0.105068 0.500000 0.216523
O O10 0.929277 0.398061 0.471753
O O11 0.198334 0.394116 0.917336
O O12 0.837900 0.095352 0.500318
O O13 0.901951 0.000000 0.518923
O O14 0.720714 0.500000 0.877934
#
# Coordination Sequence:
#
# PCOD9208175 Si02
#       6
#     8   8   8   8   8   8
#     4  10  21  37  62  94 129 171 216 262 315 374
#     4  12  25  43  69  95 124 166 213 268 328 382
#     4  10  24  44  66  92 128 170 210 260 321 382
#     4  11  24  42  64  95 132 170 213 263 316 379
#     4  10  21  37  62  94 129 171 216 262 315 374
#     4  11  24  42  64  95 132 170 213 263 316 379
#
# _framework density 22.188358999999998
#
# number of rings (size 3 to 8) (size 9 to 14) (size 15 to 20)
#    0.000    1.333    1.667    3.500    2.333    5.000 
#    0.000    5.000    0.000    3.000    0.000    0.000 
#    0.000    0.000    0.000    0.000    0.000    0.000 
#
# Total GULP energy -134014.236845 kJ/mol
# GULP energy per Si atom -5583.926535 kJ/mol
# Density = 2.213786 g / cm^3
# Si number density = 22.188359 Si / 1000 Ang^3
#
#
#
# Elastic Constant Matrix: (Units=GPa)
#
#
# Indices 1 2 3 4 5 6 
#
# 1 103.1197 31.4510 30.9494 0.0001 23.1673 0.0000
# 2 31.4510 116.4192 36.5719 0.0000 13.0579 0.0000
# 3 30.9494 36.5719 155.0771 0.0000 12.8697 -0.0001
# 4 0.0001 0.0000 0.0000 33.4487 0.0000 14.4347
# 5 23.1673 13.0579 12.8697 0.0000 30.6707 0.0000
# 6 0.0000 0.0000 -0.0001 14.4347 0.0000 9.0440
#
#
#
# Elastic Compliance Matrix: (Units=1/GPa)
#
#
# Indices 1 2 3 4 5 6 
#
# 1 0.012534 -0.002062 -0.001349 0.000000 -0.008023 0.000000
# 2 -0.002062 0.009918 -0.001768 0.000000 -0.001923 0.000000
# 3 -0.001349 -0.001768 0.007240 0.000000 -0.001266 0.000000
# 4 0.000000 0.000000 0.000000 0.096060 0.000000 -0.153316
# 5 -0.008023 -0.001923 -0.001266 0.000000 0.040015 0.000000
# 6 0.000000 0.000000 0.000000 -0.153316 0.000000 0.355272
#
#
# Mechanical properties :
#
#
# Convention : Reuss Voigt Hill
#
# Bulk Modulus (GPa) = 51.72558 63.61784 57.67171
# Shear Modulus (GPa) = 9.29643 33.00892 21.15268
#
# Velocity S-wave (km/s) = 2.04912 3.86121 3.09094
# Velocity P-wave (km/s) = 5.38156 6.97227 6.22791
#
# Compressibility (1/GPa) = 0.01933279
#
# Stress axis : x y z
#
# Youngs Moduli (GPa) = 79.78305 100.82892 138.12842
#
# Poissons Ratio (x) = 0.20794 0.18637
# Poissons Ratio (y) = 0.16454 0.24418
# Poissons Ratio (z) = 0.10765 0.17824
#
# Static dielectric constant tensor:
#      x y z
#    x 1.873750 0.000000 0.008740 
#    y 0.000000 1.839550 0.000000 
#    z 0.008740 0.000000 1.794000 
# 
# From -- ./inp_files/251439.got.cif
#   From: 2010.05.17/outbox.cif.g08.bks.cpg/sg12_126_cif.got.tgz:251439.got - 2010.06.03 13:09:07.
