data_PCOD9208732
_publ_section_title
;
Structure prediction by ZEFSAII (Michael W. Deem and Ramdas Pophale) SiO2 
 PCOD9208732
Probable space group: C 2/M
;
_chemical_formula_sum "Si O2"
_cell_formula_units_Z 52
_cell_length_a 17.564643
_cell_length_b 26.225240
_cell_length_c 11.445811
_cell_angle_alpha 90.000000
_cell_angle_beta 147.237047
_cell_angle_gamma 90.000000
_cell_volume 2853.216607
_symmetry_space_group_name_H-M "C 2/M"
_symmetry_group_IT_number 12
_symmetry_cell_setting 'monoclinic'
loop_
_space_group_symop_operation_xyz
x,y,z
-x,y,-z
-x,-y,-z
x,-y,z
1/2+x,1/2+y,z
1/2-x,1/2+y,-z
1/2-x,1/2-y,-z
1/2+x,1/2-y,z
loop_
_atom_site_type_symbol
_atom_site_label
_atom_site_fract_x
_atom_site_fract_y
_atom_site_fract_z
Si Si1 0.000000 0.220851 0.500000
Si Si2 0.448555 0.556464 0.567325
Si Si3 0.285613 0.268337 0.876836
Si Si4 0.752454 0.804068 0.568835
Si Si5 0.001584 0.159966 0.272684
Si Si6 0.038074 0.335928 0.910507
Si Si7 0.866175 0.442729 0.913781
O O1 0.126869 0.255818 0.706676
O O2 0.051724 0.185936 0.459312
O O3 0.500000 0.559029 0.500000
O O4 0.478253 0.500000 0.650710
O O5 0.521287 0.601106 0.731558
O O6 0.279830 0.564183 0.344701
O O7 0.280257 0.291033 0.739029
O O8 0.365302 0.309212 0.057776
O O9 0.368495 0.214497 0.988216
O O10 0.750000 0.750000 0.500000
O O11 0.880220 0.833723 0.673363
O O12 0.604026 0.830441 0.348238
O O13 0.112014 0.390763 0.984459
O O14 0.000000 0.334743 0.000000
O O15 0.856647 0.500000 0.956902
O O16 0.000000 0.444489 0.000000
#
# Coordination Sequence:
#
# PCOD9208732 Si02
#       7
#     4   8   8   8   8   8   8
#     4  12  22  36  51  84 117 150 190 234 282 342
#     4  10  21  38  59  86 115 147 190 239 290 343
#     4  12  23  36  53  81 116 156 189 229 286 345
#     4  12  21  36  54  81 113 151 196 231 279 348
#     4  12  22  36  59  82 115 150 189 238 289 340
#     4  11  18  31  54  77 107 144 184 230 279 331
#     4   9  18  31  51  79 109 140 181 233 285 326
#
# _framework density 18.225045000000001
#
# number of rings (size 3 to 8) (size 9 to 14) (size 15 to 20)
#    0.000    0.923    5.385    3.692    0.000    0.000 
#    0.000    0.000    0.000    2.769    0.000    0.538 
#    0.000    0.000    0.000    0.000    0.000    0.000 
#
# Total GULP energy -145198.477485 kJ/mol
# GULP energy per Si atom -5584.556826 kJ/mol
# Density = 1.818356 g / cm^3
# Si number density = 18.225045 Si / 1000 Ang^3
#
#
#
# Elastic Constant Matrix: (Units=GPa)
#
#
# Indices 1 2 3 4 5 6 
#
# 1 51.8286 16.0979 16.9556 0.0000 -1.5709 0.0000
# 2 16.0979 180.7865 58.7275 0.0000 -2.4935 0.0000
# 3 16.9556 58.7275 88.8068 0.0000 5.8189 0.0000
# 4 0.0000 0.0000 0.0000 28.2445 0.0000 -3.3138
# 5 -1.5709 -2.4935 5.8189 0.0000 30.3975 0.0000
# 6 0.0000 0.0000 0.0000 -3.3138 0.0000 23.0730
#
#
#
# Elastic Compliance Matrix: (Units=1/GPa)
#
#
# Indices 1 2 3 4 5 6 
#
# 1 0.020739 -0.000637 -0.003651 0.000000 0.001718 0.000000
# 2 -0.000637 0.007131 -0.004689 0.000000 0.001450 0.000000
# 3 -0.003651 -0.004689 0.015288 0.000000 -0.003500 0.000000
# 4 0.000000 0.000000 0.000000 0.036012 0.000000 0.005172
# 5 0.001718 0.001450 -0.003500 0.000000 0.033775 0.000000
# 6 0.000000 0.000000 0.000000 0.005172 0.000000 0.044083
#
#
# Mechanical properties :
#
#
# Convention : Reuss Voigt Hill
#
# Bulk Modulus (GPa) = 39.67714 56.10933 47.89324
# Shear Modulus (GPa) = 27.26518 31.65240 29.45879
#
# Velocity S-wave (km/s) = 3.87205 4.17196 4.02480
# Velocity P-wave (km/s) = 6.46593 7.35260 6.92348
#
# Compressibility (1/GPa) = 0.02520343
#
# Stress axis : x y z
#
# Youngs Moduli (GPa) = 48.21906 140.22473 65.41152
#
# Poissons Ratio (x) = 0.08932 0.23881
# Poissons Ratio (y) = 0.03071 0.30674
# Poissons Ratio (z) = 0.17604 0.65756
#
# Static dielectric constant tensor:
#      x y z
#    x 0.804630 0.000000 -0.600760 
#    y 0.000000 1.672060 0.000000 
#    z -0.600760 0.000000 1.203880 
# 
# From -- ./inp_files/160833.got.cif
#   From: 2010.05.17/outbox.cif.g08.bks.cpg/sg12_81_cif.got.tgz:160833.got - 2010.06.03 13:09:07.
