data_PCOD9208844
_publ_section_title
;
Structure prediction by ZEFSAII (Michael W. Deem and Ramdas Pophale) SiO2 
 PCOD9208844
Probable space group: C 2/M
;
_chemical_formula_sum "Si O2"
_cell_formula_units_Z 48
_cell_length_a 31.802601
_cell_length_b 8.493786
_cell_length_c 18.355750
_cell_angle_alpha 90.000000
_cell_angle_beta 149.968017
_cell_angle_gamma 90.000000
_cell_volume 2481.565365
_symmetry_space_group_name_H-M "C 2/M"
_symmetry_group_IT_number 12
_symmetry_cell_setting 'monoclinic'
loop_
_space_group_symop_operation_xyz
x,y,z
-x,y,-z
-x,-y,-z
x,-y,z
1/2+x,1/2+y,z
1/2-x,1/2+y,-z
1/2-x,1/2-y,-z
1/2+x,1/2-y,z
loop_
_atom_site_type_symbol
_atom_site_label
_atom_site_fract_x
_atom_site_fract_y
_atom_site_fract_z
Si Si1 0.083325 0.311062 0.335308
Si Si2 0.918297 0.188709 0.169294
Si Si3 0.750483 0.809576 0.832439
Si Si4 0.748257 0.311142 0.664362
Si Si5 0.583752 0.192053 0.167756
Si Si6 0.416494 0.190439 0.331315
O O1 0.083497 0.500000 0.336359
O O2 0.165848 0.251327 0.500276
O O3 0.083601 0.257200 0.251566
O O4 0.000275 0.252255 0.251436
O O5 0.916709 0.246363 0.249876
O O6 0.920340 0.000000 0.171584
O O7 0.834054 0.241151 0.000781
O O8 0.750096 0.745949 0.750139
O O9 0.667004 0.759385 0.750655
O O10 0.749985 0.000000 0.828731
O O11 0.746837 0.500000 0.661161
O O12 0.832199 0.257136 0.747987
O O13 0.583307 0.000000 0.166879
O O14 0.500000 0.244156 0.000000
O O15 0.500000 0.240390 0.500000
O O16 0.416726 0.000000 0.328630
#
# Coordination Sequence:
#
# PCOD9208844 Si02
#       6
#     8   8   8   8   8   8
#     4  11  22  38  60  83 115 156 193 235 290 345
#     4  11  23  38  58  86 118 150 192 243 286 334
#     4  10  22  39  58  85 120 154 190 234 286 343
#     4  11  22  37  60  88 117 150 193 240 283 336
#     4   9  19  36  58  85 115 150 193 236 280 337
#     4  10  21  38  60  84 113 153 195 233 282 345
#
# _framework density 19.342631000000001
#
# number of rings (size 3 to 8) (size 9 to 14) (size 15 to 20)
#    0.000    1.667    0.000    4.500    0.000    5.000 
#    0.000    2.500    0.000    6.000    0.000    0.000 
#    0.000    0.000    0.000    0.000    0.000    0.000 
#
# Total GULP energy -134196.816550 kJ/mol
# GULP energy per Si atom -5591.534023 kJ/mol
# Density = 1.929861 g / cm^3
# Si number density = 19.342631 Si / 1000 Ang^3
#
#
#
# Elastic Constant Matrix: (Units=GPa)
#
#
# Indices 1 2 3 4 5 6 
#
# 1 245.2581 39.2601 152.2848 0.0000 0.4468 0.0000
# 2 39.2601 21.9876 40.4983 0.0000 0.4928 0.0000
# 3 152.2848 40.4983 247.5552 0.0000 0.3321 0.0000
# 4 0.0000 0.0000 0.0000 -24.1755 0.0000 10.7851
# 5 0.4468 0.4928 0.3321 0.0000 47.0293 0.0000
# 6 0.0000 0.0000 0.0000 10.7851 0.0000 6.0438
#
#
#
# Elastic Compliance Matrix: (Units=1/GPa)
#
#
# Indices 1 2 3 4 5 6 
#
# 1 0.007237 -0.006760 -0.003346 0.000000 0.000026 0.000000
# 2 -0.006760 0.071425 -0.007526 0.000000 -0.000631 0.000000
# 3 -0.003346 -0.007526 0.007329 0.000000 0.000059 0.000000
# 4 0.000000 0.000000 0.000000 -0.023030 0.000000 0.041097
# 5 0.000026 -0.000631 0.000059 0.000000 0.021269 0.000000
# 6 0.000000 0.000000 0.000000 0.041097 0.000000 0.092122
#
#
# Mechanical properties :
#
#
# Convention : Reuss Voigt Hill
#
# Bulk Modulus (GPa) = 19.71283 108.76525 64.23904
# Shear Modulus (GPa) = 21.87960 24.63005 23.25483
#
# Velocity S-wave (km/s) = 3.36692 3.57228 3.47112
# Velocity P-wave (km/s) = 5.03273 8.56550 7.02482
#
# Compressibility (1/GPa) = 0.05072838
#
# Stress axis : x y z
#
# Youngs Moduli (GPa) = 138.17929 14.00071 136.44589
#
# Poissons Ratio (x) = 0.09464 0.45656
# Poissons Ratio (y) = 0.93403 1.02684
# Poissons Ratio (z) = 0.46236 0.10536
#
# Static dielectric constant tensor:
#      x y z
#    x 1.633160 0.000000 0.009500 
#    y 0.000000 1.661510 0.000000 
#    z 0.009500 0.000000 1.645970 
# 
# From -- ./inp_files/274572.got.cif
#   From: 2010.05.17/outbox.cif.g08.bks.cpg/sg12_138_cif.got.tgz:274572.got - 2010.06.03 13:09:07.
