data_PCOD9208232
_publ_section_title
;
Structure prediction by ZEFSAII (Michael W. Deem and Ramdas Pophale) SiO2 
 PCOD9208232
Probable space group: C 2/M
;
_chemical_formula_sum "Si O2"
_cell_formula_units_Z 32
_cell_length_a 18.248219
_cell_length_b 17.742629
_cell_length_c 15.076873
_cell_angle_alpha 90.000000
_cell_angle_beta 160.103333
_cell_angle_gamma 90.000000
_cell_volume 1661.282139
_symmetry_space_group_name_H-M "C 2/M"
_symmetry_group_IT_number 12
_symmetry_cell_setting 'monoclinic'
loop_
_space_group_symop_operation_xyz
x,y,z
-x,y,-z
-x,-y,-z
x,-y,z
1/2+x,1/2+y,z
1/2-x,1/2+y,-z
1/2-x,1/2-y,-z
1/2+x,1/2-y,z
loop_
_atom_site_type_symbol
_atom_site_label
_atom_site_fract_x
_atom_site_fract_y
_atom_site_fract_z
Si Si1 0.550222 0.838572 0.952702
Si Si2 0.670655 0.309127 0.272831
Si Si3 0.316421 0.585977 0.550777
Si Si4 0.421699 0.710716 0.261861
O O1 0.432822 0.760657 0.790655
O O2 0.426475 0.904690 0.762286
O O3 0.500000 0.845708 0.000000
O O4 0.791619 0.825288 0.196066
O O5 0.686043 0.380646 0.353115
O O6 0.539533 0.358011 0.345257
O O7 0.500000 0.322431 0.000000
O O8 0.388018 0.500000 0.628162
O O9 0.401916 0.773926 0.509645
O O10 0.250000 0.750000 0.000000
#
# Coordination Sequence:
#
# PCOD9208232 Si02
#       4
#     8   8   8   8
#     4  10  21  39  64  90 118 158 213 258 298 358
#     4  10  21  37  63  94 120 160 206 257 300 366
#     4  11  23  38  58  92 132 164 196 253 316 365
#     4  11  19  41  67  87 119 164 213 250 299 360
#
# _framework density 19.262229999999999
#
# number of rings (size 3 to 8) (size 9 to 14) (size 15 to 20)
#    0.000    1.500    5.000    1.500    0.000   11.000 
#    0.000    1.250    0.000    1.500    0.000    0.000 
#    0.000    0.000    0.000    0.000    0.000    0.000 
#
# Total GULP energy -89222.005216 kJ/mol
# GULP energy per Si atom -5576.375326 kJ/mol
# Density = 1.921839 g / cm^3
# Si number density = 19.262230 Si / 1000 Ang^3
#
#
#
# Elastic Constant Matrix: (Units=GPa)
#
#
# Indices 1 2 3 4 5 6 
#
# 1 124.2711 43.4429 70.5675 0.0001 10.4236 0.0000
# 2 43.4429 107.4010 36.8283 0.0001 -8.7815 0.0000
# 3 70.5675 36.8283 134.7496 0.0002 -0.4563 0.0001
# 4 0.0001 0.0001 0.0002 11.0024 0.0001 8.1704
# 5 10.4236 -8.7815 -0.4563 0.0001 36.4898 0.0000
# 6 0.0000 0.0000 0.0001 8.1704 0.0000 9.8660
#
#
#
# Elastic Compliance Matrix: (Units=1/GPa)
#
#
# Indices 1 2 3 4 5 6 
#
# 1 0.013033 -0.003650 -0.005844 0.000000 -0.004675 0.000000
# 2 -0.003650 0.011518 -0.001223 0.000000 0.003799 0.000000
# 3 -0.005844 -0.001223 0.010821 0.000000 0.001510 0.000000
# 4 0.000000 0.000000 0.000000 0.236065 -0.000001 -0.195494
# 5 -0.004675 0.003799 0.001510 -0.000001 0.029673 0.000000
# 6 0.000000 0.000000 0.000000 -0.195494 0.000000 0.263255
#
#
# Mechanical properties :
#
#
# Convention : Reuss Voigt Hill
#
# Bulk Modulus (GPa) = 71.75021 74.23321 72.99171
# Shear Modulus (GPa) = 8.46818 25.84384 17.15601
#
# Velocity S-wave (km/s) = 2.09900 3.66688 2.98762
# Velocity P-wave (km/s) = 6.57301 7.51996 7.06238
#
# Compressibility (1/GPa) = 0.01393724
#
# Stress axis : x y z
#
# Youngs Moduli (GPa) = 76.72561 86.82401 92.41342
#
# Poissons Ratio (x) = 0.31694 0.54004
# Poissons Ratio (y) = 0.28007 0.11305
# Poissons Ratio (z) = 0.44836 0.10621
#
# Static dielectric constant tensor:
#      x y z
#    x 1.732130 0.000000 -0.005430 
#    y 0.000000 1.648720 0.000000 
#    z -0.005430 0.000000 1.749290 
# 
# From -- ./inp_files/10489.got.cif
#   From: 2010.05.17/outbox.cif.g08.bks.cpg/sg12_6_cif.got.tgz:10489.got - 2010.06.03 13:09:07.
