data_PCOD9208764
_publ_section_title
;
Structure prediction by ZEFSAII (Michael W. Deem and Ramdas Pophale) SiO2 
 PCOD9208764
Probable space group: C 2/M
;
_chemical_formula_sum "Si O2"
_cell_formula_units_Z 44
_cell_length_a 22.493960
_cell_length_b 18.117305
_cell_length_c 5.065417
_cell_angle_alpha 90.000000
_cell_angle_beta 66.886079
_cell_angle_gamma 90.000000
_cell_volume 1898.599010
_symmetry_space_group_name_H-M "C 2/M"
_symmetry_group_IT_number 12
_symmetry_cell_setting 'monoclinic'
loop_
_space_group_symop_operation_xyz
x,y,z
-x,y,-z
-x,-y,-z
x,-y,z
1/2+x,1/2+y,z
1/2-x,1/2+y,-z
1/2-x,1/2-y,-z
1/2+x,1/2-y,z
loop_
_atom_site_type_symbol
_atom_site_label
_atom_site_fract_x
_atom_site_fract_y
_atom_site_fract_z
Si Si1 0.162227 0.112261 0.329283
Si Si2 0.687264 0.769715 0.437970
Si Si3 0.244928 0.081340 0.698736
Si Si4 0.926216 0.668648 0.071993
Si Si5 0.951639 0.000000 0.339169
Si Si6 0.576536 0.079132 0.418507
O O1 0.167891 0.201248 0.288211
O O2 0.215758 0.093778 0.459116
O O3 0.096840 0.071333 0.542756
O O4 0.185941 0.082187 0.008065
O O5 0.750000 0.750000 0.500000
O O6 0.707098 0.851864 0.305612
O O7 0.625889 0.774475 0.735755
O O8 0.274486 0.000000 0.652096
O O9 0.917175 0.598850 0.285387
O O10 0.908711 0.645160 0.808087
O O11 0.000000 0.692636 0.000000
O O12 0.000000 0.000000 0.500000
O O13 0.000000 0.000000 0.000000
O O14 0.500000 0.073590 0.500000
O O15 0.604650 0.000000 0.295077
#
# Coordination Sequence:
#
# PCOD9208764 Si02
#       6
#     8   8   8   8   4   8
#     4  11  23  44  66  95 140 174 223 292 344 413
#     4  10  25  43  67  98 134 180 230 283 351 415
#     4  11  21  41  68  96 131 179 224 279 343 408
#     4  10  21  38  59  87 127 166 215 270 329 396
#     4  12  24  42  72 106 136 182 235 286 359 416
#     4   9  18  34  58  86 122 167 208 257 317 386
#
# _framework density 23.174983000000001
#
# number of rings (size 3 to 8) (size 9 to 14) (size 15 to 20)
#    0.000    1.636    1.818    2.182    0.000   10.182 
#    0.000    2.727    0.000    0.000    0.000    0.000 
#    0.000    0.000    0.000    0.000    0.000    0.000 
#
# Total GULP energy -122745.468270 kJ/mol
# GULP energy per Si atom -5579.339467 kJ/mol
# Density = 2.312224 g / cm^3
# Si number density = 23.174983 Si / 1000 Ang^3
#
#
#
# Elastic Constant Matrix: (Units=GPa)
#
#
# Indices 1 2 3 4 5 6 
#
# 1 108.7470 25.7831 10.6274 0.0000 -15.4517 0.0000
# 2 25.7831 147.3150 7.3441 0.0000 -10.7842 0.0000
# 3 10.6274 7.3441 80.3877 0.0000 -7.0078 0.0000
# 4 0.0000 0.0000 0.0000 42.0193 0.0000 -7.6457
# 5 -15.4517 -10.7842 -7.0078 0.0000 40.8933 0.0000
# 6 0.0000 0.0000 0.0000 -7.6457 0.0000 14.3348
#
#
#
# Elastic Compliance Matrix: (Units=1/GPa)
#
#
# Indices 1 2 3 4 5 6 
#
# 1 0.010101 -0.001483 -0.000915 0.000000 0.003269 0.000000
# 2 -0.001483 0.007158 -0.000347 0.000000 0.001268 0.000000
# 3 -0.000915 -0.000347 0.012745 0.000000 0.001747 0.000000
# 4 0.000000 0.000000 0.000000 0.026356 0.000000 0.014058
# 5 0.003269 0.001268 0.001747 0.000000 0.026323 0.000000
# 6 0.000000 0.000000 0.000000 0.014058 0.000000 0.077258
#
#
# Mechanical properties :
#
#
# Convention : Reuss Voigt Hill
#
# Bulk Modulus (GPa) = 40.79455 47.10656 43.95056
# Shear Modulus (GPa) = 28.80139 38.96250 33.88195
#
# Velocity S-wave (km/s) = 3.52913 4.10473 3.82777
# Velocity P-wave (km/s) = 5.85213 6.54490 6.20818
#
# Compressibility (1/GPa) = 0.02451308
#
# Stress axis : x y z
#
# Youngs Moduli (GPa) = 98.99871 139.70677 78.46415
#
# Poissons Ratio (x) = 0.20718 0.07179
# Poissons Ratio (y) = 0.14681 0.02726
# Poissons Ratio (z) = 0.09058 0.04853
#
# Static dielectric constant tensor:
#      x y z
#    x 1.872150 0.000000 -0.016770 
#    y 0.000000 1.967650 0.000000 
#    z -0.016770 0.000000 2.058910 
# 
# From -- ./inp_files/24937.got.cif
#   From: 2010.05.17/outbox.cif.g08.bks.cpg/sg12_13_cif.got.tgz:24937.got - 2010.06.03 13:09:07.
