data_PCOD9208741
_publ_section_title
;
Structure prediction by ZEFSAII (Michael W. Deem and Ramdas Pophale) SiO2 
 PCOD9208741
Probable space group: C 2/M
;
_chemical_formula_sum "Si O2"
_cell_formula_units_Z 42
_cell_length_a 18.944252
_cell_length_b 7.344051
_cell_length_c 14.393075
_cell_angle_alpha 90.000000
_cell_angle_beta 64.465892
_cell_angle_gamma 90.000000
_cell_volume 1806.889417
_symmetry_space_group_name_H-M "C 2/M"
_symmetry_group_IT_number 12
_symmetry_cell_setting 'monoclinic'
loop_
_space_group_symop_operation_xyz
x,y,z
-x,y,-z
-x,-y,-z
x,-y,z
1/2+x,1/2+y,z
1/2-x,1/2+y,-z
1/2-x,1/2-y,-z
1/2+x,1/2-y,z
loop_
_atom_site_type_symbol
_atom_site_label
_atom_site_fract_x
_atom_site_fract_y
_atom_site_fract_z
Si Si1 0.827849 0.718011 0.396169
Si Si2 0.987156 0.277672 0.401288
Si Si3 0.000000 0.000000 0.000000
Si Si4 0.308401 0.209341 0.199628
Si Si5 0.595771 0.219392 0.032397
Si Si6 0.143498 0.281302 0.207972
O O1 0.835291 0.500000 0.384810
O O2 0.750000 0.750000 0.500000
O O3 0.905240 0.784611 0.404697
O O4 0.820030 0.789141 0.295219
O O5 0.985807 0.500000 0.401683
O O6 0.000000 0.220698 0.500000
O O7 0.061670 0.221544 0.298476
O O8 0.981814 0.837995 0.932278
O O9 0.217845 0.212204 0.221886
O O10 0.334639 0.000000 0.188668
O O11 0.355881 0.287344 0.085296
O O12 0.642652 0.264173 0.099498
O O13 0.582784 0.000000 0.038964
O O14 0.146859 0.500000 0.212694
#
# Coordination Sequence:
#
# PCOD9208741 Si02
#       6
#     8   8   2   8   8   8
#     4  10  21  38  59  86 119 160 205 258 323 377
#     4   9  18  34  58  86 117 157 204 255 316 381
#     4  12  26  40  68  98 130 168 218 260 318 386
#     4  10  22  39  61  87 127 168 205 261 322 379
#     4  10  24  43  64  95 133 169 211 264 318 377
#     4  10  21  38  64  90 120 163 210 259 316 378
#
# _framework density 23.244367
#
# number of rings (size 3 to 8) (size 9 to 14) (size 15 to 20)
#    0.000    2.095    0.000    2.000    5.333    2.286 
#    0.000    0.952    0.000    3.429    0.000    0.000 
#    0.000    0.000    0.000    0.000    0.000    0.000 
#
# Total GULP energy -117147.219103 kJ/mol
# GULP energy per Si atom -5578.439005 kJ/mol
# Density = 2.319146 g / cm^3
# Si number density = 23.244367 Si / 1000 Ang^3
#
#
#
# Elastic Constant Matrix: (Units=GPa)
#
#
# Indices 1 2 3 4 5 6 
#
# 1 178.2984 7.9378 91.6603 0.0000 27.7563 0.0000
# 2 7.9378 105.1891 5.5754 0.0000 13.6920 -0.0001
# 3 91.6603 5.5754 184.7466 0.0000 23.3744 0.0000
# 4 0.0000 0.0000 0.0000 3.8648 0.0000 2.6855
# 5 27.7563 13.6920 23.3744 0.0000 48.3026 0.0000
# 6 0.0000 -0.0001 0.0000 2.6855 0.0000 1.6740
#
#
#
# Elastic Compliance Matrix: (Units=1/GPa)
#
#
# Indices 1 2 3 4 5 6 
#
# 1 0.007870 -0.000042 -0.003550 0.000000 -0.002793 -0.000001
# 2 -0.000042 0.009872 0.000079 0.000004 -0.002812 -0.000005
# 3 -0.003550 0.000079 0.007368 0.000000 -0.001548 0.000000
# 4 0.000000 0.000004 0.000000 -2.254116 -0.000001 3.616311
# 5 -0.002793 -0.002812 -0.001548 -0.000001 0.023854 0.000001
# 6 -0.000001 -0.000005 0.000000 3.616311 0.000001 -5.204312
#
#
# Mechanical properties :
#
#
# Convention : Reuss Voigt Hill
#
# Bulk Modulus (GPa) = 55.30205 75.39789 65.34997
# Shear Modulus (GPa) = -0.67600 34.97231 17.14815
#
# Velocity S-wave (km/s) = -0.53987 3.88306 2.71907
# Velocity P-wave (km/s) = 4.84300 7.25339 6.16710
#
# Compressibility (1/GPa) = 0.01808251
#
# Stress axis : x y z
#
# Youngs Moduli (GPa) = 127.06052 101.29920 135.72882
#
# Poissons Ratio (x) = 0.00428 0.48186
# Poissons Ratio (y) = 0.00537 -0.01070
# Poissons Ratio (z) = 0.45109 -0.00799
#
# Static dielectric constant tensor:
#      x y z
#    x 1.893340 0.000000 -0.033870 
#    y 0.000000 1.914920 0.000000 
#    z -0.033870 0.000000 1.886070 
# 
# From -- ./inp_files/221160.got.cif
#   From: 2010.05.17/outbox.cif.g08.bks.cpg/sg12_111_cif.got.tgz:221160.got - 2010.06.03 13:09:07.
