data_PCOD9208544
_publ_section_title
;
Structure prediction by ZEFSAII (Michael W. Deem and Ramdas Pophale) SiO2 
 PCOD9208544
Probable space group: C 2/M
;
_chemical_formula_sum "Si O2"
_cell_formula_units_Z 56
_cell_length_a 29.742290
_cell_length_b 7.598607
_cell_length_c 21.772837
_cell_angle_alpha 90.000000
_cell_angle_beta 150.873067
_cell_angle_gamma 90.000000
_cell_volume 2395.112149
_symmetry_space_group_name_H-M "C 2/M"
_symmetry_group_IT_number 12
_symmetry_cell_setting 'monoclinic'
loop_
_space_group_symop_operation_xyz
x,y,z
-x,y,-z
-x,-y,-z
x,-y,z
1/2+x,1/2+y,z
1/2-x,1/2+y,-z
1/2-x,1/2-y,-z
1/2+x,1/2-y,z
loop_
_atom_site_type_symbol
_atom_site_label
_atom_site_fract_x
_atom_site_fract_y
_atom_site_fract_z
Si Si1 0.303615 0.195193 0.126189
Si Si2 0.528271 0.290416 0.228735
Si Si3 0.797745 0.798603 0.635921
Si Si4 0.837717 0.702281 0.941548
Si Si5 0.397367 0.210942 0.558979
Si Si6 0.986181 0.283839 0.413089
Si Si7 0.891969 0.286351 0.873435
O O1 0.393884 0.279477 0.266651
O O2 0.336038 0.000000 0.149499
O O3 0.250000 0.250000 0.000000
O O4 0.227500 0.198003 0.089225
O O5 0.524684 0.500000 0.213716
O O6 0.624930 0.219198 0.316488
O O7 0.441828 0.208194 0.091389
O O8 0.526499 0.253696 0.298887
O O9 0.698241 0.713591 0.528476
O O10 0.843605 0.795504 0.757348
O O11 0.783793 0.000000 0.598258
O O12 0.806156 0.500000 0.902825
O O13 0.844474 0.769966 0.880207
O O14 0.429042 0.269778 0.529798
O O15 0.386986 0.000000 0.543124
O O16 0.982746 0.500000 0.411164
O O17 0.000000 0.225736 0.500000
O O18 0.886331 0.500000 0.863285
O O19 0.000000 0.239861 0.000000
#
# Coordination Sequence:
#
# PCOD9208544 Si02
#       7
#     8   8   8   8   8   8   8
#     4  11  23  40  66  95 124 160 206 259 313 368
#     4  11  22  37  57  88 123 155 196 245 297 356
#     4  10  22  36  57  88 119 154 197 244 294 358
#     4  11  23  39  61  87 120 159 201 247 304 366
#     4  10  21  38  61  86 116 156 197 240 297 361
#     4   9  20  39  62  88 117 154 202 251 299 357
#     4  10  21  38  58  83 116 158 200 246 303 361
#
# _framework density 23.380953000000002
#
# number of rings (size 3 to 8) (size 9 to 14) (size 15 to 20)
#    0.000    1.714    1.429    2.571    2.000    3.714 
#    0.000    0.714    0.000    2.143    0.000    0.000 
#    0.000    0.000    0.000    0.000    0.000    0.000 
#
# Total GULP energy -156431.717719 kJ/mol
# GULP energy per Si atom -5586.847061 kJ/mol
# Density = 2.332774 g / cm^3
# Si number density = 23.380953 Si / 1000 Ang^3
#
#
#
# Elastic Constant Matrix: (Units=GPa)
#
#
# Indices 1 2 3 4 5 6 
#
# 1 107.9919 -7.2812 25.4709 0.0000 -12.6381 0.0000
# 2 -7.2812 53.0113 -6.1685 0.0000 2.5020 0.0000
# 3 25.4709 -6.1685 96.9902 0.0000 -11.7357 0.0000
# 4 0.0000 0.0000 0.0000 19.6543 0.0000 -15.8583
# 5 -12.6381 2.5020 -11.7357 0.0000 43.0003 0.0000
# 6 0.0000 0.0000 0.0000 -15.8583 0.0000 -4.6162
#
#
#
# Elastic Compliance Matrix: (Units=1/GPa)
#
#
# Indices 1 2 3 4 5 6 
#
# 1 0.010144 0.001015 -0.002322 0.000000 0.002288 0.000000
# 2 0.001015 0.019133 0.000881 0.000000 -0.000575 0.000000
# 3 -0.002322 0.000881 0.011259 0.000000 0.002339 0.000000
# 4 0.000000 0.000000 0.000000 0.013489 0.000000 -0.046340
# 5 0.002288 -0.000575 0.002339 0.000000 0.024600 0.000000
# 6 0.000000 0.000000 0.000000 -0.046340 0.000000 -0.057433
#
#
# Mechanical properties :
#
#
# Convention : Reuss Voigt Hill
#
# Bulk Modulus (GPa) = 25.19983 31.33731 28.26857
# Shear Modulus (GPa) = 141.74838 28.00583 84.87711
#
# Velocity S-wave (km/s) = 7.79469 3.46469 6.03164
# Velocity P-wave (km/s) = 9.58180 5.42563 7.78615
#
# Compressibility (1/GPa) = 0.03968281
#
# Stress axis : x y z
#
# Youngs Moduli (GPa) = 98.58060 52.26592 88.81561
#
# Poissons Ratio (x) = -0.05305 0.20627
# Poissons Ratio (y) = -0.10006 -0.07823
# Poissons Ratio (z) = 0.22895 -0.04603
#
# Static dielectric constant tensor:
#      x y z
#    x 1.863550 0.000000 0.027820 
#    y 0.000000 1.898760 0.000000 
#    z 0.027820 0.000000 1.875640 
# 
# From -- ./inp_files/329730.got.cif
#   From: 2010.05.17/outbox.cif.g08.bks.cpg/sg12_165_cif.got.tgz:329730.got - 2010.06.03 13:09:07.
