data_PCOD9208187
_publ_section_title
;
Structure prediction by ZEFSAII (Michael W. Deem and Ramdas Pophale) SiO2 
 PCOD9208187
Probable space group: C 2/M
;
_chemical_formula_sum "Si O2"
_cell_formula_units_Z 64
_cell_length_a 29.575693
_cell_length_b 18.626193
_cell_length_c 14.515933
_cell_angle_alpha 90.000000
_cell_angle_beta 158.806463
_cell_angle_gamma 90.000000
_cell_volume 2890.916794
_symmetry_space_group_name_H-M "C 2/M"
_symmetry_group_IT_number 12
_symmetry_cell_setting 'monoclinic'
loop_
_space_group_symop_operation_xyz
x,y,z
-x,y,-z
-x,-y,-z
x,-y,z
1/2+x,1/2+y,z
1/2-x,1/2+y,-z
1/2-x,1/2-y,-z
1/2+x,1/2-y,z
loop_
_atom_site_type_symbol
_atom_site_label
_atom_site_fract_x
_atom_site_fract_y
_atom_site_fract_z
Si Si1 0.305816 0.416511 0.935681
Si Si2 0.606531 0.082446 0.414948
Si Si3 0.576659 0.216526 0.728803
Si Si4 0.816088 0.137372 0.155117
Si Si5 0.348790 0.918445 0.705850
Si Si6 0.913642 0.084898 0.526266
Si Si7 0.726836 0.692577 0.610724
Si Si8 0.019852 0.276422 0.826551
O O1 0.304973 0.500000 0.910601
O O2 0.286884 0.407426 0.008456
O O3 0.445746 0.391825 0.178483
O O4 0.193436 0.386654 0.661555
O O5 0.679541 0.082797 0.456999
O O6 0.493912 0.137441 0.189836
O O7 0.567394 0.000000 0.358565
O O8 0.500000 0.181314 0.500000
O O9 0.626142 0.289495 0.776047
O O10 0.512018 0.236150 0.701530
O O11 0.690336 0.163704 0.965750
O O12 0.898942 0.099077 0.389100
O O13 0.277111 0.854727 0.621010
O O14 0.320258 0.000000 0.686109
O O15 0.500000 0.910105 0.000000
O O16 0.817627 0.133828 0.398773
O O17 0.898345 0.000000 0.514140
O O18 0.601244 0.739877 0.356571
O O19 0.843580 0.739037 0.871850
#
# Coordination Sequence:
#
# PCOD9208187 Si02
#       8
#     8   8   8   8   8   8   8   8
#     4  10  21  37  62  96 133 173 215 275 342 394
#     4  10  23  44  71  98 131 177 220 271 342 409
#     4  11  23  37  57  89 128 183 228 271 326 397
#     4  11  21  37  61  89 132 178 227 270 332 398
#     4  10  21  45  75 101 133 173 225 279 340 412
#     4  11  23  41  67 100 137 178 234 286 333 400
#     4  12  26  44  69 104 135 179 227 280 347 401
#     4  12  26  43  68 100 137 176 227 284 334 410
#
# _framework density 22.138304999999999
#
# number of rings (size 3 to 8) (size 9 to 14) (size 15 to 20)
#    0.000    1.125    2.500    4.125    5.250    2.000 
#    0.000    0.625    0.000    5.625    0.000    0.000 
#    0.000    0.000    0.000    0.000    0.000    0.000 
#
# Total GULP energy -178775.506615 kJ/mol
# GULP energy per Si atom -5586.734582 kJ/mol
# Density = 2.208792 g / cm^3
# Si number density = 22.138305 Si / 1000 Ang^3
#
#
#
# Elastic Constant Matrix: (Units=GPa)
#
#
# Indices 1 2 3 4 5 6 
#
# 1 44.0263 0.6739 -13.9696 0.0000 8.4901 0.0000
# 2 0.6739 72.2546 19.5674 0.0000 18.6307 0.0000
# 3 -13.9696 19.5674 59.7691 0.0000 13.0148 0.0000
# 4 0.0000 0.0000 0.0000 18.2779 0.0000 7.5423
# 5 8.4901 18.6307 13.0148 0.0000 32.1835 0.0000
# 6 0.0000 0.0000 0.0000 7.5423 0.0000 36.5688
#
#
#
# Elastic Compliance Matrix: (Units=1/GPa)
#
#
# Indices 1 2 3 4 5 6 
#
# 1 0.027603 0.000187 0.008772 0.000000 -0.010938 0.000000
# 2 0.000187 0.017004 -0.003694 0.000000 -0.008399 0.000000
# 3 0.008772 -0.003694 0.021963 0.000000 -0.009057 0.000000
# 4 0.000000 0.000000 0.000000 0.059800 0.000000 -0.012334
# 5 -0.010938 -0.008399 -0.009057 0.000000 0.042482 0.000000
# 6 0.000000 0.000000 0.000000 -0.012334 0.000000 0.029890
#
#
# Mechanical properties :
#
#
# Convention : Reuss Voigt Hill
#
# Bulk Modulus (GPa) = 12.97006 20.95482 16.96244
# Shear Modulus (GPa) = 23.37401 28.72459 26.04930
#
# Velocity S-wave (km/s) = 3.25286 3.60600 3.43397
# Velocity P-wave (km/s) = 4.46984 5.17915 4.83751
#
# Compressibility (1/GPa) = 0.07710063
#
# Stress axis : x y z
#
# Youngs Moduli (GPa) = 36.22740 58.80851 45.53127
#
# Poissons Ratio (x) = -0.01101 -0.39940
# Poissons Ratio (y) = -0.00678 0.16820
# Poissons Ratio (z) = -0.31779 0.21725
#
# Static dielectric constant tensor:
#      x y z
#    x 1.825970 0.000000 -0.048140 
#    y 0.000000 1.849620 0.000000 
#    z -0.048140 0.000000 1.967570 
# 
# From -- ./inp_files/251941.got.cif
#   From: 2010.05.17/outbox.cif.g08.bks.cpg/sg12_126_cif.got.tgz:251941.got - 2010.06.03 13:09:07.
