data_PCOD9208241
_publ_section_title
;
Structure prediction by ZEFSAII (Michael W. Deem and Ramdas Pophale) SiO2 
 PCOD9208241
Probable space group: C 2/M
;
_chemical_formula_sum "Si O2"
_cell_formula_units_Z 56
_cell_length_a 11.138490
_cell_length_b 16.630267
_cell_length_c 13.470192
_cell_angle_alpha 90.000000
_cell_angle_beta 99.299441
_cell_angle_gamma 90.000000
_cell_volume 2462.372103
_symmetry_space_group_name_H-M "C 2/M"
_symmetry_group_IT_number 12
_symmetry_cell_setting 'monoclinic'
loop_
_space_group_symop_operation_xyz
x,y,z
-x,y,-z
-x,-y,-z
x,-y,z
1/2+x,1/2+y,z
1/2-x,1/2+y,-z
1/2-x,1/2-y,-z
1/2+x,1/2-y,z
loop_
_atom_site_type_symbol
_atom_site_label
_atom_site_fract_x
_atom_site_fract_y
_atom_site_fract_z
Si Si1 0.772970 0.202517 0.402824
Si Si2 0.543906 0.904172 0.396157
Si Si3 0.998262 0.670140 0.186816
Si Si4 0.747521 0.092485 0.145876
Si Si5 0.047049 0.091267 0.656699
Si Si6 0.133246 0.822142 0.244696
Si Si7 0.239759 0.403295 0.923858
O O1 0.750000 0.250000 0.500000
O O2 0.679456 0.127786 0.395836
O O3 0.903355 0.162187 0.406433
O O4 0.731400 0.263180 0.309912
O O5 0.500000 0.878613 0.500000
O O6 0.473366 0.866762 0.293174
O O7 0.537325 0.000000 0.389901
O O8 0.892050 0.638273 0.103163
O O9 0.128415 0.640127 0.163572
O O10 0.018907 0.764652 0.202940
O O11 0.856017 0.095153 0.239232
O O12 0.706280 0.000000 0.135158
O O13 0.788689 0.114888 0.040536
O O14 0.915742 0.113931 0.682138
O O15 0.050267 0.000000 0.618108
O O16 0.181926 0.865160 0.153747
O O17 0.231267 0.500000 0.910131
#
# Coordination Sequence:
#
# PCOD9208241 Si02
#       7
#     8   8   8   8   8   8   8
#     4  11  25  42  67  92 127 165 211 264 319 382
#     4  10  21  37  63  95 122 160 209 259 317 381
#     4  11  22  40  65  95 133 165 214 274 326 380
#     4  10  21  41  68  94 125 174 223 263 316 389
#     4  11  23  46  69  91 130 177 217 255 317 395
#     4  11  25  42  63  97 132 168 210 268 326 379
#     4  11  24  42  64  95 131 170 217 268 322 381
#
# _framework density 22.742297000000001
#
# number of rings (size 3 to 8) (size 9 to 14) (size 15 to 20)
#    0.000    1.286    2.857    3.429    6.000    2.286 
#    2.571    5.000    0.000    0.000    0.000    0.000 
#    0.000    0.000    0.000    0.000    0.000    0.000 
#
# Total GULP energy -156633.324439 kJ/mol
# GULP energy per Si atom -5594.047301 kJ/mol
# Density = 2.269053 g / cm^3
# Si number density = 22.742297 Si / 1000 Ang^3
#
#
#
# Elastic Constant Matrix: (Units=GPa)
#
#
# Indices 1 2 3 4 5 6 
#
# 1 55.1658 27.8333 24.3038 0.0000 -14.0873 0.0000
# 2 27.8333 109.9473 43.5502 0.0000 -9.7935 0.0000
# 3 24.3038 43.5502 116.8916 0.0000 -10.2733 0.0000
# 4 0.0000 0.0000 0.0000 27.5348 0.0000 -17.0575
# 5 -14.0873 -9.7935 -10.2733 0.0000 36.0775 0.0000
# 6 0.0000 0.0000 0.0000 -17.0575 0.0000 28.6501
#
#
#
# Elastic Compliance Matrix: (Units=1/GPa)
#
#
# Indices 1 2 3 4 5 6 
#
# 1 0.023242 -0.004200 -0.002636 0.000000 0.007185 0.000000
# 2 -0.004200 0.011545 -0.003382 0.000000 0.000531 0.000000
# 3 -0.002636 -0.003382 0.010453 0.000000 0.001029 0.000000
# 4 0.000000 0.000000 0.000000 0.057540 0.000000 0.034258
# 5 0.007185 0.000531 0.001029 0.000000 0.030961 0.000000
# 6 0.000000 0.000000 0.000000 0.034258 0.000000 0.055300
#
#
# Mechanical properties :
#
#
# Convention : Reuss Voigt Hill
#
# Bulk Modulus (GPa) = 40.31313 52.59772 46.45542
# Shear Modulus (GPa) = 22.96263 30.87365 26.91814
#
# Velocity S-wave (km/s) = 3.18101 3.68848 3.44410
# Velocity P-wave (km/s) = 5.59073 6.42789 6.02387
#
# Compressibility (1/GPa) = 0.02480582
#
# Stress axis : x y z
#
# Youngs Moduli (GPa) = 43.02523 86.61663 95.66270
#
# Poissons Ratio (x) = 0.36375 0.25221
# Poissons Ratio (y) = 0.18069 0.32348
# Poissons Ratio (z) = 0.11343 0.29289
#
# Static dielectric constant tensor:
#      x y z
#    x 1.838030 0.000000 0.008850 
#    y 0.000000 1.823930 0.000000 
#    z 0.008850 0.000000 1.891720 
# 
# From -- ./inp_files/205014.got.cif
#   From: 2010.05.17/outbox.cif.g08.bks.cpg/sg12_103_cif.got.tgz:205014.got - 2010.06.03 13:09:07.
