data_PCOD9208341
_publ_section_title
;
Structure prediction by ZEFSAII (Michael W. Deem and Ramdas Pophale) SiO2 
 PCOD9208341
Probable space group: C 2/M
;
_chemical_formula_sum "Si O2"
_cell_formula_units_Z 36
_cell_length_a 9.905421
_cell_length_b 16.567971
_cell_length_c 10.200364
_cell_angle_alpha 90.000000
_cell_angle_beta 114.612085
_cell_angle_gamma 90.000000
_cell_volume 1521.922923
_symmetry_space_group_name_H-M "C 2/M"
_symmetry_group_IT_number 12
_symmetry_cell_setting 'monoclinic'
loop_
_space_group_symop_operation_xyz
x,y,z
-x,y,-z
-x,-y,-z
x,-y,z
1/2+x,1/2+y,z
1/2-x,1/2+y,-z
1/2-x,1/2-y,-z
1/2+x,1/2-y,z
loop_
_atom_site_type_symbol
_atom_site_label
_atom_site_fract_x
_atom_site_fract_y
_atom_site_fract_z
Si Si1 0.500000 0.783328 0.000000
Si Si2 0.027896 0.126553 0.156824
Si Si3 0.130114 0.857306 0.653118
Si Si4 0.129746 0.337668 0.661334
Si Si5 0.425212 0.091677 0.793904
O O1 0.478900 0.720122 0.107829
O O2 0.614927 0.848774 0.100994
O O3 0.200603 0.128249 0.272214
O O4 0.923714 0.101714 0.233295
O O5 0.000000 0.090187 0.000000
O O6 0.146720 0.759542 0.667803
O O7 0.276312 0.897390 0.652053
O O8 0.000000 0.870694 0.500000
O O9 0.000000 0.356579 0.500000
O O10 0.061554 0.372548 0.768573
O O11 0.450573 0.000000 0.839352
#
# Coordination Sequence:
#
# PCOD9208341 Si02
#       5
#     4   8   8   8   8
#     4  10  21  40  60  94 123 166 206 268 307 384
#     4  10  21  37  69  93 124 160 217 262 310 362
#     4  11  21  40  67  96 123 164 216 264 310 375
#     4  11  21  40  67  96 123 164 216 264 310 375
#     4  12  26  40  61  94 132 165 204 262 324 375
#
# _framework density 23.654285000000002
#
# number of rings (size 3 to 8) (size 9 to 14) (size 15 to 20)
#    0.667    0.444    4.444    1.667    3.111    7.111 
#    0.000    1.111    0.000    1.333    0.000    0.000 
#    0.000    0.000    0.000    0.000    0.000    0.000 
#
# Total GULP energy -100204.808911 kJ/mol
# GULP energy per Si atom -5566.933828 kJ/mol
# Density = 2.360045 g / cm^3
# Si number density = 23.654285 Si / 1000 Ang^3
#
#
#
# Elastic Constant Matrix: (Units=GPa)
#
#
# Indices 1 2 3 4 5 6 
#
# 1 98.2970 1.5736 9.1409 0.0000 -10.7167 0.0000
# 2 1.5736 104.1663 8.8285 0.0000 -6.7405 0.0000
# 3 9.1409 8.8285 71.6982 0.0000 -0.0522 0.0000
# 4 0.0000 0.0000 0.0000 -11.6385 0.0000 3.1772
# 5 -10.7167 -6.7405 -0.0522 0.0000 9.6653 0.0000
# 6 0.0000 0.0000 0.0000 3.1772 0.0000 8.5803
#
#
#
# Elastic Compliance Matrix: (Units=1/GPa)
#
#
# Indices 1 2 3 4 5 6 
#
# 1 0.011797 0.000841 -0.001598 0.000000 0.013659 0.000000
# 2 0.000841 0.010224 -0.001360 0.000000 0.008055 0.000000
# 3 -0.001598 -0.001360 0.014317 0.000000 -0.002643 0.000000
# 4 0.000000 0.000000 0.000000 -0.078034 0.000000 0.028895
# 5 0.013659 0.008055 -0.002643 0.000000 0.124211 0.000000
# 6 0.000000 0.000000 0.000000 0.028895 0.000000 0.105846
#
#
# Mechanical properties :
#
#
# Convention : Reuss Voigt Hill
#
# Bulk Modulus (GPa) = 31.14866 34.80528 32.97697
# Shear Modulus (GPa) = 24.59460 18.29600 21.44530
#
# Velocity S-wave (km/s) = 3.22802 2.78416 3.01427
# Velocity P-wave (km/s) = 5.20484 5.00814 5.10744
#
# Compressibility (1/GPa) = 0.03210411
#
# Stress axis : x y z
#
# Youngs Moduli (GPa) = 84.76390 97.81037 69.84895
#
# Poissons Ratio (x) = -0.08226 0.11160
# Poissons Ratio (y) = -0.07129 0.09501
# Poissons Ratio (z) = 0.13543 0.13305
#
# Static dielectric constant tensor:
#      x y z
#    x 1.851420 0.000000 0.062800 
#    y 0.000000 1.890990 0.000000 
#    z 0.062800 0.000000 2.206700 
# 
# From -- ./inp_files/120475.got.cif
#   From: 2010.05.17/outbox.cif.g08.bks.cpg/sg12_61_cif.got.tgz:120475.got - 2010.06.03 13:09:07.
