data_PCOD9208926
_publ_section_title
;
Structure prediction by ZEFSAII (Michael W. Deem and Ramdas Pophale) SiO2 
 PCOD9208926
Probable space group: C 2/M
;
_chemical_formula_sum "Si O2"
_cell_formula_units_Z 20
_cell_length_a 5.574670
_cell_length_b 21.097749
_cell_length_c 7.896877
_cell_angle_alpha 90.000000
_cell_angle_beta 58.347892
_cell_angle_gamma 90.000000
_cell_volume 790.620014
_symmetry_space_group_name_H-M "C 2/M"
_symmetry_group_IT_number 12
_symmetry_cell_setting 'monoclinic'
loop_
_space_group_symop_operation_xyz
x,y,z
-x,y,-z
-x,-y,-z
x,-y,z
1/2+x,1/2+y,z
1/2-x,1/2+y,-z
1/2-x,1/2-y,-z
1/2+x,1/2-y,z
loop_
_atom_site_type_symbol
_atom_site_label
_atom_site_fract_x
_atom_site_fract_y
_atom_site_fract_z
Si Si1 0.348575 0.069131 0.373207
Si Si2 0.500000 0.694267 0.000000
Si Si3 0.195485 0.185476 0.266629
O O1 0.500000 0.072910 0.500000
O O2 0.418820 0.133745 0.248593
O O3 0.000000 0.070153 0.500000
O O4 0.427374 0.000000 0.272407
O O5 0.284957 0.746526 0.161305
O O6 0.567187 0.655221 0.143614
O O7 0.000000 0.198455 0.500000
#
# Coordination Sequence:
#
# PCOD9208926 Si02
#       3
#     8   4   8
#     4   9  19  37  63  91 119 160 209 254 310 371
#     4  10  22  36  56  92 124 160 214 246 300 386
#     4  10  21  38  60  86 126 166 201 258 311 360
#
# _framework density 25.296600999999999
#
# number of rings (size 3 to 8) (size 9 to 14) (size 15 to 20)
#    0.000    2.400    0.000    1.200    0.000   14.400 
#    0.000    2.000    0.000    0.000    0.000    0.000 
#    0.000    1.600    0.000    0.000    0.000    0.000 
#
# Total GULP energy -55668.361483 kJ/mol
# GULP energy per Si atom -5566.836148 kJ/mol
# Density = 2.523902 g / cm^3
# Si number density = 25.296601 Si / 1000 Ang^3
#
#
#
# Elastic Constant Matrix: (Units=GPa)
#
#
# Indices 1 2 3 4 5 6 
#
# 1 151.4538 29.7665 48.8132 0.0000 44.7830 0.0000
# 2 29.7665 168.4309 27.6616 0.0000 29.3622 0.0000
# 3 48.8132 27.6616 196.7037 0.0000 29.8431 0.0000
# 4 0.0000 0.0000 0.0000 -25.4065 0.0000 -5.1919
# 5 44.7830 29.3622 29.8431 0.0000 48.3575 0.0000
# 6 0.0000 0.0000 0.0000 -5.1919 0.0000 37.7830
#
#
#
# Elastic Compliance Matrix: (Units=1/GPa)
#
#
# Indices 1 2 3 4 5 6 
#
# 1 0.009306 -0.000089 -0.001101 0.000000 -0.007885 0.000000
# 2 -0.000089 0.006663 -0.000346 0.000000 -0.003750 0.000000
# 3 -0.001101 -0.000346 0.005758 0.000000 -0.002324 0.000000
# 4 0.000000 0.000000 0.000000 -0.038285 0.000000 -0.005261
# 5 -0.007885 -0.003750 -0.002324 0.000000 0.031693 0.000000
# 6 0.000000 0.000000 0.000000 -0.005261 0.000000 0.025744
#
#
# Mechanical properties :
#
#
# Convention : Reuss Voigt Hill
#
# Bulk Modulus (GPa) = 53.60148 81.00788 67.30468
# Shear Modulus (GPa) = 99.66014 39.50329 69.58171
#
# Velocity S-wave (km/s) = 6.28348 3.95600 5.25034
# Velocity P-wave (km/s) = 8.59524 7.27732 7.96359
#
# Compressibility (1/GPa) = 0.01865620
#
# Stress axis : x y z
#
# Youngs Moduli (GPa) = 107.45205 150.07252 173.66566
#
# Poissons Ratio (x) = 0.01341 0.19114
# Poissons Ratio (y) = 0.00960 0.06009
# Poissons Ratio (z) = 0.11826 0.05192
#
# Static dielectric constant tensor:
#      x y z
#    x 2.504690 0.000000 -0.146730 
#    y 0.000000 2.012140 0.000000 
#    z -0.146730 0.000000 1.974780 
# 
# From -- ./inp_files/33446.got.cif
#   From: 2010.05.17/outbox.cif.g08.bks.cpg/sg12_17_cif.got.tgz:33446.got - 2010.06.03 13:09:07.
