data_PCOD9208910
_publ_section_title
;
Structure prediction by ZEFSAII (Michael W. Deem and Ramdas Pophale) SiO2 
 PCOD9208910
Probable space group: C 2/M
;
_chemical_formula_sum "Si O2"
_cell_formula_units_Z 40
_cell_length_a 19.186654
_cell_length_b 8.626949
_cell_length_c 27.334432
_cell_angle_alpha 90.000000
_cell_angle_beta 151.417366
_cell_angle_gamma 90.000000
_cell_volume 2164.616934
_symmetry_space_group_name_H-M "C 2/M"
_symmetry_group_IT_number 12
_symmetry_cell_setting 'monoclinic'
loop_
_space_group_symop_operation_xyz
x,y,z
-x,y,-z
-x,-y,-z
x,-y,z
1/2+x,1/2+y,z
1/2-x,1/2+y,-z
1/2-x,1/2-y,-z
1/2+x,1/2-y,z
loop_
_atom_site_type_symbol
_atom_site_label
_atom_site_fract_x
_atom_site_fract_y
_atom_site_fract_z
Si Si1 0.937184 0.685490 0.312767
Si Si2 0.918846 0.813868 0.500530
Si Si3 0.821525 0.684488 0.092976
Si Si4 0.596075 0.314661 0.314683
Si Si5 0.331031 0.814991 0.905941
O O1 0.935321 0.500000 0.309720
O O2 0.776905 0.752046 0.202334
O O3 0.996978 0.744093 0.401155
O O4 0.039577 0.747894 0.331845
O O5 0.755162 0.749108 0.400713
O O6 0.000000 0.773789 0.500000
O O7 0.914992 0.000000 0.502569
O O8 0.836216 0.500000 0.099430
O O9 0.720336 0.732255 0.076236
O O10 0.977977 0.758854 0.202041
O O11 0.750000 0.750000 0.000000
O O12 0.597451 0.500000 0.318259
O O13 0.308899 0.000000 0.897321
O O14 0.500000 0.785677 0.000000
#
# Coordination Sequence:
#
# PCOD9208910 Si02
#       5
#     8   8   8   8   8
#     4  11  22  38  61  86 115 151 193 236 281 339
#     4  11  24  41  60  84 116 151 189 236 289 340
#     4  11  22  38  60  86 117 152 193 236 283 337
#     4  11  22  39  62  86 115 150 192 236 282 340
#     4  10  21  38  60  86 117 152 191 235 285 339
#
# _framework density 18.479019999999998
#
# number of rings (size 3 to 8) (size 9 to 14) (size 15 to 20)
#    0.000    1.200    0.000    9.600    0.000    4.800 
#    0.000    2.000    0.000    0.000    0.000    0.000 
#    0.000    0.000    0.000    0.000    0.000    0.000 
#
# Total GULP energy -111856.450480 kJ/mol
# GULP energy per Si atom -5592.822524 kJ/mol
# Density = 1.843696 g / cm^3
# Si number density = 18.479020 Si / 1000 Ang^3
#
#
#
# Elastic Constant Matrix: (Units=GPa)
#
#
# Indices 1 2 3 4 5 6 
#
# 1 83.1312 50.2150 93.8151 0.0000 4.4300 0.0000
# 2 50.2150 131.1842 57.8213 -0.0001 6.6355 0.0000
# 3 93.8151 57.8213 159.8552 -0.0002 -5.3619 -0.0001
# 4 0.0000 -0.0001 -0.0002 37.3314 -0.0001 -0.0905
# 5 4.4300 6.6355 -5.3619 -0.0001 36.8637 0.0000
# 6 0.0000 0.0000 -0.0001 -0.0905 0.0000 31.0772
#
#
#
# Elastic Compliance Matrix: (Units=1/GPa)
#
#
# Indices 1 2 3 4 5 6 
#
# 1 0.040710 -0.005456 -0.022158 0.000000 -0.007133 0.000000
# 2 -0.005456 0.009968 -0.000444 0.000000 -0.001203 0.000000
# 3 -0.022158 -0.000444 0.019608 0.000000 0.005595 0.000000
# 4 0.000000 0.000000 0.000000 0.026787 0.000000 0.000078
# 5 -0.007133 -0.001203 0.005595 0.000000 0.029014 0.000000
# 6 0.000000 0.000000 0.000000 0.000078 0.000000 0.032178
#
#
# Mechanical properties :
#
#
# Convention : Reuss Voigt Hill
#
# Bulk Modulus (GPa) = 70.56788 86.43039 78.49914
# Shear Modulus (GPa) = 22.82017 32.54239 27.68128
#
# Velocity S-wave (km/s) = 3.51796 4.20103 3.87458
# Velocity P-wave (km/s) = 7.40084 8.39079 7.91131
#
# Compressibility (1/GPa) = 0.01417075
#
# Stress axis : x y z
#
# Youngs Moduli (GPa) = 24.56375 100.32281 51.00058
#
# Poissons Ratio (x) = 0.54737 1.13005
# Poissons Ratio (y) = 0.13402 0.02263
# Poissons Ratio (z) = 0.54428 0.04452
#
# Static dielectric constant tensor:
#      x y z
#    x 1.608040 0.000000 0.001110 
#    y 0.000000 1.618050 0.000000 
#    z 0.001110 0.000000 1.623110 
# 
# From -- ./inp_files/342758.got.cif
#   From: 2010.05.17/outbox.cif.g08.bks.cpg/sg12_172_cif.got.tgz:342758.got - 2010.06.03 13:09:07.
