data_PCOD9208936
_publ_section_title
;
Structure prediction by ZEFSAII (Michael W. Deem and Ramdas Pophale) SiO2 
 PCOD9208936
Probable space group: C 2/M
;
_chemical_formula_sum "Si O2"
_cell_formula_units_Z 48
_cell_length_a 25.170292
_cell_length_b 8.843200
_cell_length_c 20.747261
_cell_angle_alpha 90.000000
_cell_angle_beta 35.840462
_cell_angle_gamma 90.000000
_cell_volume 2704.007203
_symmetry_space_group_name_H-M "C 2/M"
_symmetry_group_IT_number 12
_symmetry_cell_setting 'monoclinic'
loop_
_space_group_symop_operation_xyz
x,y,z
-x,y,-z
-x,-y,-z
x,-y,z
1/2+x,1/2+y,z
1/2-x,1/2+y,-z
1/2-x,1/2-y,-z
1/2+x,1/2-y,z
loop_
_atom_site_type_symbol
_atom_site_label
_atom_site_fract_x
_atom_site_fract_y
_atom_site_fract_z
Si Si1 0.301598 0.681397 0.269047
Si Si2 0.688472 0.817816 0.503892
Si Si3 0.002633 0.180515 0.125122
Si Si4 0.486484 0.818587 0.743231
Si Si5 0.325416 0.180268 0.109100
Si Si6 0.698824 0.680903 0.112042
O O1 0.295558 0.500000 0.265849
O O2 0.229720 0.727580 0.394447
O O3 0.402229 0.714482 0.197545
O O4 0.290493 0.763042 0.212128
O O5 0.750000 0.750000 0.500000
O O6 0.583946 0.775423 0.617825
O O7 0.694722 0.000000 0.501695
O O8 0.016530 0.259046 0.180464
O O9 0.010727 0.000000 0.124729
O O10 0.079550 0.239901 0.001319
O O11 0.402099 0.747444 0.788700
O O12 0.478583 0.000000 0.751332
O O13 0.255539 0.217918 0.120367
O O14 0.338518 0.000000 0.096738
O O15 0.695752 0.500000 0.108304
O O16 0.750000 0.750000 0.000000
#
# Coordination Sequence:
#
# PCOD9208936 Si02
#       6
#     8   8   8   8   8   8
#     4  10  22  39  58  85 119 156 195 234 290 353
#     4  10  21  38  60  87 118 153 195 240 286 345
#     4  11  21  35  59  87 119 155 190 235 292 351
#     4  11  22  36  59  90 119 150 194 242 289 343
#     4  11  24  39  57  85 118 153 195 242 294 347
#     4  11  23  39  60  85 116 153 196 242 293 348
#
# _framework density 17.751432000000001
#
# number of rings (size 3 to 8) (size 9 to 14) (size 15 to 20)
#    0.000    1.333    3.333    2.500    0.000    6.667 
#    0.000    0.833    0.000    5.000    0.000    0.000 
#    0.000    0.000    0.000    0.000    0.000    0.000 
#
# Total GULP energy -134151.956327 kJ/mol
# GULP energy per Si atom -5589.664847 kJ/mol
# Density = 1.771103 g / cm^3
# Si number density = 17.751432 Si / 1000 Ang^3
#
#
#
# Elastic Constant Matrix: (Units=GPa)
#
#
# Indices 1 2 3 4 5 6 
#
# 1 63.2628 31.0577 44.5454 0.0017 2.4574 -0.0012
# 2 31.0577 33.1739 30.0968 0.0029 -2.7082 -0.0016
# 3 44.5454 30.0968 144.0265 0.0017 2.6606 -0.0015
# 4 0.0017 0.0029 0.0017 25.7358 -0.0005 1.1548
# 5 2.4574 -2.7082 2.6606 -0.0005 34.4586 0.0003
# 6 -0.0012 -0.0016 -0.0015 1.1548 0.0003 33.1835
#
#
#
# Elastic Compliance Matrix: (Units=1/GPa)
#
#
# Indices 1 2 3 4 5 6 
#
# 1 0.031894 -0.026289 -0.004297 0.000001 -0.004009 0.000000
# 2 -0.026289 0.059297 -0.004387 -0.000005 0.006874 0.000002
# 3 -0.004297 -0.004387 0.009203 0.000000 -0.000749 0.000000
# 4 0.000001 -0.000005 0.000000 0.038917 0.000000 -0.001354
# 5 -0.004009 0.006874 -0.000749 0.000000 0.029904 0.000000
# 6 0.000000 0.000002 0.000000 -0.001354 0.000000 0.030183
#
#
# Mechanical properties :
#
#
# Convention : Reuss Voigt Hill
#
# Bulk Modulus (GPa) = 32.84234 50.20698 41.52466
# Shear Modulus (GPa) = 17.88947 27.65980 22.77463
#
# Velocity S-wave (km/s) = 3.17799 3.95165 3.58575
# Velocity P-wave (km/s) = 5.65752 7.01181 6.37076
#
# Compressibility (1/GPa) = 0.03044850
#
# Stress axis : x y z
#
# Youngs Moduli (GPa) = 31.35359 16.86415 108.66209
#
# Poissons Ratio (x) = 0.44333 0.46692
# Poissons Ratio (y) = 0.82424 0.47675
# Poissons Ratio (z) = 0.13473 0.07399
#
# Static dielectric constant tensor:
#      x y z
#    x 1.579440 0.000000 -0.006150 
#    y 0.000000 1.596020 0.000000 
#    z -0.006150 0.000000 1.596440 
# 
# From -- ./inp_files/327184.got.cif
#   From: 2010.05.17/outbox.cif.g08.bks.cpg/sg12_164_cif.got.tgz:327184.got - 2010.06.03 13:09:07.
