data_PCOD9208148
_publ_section_title
;
Structure prediction by ZEFSAII (Michael W. Deem and Ramdas Pophale) SiO2 
 PCOD9208148
Probable space group: C 2/M
;
_chemical_formula_sum "Si O2"
_cell_formula_units_Z 56
_cell_length_a 9.055146
_cell_length_b 16.829697
_cell_length_c 27.315210
_cell_angle_alpha 90.000000
_cell_angle_beta 139.976498
_cell_angle_gamma 90.000000
_cell_volume 2677.047072
_symmetry_space_group_name_H-M "C 2/M"
_symmetry_group_IT_number 12
_symmetry_cell_setting 'monoclinic'
loop_
_space_group_symop_operation_xyz
x,y,z
-x,y,-z
-x,-y,-z
x,-y,z
1/2+x,1/2+y,z
1/2-x,1/2+y,-z
1/2-x,1/2-y,-z
1/2+x,1/2-y,z
loop_
_atom_site_type_symbol
_atom_site_label
_atom_site_fract_x
_atom_site_fract_y
_atom_site_fract_z
Si Si1 0.875928 0.369473 0.704025
Si Si2 0.522123 0.301991 0.949284
Si Si3 0.230787 0.701772 0.425254
Si Si4 0.011212 0.588275 0.561541
Si Si5 0.994198 0.858343 0.321122
Si Si6 0.581862 0.710097 0.797583
Si Si7 0.601492 0.410775 0.168824
O O1 0.803994 0.356115 0.630020
O O2 0.669986 0.404578 0.683563
O O3 0.918417 0.282341 0.739228
O O4 0.123617 0.409599 0.768776
O O5 0.512870 0.374768 0.909014
O O6 0.303540 0.247543 0.879470
O O7 0.500000 0.326860 0.000000
O O8 0.750000 0.250000 0.000000
O O9 0.500000 0.716860 0.500000
O O10 0.096056 0.781997 0.376453
O O11 0.124855 0.657381 0.445212
O O12 0.928499 0.500000 0.554764
O O13 0.280887 0.597140 0.641349
O O14 0.000000 0.594310 0.500000
O O15 0.856378 0.831581 0.237957
O O16 0.457714 0.649956 0.802612
O O17 0.524380 0.500000 0.159802
#
# Coordination Sequence:
#
# PCOD9208148 Si02
#       7
#     8   8   8   8   8   8   8
#     4  10  21  37  62  91 124 162 208 258 316 374
#     4  11  22  41  70  96 128 170 207 250 312 379
#     4  11  22  38  63  93 120 160 214 273 313 362
#     4  11  25  42  59  85 125 168 206 255 325 387
#     4  11  22  38  64  91 124 159 213 262 310 367
#     4  10  21  39  63  93 124 167 207 247 308 383
#     4  11  24  42  65  96 129 165 211 259 307 366
#
# _framework density 20.918569999999999
#
# number of rings (size 3 to 8) (size 9 to 14) (size 15 to 20)
#    0.000    1.286    1.429    6.429    2.000    5.143 
#    0.000    1.429    0.000    0.000    0.000    0.000 
#    0.000    0.000    0.000    0.000    0.000    0.000 
#
# Total GULP energy -156623.706175 kJ/mol
# GULP energy per Si atom -5593.703792 kJ/mol
# Density = 2.087096 g / cm^3
# Si number density = 20.918570 Si / 1000 Ang^3
#
#
#
# Elastic Constant Matrix: (Units=GPa)
#
#
# Indices 1 2 3 4 5 6 
#
# 1 107.8535 32.1373 25.8748 0.0000 -7.7544 0.0000
# 2 32.1373 105.2820 15.5503 0.0000 -9.7774 0.0000
# 3 25.8748 15.5503 102.1318 -0.0001 -9.6744 0.0000
# 4 0.0000 0.0000 -0.0001 -2.8441 0.0000 5.3879
# 5 -7.7544 -9.7774 -9.6744 0.0000 46.4220 0.0000
# 6 0.0000 0.0000 0.0000 5.3879 0.0000 11.3766
#
#
#
# Elastic Compliance Matrix: (Units=1/GPa)
#
#
# Indices 1 2 3 4 5 6 
#
# 1 0.010710 -0.002876 -0.002207 0.000000 0.000723 0.000000
# 2 -0.002876 0.010634 -0.000738 0.000000 0.001605 0.000000
# 3 -0.002207 -0.000738 0.010623 0.000000 0.001690 0.000000
# 4 0.000000 0.000000 0.000000 -0.185327 0.000000 0.087771
# 5 0.000723 0.001605 0.001690 0.000000 0.022353 0.000000
# 6 0.000000 0.000000 0.000000 0.087771 0.000000 0.046332
#
#
# Mechanical properties :
#
#
# Convention : Reuss Voigt Hill
#
# Bulk Modulus (GPa) = 49.20181 51.37690 50.28936
# Shear Modulus (GPa) = -75.46380 27.10454 -24.17963
#
# Velocity S-wave (km/s) = -6.01276 3.60351 -3.40353
# Velocity P-wave (km/s) = 4.96314 6.47514 2.94064
#
# Compressibility (1/GPa) = 0.02032446
#
# Stress axis : x y z
#
# Youngs Moduli (GPa) = 93.36775 94.03438 94.13637
#
# Poissons Ratio (x) = 0.27046 0.20776
# Poissons Ratio (y) = 0.26854 0.06951
# Poissons Ratio (z) = 0.20606 0.06944
#
# Static dielectric constant tensor:
#      x y z
#    x 1.770800 0.000000 0.000360 
#    y 0.000000 1.778540 0.000000 
#    z 0.000360 0.000000 1.742310 
# 
# From -- ./inp_files/356731.got.cif
#   From: 2010.05.17/outbox.cif.g08.bks.cpg/sg12_179_cif.got.tgz:356731.got - 2010.06.03 13:09:07.
