data_PCOD9208569
_publ_section_title
;
Structure prediction by ZEFSAII (Michael W. Deem and Ramdas Pophale) SiO2 
 PCOD9208569
Probable space group: C 2/M
;
_chemical_formula_sum "Si O2"
_cell_formula_units_Z 64
_cell_length_a 29.836900
_cell_length_b 9.217005
_cell_length_c 14.765559
_cell_angle_alpha 90.000000
_cell_angle_beta 51.448568
_cell_angle_gamma 90.000000
_cell_volume 3175.611752
_symmetry_space_group_name_H-M "C 2/M"
_symmetry_group_IT_number 12
_symmetry_cell_setting 'monoclinic'
loop_
_space_group_symop_operation_xyz
x,y,z
-x,y,-z
-x,-y,-z
x,-y,z
1/2+x,1/2+y,z
1/2-x,1/2+y,-z
1/2-x,1/2-y,-z
1/2+x,1/2-y,z
loop_
_atom_site_type_symbol
_atom_site_label
_atom_site_fract_x
_atom_site_fract_y
_atom_site_fract_z
Si Si1 0.305470 0.665319 0.549355
Si Si2 0.716425 0.670111 0.907346
Si Si3 0.841975 0.773712 0.703912
Si Si4 0.616639 0.334303 0.153878
Si Si5 0.049331 0.655177 0.512912
Si Si6 0.510902 0.326591 0.725534
Si Si7 0.890595 0.674439 0.303242
Si Si8 0.187352 0.828112 0.735544
O O1 0.299242 0.500000 0.522880
O O2 0.326830 0.654801 0.626537
O O3 0.349497 0.757439 0.433354
O O4 0.245525 0.751744 0.626679
O O5 0.724851 0.500000 0.916713
O O6 0.779940 0.733162 0.821100
O O7 0.689195 0.684535 0.841806
O O8 0.671826 0.734994 0.035706
O O9 0.874219 0.840376 0.749848
O O10 0.888854 0.657666 0.611810
O O11 0.615097 0.500000 0.122198
O O12 0.554704 0.274678 0.204302
O O13 0.042808 0.500000 0.570229
O O14 0.040915 0.786231 0.592420
O O15 0.000000 0.664513 0.500000
O O16 0.513607 0.500000 0.736942
O O17 0.546771 0.238934 0.754571
O O18 0.888764 0.500000 0.306007
O O19 0.864700 0.742819 0.244515
O O20 0.186553 0.000000 0.714988
#
# Coordination Sequence:
#
# PCOD9208569 Si02
#       8
#     8   8   8   8   8   8   8   8
#     4  11  22  35  56  89 127 161 196 240 295 361
#     4   9  20  38  60  86 117 154 204 254 298 348
#     4  11  20  34  59  89 123 164 200 241 293 351
#     4  10  21  38  58  85 119 159 205 252 294 346
#     4  11  22  36  55  84 124 163 201 244 297 356
#     4  11  23  38  59  86 119 159 202 247 298 357
#     4  12  24  39  60  85 118 155 196 249 306 365
#     4  10  21  39  62  86 116 155 200 250 303 357
#
# _framework density 20.153596
#
# number of rings (size 3 to 8) (size 9 to 14) (size 15 to 20)
#    0.000    1.375    2.500    3.750    0.000    1.750 
#    0.000    0.625    0.000   14.250    0.000    0.000 
#    0.000    0.000    0.000    0.000    0.000    0.000 
#
# Total GULP energy -178430.577753 kJ/mol
# GULP energy per Si atom -5575.955555 kJ/mol
# Density = 2.010773 g / cm^3
# Si number density = 20.153596 Si / 1000 Ang^3
#
#
#
# Elastic Constant Matrix: (Units=GPa)
#
#
# Indices 1 2 3 4 5 6 
#
# 1 126.1097 42.2751 12.3422 0.0000 -11.0471 0.0000
# 2 42.2751 115.5203 12.5431 0.0000 -2.8865 0.0000
# 3 12.3422 12.5431 55.8093 0.0000 -13.3887 0.0000
# 4 0.0000 0.0000 0.0000 17.2300 0.0000 17.3622
# 5 -11.0471 -2.8865 -13.3887 0.0000 26.8754 0.0000
# 6 0.0000 0.0000 0.0000 17.3622 0.0000 99.8272
#
#
#
# Elastic Compliance Matrix: (Units=1/GPa)
#
#
# Indices 1 2 3 4 5 6 
#
# 1 0.009368 -0.003287 -0.000561 0.000000 0.003218 0.000000
# 2 -0.003287 0.010026 -0.001808 0.000000 -0.001175 0.000000
# 3 -0.000561 -0.001808 0.020837 0.000000 0.009956 0.000000
# 4 0.000000 0.000000 0.000000 0.070371 0.000000 -0.012239
# 5 0.003218 -0.001175 0.009956 0.000000 0.043365 0.000000
# 6 0.000000 0.000000 0.000000 -0.012239 0.000000 0.012146
#
#
# Mechanical properties :
#
#
# Convention : Reuss Voigt Hill
#
# Bulk Modulus (GPa) = 34.57947 47.97333 41.27640
# Shear Modulus (GPa) = 26.72844 44.13845 35.43344
#
# Velocity S-wave (km/s) = 3.64570 4.68493 4.19760
# Velocity P-wave (km/s) = 5.90904 7.28837 6.63465
#
# Compressibility (1/GPa) = 0.02891889
#
# Stress axis : x y z
#
# Youngs Moduli (GPa) = 106.74260 99.73679 47.99149
#
# Poissons Ratio (x) = 0.32784 0.02692
# Poissons Ratio (y) = 0.35087 0.08679
# Poissons Ratio (z) = 0.05988 0.18037
#
# Static dielectric constant tensor:
#      x y z
#    x 1.745310 0.000000 -0.011860 
#    y 0.000000 1.726410 0.000000 
#    z -0.011860 0.000000 1.728850 
# 
# From -- ./inp_files/249728.got.cif
#   From: 2010.05.17/outbox.cif.g08.bks.cpg/sg12_125_cif.got.tgz:249728.got - 2010.06.03 13:09:07.
