data_PCOD9208138
_publ_section_title
;
Structure prediction by ZEFSAII (Michael W. Deem and Ramdas Pophale) SiO2 
 PCOD9208138
Probable space group: C 2/M
;
_chemical_formula_sum "Si O2"
_cell_formula_units_Z 40
_cell_length_a 9.087814
_cell_length_b 30.134505
_cell_length_c 13.638611
_cell_angle_alpha 90.000000
_cell_angle_beta 148.078991
_cell_angle_gamma 90.000000
_cell_volume 1974.893515
_symmetry_space_group_name_H-M "C 2/M"
_symmetry_group_IT_number 12
_symmetry_cell_setting 'monoclinic'
loop_
_space_group_symop_operation_xyz
x,y,z
-x,y,-z
-x,-y,-z
x,-y,z
1/2+x,1/2+y,z
1/2-x,1/2+y,-z
1/2-x,1/2-y,-z
1/2+x,1/2-y,z
loop_
_atom_site_type_symbol
_atom_site_label
_atom_site_fract_x
_atom_site_fract_y
_atom_site_fract_z
Si Si1 0.179862 0.806089 0.297882
Si Si2 0.164396 0.951364 0.812682
Si Si3 0.377229 0.391880 0.037826
Si Si4 0.639620 0.278094 0.688641
Si Si5 0.748486 0.626920 0.715993
O O1 0.500000 0.820272 0.500000
O O2 0.192483 0.767836 0.221334
O O3 0.002197 0.848036 0.161511
O O4 0.063016 0.783981 0.332580
O O5 0.063300 0.934709 0.861086
O O6 0.124865 0.909174 0.720589
O O7 0.052649 0.000000 0.721835
O O8 0.500000 0.954987 0.000000
O O9 0.500000 0.395051 0.000000
O O10 0.042682 0.389126 0.842210
O O11 0.500000 0.277345 0.500000
O O12 0.809228 0.323828 0.790484
O O13 0.500000 0.632259 0.500000
#
# Coordination Sequence:
#
# PCOD9208138 Si02
#       5
#     8   8   8   8   8
#     4  11  23  39  61  90 130 166 204 254 305 363
#     4   9  19  41  66  90 121 159 203 255 310 370
#     4  11  25  38  60  95 124 162 205 254 311 359
#     4  10  21  37  62  89 124 167 203 248 303 365
#     4  10  22  41  63  89 126 163 206 252 301 370
#
# _framework density 20.254256000000002
#
# number of rings (size 3 to 8) (size 9 to 14) (size 15 to 20)
#    0.000    1.800    2.000    2.400    8.400    1.600 
#    0.000    0.000    0.000    4.200    0.000    0.000 
#    0.000    0.000    0.000    0.000    0.000    0.000 
#
# Total GULP energy -111431.128814 kJ/mol
# GULP energy per Si atom -5571.556441 kJ/mol
# Density = 2.020816 g / cm^3
# Si number density = 20.254256 Si / 1000 Ang^3
#
#
#
# Elastic Constant Matrix: (Units=GPa)
#
#
# Indices 1 2 3 4 5 6 
#
# 1 150.2083 27.2661 21.1122 0.0000 8.1070 0.0000
# 2 27.2661 120.9961 13.8710 0.0000 -5.8799 0.0000
# 3 21.1122 13.8710 50.1223 0.0000 -0.0200 0.0000
# 4 0.0000 0.0000 0.0000 -43.7178 0.0000 -80.5058
# 5 8.1070 -5.8799 -0.0200 0.0000 18.1987 0.0000
# 6 0.0000 0.0000 0.0000 -80.5058 0.0000 -66.7856
#
#
#
# Elastic Compliance Matrix: (Units=1/GPa)
#
#
# Indices 1 2 3 4 5 6 
#
# 1 0.007537 -0.001572 -0.002741 0.000000 -0.003868 0.000000
# 2 -0.001572 0.009004 -0.001828 0.000000 0.003607 0.000000
# 3 -0.002741 -0.001828 0.021612 0.000000 0.000654 0.000000
# 4 0.000000 0.000000 0.000000 0.018752 0.000000 -0.022605
# 5 -0.003868 0.003607 0.000654 0.000000 0.057838 0.000000
# 6 0.000000 0.000000 0.000000 -0.022605 0.000000 0.012275
#
#
# Mechanical properties :
#
#
# Convention : Reuss Voigt Hill
#
# Bulk Modulus (GPa) = 38.65483 49.53614 44.09549
# Shear Modulus (GPa) = 33.80098 -1.18911 16.30594
#
# Velocity S-wave (km/s) = 4.08957 -0.76705 2.84044
# Velocity P-wave (km/s) = 6.43628 4.87091 5.70751
#
# Compressibility (1/GPa) = 0.02586999
#
# Stress axis : x y z
#
# Youngs Moduli (GPa) = 132.68126 111.06305 46.27072
#
# Poissons Ratio (x) = 0.17461 0.12683
# Poissons Ratio (y) = 0.20860 0.08459
# Poissons Ratio (z) = 0.36369 0.20303
#
# Static dielectric constant tensor:
#      x y z
#    x 1.741520 0.000000 -0.034010 
#    y 0.000000 1.797730 0.000000 
#    z -0.034010 0.000000 1.782000 
# 
# From -- ./inp_files/41866.got.cif
#   From: 2010.05.17/outbox.cif.g08.bks.cpg/sg12_21_cif.got.tgz:41866.got - 2010.06.03 13:09:07.
