data_PCOD9208267
_publ_section_title
;
Structure prediction by ZEFSAII (Michael W. Deem and Ramdas Pophale) SiO2 
 PCOD9208267
Probable space group: C 2/M
;
_chemical_formula_sum "Si O2"
_cell_formula_units_Z 40
_cell_length_a 16.130890
_cell_length_b 12.809637
_cell_length_c 8.018441
_cell_angle_alpha 90.000000
_cell_angle_beta 92.400537
_cell_angle_gamma 90.000000
_cell_volume 1655.403247
_symmetry_space_group_name_H-M "C 2/M"
_symmetry_group_IT_number 12
_symmetry_cell_setting 'monoclinic'
loop_
_space_group_symop_operation_xyz
x,y,z
-x,y,-z
-x,-y,-z
x,-y,z
1/2+x,1/2+y,z
1/2-x,1/2+y,-z
1/2-x,1/2-y,-z
1/2+x,1/2-y,z
loop_
_atom_site_type_symbol
_atom_site_label
_atom_site_fract_x
_atom_site_fract_y
_atom_site_fract_z
Si Si1 0.692867 0.121033 0.939581
Si Si2 0.555408 0.713147 0.819227
Si Si3 0.369045 0.667790 0.507930
Si Si4 0.381164 0.656638 0.864001
Si Si5 0.307980 0.115040 0.656474
O O1 0.620172 0.192520 0.857278
O O2 0.782071 0.163142 0.884150
O O3 0.685820 0.000000 0.888015
O O4 0.689457 0.123276 0.141530
O O5 0.565240 0.674889 0.632941
O O6 0.459283 0.738355 0.847180
O O7 0.588407 0.623205 0.949411
O O8 0.386218 0.608378 0.681445
O O9 0.350634 0.786338 0.571474
O O10 0.286432 0.624185 0.413937
O O11 0.341084 0.000000 0.614020
#
# Coordination Sequence:
#
# PCOD9208267 Si02
#       5
#     8   8   8   8   8
#     4  11  22  43  71  99 137 179 224 284 342 401
#     4  11  23  41  65  99 131 177 227 273 335 414
#     4  11  21  38  66  91 135 180 223 275 342 405
#     4  11  23  41  65  99 131 177 227 273 335 414
#     4  10  21  37  64 101 132 172 230 281 333 409
#
# _framework density 24.163295999999999
#
# number of rings (size 3 to 8) (size 9 to 14) (size 15 to 20)
#    0.000    1.200    4.000    3.600    0.000    3.200 
#    0.000    6.000    0.000    4.800    0.000    0.000 
#    0.000    0.000    0.000    0.000    0.000    0.000 
#
# Total GULP energy -111364.308264 kJ/mol
# GULP energy per Si atom -5568.215413 kJ/mol
# Density = 2.410830 g / cm^3
# Si number density = 24.163296 Si / 1000 Ang^3
#
#
#
# Elastic Constant Matrix: (Units=GPa)
#
#
# Indices 1 2 3 4 5 6 
#
# 1 165.3694 33.5248 52.4052 0.0000 -7.1684 0.0000
# 2 33.5248 151.4559 20.2282 0.0000 -3.0345 0.0000
# 3 52.4052 20.2282 200.2476 0.0000 2.8907 0.0000
# 4 0.0000 0.0000 0.0000 0.7857 0.0000 -3.0678
# 5 -7.1684 -3.0345 2.8907 0.0000 58.5093 0.0000
# 6 0.0000 0.0000 0.0000 -3.0678 0.0000 -13.9434
#
#
#
# Elastic Compliance Matrix: (Units=1/GPa)
#
#
# Indices 1 2 3 4 5 6 
#
# 1 0.006877 -0.001280 -0.001683 0.000000 0.000859 0.000000
# 2 -0.001280 0.006940 -0.000369 0.000000 0.000221 0.000000
# 3 -0.001683 -0.000369 0.005479 0.000000 -0.000496 0.000000
# 4 0.000000 0.000000 0.000000 0.684606 0.000000 -0.150628
# 5 0.000859 0.000221 -0.000496 0.000000 0.017233 0.000000
# 6 0.000000 0.000000 0.000000 -0.150628 0.000000 -0.038577
#
#
# Mechanical properties :
#
#
# Convention : Reuss Voigt Hill
#
# Bulk Modulus (GPa) = 79.17056 81.04327 80.10691
# Shear Modulus (GPa) = 7.21052 36.46464 21.83758
#
# Velocity S-wave (km/s) = 1.72932 3.88892 3.00950
# Velocity P-wave (km/s) = 6.06822 7.33332 6.73056
#
# Compressibility (1/GPa) = 0.01263096
#
# Stress axis : x y z
#
# Youngs Moduli (GPa) = 145.40899 144.09816 182.52602
#
# Poissons Ratio (x) = 0.18449 0.30716
# Poissons Ratio (y) = 0.18617 0.06738
# Poissons Ratio (z) = 0.24470 0.05320
#
# Static dielectric constant tensor:
#      x y z
#    x 1.884010 0.000000 0.026660 
#    y 0.000000 2.104400 0.000000 
#    z 0.026660 0.000000 2.017890 
# 
# From -- ./inp_files/72356.got.cif
#   From: 2010.05.17/outbox.cif.g08.bks.cpg/sg12_37_cif.got.tgz:72356.got - 2010.06.03 13:09:07.
