data_PCOD9208390
_publ_section_title
;
Structure prediction by ZEFSAII (Michael W. Deem and Ramdas Pophale) SiO2 
 PCOD9208390
Probable space group: C 2/M
;
_chemical_formula_sum "Si O2"
_cell_formula_units_Z 40
_cell_length_a 27.723280
_cell_length_b 11.328320
_cell_length_c 17.031040
_cell_angle_alpha 90.000000
_cell_angle_beta 23.423677
_cell_angle_gamma 90.000000
_cell_volume 2126.268186
_symmetry_space_group_name_H-M "C 2/M"
_symmetry_group_IT_number 12
_symmetry_cell_setting 'monoclinic'
loop_
_space_group_symop_operation_xyz
x,y,z
-x,y,-z
-x,-y,-z
x,-y,z
1/2+x,1/2+y,z
1/2-x,1/2+y,-z
1/2-x,1/2-y,-z
1/2+x,1/2-y,z
loop_
_atom_site_type_symbol
_atom_site_label
_atom_site_fract_x
_atom_site_fract_y
_atom_site_fract_z
Si Si1 0.294157 0.135012 0.984350
Si Si2 0.992462 0.142363 0.881826
Si Si3 0.049345 0.275417 0.641570
Si Si4 0.106292 0.138183 0.399455
Si Si5 0.188754 0.859893 0.713609
O O1 0.438679 0.143269 0.778507
O O2 0.261492 0.000000 0.004796
O O3 0.250000 0.250000 0.000000
O O4 0.229020 0.148512 0.166146
O O5 0.995051 0.194199 0.791409
O O6 0.111774 0.181411 0.753207
O O7 0.991400 0.000000 0.877998
O O8 0.879617 0.181830 0.104929
O O9 0.095794 0.204447 0.496570
O O10 0.169758 0.334199 0.496640
O O11 0.000000 0.181262 0.500000
O O12 0.084244 0.000000 0.447484
O O13 0.172288 0.000000 0.738482
#
# Coordination Sequence:
#
# PCOD9208390 Si02
#       5
#     8   8   8   8   8
#     4  11  24  41  59  83 115 154 195 243 295 341
#     4   9  19  35  57  83 113 150 186 225 281 350
#     4  12  20  34  60  86 109 147 196 239 281 336
#     4  10  21  38  56  78 113 153 192 238 292 346
#     4   9  19  36  54  81 118 146 180 234 288 334
#
# _framework density 18.812303
#
# number of rings (size 3 to 8) (size 9 to 14) (size 15 to 20)
#    0.000    1.800    2.000    4.200    0.000    0.800 
#    0.000    3.000    0.000    0.000    0.000   16.800 
#    0.000    0.000    0.000    0.000    0.000    0.000 
#
# Total GULP energy -111469.162807 kJ/mol
# GULP energy per Si atom -5573.458140 kJ/mol
# Density = 1.876949 g / cm^3
# Si number density = 18.812303 Si / 1000 Ang^3
#
#
#
# Elastic Constant Matrix: (Units=GPa)
#
#
# Indices 1 2 3 4 5 6 
#
# 1 62.1798 36.9402 15.7542 0.0000 12.0630 0.0000
# 2 36.9402 71.5076 23.2923 0.0000 9.8724 0.0000
# 3 15.7542 23.2923 83.3791 0.0000 -10.7551 0.0000
# 4 0.0000 0.0000 0.0000 18.1446 0.0000 9.5714
# 5 12.0630 9.8724 -10.7551 0.0000 39.6374 0.0000
# 6 0.0000 0.0000 0.0000 9.5714 0.0000 18.0167
#
#
#
# Elastic Compliance Matrix: (Units=1/GPa)
#
#
# Indices 1 2 3 4 5 6 
#
# 1 0.024228 -0.011100 -0.002147 0.000000 -0.005191 0.000000
# 2 -0.011100 0.021569 -0.004337 0.000000 -0.003171 0.000000
# 3 -0.002147 -0.004337 0.014336 0.000000 0.005623 0.000000
# 4 0.000000 0.000000 0.000000 0.076571 0.000000 -0.040678
# 5 -0.005191 -0.003171 0.005623 0.000000 0.029124 0.000000
# 6 0.000000 0.000000 0.000000 -0.040678 0.000000 0.077114
#
#
# Mechanical properties :
#
#
# Convention : Reuss Voigt Hill
#
# Bulk Modulus (GPa) = 40.05516 41.00443 40.52980
# Shear Modulus (GPa) = 17.45622 24.56506 21.01064
#
# Velocity S-wave (km/s) = 3.04947 3.61750 3.34557
# Velocity P-wave (km/s) = 5.80838 6.26836 6.04275
#
# Compressibility (1/GPa) = 0.02496557
#
# Stress axis : x y z
#
# Youngs Moduli (GPa) = 41.27516 46.36242 69.75472
#
# Poissons Ratio (x) = 0.51462 0.14973
# Poissons Ratio (y) = 0.45815 0.30254
# Poissons Ratio (z) = 0.08860 0.20108
#
# Static dielectric constant tensor:
#      x y z
#    x 1.659260 0.000000 -0.027510 
#    y 0.000000 1.642790 0.000000 
#    z -0.027510 0.000000 1.681930 
# 
# From -- ./inp_files/140253.got.cif
#   From: 2010.05.17/outbox.cif.g08.bks.cpg/sg12_71_cif.got.tgz:140253.got - 2010.06.03 13:09:07.
