data_PCOD9208931
_publ_section_title
;
Structure prediction by ZEFSAII (Michael W. Deem and Ramdas Pophale) SiO2 
 PCOD9208931
Probable space group: C 2/M
;
_chemical_formula_sum "Si O2"
_cell_formula_units_Z 56
_cell_length_a 15.403157
_cell_length_b 17.573399
_cell_length_c 26.702920
_cell_angle_alpha 90.000000
_cell_angle_beta 154.918958
_cell_angle_gamma 90.000000
_cell_volume 3063.990699
_symmetry_space_group_name_H-M "C 2/M"
_symmetry_group_IT_number 12
_symmetry_cell_setting 'monoclinic'
loop_
_space_group_symop_operation_xyz
x,y,z
-x,y,-z
-x,-y,-z
x,-y,z
1/2+x,1/2+y,z
1/2-x,1/2+y,-z
1/2-x,1/2-y,-z
1/2+x,1/2-y,z
loop_
_atom_site_type_symbol
_atom_site_label
_atom_site_fract_x
_atom_site_fract_y
_atom_site_fract_z
Si Si1 0.767158 0.659303 0.000466
Si Si2 0.262726 0.090857 0.890670
Si Si3 0.001862 0.815120 0.324879
Si Si4 0.269842 0.838191 0.733180
Si Si5 0.359148 0.414267 0.522077
Si Si6 0.310366 0.590455 0.937632
Si Si7 0.106664 0.675369 0.310704
O O1 0.650870 0.618081 0.985239
O O2 0.006957 0.637611 0.132106
O O3 0.750000 0.750000 0.000000
O O4 0.708288 0.632875 0.914270
O O5 0.119330 0.123809 0.772142
O O6 0.240567 0.000000 0.884401
O O7 0.500000 0.106774 0.000000
O O8 0.837796 0.786356 0.280929
O O9 0.172680 0.857939 0.447342
O O10 0.079658 0.748739 0.330826
O O11 0.296270 0.803923 0.692112
O O12 0.104860 0.906120 0.642909
O O13 0.300409 0.500000 0.502165
O O14 0.246774 0.382924 0.414668
O O15 0.270091 0.500000 0.916317
O O16 0.111544 0.636370 0.814916
O O17 0.500000 0.606101 0.000000
#
# Coordination Sequence:
#
# PCOD9208931 Si02
#       7
#     8   8   8   8   8   8   8
#     4  11  22  36  58  84 116 153 192 231 279 339
#     4  11  20  34  56  82 114 150 186 229 286 342
#     4  10  22  36  54  84 118 146 185 233 281 340
#     4   9  22  35  55  87 114 142 190 232 292 325
#     4  10  21  38  60  87 117 145 184 241 296 344
#     4  10  23  39  56  82 115 150 190 236 281 333
#     4  11  21  38  60  84 114 150 192 232 288 345
#
# _framework density 18.276817999999999
#
# number of rings (size 3 to 8) (size 9 to 14) (size 15 to 20)
#    0.857    0.857    1.429    3.857    2.000    5.143 
#    0.000    0.000    0.000    0.000    0.000    1.000 
#    0.000    0.000    0.000    0.000    0.000    0.000 
#
# Total GULP energy -156088.508253 kJ/mol
# GULP energy per Si atom -5574.589580 kJ/mol
# Density = 1.823522 g / cm^3
# Si number density = 18.276818 Si / 1000 Ang^3
#
#
#
# Elastic Constant Matrix: (Units=GPa)
#
#
# Indices 1 2 3 4 5 6 
#
# 1 140.6015 48.5150 14.3794 -0.0004 -25.7624 0.0008
# 2 48.5150 69.1157 0.9759 -0.0002 -1.3746 0.0004
# 3 14.3794 0.9759 46.0671 0.0060 -18.8309 -0.0044
# 4 -0.0004 -0.0002 0.0060 13.7197 0.0009 1.4834
# 5 -25.7624 -1.3746 -18.8309 0.0009 25.7287 -0.0006
# 6 0.0008 0.0004 -0.0044 1.4834 -0.0006 14.6913
#
#
#
# Elastic Compliance Matrix: (Units=1/GPa)
#
#
# Indices 1 2 3 4 5 6 
#
# 1 0.012194 -0.008325 0.001683 -0.000001 0.012997 0.000001
# 2 -0.008325 0.020167 -0.001135 0.000001 -0.008089 -0.000001
# 3 0.001683 -0.001135 0.031207 -0.000017 0.024465 0.000012
# 4 -0.000001 0.000001 -0.000017 0.073692 -0.000016 -0.007441
# 5 0.012997 -0.008089 0.024465 -0.000016 0.069355 0.000012
# 6 0.000001 -0.000001 0.000012 -0.007441 0.000012 0.068819
#
#
# Mechanical properties :
#
#
# Convention : Reuss Voigt Hill
#
# Bulk Modulus (GPa) = 20.82749 42.61388 31.72068
# Shear Modulus (GPa) = 16.28703 23.62222 19.95463
#
# Velocity S-wave (km/s) = 2.98842 3.59899 3.30782
# Velocity P-wave (km/s) = 4.82989 6.37470 5.65529
#
# Compressibility (1/GPa) = 0.04801347
#
# Stress axis : x y z
#
# Youngs Moduli (GPa) = 82.00666 49.58562 32.04439
#
# Poissons Ratio (x) = 0.41279 -0.05393
# Poissons Ratio (y) = 0.68269 0.03638
# Poissons Ratio (z) = -0.13801 0.05630
#
# Static dielectric constant tensor:
#      x y z
#    x 1.646310 0.000000 -0.005030 
#    y 0.000000 1.613660 0.000000 
#    z -0.005030 0.000000 1.630790 
# 
# From -- ./inp_files/361448.got.cif
#   From: 2010.05.17/outbox.cif.g08.bks.cpg/sg12_181_cif.got.tgz:361448.got - 2010.06.03 13:09:07.
