data_PCOD9208305
_publ_section_title
;
Structure prediction by ZEFSAII (Michael W. Deem and Ramdas Pophale) SiO2 
 PCOD9208305
Probable space group: C 2/M
;
_chemical_formula_sum "Si O2"
_cell_formula_units_Z 56
_cell_length_a 17.093775
_cell_length_b 14.917271
_cell_length_c 21.129402
_cell_angle_alpha 90.000000
_cell_angle_beta 152.391603
_cell_angle_gamma 90.000000
_cell_volume 2496.863945
_symmetry_space_group_name_H-M "C 2/M"
_symmetry_group_IT_number 12
_symmetry_cell_setting 'monoclinic'
loop_
_space_group_symop_operation_xyz
x,y,z
-x,y,-z
-x,-y,-z
x,-y,z
1/2+x,1/2+y,z
1/2-x,1/2+y,-z
1/2-x,1/2-y,-z
1/2+x,1/2-y,z
loop_
_atom_site_type_symbol
_atom_site_label
_atom_site_fract_x
_atom_site_fract_y
_atom_site_fract_z
Si Si1 0.026705 0.000000 0.917807
Si Si2 0.706490 0.000000 0.778188
Si Si3 0.551376 0.901017 0.189456
Si Si4 0.551294 0.844972 0.603690
Si Si5 0.310323 0.353377 0.049331
Si Si6 0.855013 0.898171 0.224441
Si Si7 0.896866 0.157194 0.492458
Si Si8 0.374723 0.237850 0.862688
O O1 0.059702 0.092490 0.902237
O O2 0.841118 0.000000 0.816085
O O3 0.172426 0.000000 0.075371
O O4 0.584760 0.914704 0.683015
O O5 0.706438 0.872689 0.344741
O O6 0.539722 0.824653 0.127796
O O7 0.590535 0.000000 0.190989
O O8 0.368314 0.903181 0.088779
O O9 0.500000 0.887281 0.500000
O O10 0.422258 0.763365 0.523054
O O11 0.732884 0.796407 0.727964
O O12 0.378832 0.367779 0.169543
O O13 0.250000 0.250000 0.000000
O O14 0.723743 0.831205 0.162715
O O15 0.015708 0.891661 0.386001
O O16 0.791886 0.000000 0.177821
O O17 0.000000 0.138901 0.500000
O O18 0.500000 0.289215 0.000000
#
# Coordination Sequence:
#
# PCOD9208305 Si02
#       8
#     4   4   8   8   8   8   8   8
#     4  11  28  52  68 111 130 180 254 293 366 408
#     4  11  27  42  86  92 130 180 244 324 334 398
#     4  12  22  40  64 100 137 186 219 279 341 417
#     4  10  21  42  64 107 132 170 228 294 346 396
#     4  12  28  45  68  93 142 181 226 294 355 423
#     4  11  21  38  60  96 133 177 218 277 330 416
#     4  10  21  37  65 100 145 173 224 272 334 417
#     4  11  22  32  62 100 140 175 227 265 338 415
#
# _framework density 22.428132999999999
#
# number of rings (size 3 to 8) (size 9 to 14) (size 15 to 20)
#    0.000    1.000    7.143    1.071    8.000    1.143 
#    0.000    0.714    6.286    0.000    0.000    0.000 
#    0.000    0.000    0.000    0.000    0.000    0.000 
#
# Total GULP energy -156402.820778 kJ/mol
# GULP energy per Si atom -5585.815028 kJ/mol
# Density = 2.237709 g / cm^3
# Si number density = 22.428133 Si / 1000 Ang^3
#
#
#
# Elastic Constant Matrix: (Units=GPa)
#
#
# Indices 1 2 3 4 5 6 
#
# 1 68.4009 14.2976 17.6789 0.0001 -13.0518 -0.0006
# 2 14.2976 114.1675 15.2953 0.0020 -12.1926 -0.0001
# 3 17.6789 15.2953 145.7766 0.0001 -22.1740 -0.0012
# 4 0.0001 0.0020 0.0001 31.3930 0.0026 -0.4695
# 5 -13.0518 -12.1926 -22.1740 0.0026 22.7508 -0.0002
# 6 -0.0006 -0.0001 -0.0012 -0.4695 -0.0002 19.3835
#
#
#
# Elastic Compliance Matrix: (Units=1/GPa)
#
#
# Indices 1 2 3 4 5 6 
#
# 1 0.016601 -0.001106 -0.000632 -0.000001 0.008314 0.000000
# 2 -0.001106 0.009373 -0.000213 -0.000001 0.004180 0.000000
# 3 -0.000632 -0.000213 0.008085 -0.000001 0.007403 0.000001
# 4 -0.000001 -0.000001 -0.000001 0.031866 -0.000005 0.000772
# 5 0.008314 0.004180 0.007403 -0.000005 0.058180 0.000001
# 6 0.000000 0.000000 0.000001 0.000772 0.000001 0.051609
#
#
# Mechanical properties :
#
#
# Convention : Reuss Voigt Hill
#
# Bulk Modulus (GPa) = 33.16299 46.98761 40.07530
# Shear Modulus (GPa) = 26.36179 33.44369 29.90274
#
# Velocity S-wave (km/s) = 3.43211 3.86573 3.65536
# Velocity P-wave (km/s) = 5.52488 6.39695 5.97684
#
# Compressibility (1/GPa) = 0.03015410
#
# Stress axis : x y z
#
# Youngs Moduli (GPa) = 60.23771 106.69357 123.68701
#
# Poissons Ratio (x) = 0.11804 0.07823
# Poissons Ratio (y) = 0.06664 0.02639
# Poissons Ratio (z) = 0.03810 0.02276
#
# Static dielectric constant tensor:
#      x y z
#    x 1.835010 0.000000 -0.011310 
#    y 0.000000 1.871540 0.000000 
#    z -0.011310 0.000000 1.822120 
# 
# From -- ./inp_files/316824.got.cif
#   From: 2010.05.17/outbox.cif.g08.bks.cpg/sg12_159_cif.got.tgz:316824.got - 2010.06.03 13:09:07.
