data_PCOD9208414
_publ_section_title
;
Structure prediction by ZEFSAII (Michael W. Deem and Ramdas Pophale) SiO2 
 PCOD9208414
Probable space group: C 2/M
;
_chemical_formula_sum "Si O2"
_cell_formula_units_Z 48
_cell_length_a 16.577544
_cell_length_b 8.894628
_cell_length_c 14.989063
_cell_angle_alpha 90.000000
_cell_angle_beta 77.781899
_cell_angle_gamma 90.000000
_cell_volume 2160.091627
_symmetry_space_group_name_H-M "C 2/M"
_symmetry_group_IT_number 12
_symmetry_cell_setting 'monoclinic'
loop_
_space_group_symop_operation_xyz
x,y,z
-x,y,-z
-x,-y,-z
x,-y,z
1/2+x,1/2+y,z
1/2-x,1/2+y,-z
1/2-x,1/2-y,-z
1/2+x,1/2-y,z
loop_
_atom_site_type_symbol
_atom_site_label
_atom_site_fract_x
_atom_site_fract_y
_atom_site_fract_z
Si Si1 0.904104 0.181473 0.114486
Si Si2 0.837732 0.177496 0.458596
Si Si3 0.466620 0.680921 0.283392
Si Si4 0.403411 0.176929 0.612335
Si Si5 0.785063 0.322788 0.791480
Si Si6 0.162004 0.819525 0.050344
O O1 0.961699 0.234570 0.181850
O O2 0.810299 0.214915 0.168981
O O3 0.914334 0.000000 0.110832
O O4 0.903471 0.229064 0.010617
O O5 0.750000 0.250000 0.500000
O O6 0.878540 0.206962 0.352955
O O7 0.899644 0.238091 0.520108
O O8 0.829253 0.000000 0.469281
O O9 0.481558 0.500000 0.280718
O O10 0.530855 0.762208 0.332449
O O11 0.316330 0.200210 0.684261
O O12 0.415054 0.000000 0.594485
O O13 0.793885 0.500000 0.809574
O O14 0.843164 0.234019 0.847089
O O15 0.165517 0.000000 0.047217
O O16 0.250000 0.750000 0.000000
#
# Coordination Sequence:
#
# PCOD9208414 Si02
#       6
#     8   8   8   8   8   8
#     4   8  15  31  54  76 101 137 179 220 265 319
#     4  11  23  39  61  86 110 141 181 224 271 325
#     4  10  21  38  57  78 109 147 182 219 270 330
#     4  11  23  38  56  80 112 147 182 225 275 324
#     4   9  18  34  54  76 105 142 183 227 274 321
#     4   9  16  28  50  79 107 138 178 224 273 322
#
# _framework density 22.221281000000001
#
# number of rings (size 3 to 8) (size 9 to 14) (size 15 to 20)
#    0.000    2.333    0.000    4.000    0.000    7.333 
#    0.000    5.000    0.000    5.000    0.000    0.000 
#    0.000    0.000    0.000    0.000    0.000    0.000 
#
# Total GULP energy -134016.113852 kJ/mol
# GULP energy per Si atom -5584.004744 kJ/mol
# Density = 2.217070 g / cm^3
# Si number density = 22.221281 Si / 1000 Ang^3
#
#
#
# Elastic Constant Matrix: (Units=GPa)
#
#
# Indices 1 2 3 4 5 6 
#
# 1 61.9735 6.6231 13.2464 0.0000 18.7495 0.0000
# 2 6.6231 22.9180 27.3048 0.0000 -2.2551 0.0000
# 3 13.2464 27.3048 128.2758 0.0000 23.4336 0.0000
# 4 0.0000 0.0000 0.0000 27.3478 0.0000 6.2313
# 5 18.7495 -2.2551 23.4336 0.0000 40.6384 0.0000
# 6 0.0000 0.0000 0.0000 6.2313 0.0000 25.3532
#
#
#
# Elastic Compliance Matrix: (Units=1/GPa)
#
#
# Indices 1 2 3 4 5 6 
#
# 1 0.019963 -0.008994 0.001818 0.000000 -0.010758 0.000000
# 2 -0.008994 0.067897 -0.016733 0.000000 0.017566 0.000000
# 3 0.001818 -0.016733 0.012846 0.000000 -0.009175 0.000000
# 4 0.000000 0.000000 0.000000 0.038735 0.000000 -0.009520
# 5 -0.010758 0.017566 -0.009175 0.000000 0.035836 0.000000
# 6 0.000000 0.000000 0.000000 -0.009520 0.000000 0.041783
#
#
# Mechanical properties :
#
#
# Convention : Reuss Voigt Hill
#
# Bulk Modulus (GPa) = 18.90754 34.16841 26.53798
# Shear Modulus (GPa) = 17.69863 29.73408 23.71636
#
# Velocity S-wave (km/s) = 2.82525 3.66196 3.27047
# Velocity P-wave (km/s) = 4.37835 5.76973 5.12151
#
# Compressibility (1/GPa) = 0.05288896
#
# Stress axis : x y z
#
# Youngs Moduli (GPa) = 50.09200 14.72810 77.84659
#
# Poissons Ratio (x) = 0.13247 -0.14155
# Poissons Ratio (y) = 0.45054 1.30260
# Poissons Ratio (z) = -0.09108 0.24644
#
# Static dielectric constant tensor:
#      x y z
#    x 1.887380 0.000000 -0.033030 
#    y 0.000000 1.742080 0.000000 
#    z -0.033030 0.000000 1.866010 
# 
# From -- ./inp_files/221604.got.cif
#   From: 2010.05.17/outbox.cif.g08.bks.cpg/sg12_111_cif.got.tgz:221604.got - 2010.06.03 13:09:07.
