data_PCOD9208270
_publ_section_title
;
Structure prediction by ZEFSAII (Michael W. Deem and Ramdas Pophale) SiO2 
 PCOD9208270
Probable space group: C 2/M
;
_chemical_formula_sum "Si O2"
_cell_formula_units_Z 48
_cell_length_a 17.421812
_cell_length_b 30.199645
_cell_length_c 9.495435
_cell_angle_alpha 90.000000
_cell_angle_beta 28.977885
_cell_angle_gamma 90.000000
_cell_volume 2420.352978
_symmetry_space_group_name_H-M "C 2/M"
_symmetry_group_IT_number 12
_symmetry_cell_setting 'monoclinic'
loop_
_space_group_symop_operation_xyz
x,y,z
-x,y,-z
-x,-y,-z
x,-y,z
1/2+x,1/2+y,z
1/2-x,1/2+y,-z
1/2-x,1/2-y,-z
1/2+x,1/2-y,z
loop_
_atom_site_type_symbol
_atom_site_label
_atom_site_fract_x
_atom_site_fract_y
_atom_site_fract_z
Si Si1 0.331726 0.549910 0.688395
Si Si2 0.348527 0.794687 0.840657
Si Si3 0.380827 0.313506 0.320434
Si Si4 0.187955 0.392950 0.159076
Si Si5 0.559585 0.783585 0.747699
Si Si6 0.501188 0.593091 0.168288
O O1 0.500000 0.551098 0.500000
O O2 0.267634 0.500000 0.798582
O O3 0.382367 0.562082 0.447910
O O4 0.222594 0.583327 0.953687
O O5 0.500000 0.786880 0.500000
O O6 0.272807 0.840426 0.912831
O O7 0.420451 0.802556 0.878645
O O8 0.250000 0.750000 0.000000
O O9 0.390969 0.265986 0.383032
O O10 0.210640 0.314786 0.518272
O O11 0.431967 0.357769 0.315837
O O12 0.500000 0.311057 0.000000
O O13 0.000000 0.397021 0.500000
O O14 0.319084 0.411238 0.059743
O O15 0.500000 0.778453 0.000000
O O16 0.500000 0.587588 0.000000
#
# Coordination Sequence:
#
# PCOD9208270 Si02
#       6
#     8   8   8   8   8   8
#     4   9  20  41  66  92 121 158 202 250 313 379
#     4  11  26  38  56  85 125 162 202 252 298 356
#     4   9  20  34  57  78 117 151 206 237 293 343
#     4  10  23  40  60  91 125 159 204 252 310 361
#     4  10  22  36  55  81 112 162 203 245 287 347
#     4  10  21  37  64  90 119 161 197 253 299 372
#
# _framework density 19.831817000000001
#
# number of rings (size 3 to 8) (size 9 to 14) (size 15 to 20)
#    0.000    2.167    0.000    1.000   18.667    2.667 
#    0.000    0.833    0.000    1.000    0.000    0.000 
#    0.000    0.000    0.000    0.000    0.000    0.000 
#
# Total GULP energy -133733.855892 kJ/mol
# GULP energy per Si atom -5572.243995 kJ/mol
# Density = 1.978668 g / cm^3
# Si number density = 19.831817 Si / 1000 Ang^3
#
#
#
# Elastic Constant Matrix: (Units=GPa)
#
#
# Indices 1 2 3 4 5 6 
#
# 1 80.1903 4.5740 29.8394 0.0000 5.5818 0.0000
# 2 4.5740 80.5476 60.9142 0.0000 2.5384 0.0000
# 3 29.8394 60.9142 96.0829 -0.0001 4.6119 -0.0001
# 4 0.0000 0.0000 -0.0001 29.2977 0.0000 5.4685
# 5 5.5818 2.5384 4.6119 0.0000 32.7251 0.0001
# 6 0.0000 0.0000 -0.0001 5.4685 0.0001 18.8415
#
#
#
# Elastic Compliance Matrix: (Units=1/GPa)
#
#
# Indices 1 2 3 4 5 6 
#
# 1 0.015262 0.005204 -0.007948 0.000000 -0.001887 0.000000
# 2 0.005204 0.025626 -0.017845 0.000000 -0.000360 0.000000
# 3 -0.007948 -0.017845 0.024222 0.000000 -0.000674 0.000000
# 4 0.000000 0.000000 0.000000 0.036087 0.000000 -0.010474
# 5 -0.001887 -0.000360 -0.000674 0.000000 0.031002 0.000000
# 6 0.000000 0.000000 0.000000 -0.010474 0.000000 0.056114
#
#
# Mechanical properties :
#
#
# Convention : Reuss Voigt Hill
#
# Bulk Modulus (GPa) = 41.78689 49.71959 45.75324
# Shear Modulus (GPa) = 21.05517 26.93909 23.99713
#
# Velocity S-wave (km/s) = 3.26189 3.68962 3.48232
# Velocity P-wave (km/s) = 5.94163 6.57845 6.26813
#
# Compressibility (1/GPa) = 0.02393095
#
# Stress axis : x y z
#
# Youngs Moduli (GPa) = 65.52009 39.02230 41.28492
#
# Poissons Ratio (x) = -0.20306 0.32815
# Poissons Ratio (y) = -0.34095 0.73674
# Poissons Ratio (z) = 0.52078 0.69636
#
# Static dielectric constant tensor:
#      x y z
#    x 1.684370 0.000000 0.007130 
#    y 0.000000 1.774220 0.000000 
#    z 0.007130 0.000000 1.689390 
# 
# From -- ./inp_files/80569.got.cif
#   From: 2010.05.17/outbox.cif.g08.bks.cpg/sg12_41_cif.got.tgz:80569.got - 2010.06.03 13:09:07.
