data_PCOD9208021
_publ_section_title
;
Structure prediction by ZEFSAII (Michael W. Deem and Ramdas Pophale) SiO2 
 PCOD9208021
Probable space group: C 2/M
;
_chemical_formula_sum "Si O2"
_cell_formula_units_Z 64
_cell_length_a 11.708552
_cell_length_b 14.799620
_cell_length_c 28.722564
_cell_angle_alpha 90.000000
_cell_angle_beta 144.222407
_cell_angle_gamma 90.000000
_cell_volume 2909.817918
_symmetry_space_group_name_H-M "C 2/M"
_symmetry_group_IT_number 12
_symmetry_cell_setting 'monoclinic'
loop_
_space_group_symop_operation_xyz
x,y,z
-x,y,-z
-x,-y,-z
x,-y,z
1/2+x,1/2+y,z
1/2-x,1/2+y,-z
1/2-x,1/2-y,-z
1/2+x,1/2-y,z
loop_
_atom_site_type_symbol
_atom_site_label
_atom_site_fract_x
_atom_site_fract_y
_atom_site_fract_z
Si Si1 0.166903 0.896466 0.851096
Si Si2 0.572198 0.395502 0.667141
Si Si3 0.778992 0.101142 0.385143
Si Si4 0.728386 0.714710 0.079032
Si Si5 0.940191 0.395474 0.851975
Si Si6 0.646103 0.771901 0.417531
Si Si7 0.669108 0.103140 0.796710
Si Si8 0.233928 0.393640 0.713228
O O1 0.227392 0.820889 0.907547
O O2 0.320965 0.888613 0.860225
O O3 0.945137 0.877780 0.760229
O O4 0.167961 0.000000 0.868557
O O5 0.529135 0.500000 0.665150
O O6 0.589765 0.387774 0.617024
O O7 0.780320 0.372606 0.759303
O O8 0.416172 0.320486 0.628841
O O9 0.780945 0.170621 0.427686
O O10 0.558840 0.105946 0.291944
O O11 0.804497 0.000000 0.412131
O O12 0.788160 0.674232 0.149225
O O13 0.869252 0.665037 0.089311
O O14 0.500000 0.697161 0.000000
O O15 0.995733 0.500000 0.863072
O O16 0.750000 0.750000 0.500000
O O17 0.445904 0.829583 0.359729
O O18 0.771198 0.121109 0.780939
O O19 0.715378 0.000000 0.827063
O O20 0.180460 0.500000 0.689858
#
# Coordination Sequence:
#
# PCOD9208021 Si02
#       8
#     8   8   8   8   8   8   8   8
#     4  10  24  44  64  87 125 174 218 262 312 377
#     4  10  21  37  61  89 118 158 206 252 305 368
#     4   9  19  39  64  85 115 163 210 253 298 362
#     4  12  25  37  65  98 132 164 208 266 336 384
#     4  10  22  42  65  93 125 161 212 269 322 377
#     4  11  23  35  57  95 130 158 196 258 322 367
#     4   9  18  36  63  93 122 158 211 266 311 368
#     4   9  20  41  68  92 120 171 227 263 304 380
#
# _framework density 21.994503999999999
#
# number of rings (size 3 to 8) (size 9 to 14) (size 15 to 20)
#    0.000    2.000    1.250    2.250    5.250    3.250 
#    0.000    1.250    0.000    0.750    0.000    7.875 
#    0.000    0.000    0.000    0.000    0.000    0.000 
#
# Total GULP energy -178918.931376 kJ/mol
# GULP energy per Si atom -5591.216605 kJ/mol
# Density = 2.194444 g / cm^3
# Si number density = 21.994504 Si / 1000 Ang^3
#
#
#
# Elastic Constant Matrix: (Units=GPa)
#
#
# Indices 1 2 3 4 5 6 
#
# 1 58.3032 38.5174 13.8762 0.0000 20.8362 0.0000
# 2 38.5174 97.8670 29.8399 0.0000 17.1375 0.0000
# 3 13.8762 29.8399 54.2962 -0.0002 25.8584 -0.0004
# 4 0.0000 0.0000 -0.0002 77.0418 0.0000 174.3227
# 5 20.8362 17.1375 25.8584 0.0000 27.0196 0.0000
# 6 0.0000 0.0000 -0.0004 174.3227 0.0000 439.8796
#
#
#
# Elastic Compliance Matrix: (Units=1/GPa)
#
#
# Indices 1 2 3 4 5 6 
#
# 1 0.031993 -0.011099 0.011614 0.000000 -0.028747 0.000000
# 2 -0.011099 0.016213 -0.009652 0.000000 0.007512 0.000000
# 3 0.011614 -0.009652 0.040615 0.000000 -0.041704 0.000000
# 4 0.000000 0.000000 0.000000 0.125655 0.000000 -0.049797
# 5 -0.028747 0.007512 -0.041704 0.000000 0.094325 0.000000
# 6 0.000000 0.000000 0.000000 -0.049797 0.000000 0.022008
#
#
# Mechanical properties :
#
#
# Convention : Reuss Voigt Hill
#
# Bulk Modulus (GPa) = 14.17468 41.65926 27.91697
# Shear Modulus (GPa) = 13.41926 117.33706 65.37816
#
# Velocity S-wave (km/s) = 2.47274 7.31192 5.45796
# Velocity P-wave (km/s) = 3.82246 9.50092 7.24150
#
# Compressibility (1/GPa) = 0.07054834
#
# Stress axis : x y z
#
# Youngs Moduli (GPa) = 31.25656 61.67722 24.62149
#
# Poissons Ratio (x) = 0.68454 -0.28595
# Poissons Ratio (y) = 0.34691 0.23764
# Poissons Ratio (z) = -0.36301 0.59529
#
# Static dielectric constant tensor:
#      x y z
#    x 1.843270 0.000000 0.001150 
#    y 0.000000 1.823480 0.000000 
#    z 0.001150 0.000000 1.790620 
# 
# From -- ./inp_files/374128.got.cif
#   From: 2010.05.17/outbox.cif.g08.bks.cpg/sg12_188_cif.got.tgz:374128.got - 2010.06.03 13:09:07.
