data_PCOD9208919
_publ_section_title
;
Structure prediction by ZEFSAII (Michael W. Deem and Ramdas Pophale) SiO2 
 PCOD9208919
Probable space group: C 2/M
;
_chemical_formula_sum "Si O2"
_cell_formula_units_Z 40
_cell_length_a 20.664336
_cell_length_b 8.354310
_cell_length_c 15.539591
_cell_angle_alpha 90.000000
_cell_angle_beta 130.956356
_cell_angle_gamma 90.000000
_cell_volume 2025.997200
_symmetry_space_group_name_H-M "C 2/M"
_symmetry_group_IT_number 12
_symmetry_cell_setting 'monoclinic'
loop_
_space_group_symop_operation_xyz
x,y,z
-x,y,-z
-x,-y,-z
x,-y,z
1/2+x,1/2+y,z
1/2-x,1/2+y,-z
1/2-x,1/2-y,-z
1/2+x,1/2-y,z
loop_
_atom_site_type_symbol
_atom_site_label
_atom_site_fract_x
_atom_site_fract_y
_atom_site_fract_z
Si Si1 0.477453 0.693805 0.236280
Si Si2 0.829475 0.809421 0.626989
Si Si3 0.821937 0.691231 0.994770
Si Si4 0.229642 0.694001 0.241798
Si Si5 0.079504 0.804897 0.625505
O O1 0.477384 0.500000 0.233599
O O2 0.576020 0.748930 0.318980
O O3 0.415445 0.755286 0.107646
O O4 0.434181 0.744636 0.288257
O O5 0.750000 0.750000 0.500000
O O6 0.816578 0.761614 0.714980
O O7 0.830195 0.000000 0.619391
O O8 0.816503 0.500000 0.989651
O O9 0.750000 0.750000 0.000000
O O10 0.804092 0.745898 0.881400
O O11 0.225325 0.500000 0.241701
O O12 0.329234 0.743791 0.331762
O O13 0.000000 0.748730 0.500000
O O14 0.078765 0.000000 0.624084
#
# Coordination Sequence:
#
# PCOD9208919 Si02
#       5
#     8   8   8   8   8
#     4  10  21  39  61  86 118 160 205 247 299 357
#     4  11  24  41  63  89 123 162 199 250 302 358
#     4  11  22  38  62  90 123 160 199 253 305 355
#     4  10  21  38  60  86 119 160 201 245 300 359
#     4   9  16  31  57  83 109 150 201 245 290 350
#
# _framework density 19.743364
#
# number of rings (size 3 to 8) (size 9 to 14) (size 15 to 20)
#    0.000    1.800    2.000    2.400    0.000    7.200 
#    0.000    4.000    0.000    2.400    0.000    0.000 
#    0.000    0.000    0.000    0.000    0.000    0.000 
#
# Total GULP energy -111695.560294 kJ/mol
# GULP energy per Si atom -5584.778015 kJ/mol
# Density = 1.969843 g / cm^3
# Si number density = 19.743364 Si / 1000 Ang^3
#
#
#
# Elastic Constant Matrix: (Units=GPa)
#
#
# Indices 1 2 3 4 5 6 
#
# 1 59.9146 6.5735 -21.1399 0.0000 7.6714 0.0000
# 2 6.5735 16.9330 7.1304 0.0000 2.6440 0.0000
# 3 -21.1399 7.1304 73.8386 0.0000 8.5331 0.0000
# 4 0.0000 0.0000 0.0000 30.9607 0.0000 0.0712
# 5 7.6714 2.6440 8.5331 0.0000 36.4740 0.0000
# 6 0.0000 0.0000 0.0000 0.0712 0.0000 27.7205
#
#
#
# Elastic Compliance Matrix: (Units=1/GPa)
#
#
# Indices 1 2 3 4 5 6 
#
# 1 0.021312 -0.010683 0.007772 0.000000 -0.005526 0.000000
# 2 -0.010683 0.067270 -0.009508 0.000000 -0.000405 0.000000
# 3 0.007772 -0.009508 0.017262 0.000000 -0.004984 0.000000
# 4 0.000000 0.000000 0.000000 0.032299 0.000000 -0.000083
# 5 -0.005526 -0.000405 -0.004984 0.000000 0.029774 0.000000
# 6 0.000000 0.000000 0.000000 -0.000083 0.000000 0.036075
#
#
# Mechanical properties :
#
#
# Convention : Reuss Voigt Hill
#
# Bulk Modulus (GPa) = 12.34469 15.09046 13.71757
# Shear Modulus (GPa) = 19.54390 29.57252 24.55821
#
# Velocity S-wave (km/s) = 3.14968 3.87440 3.53068
# Velocity P-wave (km/s) = 4.41514 5.26066 4.85633
#
# Compressibility (1/GPa) = 0.08100650
#
# Stress axis : x y z
#
# Youngs Moduli (GPa) = 46.92115 14.86536 57.92976
#
# Poissons Ratio (x) = 0.15881 -0.45023
# Poissons Ratio (y) = 0.50128 0.55079
# Poissons Ratio (z) = -0.36467 0.14134
#
# Static dielectric constant tensor:
#      x y z
#    x 1.669650 0.000000 0.003500 
#    y 0.000000 1.691900 0.000000 
#    z 0.003500 0.000000 1.696250 
# 
# From -- ./inp_files/221226.got.cif
#   From: 2010.05.17/outbox.cif.g08.bks.cpg/sg12_111_cif.got.tgz:221226.got - 2010.06.03 13:09:07.
