data_PCOD9208285
_publ_section_title
;
Structure prediction by ZEFSAII (Michael W. Deem and Ramdas Pophale) SiO2 
 PCOD9208285
Probable space group: C 2/M
;
_chemical_formula_sum "Si O2"
_cell_formula_units_Z 58
_cell_length_a 21.560711
_cell_length_b 9.339298
_cell_length_c 21.673201
_cell_angle_alpha 90.000000
_cell_angle_beta 141.610249
_cell_angle_gamma 90.000000
_cell_volume 2710.174623
_symmetry_space_group_name_H-M "C 2/M"
_symmetry_group_IT_number 12
_symmetry_cell_setting 'monoclinic'
loop_
_space_group_symop_operation_xyz
x,y,z
-x,y,-z
-x,-y,-z
x,-y,z
1/2+x,1/2+y,z
1/2-x,1/2+y,-z
1/2-x,1/2-y,-z
1/2+x,1/2-y,z
loop_
_atom_site_type_symbol
_atom_site_label
_atom_site_fract_x
_atom_site_fract_y
_atom_site_fract_z
Si Si1 0.415457 0.831656 0.243117
Si Si2 0.005455 0.236772 0.897012
Si Si3 0.804204 0.339818 0.785902
Si Si4 0.000000 0.000000 0.000000
Si Si5 0.724343 0.326617 0.594467
Si Si6 0.587288 0.334348 0.306056
Si Si7 0.281414 0.169509 0.908476
Si Si8 0.474800 0.831969 0.551233
O O1 0.509496 0.751579 0.287104
O O2 0.313256 0.758059 0.142312
O O3 0.431776 0.815813 0.329796
O O4 0.416452 0.000000 0.229053
O O5 0.919157 0.343003 0.853800
O O6 0.963542 0.171823 0.801259
O O7 0.114915 0.303251 0.975732
O O8 0.010279 0.121503 0.954317
O O9 0.763966 0.500000 0.759705
O O10 0.747221 0.274200 0.683036
O O11 0.797409 0.279812 0.849407
O O12 0.732204 0.500000 0.597422
O O13 0.808425 0.250793 0.618605
O O14 0.614436 0.269126 0.495527
O O15 0.601551 0.500000 0.335756
O O16 0.260297 0.000000 0.893179
O O17 0.500000 0.798795 0.500000
O O18 0.444112 0.000000 0.530639
#
# Coordination Sequence:
#
# PCOD9208285 Si02
#       8
#     8   8   8   2   8   8   8   8
#     4  11  26  43  63  86 122 163 207 256 305 363
#     4  11  22  36  61  90 127 157 205 252 303 359
#     4   9  18  34  56  89 124 156 195 246 306 363
#     4  12  20  36  58 100 120 162 200 260 298 364
#     4  10  21  37  64  94 124 159 198 249 307 364
#     4  11  24  43  63  89 122 165 207 250 299 363
#     4  11  22  37  60  88 121 165 206 252 306 361
#     4  10  22  43  66  95 124 157 200 253 309 366
#
# _framework density 21.400834
#
# number of rings (size 3 to 8) (size 9 to 14) (size 15 to 20)
#    0.000    1.517    2.069    2.483    0.966    5.241 
#    0.000    0.000    0.000    0.000    0.000    0.000 
#    0.000    0.000    0.000    0.000    0.000    0.000 
#
# Total GULP energy -161663.800275 kJ/mol
# GULP energy per Si atom -5574.613803 kJ/mol
# Density = 2.135212 g / cm^3
# Si number density = 21.400834 Si / 1000 Ang^3
#
#
#
# Elastic Constant Matrix: (Units=GPa)
#
#
# Indices 1 2 3 4 5 6 
#
# 1 59.7787 31.5634 12.9789 0.0000 12.0851 0.0000
# 2 31.5634 111.6447 34.3461 0.0000 14.7685 0.0000
# 3 12.9789 34.3461 78.1684 0.0000 23.3095 0.0000
# 4 0.0000 0.0000 0.0000 7.4741 0.0000 10.3221
# 5 12.0851 14.7685 23.3095 0.0000 35.2424 0.0000
# 6 0.0000 0.0000 0.0000 10.3221 0.0000 37.0495
#
#
#
# Elastic Compliance Matrix: (Units=1/GPa)
#
#
# Indices 1 2 3 4 5 6 
#
# 1 0.020429 -0.005233 0.000426 0.000000 -0.005094 0.000000
# 2 -0.005233 0.011776 -0.004196 0.000000 -0.000365 0.000000
# 3 0.000426 -0.004196 0.017546 0.000000 -0.009992 0.000000
# 4 0.000000 0.000000 0.000000 0.217471 0.000000 -0.060588
# 5 -0.005094 -0.000365 -0.009992 0.000000 0.036884 0.000000
# 6 0.000000 0.000000 0.000000 -0.060588 0.000000 0.043871
#
#
# Mechanical properties :
#
#
# Convention : Reuss Voigt Hill
#
# Bulk Modulus (GPa) = 31.50163 45.26317 38.38240
# Shear Modulus (GPa) = 13.27802 27.33342 20.30572
#
# Velocity S-wave (km/s) = 2.49357 3.57769 3.08365
# Velocity P-wave (km/s) = 4.80024 6.18568 5.53647
#
# Compressibility (1/GPa) = 0.03174439
#
# Stress axis : x y z
#
# Youngs Moduli (GPa) = 48.95092 84.92155 56.99416
#
# Poissons Ratio (x) = 0.44437 -0.02430
# Poissons Ratio (y) = 0.25615 0.23917
# Poissons Ratio (z) = -0.02087 0.35637
#
# Static dielectric constant tensor:
#      x y z
#    x 1.786660 0.000000 -0.032300 
#    y 0.000000 1.737510 0.000000 
#    z -0.032300 0.000000 1.799810 
# 
# From -- ./inp_files/346520.got.cif
#   From: 2010.05.17/outbox.cif.g08.bks.cpg/sg12_174_cif.got.tgz:346520.got - 2010.06.03 13:09:07.
