data_PCOD9208862
_publ_section_title
;
Structure prediction by ZEFSAII (Michael W. Deem and Ramdas Pophale) SiO2 
 PCOD9208862
Probable space group: C 2/M
;
_chemical_formula_sum "Si O2"
_cell_formula_units_Z 52
_cell_length_a 5.097000
_cell_length_b 23.197354
_cell_length_c 22.728906
_cell_angle_alpha 90.000000
_cell_angle_beta 83.978157
_cell_angle_gamma 90.000000
_cell_volume 2672.566568
_symmetry_space_group_name_H-M "C 2/M"
_symmetry_group_IT_number 12
_symmetry_cell_setting 'monoclinic'
loop_
_space_group_symop_operation_xyz
x,y,z
-x,y,-z
-x,-y,-z
x,-y,z
1/2+x,1/2+y,z
1/2-x,1/2+y,-z
1/2-x,1/2-y,-z
1/2+x,1/2-y,z
loop_
_atom_site_type_symbol
_atom_site_label
_atom_site_fract_x
_atom_site_fract_y
_atom_site_fract_z
Si Si1 0.093238 0.712697 0.937292
Si Si2 0.769451 0.500000 0.458167
Si Si3 0.523402 0.435543 0.178109
Si Si4 0.309665 0.562003 0.314879
Si Si5 0.715819 0.896007 0.634600
Si Si6 0.532041 0.137559 0.172827
Si Si7 0.016660 0.709582 0.703332
O O1 0.393610 0.732892 0.937117
O O2 0.045617 0.678519 0.878982
O O3 0.000000 0.682308 0.000000
O O4 0.500000 0.500000 0.500000
O O5 0.787471 0.439567 0.420802
O O6 0.000000 0.500000 0.500000
O O7 0.500235 0.500000 0.153346
O O8 0.422392 0.438000 0.247511
O O9 0.822058 0.414207 0.174309
O O10 0.324487 0.388059 0.156651
O O11 0.360368 0.500000 0.342460
O O12 0.486687 0.605585 0.348069
O O13 0.998783 0.571169 0.319569
O O14 0.598535 0.831707 0.646321
O O15 0.498799 0.171571 0.235831
O O16 0.238573 0.758589 0.703701
#
# Coordination Sequence:
#
# PCOD9208862 Si02
#       7
#     8   4   8   8   8   8   8
#     4  10  21  38  60  85 115 161 217 267 312 361
#     4  12  26  44  68 100 124 156 207 262 309 350
#     4  11  22  34  56  88 126 153 204 247 314 385
#     4  11  18  34  57  89 117 157 192 236 308 368
#     4  12  22  40  63  89 128 159 193 256 304 361
#     4  12  21  38  58  88 125 164 203 258 313 369
#     4  12  24  38  58  91 129 163 200 241 311 378
#
# _framework density 19.456952000000001
#
# number of rings (size 3 to 8) (size 9 to 14) (size 15 to 20)
#    0.000    0.615    4.615    5.077    0.000    2.462 
#    0.000    0.000    0.000    5.538    0.000    0.000 
#    0.000    0.000    0.000    0.000    0.000    0.000 
#
# Total GULP energy -144934.558006 kJ/mol
# GULP energy per Si atom -5574.406077 kJ/mol
# Density = 1.941267 g / cm^3
# Si number density = 19.456952 Si / 1000 Ang^3
#
#
#
# Elastic Constant Matrix: (Units=GPa)
#
#
# Indices 1 2 3 4 5 6 
#
# 1 68.4798 4.5443 -1.7423 0.0000 6.1416 0.0000
# 2 4.5443 72.2951 24.4780 0.0000 2.6873 0.0000
# 3 -1.7423 24.4780 75.1141 0.0000 3.9911 0.0000
# 4 0.0000 0.0000 0.0000 26.3443 0.0000 0.9519
# 5 6.1416 2.6873 3.9911 0.0000 25.7901 0.0000
# 6 0.0000 0.0000 0.0000 0.9519 0.0000 37.1381
#
#
#
# Elastic Compliance Matrix: (Units=1/GPa)
#
#
# Indices 1 2 3 4 5 6 
#
# 1 0.015023 -0.001116 0.000904 0.000000 -0.003601 0.000000
# 2 -0.001116 0.015649 -0.005095 0.000000 -0.000576 0.000000
# 3 0.000904 -0.005095 0.015102 0.000000 -0.002021 0.000000
# 4 0.000000 0.000000 0.000000 0.037994 0.000000 -0.000974
# 5 -0.003601 -0.000576 -0.002021 0.000000 0.040005 0.000000
# 6 0.000000 0.000000 0.000000 -0.000974 0.000000 0.026952
#
#
# Mechanical properties :
#
#
# Convention : Reuss Voigt Hill
#
# Bulk Modulus (GPa) = 28.44293 30.04989 29.24641
# Shear Modulus (GPa) = 28.89192 30.42842 29.66017
#
# Velocity S-wave (km/s) = 3.85764 3.95889 3.90859
# Velocity P-wave (km/s) = 5.87299 6.03116 5.95260
#
# Compressibility (1/GPa) = 0.03515812
#
# Stress axis : x y z
#
# Youngs Moduli (GPa) = 66.56516 63.90243 66.21746
#
# Poissons Ratio (x) = 0.07134 -0.05984
# Poissons Ratio (y) = 0.07431 0.33737
# Poissons Ratio (z) = -0.06015 0.32558
#
# Static dielectric constant tensor:
#      x y z
#    x 1.682160 0.000000 0.005120 
#    y 0.000000 1.747640 0.000000 
#    z 0.005120 0.000000 1.683460 
# 
# From -- ./inp_files/297827.got.cif
#   From: 2010.05.17/outbox.cif.g08.bks.cpg/sg12_149_cif.got.tgz:297827.got - 2010.06.03 13:09:07.
