data_PCOD9208309
_publ_section_title
;
Structure prediction by ZEFSAII (Michael W. Deem and Ramdas Pophale) SiO2 
 PCOD9208309
Probable space group: C 2/M
;
_chemical_formula_sum "Si O2"
_cell_formula_units_Z 48
_cell_length_a 14.864927
_cell_length_b 31.889695
_cell_length_c 14.474963
_cell_angle_alpha 90.000000
_cell_angle_beta 160.633160
_cell_angle_gamma 90.000000
_cell_volume 2275.438059
_symmetry_space_group_name_H-M "C 2/M"
_symmetry_group_IT_number 12
_symmetry_cell_setting 'monoclinic'
loop_
_space_group_symop_operation_xyz
x,y,z
-x,y,-z
-x,-y,-z
x,-y,z
1/2+x,1/2+y,z
1/2-x,1/2+y,-z
1/2-x,1/2-y,-z
1/2+x,1/2-y,z
loop_
_atom_site_type_symbol
_atom_site_label
_atom_site_fract_x
_atom_site_fract_y
_atom_site_fract_z
Si Si1 0.065112 0.325712 0.954318
Si Si2 0.619469 0.409831 0.271036
Si Si3 0.737024 0.500000 0.389884
Si Si4 0.500000 0.211490 0.500000
Si Si5 0.899870 0.774407 0.563539
Si Si6 0.913748 0.589897 0.127131
Si Si7 0.301430 0.000000 0.019757
Si Si8 0.000000 0.155836 0.000000
O O1 0.135946 0.372638 0.992018
O O2 0.784776 0.314529 0.633591
O O3 0.293313 0.292536 0.139993
O O4 0.000000 0.321975 0.000000
O O5 0.689586 0.455459 0.295611
O O6 0.815708 0.404723 0.549589
O O7 0.320090 0.410061 0.022376
O O8 0.621581 0.373138 0.198605
O O9 0.032393 0.500000 0.722125
O O10 0.515383 0.500000 0.259534
O O11 0.378024 0.241887 0.458467
O O12 0.256215 0.184387 0.220065
O O13 0.750000 0.750000 0.500000
O O14 0.890794 0.543572 0.060419
#
# Coordination Sequence:
#
# PCOD9208309 Si02
#       8
#     8   8   4   4   8   8   4   4
#     4  12  24  45  66  96 125 160 207 267 309 375
#     4  10  21  38  57  93 120 169 205 250 299 372
#     4   8  16  33  58  78 125 160 207 245 293 351
#     4  12  26  46  62  91 130 157 204 270 314 376
#     4  12  27  46  69  89 123 169 213 257 326 380
#     4  10  21  37  65  87 126 160 209 244 310 371
#     4   8  16  34  55  91 118 160 195 253 296 362
#     4  12  26  37  62  88 132 158 204 261 314 352
#
# _framework density 21.094839
#
# number of rings (size 3 to 8) (size 9 to 14) (size 15 to 20)
#    0.000    1.333    1.667    3.500    7.000    0.333 
#    0.000    0.417    0.000    7.000    0.000    9.333 
#    0.000    0.000    0.000    0.000    0.000    0.000 
#
# Total GULP energy -133935.633998 kJ/mol
# GULP energy per Si atom -5580.651417 kJ/mol
# Density = 2.104683 g / cm^3
# Si number density = 21.094839 Si / 1000 Ang^3
#
#
#
# Elastic Constant Matrix: (Units=GPa)
#
#
# Indices 1 2 3 4 5 6 
#
# 1 73.9674 36.4847 -5.3840 -0.0005 5.9406 -0.0031
# 2 36.4847 125.2416 7.3049 -0.0025 2.5813 0.0083
# 3 -5.3840 7.3049 78.5705 -0.0066 13.2530 -0.0392
# 4 -0.0005 -0.0025 -0.0066 38.0911 0.0024 7.4581
# 5 5.9406 2.5813 13.2530 0.0024 15.7069 -0.0104
# 6 -0.0031 0.0083 -0.0392 7.4581 -0.0104 9.0169
#
#
#
# Elastic Compliance Matrix: (Units=1/GPa)
#
#
# Indices 1 2 3 4 5 6 
#
# 1 0.016799 -0.004901 0.002965 -0.000002 -0.008050 0.000016
# 2 -0.004901 0.009467 -0.001476 0.000004 0.001544 -0.000018
# 3 0.002965 -0.001476 0.015409 -0.000008 -0.013880 0.000060
# 4 -0.000002 0.000004 -0.000008 0.031326 -0.000015 -0.025911
# 5 -0.008050 0.001544 -0.013880 -0.000015 0.078169 0.000038
# 6 0.000016 -0.000018 0.000060 -0.025911 0.000038 0.132335
#
#
# Mechanical properties :
#
#
# Convention : Reuss Voigt Hill
#
# Bulk Modulus (GPa) = 28.69459 39.39895 34.04677
# Shear Modulus (GPa) = 16.55920 28.52122 22.54021
#
# Velocity S-wave (km/s) = 2.80480 3.68101 3.27237
# Velocity P-wave (km/s) = 4.91136 6.06498 5.51840
#
# Compressibility (1/GPa) = 0.03484977
#
# Stress axis : x y z
#
# Youngs Moduli (GPa) = 59.52687 105.63507 64.89638
#
# Poissons Ratio (x) = 0.51770 -0.19239
# Poissons Ratio (y) = 0.29173 0.09581
# Poissons Ratio (z) = -0.17647 0.15595
#
# Static dielectric constant tensor:
#      x y z
#    x 1.797600 0.000000 0.011520 
#    y 0.000000 1.811960 0.000000 
#    z 0.011520 0.000000 1.737280 
# 
# From -- ./inp_files/219654.got.cif
#   From: 2010.05.17/outbox.cif.g08.bks.cpg/sg12_110_cif.got.tgz:219654.got - 2010.06.03 13:09:07.
