data_PCOD9208040
_publ_section_title
;
Structure prediction by ZEFSAII (Michael W. Deem and Ramdas Pophale) SiO2 
 PCOD9208040
Probable space group: C 2/M
;
_chemical_formula_sum "Si O2"
_cell_formula_units_Z 40
_cell_length_a 27.744013
_cell_length_b 8.538558
_cell_length_c 10.400987
_cell_angle_alpha 90.000000
_cell_angle_beta 129.657452
_cell_angle_gamma 90.000000
_cell_volume 1896.914891
_symmetry_space_group_name_H-M "C 2/M"
_symmetry_group_IT_number 12
_symmetry_cell_setting 'monoclinic'
loop_
_space_group_symop_operation_xyz
x,y,z
-x,y,-z
-x,-y,-z
x,-y,z
1/2+x,1/2+y,z
1/2-x,1/2+y,-z
1/2-x,1/2-y,-z
1/2+x,1/2-y,z
loop_
_atom_site_type_symbol
_atom_site_label
_atom_site_fract_x
_atom_site_fract_y
_atom_site_fract_z
Si Si1 0.020470 0.187888 0.179751
Si Si2 0.314894 0.180474 0.064080
Si Si3 0.657650 0.814219 0.411021
Si Si4 0.950736 0.690283 0.306761
Si Si5 0.286749 0.682712 0.754602
O O1 0.088273 0.260443 0.327489
O O2 0.972221 0.244722 0.205749
O O3 0.024641 0.000000 0.189079
O O4 0.000000 0.234989 0.000000
O O5 0.314568 0.207488 0.910729
O O6 0.313839 0.000000 0.097996
O O7 0.250000 0.250000 0.000000
O O8 0.381048 0.246800 0.224173
O O9 0.679985 0.720020 0.323340
O O10 0.712441 0.788150 0.608859
O O11 0.658121 0.000000 0.384190
O O12 0.949822 0.500000 0.297263
O O13 0.000000 0.735694 0.500000
O O14 0.295849 0.500000 0.803458
#
# Coordination Sequence:
#
# PCOD9208040 Si02
#       5
#     8   8   8   8   8
#     4  11  24  40  62  93 128 164 208 263 319 377
#     4  11  24  41  64  91 124 165 209 258 310 371
#     4  10  21  37  61  90 122 162 205 254 311 373
#     4  10  24  45  66  91 127 169 214 261 314 378
#     4  10  21  38  60  89 125 160 204 259 311 368
#
# _framework density 21.086872
#
# number of rings (size 3 to 8) (size 9 to 14) (size 15 to 20)
#    0.000    1.600    0.000    3.600    2.800    9.200 
#    0.000    0.000    0.000    0.000    0.000    0.000 
#    0.000    0.000    0.000    0.000    0.000    0.000 
#
# Total GULP energy -111806.642529 kJ/mol
# GULP energy per Si atom -5590.332126 kJ/mol
# Density = 2.103888 g / cm^3
# Si number density = 21.086872 Si / 1000 Ang^3
#
#
#
# Elastic Constant Matrix: (Units=GPa)
#
#
# Indices 1 2 3 4 5 6 
#
# 1 97.4209 15.2452 52.7882 0.0000 32.5831 0.0000
# 2 15.2452 25.6187 20.7253 0.0000 14.1775 0.0000
# 3 52.7882 20.7253 100.5305 0.0000 28.5678 0.0000
# 4 0.0000 0.0000 0.0000 22.4365 0.0000 -0.9859
# 5 32.5831 14.1775 28.5678 0.0000 44.2893 0.0000
# 6 0.0000 0.0000 0.0000 -0.9859 0.0000 33.4767
#
#
#
# Elastic Compliance Matrix: (Units=1/GPa)
#
#
# Indices 1 2 3 4 5 6 
#
# 1 0.016353 -0.000281 -0.006289 0.000000 -0.007885 0.000000
# 2 -0.000281 0.051427 -0.007145 0.000000 -0.011647 0.000000
# 3 -0.006289 -0.007145 0.015621 0.000000 -0.003162 0.000000
# 4 0.000000 0.000000 0.000000 0.044628 0.000000 0.001314
# 5 -0.007885 -0.011647 -0.003162 0.000000 0.034148 0.000000
# 6 0.000000 0.000000 0.000000 0.001314 0.000000 0.029910
#
#
# Mechanical properties :
#
#
# Convention : Reuss Voigt Hill
#
# Bulk Modulus (GPa) = 17.86589 44.56528 31.21559
# Shear Modulus (GPa) = 20.99316 29.02794 25.01055
#
# Velocity S-wave (km/s) = 3.15867 3.71427 3.44768
# Velocity P-wave (km/s) = 4.66838 6.29082 5.53932
#
# Compressibility (1/GPa) = 0.05597258
#
# Stress axis : x y z
#
# Youngs Moduli (GPa) = 61.14990 19.44512 64.01644
#
# Poissons Ratio (x) = 0.00546 0.40257
# Poissons Ratio (y) = 0.01716 0.45740
# Poissons Ratio (z) = 0.38454 0.13894
#
# Static dielectric constant tensor:
#      x y z
#    x 1.794610 0.000000 0.022380 
#    y 0.000000 1.721960 0.000000 
#    z 0.022380 0.000000 1.777450 
# 
# From -- ./inp_files/187002.got.cif
#   From: 2010.05.17/outbox.cif.g08.bks.cpg/sg12_94_cif.got.tgz:187002.got - 2010.06.03 13:09:07.
