data_PCOD9208157
_publ_section_title
;
Structure prediction by ZEFSAII (Michael W. Deem and Ramdas Pophale) SiO2 
 PCOD9208157
Probable space group: C 2/M
;
_chemical_formula_sum "Si O2"
_cell_formula_units_Z 36
_cell_length_a 11.057559
_cell_length_b 21.035655
_cell_length_c 7.361137
_cell_angle_alpha 90.000000
_cell_angle_beta 58.240342
_cell_angle_gamma 90.000000
_cell_volume 1455.840335
_symmetry_space_group_name_H-M "C 2/M"
_symmetry_group_IT_number 12
_symmetry_cell_setting 'monoclinic'
loop_
_space_group_symop_operation_xyz
x,y,z
-x,y,-z
-x,-y,-z
x,-y,z
1/2+x,1/2+y,z
1/2-x,1/2+y,-z
1/2-x,1/2-y,-z
1/2+x,1/2-y,z
loop_
_atom_site_type_symbol
_atom_site_label
_atom_site_fract_x
_atom_site_fract_y
_atom_site_fract_z
Si Si1 0.500000 0.766248 0.000000
Si Si2 0.654117 0.647695 0.748561
Si Si3 0.421534 0.864849 0.754551
Si Si4 0.087484 0.070791 0.237545
Si Si5 0.185412 0.428052 0.670950
O O1 0.621524 0.720427 0.820801
O O2 0.435568 0.808406 0.889187
O O3 0.761611 0.620440 0.816082
O O4 0.500376 0.618367 0.818373
O O5 0.742403 0.628501 0.499684
O O6 0.500000 0.847323 0.500000
O O7 0.519370 0.920007 0.763802
O O8 0.247697 0.080671 0.183383
O O9 0.000000 0.070565 0.500000
O O10 0.077730 0.000000 0.166279
O O11 0.226493 0.500000 0.579495
#
# Coordination Sequence:
#
# PCOD9208157 Si02
#       5
#     4   8   8   8   8
#     4  12  26  42  60  92 136 172 216 264 314 382
#     4  10  21  37  62  92 125 169 214 262 312 375
#     4  10  24  42  65  95 127 171 217 265 321 377
#     4   8  15  31  58  92 125 157 199 253 314 375
#     4   9  19  39  68  99 129 164 210 267 329 383
#
# _framework density 24.727986000000001
#
# number of rings (size 3 to 8) (size 9 to 14) (size 15 to 20)
#    0.000    2.444    0.000    2.667    0.000   14.667 
#    0.000    2.778    0.000    2.667    0.000    0.000 
#    0.000    0.000    0.000    0.000    0.000    0.000 
#
# Total GULP energy -100459.863213 kJ/mol
# GULP energy per Si atom -5581.103512 kJ/mol
# Density = 2.467170 g / cm^3
# Si number density = 24.727986 Si / 1000 Ang^3
#
#
#
# Elastic Constant Matrix: (Units=GPa)
#
#
# Indices 1 2 3 4 5 6 
#
# 1 223.5340 43.0486 36.0557 0.0000 2.9610 0.0000
# 2 43.0486 100.9995 27.5702 0.0000 21.0017 0.0000
# 3 36.0557 27.5702 78.3063 0.0000 7.7938 0.0000
# 4 0.0000 0.0000 0.0000 -74.0103 0.0000 -37.5900
# 5 2.9610 21.0017 7.7938 0.0000 60.3179 0.0000
# 6 0.0000 0.0000 0.0000 -37.5900 0.0000 21.0112
#
#
#
# Elastic Compliance Matrix: (Units=1/GPa)
#
#
# Indices 1 2 3 4 5 6 
#
# 1 0.005101 -0.001818 -0.001769 0.000000 0.000611 0.000000
# 2 -0.001818 0.012318 -0.003122 0.000000 -0.003796 0.000000
# 3 -0.001769 -0.003122 0.014757 0.000000 -0.000733 0.000000
# 4 0.000000 0.000000 0.000000 -0.007079 0.000000 -0.012665
# 5 0.000611 -0.003796 -0.000733 0.000000 0.017965 0.000000
# 6 0.000000 0.000000 0.000000 -0.012665 0.000000 0.024936
#
#
# Mechanical properties :
#
#
# Convention : Reuss Voigt Hill
#
# Bulk Modulus (GPa) = 53.31380 68.46543 60.88962
# Shear Modulus (GPa) = 57.03281 21.20809 39.12045
#
# Velocity S-wave (km/s) = 4.80772 2.93175 3.98179
# Velocity P-wave (km/s) = 7.24056 6.26161 6.76881
#
# Compressibility (1/GPa) = 0.01875687
#
# Stress axis : x y z
#
# Youngs Moduli (GPa) = 196.03714 81.18483 67.76386
#
# Poissons Ratio (x) = 0.14762 0.11990
# Poissons Ratio (y) = 0.35646 0.21154
# Poissons Ratio (z) = 0.34687 0.25344
#
# Static dielectric constant tensor:
#      x y z
#    x 1.982400 0.000000 -0.107460 
#    y 0.000000 1.869010 0.000000 
#    z -0.107460 0.000000 2.132470 
# 
# From -- ./inp_files/46808.got.cif
#   From: 2010.05.17/outbox.cif.g08.bks.cpg/sg12_24_cif.got.tgz:46808.got - 2010.06.03 13:09:07.
