data_PCOD9208058
_publ_section_title
;
Structure prediction by ZEFSAII (Michael W. Deem and Ramdas Pophale) SiO2 
 PCOD9208058
Probable space group: C 2/M
;
_chemical_formula_sum "Si O2"
_cell_formula_units_Z 40
_cell_length_a 15.648990
_cell_length_b 19.097854
_cell_length_c 9.014574
_cell_angle_alpha 90.000000
_cell_angle_beta 131.655429
_cell_angle_gamma 90.000000
_cell_volume 2012.922510
_symmetry_space_group_name_H-M "C 2/M"
_symmetry_group_IT_number 12
_symmetry_cell_setting 'monoclinic'
loop_
_space_group_symop_operation_xyz
x,y,z
-x,y,-z
-x,-y,-z
x,-y,z
1/2+x,1/2+y,z
1/2-x,1/2+y,-z
1/2-x,1/2-y,-z
1/2+x,1/2-y,z
loop_
_atom_site_type_symbol
_atom_site_label
_atom_site_fract_x
_atom_site_fract_y
_atom_site_fract_z
Si Si1 0.309304 0.915896 0.650452
Si Si2 0.712960 0.859210 0.044783
Si Si3 0.011655 0.580320 0.674504
Si Si4 0.899242 0.210171 0.084740
Si Si5 0.163490 0.807695 0.330125
O O1 0.294172 0.879890 0.792317
O O2 0.429401 0.893748 0.711720
O O3 0.212593 0.882990 0.434023
O O4 0.304700 0.000000 0.661436
O O5 0.838089 0.842155 0.128674
O O6 0.642605 0.916880 0.873943
O O7 0.640083 0.789034 0.926752
O O8 0.972918 0.500000 0.613044
O O9 0.000000 0.615388 0.500000
O O10 0.035248 0.203651 0.241386
O O11 0.848359 0.197001 0.861151
O O12 0.250000 0.750000 0.500000
#
# Coordination Sequence:
#
# PCOD9208058 Si02
#       5
#     8   8   8   8   8
#     4  11  23  39  64  93 125 168 211 261 319 372
#     4  11  21  39  57  93 125 156 209 268 309 376
#     4  10  21  37  61  91 124 164 208 257 318 376
#     4  10  24  38  61  91 120 166 214 252 318 376
#     4  11  21  42  64  88 124 167 209 262 313 377
#
# _framework density 19.871604999999999
#
# number of rings (size 3 to 8) (size 9 to 14) (size 15 to 20)
#    0.000    1.400    2.000    3.600    2.800    2.400 
#    0.000    6.000    0.000    0.000    0.000    0.000 
#    0.000    0.000    0.000    0.000    0.000    0.000 
#
# Total GULP energy -111631.940620 kJ/mol
# GULP energy per Si atom -5581.597031 kJ/mol
# Density = 1.982638 g / cm^3
# Si number density = 19.871605 Si / 1000 Ang^3
#
#
#
# Elastic Constant Matrix: (Units=GPa)
#
#
# Indices 1 2 3 4 5 6 
#
# 1 150.1638 42.1935 44.1056 0.0000 -4.6139 0.0000
# 2 42.1935 56.5238 15.9508 0.0000 3.8591 0.0000
# 3 44.1056 15.9508 81.4264 0.0000 1.7149 0.0000
# 4 0.0000 0.0000 0.0000 27.6921 0.0000 2.7649
# 5 -4.6139 3.8591 1.7149 0.0000 29.0166 0.0000
# 6 0.0000 0.0000 0.0000 2.7649 0.0000 24.6640
#
#
#
# Elastic Compliance Matrix: (Units=1/GPa)
#
#
# Indices 1 2 3 4 5 6 
#
# 1 0.009700 -0.006267 -0.004081 0.000000 0.002617 0.000000
# 2 -0.006267 0.022928 -0.001013 0.000000 -0.003986 0.000000
# 3 -0.004081 -0.001013 0.014719 0.000000 -0.001384 0.000000
# 4 0.000000 0.000000 0.000000 0.036520 0.000000 -0.004094
# 5 0.002617 -0.003986 -0.001384 0.000000 0.035491 0.000000
# 6 0.000000 0.000000 0.000000 -0.004094 0.000000 0.041004
#
#
# Mechanical properties :
#
#
# Convention : Reuss Voigt Hill
#
# Bulk Modulus (GPa) = 40.61055 54.73486 47.67271
# Shear Modulus (GPa) = 26.13794 28.66548 27.40171
#
# Velocity S-wave (km/s) = 3.63070 3.80219 3.71743
# Velocity P-wave (km/s) = 6.16902 6.84687 6.51676
#
# Compressibility (1/GPa) = 0.02462414
#
# Stress axis : x y z
#
# Youngs Moduli (GPa) = 103.09725 43.61469 67.93837
#
# Poissons Ratio (x) = 0.27335 0.27727
# Poissons Ratio (y) = 0.64615 0.06880
# Poissons Ratio (z) = 0.42077 0.04417
#
# Static dielectric constant tensor:
#      x y z
#    x 1.728510 0.000000 -0.022370 
#    y 0.000000 1.750270 0.000000 
#    z -0.022370 0.000000 1.693620 
# 
# From -- ./inp_files/63777.got.cif
#   From: 2010.05.17/outbox.cif.g08.bks.cpg/sg12_32_cif.got.tgz:63777.got - 2010.06.03 13:09:07.
