data_PCOD9208987
_publ_section_title
;
Structure prediction by ZEFSAII (Michael W. Deem and Ramdas Pophale) SiO2 
 PCOD9208987
Probable space group: C 2/M
;
_chemical_formula_sum "Si O2"
_cell_formula_units_Z 64
_cell_length_a 26.535380
_cell_length_b 13.471041
_cell_length_c 8.298962
_cell_angle_alpha 90.000000
_cell_angle_beta 121.703466
_cell_angle_gamma 90.000000
_cell_volume 2523.871098
_symmetry_space_group_name_H-M "C 2/M"
_symmetry_group_IT_number 12
_symmetry_cell_setting 'monoclinic'
loop_
_space_group_symop_operation_xyz
x,y,z
-x,y,-z
-x,-y,-z
x,-y,z
1/2+x,1/2+y,z
1/2-x,1/2+y,-z
1/2-x,1/2-y,-z
1/2+x,1/2-y,z
loop_
_atom_site_type_symbol
_atom_site_label
_atom_site_fract_x
_atom_site_fract_y
_atom_site_fract_z
Si Si1 0.032314 0.309032 0.722594
Si Si2 0.255965 0.382749 0.113084
Si Si3 0.497062 0.383454 0.800964
Si Si4 0.635044 0.617408 0.517041
Si Si5 0.186976 0.382244 0.682731
Si Si6 0.919637 0.380948 0.708626
Si Si7 0.806975 0.113816 0.734115
Si Si8 0.143685 0.312470 0.074124
O O1 0.000000 0.327080 0.500000
O O2 0.038097 0.192275 0.774305
O O3 0.986681 0.352651 0.777887
O O4 0.098901 0.347600 0.857674
O O5 0.264698 0.500000 0.103879
O O6 0.319709 0.341636 0.274274
O O7 0.206313 0.367504 0.166798
O O8 0.223000 0.344745 0.898450
O O9 0.508116 0.500000 0.789224
O O10 0.432178 0.352323 0.627651
O O11 0.500000 0.369954 0.000000
O O12 0.629190 0.500000 0.540030
O O13 0.668972 0.626729 0.404670
O O14 0.178021 0.500000 0.696267
O O15 0.124750 0.345820 0.509103
O O16 0.236576 0.371529 0.626530
O O17 0.915949 0.500000 0.715628
O O18 0.892982 0.335132 0.825980
O O19 0.838848 0.196662 0.894318
O O20 0.819800 0.000000 0.806911
#
# Coordination Sequence:
#
# PCOD9208987 Si02
#       8
#     8   8   8   8   8   8   8   8
#     4  12  27  43  61  91 126 162 210 259 311 376
#     4  10  21  38  60  91 129 160 197 251 307 369
#     4  10  21  41  68  94 126 169 214 260 305 354
#     4   9  18  34  59  89 119 157 202 246 298 357
#     4   9  20  39  62  90 125 164 199 242 309 374
#     4  11  24  44  68  91 119 157 207 262 311 370
#     4  10  21  38  60  88 123 159 200 247 296 361
#     4  12  25  40  64  92 118 162 212 254 310 369
#
# _framework density 25.357873000000001
#
# number of rings (size 3 to 8) (size 9 to 14) (size 15 to 20)
#    0.000    1.625    0.000    4.500    0.000   10.000 
#    0.000    1.250    0.000    0.000    0.000    0.000 
#    0.000    0.000    0.000    0.000    0.000    0.000 
#
# Total GULP energy -179131.130545 kJ/mol
# GULP energy per Si atom -5597.847830 kJ/mol
# Density = 2.530016 g / cm^3
# Si number density = 25.357873 Si / 1000 Ang^3
#
#
#
# Elastic Constant Matrix: (Units=GPa)
#
#
# Indices 1 2 3 4 5 6 
#
# 1 43.1294 -0.3643 13.1128 0.0000 10.1294 0.0000
# 2 -0.3643 64.4024 19.4442 0.0000 3.4643 0.0000
# 3 13.1128 19.4442 142.3915 0.0000 34.1809 0.0000
# 4 0.0000 0.0000 0.0000 23.8469 0.0000 -6.9633
# 5 10.1294 3.4643 34.1809 0.0000 43.4496 0.0000
# 6 0.0000 0.0000 0.0000 -6.9633 0.0000 7.6868
#
#
#
# Elastic Compliance Matrix: (Units=1/GPa)
#
#
# Indices 1 2 3 4 5 6 
#
# 1 0.024704 0.000767 -0.001211 0.000000 -0.004867 0.000000
# 2 0.000767 0.016230 -0.002383 0.000000 0.000402 0.000000
# 3 -0.001211 -0.002383 0.009057 0.000000 -0.006652 0.000000
# 4 0.000000 0.000000 0.000000 0.057016 0.000000 0.051650
# 5 -0.004867 0.000402 -0.006652 0.000000 0.029351 0.000000
# 6 0.000000 0.000000 0.000000 0.051650 0.000000 0.176882
#
#
# Mechanical properties :
#
#
# Convention : Reuss Voigt Hill
#
# Bulk Modulus (GPa) = 22.55526 34.92318 28.73922
# Shear Modulus (GPa) = 14.98472 29.51203 22.24838
#
# Velocity S-wave (km/s) = 2.43354 3.41518 2.96527
# Velocity P-wave (km/s) = 4.10003 5.41787 4.80435
#
# Compressibility (1/GPa) = 0.04433556
#
# Stress axis : x y z
#
# Youngs Moduli (GPa) = 40.47930 61.61551 110.41422
#
# Poissons Ratio (x) = -0.04728 0.13375
# Poissons Ratio (y) = -0.03106 0.26316
# Poissons Ratio (z) = 0.04903 0.14686
#
# Static dielectric constant tensor:
#      x y z
#    x 1.971950 0.000000 -0.011990 
#    y 0.000000 2.003890 0.000000 
#    z -0.011990 0.000000 2.028340 
# 
# From -- ./inp_files/112043.got.cif
#   From: 2010.05.17/outbox.cif.g08.bks.cpg/sg12_57_cif.got.tgz:112043.got - 2010.06.03 13:09:07.
