data_PCOD9208437
_publ_section_title
;
Structure prediction by ZEFSAII (Michael W. Deem and Ramdas Pophale) SiO2 
 PCOD9208437
Probable space group: C 2/M
;
_chemical_formula_sum "Si O2"
_cell_formula_units_Z 40
_cell_length_a 27.979811
_cell_length_b 15.064024
_cell_length_c 5.220924
_cell_angle_alpha 90.000000
_cell_angle_beta 97.318034
_cell_angle_gamma 90.000000
_cell_volume 2182.634778
_symmetry_space_group_name_H-M "C 2/M"
_symmetry_group_IT_number 12
_symmetry_cell_setting 'monoclinic'
loop_
_space_group_symop_operation_xyz
x,y,z
-x,y,-z
-x,-y,-z
x,-y,z
1/2+x,1/2+y,z
1/2-x,1/2+y,-z
1/2-x,1/2-y,-z
1/2+x,1/2-y,z
loop_
_atom_site_type_symbol
_atom_site_label
_atom_site_fract_x
_atom_site_fract_y
_atom_site_fract_z
Si Si1 0.269990 0.348772 0.469180
Si Si2 0.054918 0.173321 0.546186
Si Si3 0.783661 0.597391 0.081133
Si Si4 0.400412 0.599579 0.933848
Si Si5 0.148498 0.233554 0.776262
O O1 0.250000 0.250000 0.500000
O O2 0.256869 0.396601 0.723943
O O3 0.323441 0.332736 0.397827
O O4 0.240678 0.390292 0.211913
O O5 0.095311 0.249180 0.624935
O O6 0.000000 0.202894 0.500000
O O7 0.935454 0.109023 0.204997
O O8 0.070170 0.124579 0.297556
O O9 0.806588 0.500000 0.112375
O O10 0.820482 0.678991 0.151396
O O11 0.380826 0.500000 0.903980
O O12 0.361068 0.675238 0.975740
#
# Coordination Sequence:
#
# PCOD9208437 Si02
#       5
#     8   8   8   8   8
#     4  10  21  38  57  81 113 152 186 235 282 329
#     4  10  22  37  56  81 111 149 186 227 280 340
#     4  11  23  38  60  86 115 153 195 232 280 336
#     4  10  22  35  54  80 110 148 185 226 281 335
#     4   9  23  37  58  81 117 150 185 235 282 326
#
# _framework density 18.326476
#
# number of rings (size 3 to 8) (size 9 to 14) (size 15 to 20)
#    1.200    0.800    0.000    4.200    8.400    4.000 
#    0.000    0.000    0.000    0.600    0.000    1.400 
#    0.000    0.000    0.000    0.000    0.000    0.000 
#
# Total GULP energy -111390.076743 kJ/mol
# GULP energy per Si atom -5569.503837 kJ/mol
# Density = 1.828476 g / cm^3
# Si number density = 18.326476 Si / 1000 Ang^3
#
#
#
# Elastic Constant Matrix: (Units=GPa)
#
#
# Indices 1 2 3 4 5 6 
#
# 1 109.2722 45.7560 31.8889 0.0000 6.9890 0.0000
# 2 45.7560 87.3127 22.7630 0.0000 -0.3181 0.0000
# 3 31.8889 22.7630 126.2395 0.0000 -20.5305 0.0000
# 4 0.0000 0.0000 0.0000 -1.4888 0.0000 3.3862
# 5 6.9890 -0.3181 -20.5305 0.0000 19.9591 0.0000
# 6 0.0000 0.0000 0.0000 3.3862 0.0000 15.2916
#
#
#
# Elastic Compliance Matrix: (Units=1/GPa)
#
#
# Indices 1 2 3 4 5 6 
#
# 1 0.013292 -0.006045 -0.003651 0.000000 -0.008506 0.000000
# 2 -0.006045 0.014867 -0.000926 0.000000 0.001401 0.000000
# 3 -0.003651 -0.000926 0.011068 0.000000 0.012648 0.000000
# 4 0.000000 0.000000 0.000000 -0.446701 0.000000 0.098918
# 5 -0.008506 0.001401 0.012648 0.000000 0.066114 0.000000
# 6 0.000000 0.000000 0.000000 0.098918 0.000000 0.043491
#
#
# Mechanical properties :
#
#
# Convention : Reuss Voigt Hill
#
# Bulk Modulus (GPa) = 55.60689 58.18224 56.89457
# Shear Modulus (GPa) = -18.47535 21.58015 1.55240
#
# Velocity S-wave (km/s) = -3.17854 3.43525 0.92137
# Velocity P-wave (km/s) = 4.11551 6.89574 5.67841
#
# Compressibility (1/GPa) = 0.01798338
#
# Stress axis : x y z
#
# Youngs Moduli (GPa) = 75.23192 67.26122 90.35276
#
# Poissons Ratio (x) = 0.40659 0.32989
# Poissons Ratio (y) = 0.45477 0.08367
# Poissons Ratio (z) = 0.27468 0.06228
#
# Static dielectric constant tensor:
#      x y z
#    x 1.659780 0.000000 0.011760 
#    y 0.000000 1.631270 0.000000 
#    z 0.011760 0.000000 1.682460 
# 
# From -- ./inp_files/24121.got.cif
#   From: 2010.05.17/outbox.cif.g08.bks.cpg/sg12_13_cif.got.tgz:24121.got - 2010.06.03 13:09:07.
