data_PCOD9208038
_publ_section_title
;
Structure prediction by ZEFSAII (Michael W. Deem and Ramdas Pophale) SiO2 
 PCOD9208038
Probable space group: C 2/M
;
_chemical_formula_sum "Si O2"
_cell_formula_units_Z 48
_cell_length_a 17.412682
_cell_length_b 31.894622
_cell_length_c 9.314559
_cell_angle_alpha 90.000000
_cell_angle_beta 152.134440
_cell_angle_gamma 90.000000
_cell_volume 2417.868882
_symmetry_space_group_name_H-M "C 2/M"
_symmetry_group_IT_number 12
_symmetry_cell_setting 'monoclinic'
loop_
_space_group_symop_operation_xyz
x,y,z
-x,y,-z
-x,-y,-z
x,-y,z
1/2+x,1/2+y,z
1/2-x,1/2+y,-z
1/2-x,1/2-y,-z
1/2+x,1/2-y,z
loop_
_atom_site_type_symbol
_atom_site_label
_atom_site_fract_x
_atom_site_fract_y
_atom_site_fract_z
Si Si1 0.676578 0.861945 0.710854
Si Si2 0.823377 0.455284 0.630249
Si Si3 0.381013 0.284357 0.672638
Si Si4 0.175941 0.454772 0.711992
Si Si5 0.679325 0.136104 0.368151
Si Si6 0.881137 0.785090 0.174507
O O1 0.500000 0.858903 0.500000
O O2 0.747801 0.908673 0.861902
O O3 0.662579 0.858070 0.513742
O O4 0.789829 0.824899 0.956195
O O5 0.740144 0.500000 0.529074
O O6 0.849925 0.454953 0.502669
O O7 0.745573 0.410245 0.535824
O O8 0.000000 0.455406 0.000000
O O9 0.250000 0.250000 0.500000
O O10 0.288101 0.327124 0.481609
O O11 0.494841 0.266303 0.737157
O O12 0.500000 0.294620 0.000000
O O13 0.257146 0.500000 0.882571
O O14 0.000000 0.454967 0.500000
O O15 0.500000 0.137646 0.000000
O O16 0.000000 0.797779 0.500000
O O17 0.750000 0.750000 0.000000
#
# Coordination Sequence:
#
# PCOD9208038 Si02
#       6
#     8   8   8   8   8   8
#     4  10  21  37  61  90 122 157 198 244 292 347
#     4   8  14  27  50  82 118 152 190 235 279 331
#     4  12  25  43  63  86 116 153 194 245 297 358
#     4   8  14  27  50  82 116 152 193 235 278 332
#     4  10  21  37  61  91 122 157 197 242 293 347
#     4  12  27  44  64  86 116 153 197 248 299 357
#
# _framework density 19.852191000000001
#
# number of rings (size 3 to 8) (size 9 to 14) (size 15 to 20)
#    0.000    2.000    1.667    2.000    4.667    0.000 
#    0.000    0.000    0.000    2.000    0.000    0.000 
#    0.000    0.000    0.000    0.000    0.000    0.000 
#
# Total GULP energy -133771.532886 kJ/mol
# GULP energy per Si atom -5573.813870 kJ/mol
# Density = 1.980701 g / cm^3
# Si number density = 19.852191 Si / 1000 Ang^3
#
#
#
# Elastic Constant Matrix: (Units=GPa)
#
#
# Indices 1 2 3 4 5 6 
#
# 1 77.9723 36.1398 14.0446 0.0000 13.6033 0.0000
# 2 36.1398 190.7883 53.4025 0.0000 13.2643 0.0000
# 3 14.0446 53.4025 75.5744 0.0000 -6.7679 0.0000
# 4 0.0000 0.0000 0.0000 35.9850 0.0000 -5.8056
# 5 13.6033 13.2643 -6.7679 0.0000 22.3143 0.0000
# 6 0.0000 0.0000 0.0000 -5.8056 0.0000 21.6500
#
#
#
# Elastic Compliance Matrix: (Units=1/GPa)
#
#
# Indices 1 2 3 4 5 6 
#
# 1 0.015675 -0.001574 -0.002645 0.000000 -0.009422 0.000000
# 2 -0.001574 0.007402 -0.005392 0.000000 -0.005076 0.000000
# 3 -0.002645 -0.005392 0.018467 0.000000 0.010419 0.000000
# 4 0.000000 0.000000 0.000000 0.029046 0.000000 0.007789
# 5 -0.009422 -0.005076 0.010419 0.000000 0.056735 0.000000
# 6 0.000000 0.000000 0.000000 0.007789 0.000000 0.048278
#
#
# Mechanical properties :
#
#
# Convention : Reuss Voigt Hill
#
# Bulk Modulus (GPa) = 44.79947 61.27875 53.03911
# Shear Modulus (GPa) = 24.72006 32.03973 28.37989
#
# Velocity S-wave (km/s) = 3.53258 4.02171 3.78505
# Velocity P-wave (km/s) = 6.26532 7.24569 6.77327
#
# Compressibility (1/GPa) = 0.02232169
#
# Stress axis : x y z
#
# Youngs Moduli (GPa) = 63.79698 135.10294 54.15123
#
# Poissons Ratio (x) = 0.21263 0.14321
# Poissons Ratio (y) = 0.10041 0.29200
# Poissons Ratio (z) = 0.16872 0.72852
#
# Static dielectric constant tensor:
#      x y z
#    x 1.650430 0.000000 0.045010 
#    y 0.000000 1.793040 0.000000 
#    z 0.045010 0.000000 1.629590 
# 
# From -- ./inp_files/80856.got.cif
#   From: 2010.05.17/outbox.cif.g08.bks.cpg/sg12_41_cif.got.tgz:80856.got - 2010.06.03 13:09:07.
