data_PCOD9208480
_publ_section_title
;
Structure prediction by ZEFSAII (Michael W. Deem and Ramdas Pophale) SiO2 
 PCOD9208480
Probable space group: C 2/M
;
_chemical_formula_sum "Si O2"
_cell_formula_units_Z 48
_cell_length_a 14.175427
_cell_length_b 10.386208
_cell_length_c 32.603520
_cell_angle_alpha 90.000000
_cell_angle_beta 152.689013
_cell_angle_gamma 90.000000
_cell_volume 2202.419007
_symmetry_space_group_name_H-M "C 2/M"
_symmetry_group_IT_number 12
_symmetry_cell_setting 'monoclinic'
loop_
_space_group_symop_operation_xyz
x,y,z
-x,y,-z
-x,-y,-z
x,-y,z
1/2+x,1/2+y,z
1/2-x,1/2+y,-z
1/2-x,1/2-y,-z
1/2+x,1/2-y,z
loop_
_atom_site_type_symbol
_atom_site_label
_atom_site_fract_x
_atom_site_fract_y
_atom_site_fract_z
Si Si1 0.753108 0.138361 0.398636
Si Si2 0.236702 0.653055 0.932096
Si Si3 0.728561 0.136665 0.532367
Si Si4 0.792566 0.844009 0.863217
Si Si5 0.799190 0.344265 0.794381
Si Si6 0.108784 0.789556 0.632763
O O1 0.700682 0.254917 0.408256
O O2 0.743560 0.159474 0.346036
O O3 0.000000 0.130625 0.500000
O O4 0.660399 0.000000 0.374035
O O5 0.238374 0.500000 0.927433
O O6 0.204413 0.700488 0.873146
O O7 0.044165 0.681049 0.886153
O O8 0.462670 0.681978 0.036089
O O9 0.499016 0.161056 0.426578
O O10 0.891680 0.136788 0.557980
O O11 0.737763 0.000000 0.557247
O O12 0.716333 0.751607 0.797419
O O13 0.765079 0.000000 0.845946
O O14 0.764247 0.500000 0.786379
O O15 0.717534 0.301661 0.718226
#
# Coordination Sequence:
#
# PCOD9208480 Si02
#       6
#     8   8   8   8   8   8
#     4   9  18  34  55  76  99 133 175 215 260 317
#     4   8  17  35  58  79 106 144 177 208 255 317
#     4  10  21  38  58  77 101 138 182 226 268 308
#     4   9  18  36  58  81 108 139 176 214 256 310
#     4  11  21  34  54  81 110 140 175 216 263 312
#     4  10  22  36  54  77 109 143 177 217 265 320
#
# _framework density 21.794218000000001
#
# number of rings (size 3 to 8) (size 9 to 14) (size 15 to 20)
#    0.000    2.500    0.000    3.000    0.000    9.667 
#    0.000    4.167    0.000    0.000    0.000    0.000 
#    0.000    0.000    0.000    0.000    0.000    0.000 
#
# Total GULP energy -133696.995411 kJ/mol
# GULP energy per Si atom -5570.708142 kJ/mol
# Density = 2.174461 g / cm^3
# Si number density = 21.794218 Si / 1000 Ang^3
#
#
#
# Elastic Constant Matrix: (Units=GPa)
#
#
# Indices 1 2 3 4 5 6 
#
# 1 86.2875 66.4368 12.3060 0.0000 -34.2119 0.0000
# 2 66.4368 139.7658 26.2390 -0.0001 -31.0907 0.0000
# 3 12.3060 26.2390 64.4142 -0.0003 -22.2730 -0.0001
# 4 0.0000 -0.0001 -0.0003 3.3879 -0.0001 -13.0776
# 5 -34.2119 -31.0907 -22.2730 -0.0001 47.7890 0.0000
# 6 0.0000 0.0000 -0.0001 -13.0776 0.0000 19.2581
#
#
#
# Elastic Compliance Matrix: (Units=1/GPa)
#
#
# Indices 1 2 3 4 5 6 
#
# 1 0.022592 -0.008685 0.003410 0.000000 0.012113 0.000000
# 2 -0.008685 0.011887 -0.003169 0.000000 0.000039 0.000000
# 3 0.003410 -0.003169 0.019426 -0.000002 0.009433 -0.000001
# 4 0.000000 0.000000 -0.000002 -0.182058 -0.000001 -0.123630
# 5 0.012113 0.000039 0.009433 -0.000001 0.034018 -0.000001
# 6 0.000000 0.000000 -0.000001 -0.123630 -0.000001 -0.032028
#
#
# Mechanical properties :
#
#
# Convention : Reuss Voigt Hill
#
# Bulk Modulus (GPa) = 27.01521 55.60346 41.30934
# Shear Modulus (GPa) = -51.58121 26.45270 -12.56425
#
# Velocity S-wave (km/s) = -4.87019 3.48767 -2.40364
# Velocity P-wave (km/s) = 4.38207 6.46427 3.36038
#
# Compressibility (1/GPa) = 0.03701618
#
# Stress axis : x y z
#
# Youngs Moduli (GPa) = 44.26301 84.12753 51.47779
#
# Poissons Ratio (x) = 0.73063 -0.17554
# Poissons Ratio (y) = 0.38441 0.16316
# Poissons Ratio (z) = -0.15093 0.26664
#
# Static dielectric constant tensor:
#      x y z
#    x 1.883420 0.000000 0.036240 
#    y 0.000000 1.858930 0.000000 
#    z 0.036240 0.000000 1.887810 
# 
# From -- ./inp_files/376145.got.cif
#   From: 2010.05.17/outbox.cif.g08.bks.cpg/sg12_189_cif.got.tgz:376145.got - 2010.06.03 13:09:07.
