data_PCOD9208997
_publ_section_title
;
Structure prediction by ZEFSAII (Michael W. Deem and Ramdas Pophale) SiO2 
 PCOD9208997
Probable space group: C 2/M
;
_chemical_formula_sum "Si O2"
_cell_formula_units_Z 56
_cell_length_a 25.308507
_cell_length_b 8.828590
_cell_length_c 13.686999
_cell_angle_alpha 90.000000
_cell_angle_beta 70.303303
_cell_angle_gamma 90.000000
_cell_volume 2879.266145
_symmetry_space_group_name_H-M "C 2/M"
_symmetry_group_IT_number 12
_symmetry_cell_setting 'monoclinic'
loop_
_space_group_symop_operation_xyz
x,y,z
-x,y,-z
-x,-y,-z
x,-y,z
1/2+x,1/2+y,z
1/2-x,1/2+y,-z
1/2-x,1/2-y,-z
1/2+x,1/2-y,z
loop_
_atom_site_type_symbol
_atom_site_label
_atom_site_fract_x
_atom_site_fract_y
_atom_site_fract_z
Si Si1 0.789563 0.329467 0.397394
Si Si2 0.078635 0.682080 0.184069
Si Si3 0.809153 0.317230 0.999239
Si Si4 0.556823 0.321389 0.408405
Si Si5 0.152111 0.180893 0.819121
Si Si6 0.459205 0.816807 0.205782
Si Si7 0.094150 0.669438 0.560882
O O1 0.770503 0.500000 0.383771
O O2 0.750000 0.250000 0.500000
O O3 0.804528 0.233468 0.292283
O O4 0.848308 0.342194 0.417045
O O5 0.077030 0.500000 0.189331
O O6 0.070240 0.743909 0.298181
O O7 0.024459 0.726153 0.151049
O O8 0.138601 0.727293 0.103225
O O9 0.805630 0.500000 0.003478
O O10 0.826622 0.255026 0.094248
O O11 0.750000 0.250000 0.000000
O O12 0.500000 0.269462 0.500000
O O13 0.552824 0.500000 0.395600
O O14 0.601059 0.277270 0.464426
O O15 0.089839 0.241248 0.827344
O O16 0.150719 0.000000 0.826781
O O17 0.447566 0.777074 0.327262
O O18 0.453150 0.000000 0.200417
O O19 0.077402 0.500000 0.538588
#
# Coordination Sequence:
#
# PCOD9208997 Si02
#       7
#     8   8   8   8   8   8   8
#     4  10  21  38  60  89 120 156 203 252 301 359
#     4  10  22  40  64  89 118 163 211 253 305 371
#     4  11  25  46  68  90 119 159 210 263 311 366
#     4  11  22  33  52  87 126 159 193 240 299 357
#     4  11  23  40  64  91 123 163 200 248 311 369
#     4   9  18  36  61  90 120 153 198 249 301 362
#     4   9  18  33  55  80 115 158 197 237 290 355
#
# _framework density 19.449401999999999
#
# number of rings (size 3 to 8) (size 9 to 14) (size 15 to 20)
#    0.000    1.857    1.429    3.429    0.000    6.857 
#    0.000    4.286    0.000    0.000    0.000    0.000 
#    0.000    0.000    0.000    0.000    0.000    0.000 
#
# Total GULP energy -156192.336341 kJ/mol
# GULP energy per Si atom -5578.297726 kJ/mol
# Density = 1.940513 g / cm^3
# Si number density = 19.449402 Si / 1000 Ang^3
#
#
#
# Elastic Constant Matrix: (Units=GPa)
#
#
# Indices 1 2 3 4 5 6 
#
# 1 115.2580 49.7803 84.5155 0.0000 -8.4760 0.0000
# 2 49.7803 62.1016 48.7196 0.0000 -6.2099 0.0000
# 3 84.5155 48.7196 132.2170 0.0000 -3.6841 0.0000
# 4 0.0000 0.0000 0.0000 28.0173 0.0000 -0.1941
# 5 -8.4760 -6.2099 -3.6841 0.0000 33.1116 0.0000
# 6 0.0000 0.0000 0.0000 -0.1941 0.0000 27.5054
#
#
#
# Elastic Compliance Matrix: (Units=1/GPa)
#
#
# Indices 1 2 3 4 5 6 
#
# 1 0.018920 -0.007726 -0.009181 0.000000 0.002373 0.000000
# 2 -0.007726 0.026178 -0.004640 0.000000 0.002415 0.000000
# 3 -0.009181 -0.004640 0.015099 0.000000 -0.001540 0.000000
# 4 0.000000 0.000000 0.000000 0.035694 0.000000 0.000252
# 5 0.002373 0.002415 -0.001540 0.000000 0.031090 0.000000
# 6 0.000000 0.000000 0.000000 0.000252 0.000000 0.036358
#
#
# Mechanical properties :
#
#
# Convention : Reuss Voigt Hill
#
# Bulk Modulus (GPa) = 58.47226 75.06750 66.76988
# Shear Modulus (GPa) = 23.57022 26.16427 24.86725
#
# Velocity S-wave (km/s) = 3.48497 3.67174 3.57958
# Velocity P-wave (km/s) = 6.80606 7.52700 7.17559
#
# Compressibility (1/GPa) = 0.01710213
#
# Stress axis : x y z
#
# Youngs Moduli (GPa) = 52.85537 38.20063 66.23149
#
# Poissons Ratio (x) = 0.29515 0.60805
# Poissons Ratio (y) = 0.40837 0.30731
# Poissons Ratio (z) = 0.48525 0.17725
#
# Static dielectric constant tensor:
#      x y z
#    x 1.753590 0.000000 -0.019150 
#    y 0.000000 1.680590 0.000000 
#    z -0.019150 0.000000 1.684030 
# 
# From -- ./inp_files/180870.got.cif
#   From: 2010.05.17/outbox.cif.g08.bks.cpg/sg12_91_cif.got.tgz:180870.got - 2010.06.03 13:09:07.
