data_PCOD9208027
_publ_section_title
;
Structure prediction by ZEFSAII (Michael W. Deem and Ramdas Pophale) SiO2 
 PCOD9208027
Probable space group: C 2/M
;
_chemical_formula_sum "Si O2"
_cell_formula_units_Z 64
_cell_length_a 25.254667
_cell_length_b 9.115642
_cell_length_c 14.743671
_cell_angle_alpha 90.000000
_cell_angle_beta 90.642037
_cell_angle_gamma 90.000000
_cell_volume 3393.964312
_symmetry_space_group_name_H-M "C 2/M"
_symmetry_group_IT_number 12
_symmetry_cell_setting 'monoclinic'
loop_
_space_group_symop_operation_xyz
x,y,z
-x,y,-z
-x,-y,-z
x,-y,z
1/2+x,1/2+y,z
1/2-x,1/2+y,-z
1/2-x,1/2-y,-z
1/2+x,1/2-y,z
loop_
_atom_site_type_symbol
_atom_site_label
_atom_site_fract_x
_atom_site_fract_y
_atom_site_fract_z
Si Si1 0.394921 0.672833 0.646925
Si Si2 0.056268 0.334339 0.049951
Si Si3 0.439333 0.824025 0.479078
Si Si4 0.488364 0.329259 0.785943
Si Si5 0.806198 0.176796 0.792040
Si Si6 0.696700 0.674745 0.810545
Si Si7 0.845108 0.174079 0.996287
Si Si8 0.092190 0.324585 0.728284
O O1 0.386745 0.500000 0.630077
O O2 0.400145 0.757632 0.553161
O O3 0.451702 0.689617 0.697287
O O4 0.349872 0.720763 0.717805
O O5 0.069401 0.500000 0.079697
O O6 0.048370 0.224605 0.133026
O O7 0.102216 0.269189 0.988831
O O8 0.000000 0.337874 0.000000
O O9 0.500000 0.774192 0.500000
O O10 0.420644 0.787853 0.377114
O O11 0.439287 0.000000 0.487477
O O12 0.502065 0.500000 0.796731
O O13 0.540799 0.232681 0.781097
O O14 0.750103 0.252820 0.774788
O O15 0.801159 0.000000 0.788117
O O16 0.823901 0.212699 0.895697
O O17 0.696598 0.500000 0.796577
O O18 0.692948 0.701873 0.919336
O O19 0.644930 0.745933 0.764265
O O20 0.857455 0.000000 0.996615
O O21 0.097017 0.500000 0.737577
#
# Coordination Sequence:
#
# PCOD9208027 Si02
#       8
#     8   8   8   8   8   8   8   8
#     4  10  21  37  61  90 118 152 193 239 296 352
#     4  11  23  35  51  81 119 159 202 243 291 351
#     4  10  21  38  61  90 121 154 194 242 297 354
#     4  11  21  36  58  85 119 156 193 239 296 354
#     4  10  21  41  63  86 119 158 200 246 297 351
#     4  11  24  40  61  90 119 157 203 248 297 349
#     4  10  21  39  60  84 118 156 200 248 296 351
#     4  11  23  40  61  87 122 160 196 243 301 357
#
# _framework density 18.857005000000001
#
# number of rings (size 3 to 8) (size 9 to 14) (size 15 to 20)
#    0.000    1.500    2.500    2.625    0.000    6.750 
#    0.000    0.625    0.000    0.000    0.000    0.000 
#    0.000    0.000    0.000    0.000    0.000    0.000 
#
# Total GULP energy -178732.983825 kJ/mol
# GULP energy per Si atom -5585.405745 kJ/mol
# Density = 1.881409 g / cm^3
# Si number density = 18.857005 Si / 1000 Ang^3
#
#
#
# Elastic Constant Matrix: (Units=GPa)
#
#
# Indices 1 2 3 4 5 6 
#
# 1 122.8746 37.0363 34.3049 0.0000 -15.4456 0.0000
# 2 37.0363 21.0329 26.2103 0.0000 -2.3265 0.0000
# 3 34.3049 26.2103 81.7752 0.0000 -13.2297 0.0000
# 4 0.0000 0.0000 0.0000 26.3351 0.0000 -4.1783
# 5 -15.4456 -2.3265 -13.2297 0.0000 21.1509 0.0000
# 6 0.0000 0.0000 0.0000 -4.1783 0.0000 29.1958
#
#
#
# Elastic Compliance Matrix: (Units=1/GPa)
#
#
# Indices 1 2 3 4 5 6 
#
# 1 0.022438 -0.048770 0.008903 0.000000 0.016590 0.000000
# 2 -0.048770 0.186393 -0.046425 0.000000 -0.044151 0.000000
# 3 0.008903 -0.046425 0.026257 0.000000 0.017818 0.000000
# 4 0.000000 0.000000 0.000000 0.038854 0.000000 0.005561
# 5 0.016590 -0.044151 0.017818 0.000000 0.065683 0.000000
# 6 0.000000 0.000000 0.000000 0.005561 0.000000 0.035047
#
#
# Mechanical properties :
#
#
# Convention : Reuss Voigt Hill
#
# Bulk Modulus (GPa) = 15.99958 46.75395 31.37677
# Shear Modulus (GPa) = 8.80139 23.87845 16.33992
#
# Velocity S-wave (km/s) = 2.16277 3.56236 2.94686
# Velocity P-wave (km/s) = 3.83925 6.46284 5.31546
#
# Compressibility (1/GPa) = 0.06250162
#
# Stress axis : x y z
#
# Youngs Moduli (GPa) = 44.56653 5.36502 38.08557
#
# Poissons Ratio (x) = 0.26165 -0.33906
# Poissons Ratio (y) = 2.17352 1.76814
# Poissons Ratio (z) = -0.39676 0.24907
#
# Static dielectric constant tensor:
#      x y z
#    x 1.632730 0.000000 0.008760 
#    y 0.000000 1.628000 0.000000 
#    z 0.008760 0.000000 1.663360 
# 
# From -- ./inp_files/238611.got.cif
#   From: 2010.05.17/outbox.cif.g08.bks.cpg/sg12_120_cif.got.tgz:238611.got - 2010.06.03 13:09:07.
