data_PCOD9208946
_publ_section_title
;
Structure prediction by ZEFSAII (Michael W. Deem and Ramdas Pophale) SiO2 
 PCOD9208946
Probable space group: C 2/M
;
_chemical_formula_sum "Si O2"
_cell_formula_units_Z 64
_cell_length_a 14.818793
_cell_length_b 29.376778
_cell_length_c 11.378396
_cell_angle_alpha 90.000000
_cell_angle_beta 40.508072
_cell_angle_gamma 90.000000
_cell_volume 3217.466851
_symmetry_space_group_name_H-M "C 2/M"
_symmetry_group_IT_number 12
_symmetry_cell_setting 'monoclinic'
loop_
_space_group_symop_operation_xyz
x,y,z
-x,y,-z
-x,-y,-z
x,-y,z
1/2+x,1/2+y,z
1/2-x,1/2+y,-z
1/2-x,1/2-y,-z
1/2+x,1/2-y,z
loop_
_atom_site_type_symbol
_atom_site_label
_atom_site_fract_x
_atom_site_fract_y
_atom_site_fract_z
Si Si1 0.619094 0.054526 0.077453
Si Si2 0.323544 0.853422 0.549358
Si Si3 0.865272 0.635347 0.781928
Si Si4 0.181836 0.203238 0.110826
Si Si5 0.145433 0.051933 0.334571
Si Si6 0.578964 0.718253 0.792617
Si Si7 0.317570 0.090717 0.348067
Si Si8 0.839548 0.685637 0.198383
O O1 0.634757 0.082710 0.181119
O O2 0.472916 0.072788 0.173867
O O3 0.616943 0.000000 0.089047
O O4 0.743966 0.069799 0.868440
O O5 0.480826 0.843488 0.348258
O O6 0.335763 0.860681 0.675060
O O7 0.206970 0.815729 0.650447
O O8 0.287873 0.899032 0.513016
O O9 0.754478 0.662467 0.967901
O O10 0.232922 0.196286 0.195766
O O11 0.025863 0.208915 0.212818
O O12 0.250000 0.250000 0.000000
O O13 0.219324 0.054332 0.386172
O O14 0.000000 0.076489 0.500000
O O15 0.118976 0.000000 0.322831
O O16 0.641660 0.769157 0.741010
O O17 0.500000 0.711546 0.000000
O O18 0.295061 0.139768 0.308485
O O19 0.000000 0.677058 0.000000
#
# Coordination Sequence:
#
# PCOD9208946 Si02
#       8
#     8   8   8   8   8   8   8   8
#     4  10  21  39  66  93 119 159 203 249 312 372
#     4  10  22  39  56  85 121 163 200 256 304 352
#     4  10  21  39  62  86 121 161 206 253 305 364
#     4  12  21  37  62  88 115 165 211 250 309 373
#     4  10  21  38  60  87 120 150 185 242 305 365
#     4  11  22  39  60  84 120 163 210 251 309 366
#     4  11  22  37  59  86 123 155 202 251 302 365
#     4  11  21  36  59  88 119 158 208 256 305 359
#
# _framework density 19.891425000000002
#
# number of rings (size 3 to 8) (size 9 to 14) (size 15 to 20)
#    0.000    1.375    3.750    3.750    0.000    3.500 
#    0.000    5.625    2.750    0.000    0.000    4.375 
#    0.000    0.000    0.000    0.000    0.000    0.000 
#
# Total GULP energy -178431.150274 kJ/mol
# GULP energy per Si atom -5575.973446 kJ/mol
# Density = 1.984615 g / cm^3
# Si number density = 19.891425 Si / 1000 Ang^3
#
#
#
# Elastic Constant Matrix: (Units=GPa)
#
#
# Indices 1 2 3 4 5 6 
#
# 1 136.1569 36.6451 36.0104 0.0000 -13.4570 0.0000
# 2 36.6451 96.4708 38.6971 0.0000 -5.6037 0.0000
# 3 36.0104 38.6971 59.5523 0.0000 -16.3910 0.0000
# 4 0.0000 0.0000 0.0000 24.5246 0.0000 -0.9659
# 5 -13.4570 -5.6037 -16.3910 0.0000 18.3252 0.0000
# 6 0.0000 0.0000 0.0000 -0.9659 0.0000 29.6973
#
#
#
# Elastic Compliance Matrix: (Units=1/GPa)
#
#
# Indices 1 2 3 4 5 6 
#
# 1 0.009056 -0.001895 -0.003414 0.000000 0.003017 0.000000
# 2 -0.001895 0.014789 -0.010085 0.000000 -0.005890 0.000000
# 3 -0.003414 -0.010085 0.031667 0.000000 0.022733 0.000000
# 4 0.000000 0.000000 0.000000 0.040828 0.000000 0.001328
# 5 0.003017 -0.005890 0.022733 0.000000 0.075318 0.000000
# 6 0.000000 0.000000 0.000000 0.001328 0.000000 0.033716
#
#
# Mechanical properties :
#
#
# Convention : Reuss Voigt Hill
#
# Bulk Modulus (GPa) = 40.44840 57.20949 48.82894
# Shear Modulus (GPa) = 20.45808 26.56457 23.51133
#
# Velocity S-wave (km/s) = 3.21048 3.65838 3.44173
# Velocity P-wave (km/s) = 5.84138 6.83142 6.35571
#
# Compressibility (1/GPa) = 0.02472286
#
# Stress axis : x y z
#
# Youngs Moduli (GPa) = 110.42874 67.61800 31.57903
#
# Poissons Ratio (x) = 0.12815 0.10781
# Poissons Ratio (y) = 0.20928 0.31847
# Poissons Ratio (z) = 0.37700 0.68193
#
# Static dielectric constant tensor:
#      x y z
#    x 1.774590 0.000000 -0.001100 
#    y 0.000000 1.707270 0.000000 
#    z -0.001100 0.000000 1.727640 
# 
# From -- ./inp_files/149743.got.cif
#   From: 2010.05.17/outbox.cif.g08.bks.cpg/sg12_75_cif.got.tgz:149743.got - 2010.06.03 13:09:07.
