data_PCOD9208786
_publ_section_title
;
Structure prediction by ZEFSAII (Michael W. Deem and Ramdas Pophale) SiO2 
 PCOD9208786
Probable space group: C 2/M
;
_chemical_formula_sum "Si O2"
_cell_formula_units_Z 44
_cell_length_a 9.320903
_cell_length_b 13.775713
_cell_length_c 13.886295
_cell_angle_alpha 90.000000
_cell_angle_beta 88.090083
_cell_angle_gamma 90.000000
_cell_volume 1782.038686
_symmetry_space_group_name_H-M "C 2/M"
_symmetry_group_IT_number 12
_symmetry_cell_setting 'monoclinic'
loop_
_space_group_symop_operation_xyz
x,y,z
-x,y,-z
-x,-y,-z
x,-y,z
1/2+x,1/2+y,z
1/2-x,1/2+y,-z
1/2-x,1/2-y,-z
1/2+x,1/2-y,z
loop_
_atom_site_type_symbol
_atom_site_label
_atom_site_fract_x
_atom_site_fract_y
_atom_site_fract_z
Si Si1 0.673366 0.397431 0.222830
Si Si2 0.315722 0.190328 0.772480
Si Si3 0.454862 0.110660 0.106949
Si Si4 0.407265 0.609680 0.092953
Si Si5 0.262561 0.612954 0.417236
Si Si6 0.500000 0.247668 0.500000
O O1 0.696671 0.500000 0.274613
O O2 0.695324 0.296261 0.275021
O O3 0.518554 0.395920 0.178514
O O4 0.786596 0.394163 0.132132
O O5 0.474026 0.171250 0.808744
O O6 0.219837 0.177969 0.870246
O O7 0.262712 0.113559 0.696915
O O8 0.509692 0.000000 0.115879
O O9 0.500000 0.142677 0.000000
O O10 0.355007 0.500000 0.073487
O O11 0.500000 0.641854 0.000000
O O12 0.270764 0.500000 0.450349
O O13 0.404648 0.676968 0.437573
O O14 0.122916 0.673515 0.457680
#
# Coordination Sequence:
#
# PCOD9208786 Si02
#       6
#     8   8   8   8   8   4
#     4  10  23  38  54  84 126 173 226 278 332 395
#     4  12  24  39  65  99 131 178 234 282 342 408
#     4  10  21  38  59  88 129 177 227 282 340 395
#     4  10  21  38  59  88 129 177 227 282 340 395
#     4  11  25  49  79 113 147 184 237 294 362 443
#     4  10  26  50  80 112 146 186 222 298 380 448
#
# _framework density 24.690822000000001
#
# number of rings (size 3 to 8) (size 9 to 14) (size 15 to 20)
#    0.000    1.455    0.000    4.364    5.091    7.273 
#    0.000    3.636    0.000    0.000    0.000    0.000 
#    0.000    0.000    0.000    0.000    0.000    0.000 
#
# Total GULP energy -122947.690686 kJ/mol
# GULP energy per Si atom -5588.531395 kJ/mol
# Density = 2.463462 g / cm^3
# Si number density = 24.690822 Si / 1000 Ang^3
#
#
#
# Elastic Constant Matrix: (Units=GPa)
#
#
# Indices 1 2 3 4 5 6 
#
# 1 121.1042 22.9409 14.8140 0.0000 2.2028 0.0000
# 2 22.9409 222.9781 18.5114 0.0000 2.4978 0.0000
# 3 14.8140 18.5114 44.9926 0.0000 9.5170 0.0000
# 4 0.0000 0.0000 0.0000 29.6549 0.0000 9.1638
# 5 2.2028 2.4978 9.5170 0.0000 25.4573 0.0000
# 6 0.0000 0.0000 0.0000 9.1638 0.0000 33.1744
#
#
#
# Elastic Compliance Matrix: (Units=1/GPa)
#
#
# Indices 1 2 3 4 5 6 
#
# 1 0.008705 -0.000679 -0.002651 0.000000 0.000305 0.000000
# 2 -0.000679 0.004698 -0.001764 0.000000 0.000257 0.000000
# 3 -0.002651 -0.001764 0.025778 0.000000 -0.009234 0.000000
# 4 0.000000 0.000000 0.000000 0.036868 0.000000 -0.010184
# 5 0.000305 0.000257 -0.009234 0.000000 0.042682 0.000000
# 6 0.000000 0.000000 0.000000 -0.010184 0.000000 0.032957
#
#
# Mechanical properties :
#
#
# Convention : Reuss Voigt Hill
#
# Bulk Modulus (GPa) = 34.49127 55.73416 45.11271
# Shear Modulus (GPa) = 29.14773 39.84456 34.49615
#
# Velocity S-wave (km/s) = 3.43958 4.02150 3.74187
# Velocity P-wave (km/s) = 5.45654 6.64719 6.08108
#
# Compressibility (1/GPa) = 0.02899285
#
# Stress axis : x y z
#
# Youngs Moduli (GPa) = 114.88020 212.85002 38.79315
#
# Poissons Ratio (x) = 0.14450 0.10285
# Poissons Ratio (y) = 0.07799 0.06842
# Poissons Ratio (z) = 0.30457 0.37543
#
# Static dielectric constant tensor:
#      x y z
#    x 1.917980 0.000000 -0.028660 
#    y 0.000000 2.058660 0.000000 
#    z -0.028660 0.000000 1.930230 
# 
# From -- ./inp_files/255419.got.cif
#   From: 2010.05.17/outbox.cif.g08.bks.cpg/sg12_128_cif.got.tgz:255419.got - 2010.06.03 13:09:07.
