data_PCOD9208924
_publ_section_title
;
Structure prediction by ZEFSAII (Michael W. Deem and Ramdas Pophale) SiO2 
 PCOD9208924
Probable space group: C 2/M
;
_chemical_formula_sum "Si O2"
_cell_formula_units_Z 56
_cell_length_a 8.804079
_cell_length_b 14.773647
_cell_length_c 23.317277
_cell_angle_alpha 90.000000
_cell_angle_beta 130.447980
_cell_angle_gamma 90.000000
_cell_volume 2307.976884
_symmetry_space_group_name_H-M "C 2/M"
_symmetry_group_IT_number 12
_symmetry_cell_setting 'monoclinic'
loop_
_space_group_symop_operation_xyz
x,y,z
-x,y,-z
-x,-y,-z
x,-y,z
1/2+x,1/2+y,z
1/2-x,1/2+y,-z
1/2-x,1/2-y,-z
1/2+x,1/2-y,z
loop_
_atom_site_type_symbol
_atom_site_label
_atom_site_fract_x
_atom_site_fract_y
_atom_site_fract_z
Si Si1 0.130827 0.894971 0.453799
Si Si2 0.234408 0.400498 0.203128
Si Si3 0.278742 0.793830 0.917319
Si Si4 0.664827 0.357552 0.340508
Si Si5 0.299134 0.169733 0.685230
Si Si6 0.554316 0.900683 0.381019
Si Si7 0.061565 0.891246 0.081582
O O1 0.245012 0.888905 0.421394
O O2 0.261512 0.858475 0.538142
O O3 0.932425 0.839832 0.389500
O O4 0.072654 0.000000 0.450541
O O5 0.140241 0.500000 0.183052
O O6 0.214502 0.356984 0.136730
O O7 0.470447 0.409852 0.274154
O O8 0.168205 0.338575 0.239989
O O9 0.270675 0.689676 0.888954
O O10 0.107933 0.838006 0.919143
O O11 0.500000 0.798844 0.000000
O O12 0.603992 0.253716 0.323058
O O13 0.841251 0.359090 0.338718
O O14 0.400087 0.091071 0.674119
O O15 0.540301 0.000000 0.404534
O O16 0.095400 0.000000 0.109535
O O17 0.000000 0.903216 0.000000
#
# Coordination Sequence:
#
# PCOD9208924 Si02
#       7
#     8   8   8   8   8   8   8
#     4  10  21  38  60  86 123 166 211 270 339 410
#     4  11  25  45  67  89 131 184 223 277 351 420
#     4  11  24  46  77 111 146 187 244 301 353 432
#     4  11  23  39  59  86 125 166 215 271 338 412
#     4  11  23  39  59  89 126 167 216 271 341 411
#     4  11  21  36  62  91 119 160 219 278 329 403
#     4  10  22  44  75 112 153 190 229 293 367 427
#
# _framework density 24.263673000000001
#
# number of rings (size 3 to 8) (size 9 to 14) (size 15 to 20)
#    0.000    1.286    0.000    8.143    2.000    6.857 
#    0.000    1.429    0.000    0.429    0.000    0.000 
#    0.000    0.000    0.000    0.000    0.000    0.000 
#
# Total GULP energy -155941.811036 kJ/mol
# GULP energy per Si atom -5569.350394 kJ/mol
# Density = 2.420845 g / cm^3
# Si number density = 24.263673 Si / 1000 Ang^3
#
#
#
# Elastic Constant Matrix: (Units=GPa)
#
#
# Indices 1 2 3 4 5 6 
#
# 1 126.8922 19.5277 41.2400 0.0000 -22.6415 0.0000
# 2 19.5277 142.7624 13.1390 0.0000 -1.9948 0.0000
# 3 41.2400 13.1390 98.6845 0.0000 -23.8919 0.0000
# 4 0.0000 0.0000 0.0000 9.0733 0.0000 6.5268
# 5 -22.6415 -1.9948 -23.8919 0.0000 40.2061 0.0000
# 6 0.0000 0.0000 0.0000 6.5268 0.0000 -6.8583
#
#
#
# Elastic Compliance Matrix: (Units=1/GPa)
#
#
# Indices 1 2 3 4 5 6 
#
# 1 0.009660 -0.000992 -0.003037 0.000000 0.003586 0.000000
# 2 -0.000992 0.007195 -0.000692 0.000000 -0.000613 0.000000
# 3 -0.003037 -0.000692 0.012933 0.000000 0.005941 0.000000
# 4 0.000000 0.000000 0.000000 0.065425 0.000000 0.062263
# 5 0.003586 -0.000613 0.005941 0.000000 0.030391 0.000000
# 6 0.000000 0.000000 0.000000 0.062263 0.000000 -0.086555
#
#
# Mechanical properties :
#
#
# Convention : Reuss Voigt Hill
#
# Bulk Modulus (GPa) = 49.14573 57.35029 53.24801
# Shear Modulus (GPa) = 90.46160 28.11306 59.28733
#
# Velocity S-wave (km/s) = 6.11258 3.40758 4.94850
# Velocity P-wave (km/s) = 8.37359 6.25858 7.39212
#
# Compressibility (1/GPa) = 0.02034765
#
# Stress axis : x y z
#
# Youngs Moduli (GPa) = 103.51815 138.97732 77.32343
#
# Poissons Ratio (x) = 0.13783 0.23480
# Poissons Ratio (y) = 0.10267 0.05350
# Poissons Ratio (z) = 0.31435 0.09616
#
# Static dielectric constant tensor:
#      x y z
#    x 1.988570 0.000000 0.039060 
#    y 0.000000 -0.220170 0.000000 
#    z 0.039060 0.000000 1.897120 
# 
# From -- ./inp_files/333014.got.cif
#   From: 2010.05.17/outbox.cif.g08.bks.cpg/sg12_167_cif.got.tgz:333014.got - 2010.06.03 13:09:07.
