data_PCOD9208240
_publ_section_title
;
Structure prediction by ZEFSAII (Michael W. Deem and Ramdas Pophale) SiO2 
 PCOD9208240
Probable space group: C 2/M
;
_chemical_formula_sum "Si O2"
_cell_formula_units_Z 42
_cell_length_a 21.990590
_cell_length_b 18.507316
_cell_length_c 5.566099
_cell_angle_alpha 90.000000
_cell_angle_beta 51.733429
_cell_angle_gamma 90.000000
_cell_volume 1778.595379
_symmetry_space_group_name_H-M "C 2/M"
_symmetry_group_IT_number 12
_symmetry_cell_setting 'monoclinic'
loop_
_space_group_symop_operation_xyz
x,y,z
-x,y,-z
-x,-y,-z
x,-y,z
1/2+x,1/2+y,z
1/2-x,1/2+y,-z
1/2-x,1/2-y,-z
1/2+x,1/2-y,z
loop_
_atom_site_type_symbol
_atom_site_label
_atom_site_fract_x
_atom_site_fract_y
_atom_site_fract_z
Si Si1 0.649768 0.000000 0.346034
Si Si2 0.543003 0.779996 0.646480
Si Si3 0.766319 0.132209 0.574650
Si Si4 0.785156 0.657566 0.798533
Si Si5 0.854932 0.500000 0.142106
Si Si6 0.432002 0.609613 0.343192
Si Si7 0.000000 0.000000 0.500000
O O1 0.704316 0.070314 0.213277
O O2 0.602469 0.000000 0.708621
O O3 0.602220 0.000000 0.215996
O O4 0.500000 0.797898 0.500000
O O5 0.628258 0.813132 0.435252
O O6 0.552717 0.693383 0.639603
O O7 0.500000 0.802573 0.000000
O O8 0.761921 0.172120 0.329905
O O9 0.851006 0.100325 0.408218
O O10 0.700229 0.070657 0.724594
O O11 0.751011 0.177820 0.855696
O O12 0.438629 0.562943 0.564658
O O13 0.500000 0.582745 0.000000
#
# Coordination Sequence:
#
# PCOD9208240 Si02
#       7
#     4   8   8   8   4   8   2
#     4   8  16  32  55  84 122 152 197 255 308 377
#     4  11  24  44  66  92 133 176 216 276 336 394
#     4  10  21  37  63  94 127 170 221 277 317 389
#     4  10  21  39  65  95 129 173 220 268 333 382
#     4   8  15  31  50  83 119 155 191 255 322 354
#     4  11  26  43  64  93 134 172 225 274 332 392
#     4  12  24  46  68  94 126 184 226 266 326 414
#
# _framework density 23.614141
#
# number of rings (size 3 to 8) (size 9 to 14) (size 15 to 20)
#    0.000    1.905    0.952    2.000    2.667    1.524 
#    6.857    0.952    0.000    0.000    0.000    0.000 
#    0.000    0.000    0.000    0.000    0.000    0.000 
#
# Total GULP energy -117088.412354 kJ/mol
# GULP energy per Si atom -5575.638684 kJ/mol
# Density = 2.356039 g / cm^3
# Si number density = 23.614141 Si / 1000 Ang^3
#
#
#
# Elastic Constant Matrix: (Units=GPa)
#
#
# Indices 1 2 3 4 5 6 
#
# 1 134.5036 27.5453 56.2479 0.0000 27.5986 0.0000
# 2 27.5453 67.3806 22.0907 0.0000 1.9546 0.0000
# 3 56.2479 22.0907 133.9675 0.0000 36.3796 0.0000
# 4 0.0000 0.0000 0.0000 8.7847 0.0000 17.7346
# 5 27.5986 1.9546 36.3796 0.0000 62.2421 0.0000
# 6 0.0000 0.0000 0.0000 17.7346 0.0000 22.4131
#
#
#
# Elastic Compliance Matrix: (Units=1/GPa)
#
#
# Indices 1 2 3 4 5 6 
#
# 1 0.009788 -0.002967 -0.002933 0.000000 -0.002533 0.000000
# 2 -0.002967 0.016666 -0.002042 0.000000 0.001985 0.000000
# 3 -0.002933 -0.002042 0.010296 0.000000 -0.004653 0.000000
# 4 0.000000 0.000000 0.000000 -0.190553 0.000000 0.150777
# 5 -0.002533 0.001985 -0.004653 0.000000 0.019847 0.000000
# 6 0.000000 0.000000 0.000000 0.150777 0.000000 -0.074687
#
#
# Mechanical properties :
#
#
# Convention : Reuss Voigt Hill
#
# Bulk Modulus (GPa) = 47.91984 60.84662 54.38323
# Shear Modulus (GPa) = -26.91007 34.01916 3.55455
#
# Velocity S-wave (km/s) = -3.37942 3.79968 1.22822
# Velocity P-wave (km/s) = 2.26044 6.71364 5.00912
#
# Compressibility (1/GPa) = 0.02086818
#
# Stress axis : x y z
#
# Youngs Moduli (GPa) = 102.16099 60.00393 97.12312
#
# Poissons Ratio (x) = 0.17800 0.28484
# Poissons Ratio (y) = 0.30307 0.19829
# Poissons Ratio (z) = 0.29962 0.12251
#
# Static dielectric constant tensor:
#      x y z
#    x 1.896180 0.000000 0.109580 
#    y 0.000000 1.934660 0.000000 
#    z 0.109580 0.000000 1.982590 
# 
# From -- ./inp_files/20887.got.cif
#   From: 2010.05.17/outbox.cif.g08.bks.cpg/sg12_11_cif.got.tgz:20887.got - 2010.06.03 13:09:07.
