data_PCOD9208572
_publ_section_title
;
Structure prediction by ZEFSAII (Michael W. Deem and Ramdas Pophale) SiO2 
 PCOD9208572
Probable space group: C 2/M
;
_chemical_formula_sum "Si O2"
_cell_formula_units_Z 48
_cell_length_a 9.937363
_cell_length_b 19.728178
_cell_length_c 21.907186
_cell_angle_alpha 90.000000
_cell_angle_beta 37.624004
_cell_angle_gamma 90.000000
_cell_volume 2621.887554
_symmetry_space_group_name_H-M "C 2/M"
_symmetry_group_IT_number 12
_symmetry_cell_setting 'monoclinic'
loop_
_space_group_symop_operation_xyz
x,y,z
-x,y,-z
-x,-y,-z
x,-y,z
1/2+x,1/2+y,z
1/2-x,1/2+y,-z
1/2-x,1/2-y,-z
1/2+x,1/2-y,z
loop_
_atom_site_type_symbol
_atom_site_label
_atom_site_fract_x
_atom_site_fract_y
_atom_site_fract_z
Si Si1 0.556276 0.709451 0.603977
Si Si2 0.976664 0.080484 0.937235
Si Si3 0.632933 0.292045 0.718173
Si Si4 0.231026 0.305617 0.953549
Si Si5 0.826507 0.578641 0.708837
Si Si6 0.663903 0.576756 0.497938
O O1 0.750000 0.750000 0.500000
O O2 0.577440 0.718165 0.668110
O O3 0.322423 0.739046 0.667719
O O4 0.592542 0.631845 0.572492
O O5 0.798890 0.124217 0.963228
O O6 0.204947 0.090423 0.817409
O O7 0.925658 0.000000 0.954679
O O8 0.000000 0.101319 0.000000
O O9 0.418629 0.286978 0.837126
O O10 0.728565 0.367192 0.697052
O O11 0.250000 0.250000 0.000000
O O12 0.000000 0.308167 0.000000
O O13 0.783981 0.500000 0.707528
O O14 0.088321 0.589096 0.615111
O O15 0.500000 0.582364 0.500000
O O16 0.655409 0.500000 0.525007
#
# Coordination Sequence:
#
# PCOD9208572 Si02
#       6
#     8   8   8   8   8   8
#     4  12  23  38  59  88 120 155 199 240 291 350
#     4   9  19  38  64  91 120 156 197 243 299 359
#     4  11  24  40  61  87 117 157 197 243 296 352
#     4  11  23  42  62  88 120 156 199 250 303 356
#     4   9  19  37  61  86 118 156 196 238 292 354
#     4  10  21  38  58  85 121 158 197 243 288 342
#
# _framework density 18.307421000000001
#
# number of rings (size 3 to 8) (size 9 to 14) (size 15 to 20)
#    0.000    1.667    1.667    3.000    0.000    2.333 
#    3.000    1.667    0.000    0.000    0.000    0.000 
#    0.000    0.000    0.000    0.000    0.000    0.000 
#
# Total GULP energy -133999.464331 kJ/mol
# GULP energy per Si atom -5583.311014 kJ/mol
# Density = 1.826575 g / cm^3
# Si number density = 18.307421 Si / 1000 Ang^3
#
#
#
# Elastic Constant Matrix: (Units=GPa)
#
#
# Indices 1 2 3 4 5 6 
#
# 1 136.6125 71.8483 76.7393 0.0056 2.4883 -0.0154
# 2 71.8483 87.7564 66.2923 -0.0019 3.0582 -0.0157
# 3 76.7393 66.2923 109.8509 -0.0021 -6.8905 -0.0404
# 4 0.0056 -0.0019 -0.0021 28.9960 -0.0083 3.9634
# 5 2.4883 3.0582 -6.8905 -0.0083 38.7987 0.0186
# 6 -0.0154 -0.0157 -0.0404 3.9634 0.0186 36.6940
#
#
#
# Elastic Compliance Matrix: (Units=1/GPa)
#
#
# Indices 1 2 3 4 5 6 
#
# 1 0.014487 -0.007546 -0.005650 -0.000004 -0.001338 -0.000002
# 2 -0.007546 0.025485 -0.010319 0.000002 -0.003357 -0.000002
# 3 -0.005650 -0.010319 0.019570 0.000001 0.004651 0.000012
# 4 -0.000004 0.000002 0.000001 0.035004 0.000010 -0.003781
# 5 -0.001338 -0.003357 0.004651 0.000010 0.026951 -0.000012
# 6 -0.000002 -0.000002 0.000012 -0.003781 -0.000012 0.027661
#
#
# Mechanical properties :
#
#
# Convention : Reuss Voigt Hill
#
# Bulk Modulus (GPa) = 79.92821 84.88661 82.40741
# Shear Modulus (GPa) = 24.95536 28.85375 26.90456
#
# Velocity S-wave (km/s) = 3.69606 3.97428 3.83769
# Velocity P-wave (km/s) = 7.87199 8.21753 8.04662
#
# Compressibility (1/GPa) = 0.01251123
#
# Stress axis : x y z
#
# Youngs Moduli (GPa) = 69.02804 39.23863 51.09987
#
# Poissons Ratio (x) = 0.29608 0.28874
# Poissons Ratio (y) = 0.52086 0.52730
# Poissons Ratio (z) = 0.39004 0.40490
#
# Static dielectric constant tensor:
#      x y z
#    x 1.587700 0.000000 -0.002030 
#    y 0.000000 1.642650 -0.000010 
#    z -0.002030 -0.000010 1.618290 
# 
# From -- ./inp_files/196914.got.cif
#   From: 2010.05.17/outbox.cif.g08.bks.cpg/sg12_99_cif.got.tgz:196914.got - 2010.06.03 13:09:07.
