data_PCOD9208548
_publ_section_title
;
Structure prediction by ZEFSAII (Michael W. Deem and Ramdas Pophale) SiO2 
 PCOD9208548
Probable space group: C 2/M
;
_chemical_formula_sum "Si O2"
_cell_formula_units_Z 40
_cell_length_a 10.492462
_cell_length_b 27.159714
_cell_length_c 12.554042
_cell_angle_alpha 90.000000
_cell_angle_beta 144.233380
_cell_angle_gamma 90.000000
_cell_volume 2091.026744
_symmetry_space_group_name_H-M "C 2/M"
_symmetry_group_IT_number 12
_symmetry_cell_setting 'monoclinic'
loop_
_space_group_symop_operation_xyz
x,y,z
-x,y,-z
-x,-y,-z
x,-y,z
1/2+x,1/2+y,z
1/2-x,1/2+y,-z
1/2-x,1/2-y,-z
1/2+x,1/2-y,z
loop_
_atom_site_type_symbol
_atom_site_label
_atom_site_fract_x
_atom_site_fract_y
_atom_site_fract_z
Si Si1 0.152721 0.632637 0.697052
Si Si2 0.524332 0.365739 0.786571
Si Si3 0.904174 0.289118 0.044866
Si Si4 0.187027 0.054891 0.035933
Si Si5 0.186572 0.694664 0.428170
O O1 0.381747 0.645972 0.797133
O O2 0.163843 0.595716 0.804547
O O3 0.000000 0.610088 0.500000
O O4 0.029455 0.680872 0.651961
O O5 0.365032 0.345818 0.585418
O O6 0.744956 0.335519 0.922577
O O7 0.590329 0.421754 0.861483
O O8 0.110185 0.304954 0.255434
O O9 0.750000 0.250000 0.000000
O O10 0.000000 0.269695 0.000000
O O11 0.277325 0.000000 0.081635
O O12 0.000000 0.050733 0.000000
O O13 0.250000 0.750000 0.500000
#
# Coordination Sequence:
#
# PCOD9208548 Si02
#       5
#     8   8   8   8   8
#     4   9  19  33  59  87 123 161 200 249 306 353
#     4  10  21  38  58  83 123 157 196 250 293 358
#     4  12  27  39  61  88 118 161 205 244 301 358
#     4   9  17  32  58  89 122 158 198 253 311 357
#     4  11  22  37  57  88 118 161 203 238 295 361
#
# _framework density 19.129358
#
# number of rings (size 3 to 8) (size 9 to 14) (size 15 to 20)
#    0.000    1.800    4.000    0.000    2.800    2.800 
#    0.000    3.000    0.000    0.600    0.000    1.400 
#    0.000    0.000    0.000    0.000    0.000    0.000 
#
# Total GULP energy -111353.128865 kJ/mol
# GULP energy per Si atom -5567.656443 kJ/mol
# Density = 1.908582 g / cm^3
# Si number density = 19.129358 Si / 1000 Ang^3
#
#
#
# Elastic Constant Matrix: (Units=GPa)
#
#
# Indices 1 2 3 4 5 6 
#
# 1 62.9095 34.6651 29.4530 0.0000 -7.2913 0.0000
# 2 34.6651 92.0775 33.7965 0.0000 2.5306 0.0000
# 3 29.4530 33.7965 110.7222 0.0000 -23.2489 0.0000
# 4 0.0000 0.0000 0.0000 12.4426 0.0000 -2.8028
# 5 -7.2913 2.5306 -23.2489 0.0000 27.4621 0.0000
# 6 0.0000 0.0000 0.0000 -2.8028 0.0000 15.5268
#
#
#
# Elastic Compliance Matrix: (Units=1/GPa)
#
#
# Indices 1 2 3 4 5 6 
#
# 1 0.021637 -0.007285 -0.002657 0.000000 0.004167 0.000000
# 2 -0.007285 0.015330 -0.004189 0.000000 -0.006893 0.000000
# 3 -0.002657 -0.004189 0.013317 0.000000 0.010955 0.000000
# 4 0.000000 0.000000 0.000000 0.083775 0.000000 0.015122
# 5 0.004167 -0.006893 0.010955 0.000000 0.047429 0.000000
# 6 0.000000 0.000000 0.000000 0.015122 0.000000 0.067135
#
#
# Mechanical properties :
#
#
# Convention : Reuss Voigt Hill
#
# Bulk Modulus (GPa) = 45.40835 51.28205 48.34520
# Shear Modulus (GPa) = 17.59164 22.27262 19.93213
#
# Velocity S-wave (km/s) = 3.03581 3.41591 3.23145
# Velocity P-wave (km/s) = 6.00643 6.51338 6.26504
#
# Compressibility (1/GPa) = 0.02202238
#
# Stress axis : x y z
#
# Youngs Moduli (GPa) = 46.21698 65.23161 75.09111
#
# Poissons Ratio (x) = 0.47522 0.19952
# Poissons Ratio (y) = 0.33670 0.31454
# Poissons Ratio (z) = 0.12280 0.27324
#
# Static dielectric constant tensor:
#      x y z
#    x 1.685600 0.000000 -0.029150 
#    y 0.000000 1.693830 0.000000 
#    z -0.029150 0.000000 1.760040 
# 
# From -- ./inp_files/125458.got.cif
#   From: 2010.05.17/outbox.cif.g08.bks.cpg/sg12_63_cif.got.tgz:125458.got - 2010.06.03 13:09:07.
