data_PCOD9208102
_publ_section_title
;
Structure prediction by ZEFSAII (Michael W. Deem and Ramdas Pophale) SiO2 
 PCOD9208102
Probable space group: C 2/M
;
_chemical_formula_sum "Si O2"
_cell_formula_units_Z 44
_cell_length_a 6.845229
_cell_length_b 18.252981
_cell_length_c 12.837594
_cell_angle_alpha 90.000000
_cell_angle_beta 93.066203
_cell_angle_gamma 90.000000
_cell_volume 1601.707602
_symmetry_space_group_name_H-M "C 2/M"
_symmetry_group_IT_number 12
_symmetry_cell_setting 'monoclinic'
loop_
_space_group_symop_operation_xyz
x,y,z
-x,y,-z
-x,-y,-z
x,-y,z
1/2+x,1/2+y,z
1/2-x,1/2+y,-z
1/2-x,1/2-y,-z
1/2+x,1/2-y,z
loop_
_atom_site_type_symbol
_atom_site_label
_atom_site_fract_x
_atom_site_fract_y
_atom_site_fract_z
Si Si1 0.270058 0.918010 0.009483
Si Si2 0.500000 0.704897 0.500000
Si Si3 0.741913 0.226345 0.879862
Si Si4 0.525087 0.265740 0.276961
Si Si5 0.309414 0.917193 0.564721
Si Si6 0.141975 0.084000 0.770157
O O1 0.233470 0.861069 0.099814
O O2 0.203478 0.000000 0.033627
O O3 0.500000 0.920284 0.000000
O O4 0.193485 0.897549 0.891461
O O5 0.469156 0.753483 0.601355
O O6 0.324536 0.647793 0.479427
O O7 0.486733 0.243639 0.854453
O O8 0.727077 0.243477 0.748409
O O9 0.750000 0.250000 0.000000
O O10 0.502936 0.354715 0.275672
O O11 0.500000 0.917266 0.500000
O O12 0.323254 0.909318 0.692535
O O13 0.223607 0.000000 0.550100
O O14 0.076938 0.000000 0.766028
#
# Coordination Sequence:
#
# PCOD9208102 Si02
#       6
#     8   4   8   8   8   8
#     4  10  21  37  61  94 130 166 212 270 331 398
#     4  10  23  44  62  98 135 176 236 280 338 406
#     4  12  24  42  67  95 129 173 220 274 337 415
#     4  11  25  43  66  94 130 177 220 275 340 399
#     4   9  18  36  65  98 137 183 227 277 338 403
#     4   9  19  37  62  94 133 170 214 272 334 404
#
# _framework density 27.470683000000001
#
# number of rings (size 3 to 8) (size 9 to 14) (size 15 to 20)
#    0.000    1.818    1.818    1.909    0.000    3.636 
#    3.273    3.636    0.000    0.000    0.000    0.636 
#    0.000    0.000    0.000    0.000    0.000    0.000 
#
# Total GULP energy -122929.881595 kJ/mol
# GULP energy per Si atom -5587.721891 kJ/mol
# Density = 2.740816 g / cm^3
# Si number density = 27.470683 Si / 1000 Ang^3
#
#
#
# Elastic Constant Matrix: (Units=GPa)
#
#
# Indices 1 2 3 4 5 6 
#
# 1 183.2933 65.8271 91.4820 0.0000 -16.6162 0.0000
# 2 65.8271 129.3341 71.1450 0.0000 5.8484 0.0000
# 3 91.4820 71.1450 284.8005 0.0000 -23.5447 0.0000
# 4 0.0000 0.0000 0.0000 43.4242 0.0000 -9.5589
# 5 -16.6162 5.8484 -23.5447 0.0000 69.3292 0.0000
# 6 0.0000 0.0000 0.0000 -9.5589 0.0000 29.5731
#
#
#
# Elastic Compliance Matrix: (Units=1/GPa)
#
#
# Indices 1 2 3 4 5 6 
#
# 1 0.007431 -0.003023 -0.001506 0.000000 0.001525 0.000000
# 2 -0.003023 0.010360 -0.001800 0.000000 -0.002210 0.000000
# 3 -0.001506 -0.001800 0.004555 0.000000 0.001338 0.000000
# 4 0.000000 0.000000 0.000000 0.024793 0.000000 0.008014
# 5 0.001525 -0.002210 0.001338 0.000000 0.015430 0.000000
# 6 0.000000 0.000000 0.000000 0.008014 0.000000 0.036405
#
#
# Mechanical properties :
#
#
# Convention : Reuss Voigt Hill
#
# Bulk Modulus (GPa) = 103.20164 117.14843 110.17504
# Shear Modulus (GPa) = 43.53089 53.06355 48.29722
#
# Velocity S-wave (km/s) = 3.98506 4.39981 4.19756
# Velocity P-wave (km/s) = 7.66966 8.27941 7.98036
#
# Compressibility (1/GPa) = 0.00968977
#
# Stress axis : x y z
#
# Youngs Moduli (GPa) = 134.56951 96.52139 219.53302
#
# Poissons Ratio (x) = 0.29177 0.33058
# Poissons Ratio (y) = 0.40678 0.39511
# Poissons Ratio (z) = 0.20264 0.17372
#
# Static dielectric constant tensor:
#      x y z
#    x 2.477150 0.000000 -0.082290 
#    y 0.000000 2.156680 0.000000 
#    z -0.082290 0.000000 2.089130 
# 
# From -- ./inp_files/120692.got.cif
#   From: 2010.05.17/outbox.cif.g08.bks.cpg/sg12_61_cif.got.tgz:120692.got - 2010.06.03 13:09:07.
