data_PCOD9208697
_publ_section_title
;
Structure prediction by ZEFSAII (Michael W. Deem and Ramdas Pophale) SiO2 
 PCOD9208697
Probable space group: C 2/M
;
_chemical_formula_sum "Si O2"
_cell_formula_units_Z 48
_cell_length_a 29.127148
_cell_length_b 13.883417
_cell_length_c 14.179044
_cell_angle_alpha 90.000000
_cell_angle_beta 158.362421
_cell_angle_gamma 90.000000
_cell_volume 2114.242557
_symmetry_space_group_name_H-M "C 2/M"
_symmetry_group_IT_number 12
_symmetry_cell_setting 'monoclinic'
loop_
_space_group_symop_operation_xyz
x,y,z
-x,y,-z
-x,-y,-z
x,-y,z
1/2+x,1/2+y,z
1/2-x,1/2+y,-z
1/2-x,1/2-y,-z
1/2+x,1/2-y,z
loop_
_atom_site_type_symbol
_atom_site_label
_atom_site_fract_x
_atom_site_fract_y
_atom_site_fract_z
Si Si1 0.623267 0.834074 0.683491
Si Si2 0.524383 0.367399 0.936968
Si Si3 0.330278 0.389229 0.231619
Si Si4 0.215937 0.867661 0.642490
Si Si5 0.793307 0.363133 0.367103
Si Si6 0.520382 0.865687 0.932305
O O1 0.500000 0.871771 0.500000
O O2 0.601515 0.717017 0.629910
O O3 0.665121 0.876897 0.662330
O O4 0.732669 0.862265 0.964211
O O5 0.408753 0.397704 0.650467
O O6 0.522787 0.251049 0.933715
O O7 0.500000 0.395116 0.000000
O O8 0.657496 0.396293 0.145208
O O9 0.377473 0.500000 0.302030
O O10 0.279190 0.396626 0.239635
O O11 0.213953 0.752033 0.636663
O O12 0.344015 0.897778 0.840159
O O13 0.906235 0.395903 0.648679
O O14 0.500000 0.894112 0.000000
#
# Coordination Sequence:
#
# PCOD9208697 Si02
#       6
#     8   8   8   8   8   8
#     4  10  21  38  59  84 118 156 197 247 299 355
#     4   9  16  27  46  76 111 145 185 236 290 343
#     4  10  22  38  58  84 114 153 200 246 297 357
#     4   9  17  29  48  74 107 145 189 237 286 344
#     4   9  17  29  48  75 110 147 185 234 292 347
#     4   9  15  25  45  75 108 143 186 236 287 342
#
# _framework density 22.703164999999998
#
# number of rings (size 3 to 8) (size 9 to 14) (size 15 to 20)
#    0.000    2.667    0.000    2.000    0.000   12.667 
#    0.000    0.000    0.000    1.000    0.000    2.333 
#    0.000    0.000    0.000    0.000    0.000    0.667 
#
# Total GULP energy -133730.206446 kJ/mol
# GULP energy per Si atom -5572.091935 kJ/mol
# Density = 2.265149 g / cm^3
# Si number density = 22.703165 Si / 1000 Ang^3
#
#
#
# Elastic Constant Matrix: (Units=GPa)
#
#
# Indices 1 2 3 4 5 6 
#
# 1 255.3608 17.1094 142.9883 0.0000 6.6458 0.0000
# 2 17.1094 167.9266 6.0932 0.0000 3.1630 0.0000
# 3 142.9883 6.0932 170.1524 0.0000 13.1597 0.0000
# 4 0.0000 0.0000 0.0000 15.9824 0.0000 -17.2724
# 5 6.6458 3.1630 13.1597 0.0000 47.1037 0.0000
# 6 0.0000 0.0000 0.0000 -17.2724 0.0000 10.8090
#
#
#
# Elastic Compliance Matrix: (Units=1/GPa)
#
#
# Indices 1 2 3 4 5 6 
#
# 1 0.007469 -0.000546 -0.006315 0.000000 0.000747 0.000000
# 2 -0.000546 0.006008 0.000275 0.000000 -0.000403 0.000000
# 3 -0.006315 0.000275 0.011352 0.000000 -0.002299 0.000000
# 4 0.000000 0.000000 0.000000 -0.086072 0.000000 -0.137540
# 5 0.000747 -0.000403 -0.002299 0.000000 0.021794 0.000000
# 6 0.000000 0.000000 0.000000 -0.137540 0.000000 -0.127268
#
#
# Mechanical properties :
#
#
# Convention : Reuss Voigt Hill
#
# Bulk Modulus (GPa) = 85.78500 102.86905 94.32702
# Shear Modulus (GPa) = -33.40926 43.26227 4.92651
#
# Velocity S-wave (km/s) = -3.84026 4.37001 1.47468
# Velocity P-wave (km/s) = 4.26662 8.41852 6.67366
#
# Compressibility (1/GPa) = 0.01165705
#
# Stress axis : x y z
#
# Youngs Moduli (GPa) = 133.88223 166.43833 88.09077
#
# Poissons Ratio (x) = 0.09087 0.55630
# Poissons Ratio (y) = 0.07309 -0.02421
# Poissons Ratio (z) = 0.84547 -0.04574
#
# Static dielectric constant tensor:
#      x y z
#    x 1.771370 0.000000 0.021110 
#    y 0.000000 1.896260 0.000000 
#    z 0.021110 0.000000 1.786230 
# 
# From -- ./inp_files/251504.got.cif
#   From: 2010.05.17/outbox.cif.g08.bks.cpg/sg12_126_cif.got.tgz:251504.got - 2010.06.03 13:09:07.
