data_PCOD9208123
_publ_section_title
;
Structure prediction by ZEFSAII (Michael W. Deem and Ramdas Pophale) SiO2 
 PCOD9208123
Probable space group: C 2/M
;
_chemical_formula_sum "Si O2"
_cell_formula_units_Z 58
_cell_length_a 22.822276
_cell_length_b 21.897437
_cell_length_c 8.706985
_cell_angle_alpha 90.000000
_cell_angle_beta 45.318025
_cell_angle_gamma 90.000000
_cell_volume 3093.871657
_symmetry_space_group_name_H-M "C 2/M"
_symmetry_group_IT_number 12
_symmetry_cell_setting 'monoclinic'
loop_
_space_group_symop_operation_xyz
x,y,z
-x,y,-z
-x,-y,-z
x,-y,z
1/2+x,1/2+y,z
1/2-x,1/2+y,-z
1/2-x,1/2-y,-z
1/2+x,1/2-y,z
loop_
_atom_site_type_symbol
_atom_site_label
_atom_site_fract_x
_atom_site_fract_y
_atom_site_fract_z
Si Si1 0.677591 0.812338 0.457256
Si Si2 0.919365 0.569847 0.858347
Si Si3 0.416413 0.287399 0.556312
Si Si4 0.354763 0.700929 0.987004
Si Si5 0.999061 0.126186 0.832809
Si Si6 0.500000 0.500000 0.000000
Si Si7 0.587601 0.187691 0.927552
Si Si8 0.114694 0.569063 0.426928
O O1 0.612295 0.771000 0.485073
O O2 0.768042 0.797672 0.230976
O O3 0.658290 0.802399 0.670614
O O4 0.660359 0.882119 0.445033
O O5 0.898718 0.500000 0.942421
O O6 0.878863 0.582654 0.766809
O O7 0.017780 0.571466 0.647079
O O8 0.900453 0.622172 0.014374
O O9 0.500000 0.277690 0.500000
O O10 0.435977 0.342295 0.401855
O O11 0.349225 0.298957 0.813026
O O12 0.405041 0.759646 0.958172
O O13 0.409313 0.642030 0.931054
O O14 0.011310 0.055244 0.849091
O O15 0.000000 0.157489 0.000000
O O16 0.500000 0.188402 0.000000
O O17 0.143298 0.500000 0.399915
#
# Coordination Sequence:
#
# PCOD9208123 Si02
#       8
#     8   8   8   8   8   2   8   8
#     4  12  23  35  57  85 121 156 189 242 303 336
#     4   9  19  35  58  80 107 147 195 238 272 330
#     4  10  21  37  62  87 115 149 193 241 280 353
#     4  11  23  38  55  89 121 150 189 245 295 347
#     4   9  19  40  66  88 109 147 195 234 293 345
#     4   8  20  40  74  88 108 152 192 246 294 348
#     4  12  22  35  57  84 115 155 199 241 285 341
#     4   9  19  36  55  79 111 150 191 233 280 336
#
# _framework density 18.746737
#
# number of rings (size 3 to 8) (size 9 to 14) (size 15 to 20)
#    0.414    1.379    1.379    5.379    1.931    0.828 
#    1.241    3.103    0.000    0.000    0.000    0.000 
#    0.000    0.000    0.000    0.000    0.000    0.000 
#
# Total GULP energy -161501.158965 kJ/mol
# GULP energy per Si atom -5569.005482 kJ/mol
# Density = 1.870407 g / cm^3
# Si number density = 18.746737 Si / 1000 Ang^3
#
#
#
# Elastic Constant Matrix: (Units=GPa)
#
#
# Indices 1 2 3 4 5 6 
#
# 1 25.2467 32.1862 21.1876 0.0000 20.9132 0.0000
# 2 32.1862 99.7765 41.7563 0.0000 22.7205 0.0000
# 3 21.1876 41.7563 125.8090 0.0000 26.7321 0.0000
# 4 0.0000 0.0000 0.0000 23.3628 0.0000 13.0940
# 5 20.9132 22.7205 26.7321 0.0000 30.1575 0.0000
# 6 0.0000 0.0000 0.0000 13.0940 0.0000 25.0234
#
#
#
# Elastic Compliance Matrix: (Units=1/GPa)
#
#
# Indices 1 2 3 4 5 6 
#
# 1 0.134228 -0.027280 0.002292 0.000000 -0.074561 0.000000
# 2 -0.027280 0.018351 -0.003177 0.000000 0.007908 0.000000
# 3 0.002292 -0.003177 0.010406 0.000000 -0.008420 0.000000
# 4 0.000000 0.000000 0.000000 0.060565 0.000000 -0.031692
# 5 -0.074561 0.007908 -0.008420 0.000000 0.086371 0.000000
# 6 0.000000 0.000000 0.000000 -0.031692 0.000000 0.056546
#
#
# Mechanical properties :
#
#
# Convention : Reuss Voigt Hill
#
# Bulk Modulus (GPa) = 9.37604 49.01027 29.19316
# Shear Modulus (GPa) = 10.90872 26.08887 18.49879
#
# Velocity S-wave (km/s) = 2.41488 3.73453 3.14470
# Velocity P-wave (km/s) = 3.57600 6.69296 5.36579
#
# Compressibility (1/GPa) = 0.10665484
#
# Stress axis : x y z
#
# Youngs Moduli (GPa) = 7.45003 54.49230 96.09746
#
# Poissons Ratio (x) = 1.48655 -0.22024
# Poissons Ratio (y) = 0.20324 0.30529
# Poissons Ratio (z) = -0.01707 0.17312
#
# Static dielectric constant tensor:
#      x y z
#    x 1.661930 0.000000 0.005830 
#    y 0.000000 1.630630 0.000000 
#    z 0.005830 0.000000 1.685020 
# 
# From -- ./inp_files/99247.got.cif
#   From: 2010.05.17/outbox.cif.g08.bks.cpg/sg12_50_cif.got.tgz:99247.got - 2010.06.03 13:09:07.
