data_PCOD9208993
_publ_section_title
;
Structure prediction by ZEFSAII (Michael W. Deem and Ramdas Pophale) SiO2 
 PCOD9208993
Probable space group: C 2/M
;
_chemical_formula_sum "Si O2"
_cell_formula_units_Z 64
_cell_length_a 24.214821
_cell_length_b 19.527373
_cell_length_c 20.305139
_cell_angle_alpha 90.000000
_cell_angle_beta 22.004508
_cell_angle_gamma 90.000000
_cell_volume 3597.419075
_symmetry_space_group_name_H-M "C 2/M"
_symmetry_group_IT_number 12
_symmetry_cell_setting 'monoclinic'
loop_
_space_group_symop_operation_xyz
x,y,z
-x,y,-z
-x,-y,-z
x,-y,z
1/2+x,1/2+y,z
1/2-x,1/2+y,-z
1/2-x,1/2-y,-z
1/2+x,1/2-y,z
loop_
_atom_site_type_symbol
_atom_site_label
_atom_site_fract_x
_atom_site_fract_y
_atom_site_fract_z
Si Si1 0.734100 0.423761 0.393115
Si Si2 0.797223 0.791250 0.014175
Si Si3 0.355060 0.719930 0.691519
Si Si4 0.822390 0.421769 0.448723
Si Si5 0.853244 0.292151 0.200614
Si Si6 0.643642 0.709277 0.668102
Si Si7 0.099169 0.920481 0.283792
Si Si8 0.832829 0.579761 0.907105
O O1 0.760101 0.500000 0.339308
O O2 0.780906 0.420731 0.417361
O O3 0.831238 0.369664 0.247780
O O4 0.559474 0.409567 0.576458
O O5 0.719108 0.757449 0.164229
O O6 0.735508 0.867486 0.069366
O O7 0.750000 0.750000 0.000000
O O8 0.974487 0.790956 0.829177
O O9 0.500000 0.753186 0.500000
O O10 0.261195 0.719993 0.729874
O O11 0.383059 0.641215 0.684274
O O12 0.801152 0.500000 0.495629
O O13 0.713222 0.365995 0.599674
O O14 0.995426 0.403975 0.267417
O O15 0.845621 0.247442 0.274402
O O16 0.000000 0.279028 0.000000
O O17 0.750000 0.750000 0.500000
O O18 0.101169 0.000000 0.306258
O O19 0.231580 0.914023 0.084548
O O20 0.824923 0.500000 0.895464
#
# Coordination Sequence:
#
# PCOD9208993 Si02
#       8
#     8   8   8   8   8   8   8   8
#     4  10  21  38  60  88 124 170 213 249 302 371
#     4  12  25  41  66  95 123 164 216 260 312 368
#     4  12  26  41  61  91 127 169 206 259 314 368
#     4  10  22  39  64  95 125 161 208 259 312 367
#     4  12  26  43  58  88 131 166 209 256 313 370
#     4  12  25  41  67  92 123 170 212 261 308 369
#     4  10  21  38  60  89 125 168 212 253 302 368
#     4  10  22  39  64  95 126 158 206 264 312 365
#
# _framework density 17.790531999999999
#
# number of rings (size 3 to 8) (size 9 to 14) (size 15 to 20)
#    0.000    1.000    5.000    1.500    5.250    2.500 
#    0.000    0.000    0.000    1.500    0.000    0.000 
#    0.000    0.000    0.000    0.000    0.000    0.000 
#
# Total GULP energy -178526.705462 kJ/mol
# GULP energy per Si atom -5578.959546 kJ/mol
# Density = 1.775004 g / cm^3
# Si number density = 17.790532 Si / 1000 Ang^3
#
#
#
# Elastic Constant Matrix: (Units=GPa)
#
#
# Indices 1 2 3 4 5 6 
#
# 1 123.9215 67.8386 68.2536 0.1245 -10.6592 -0.6637
# 2 67.8386 100.3212 73.3107 -0.2584 -3.8994 1.3441
# 3 68.2536 73.3107 185.0286 -0.4801 -21.9339 2.4499
# 4 0.1245 -0.2584 -0.4801 141.1727 0.1232 -603.1925
# 5 -10.6592 -3.8994 -21.9339 0.1232 44.2530 -0.6350
# 6 -0.6637 1.3441 2.4499 -603.1925 -0.6350 3251.3558
#
#
#
# Elastic Compliance Matrix: (Units=1/GPa)
#
#
# Indices 1 2 3 4 5 6 
#
# 1 0.013385 -0.007777 -0.001652 -0.000005 0.001720 0.000007
# 2 -0.007777 0.018658 -0.004835 0.000002 -0.002626 -0.000006
# 3 -0.001652 -0.004835 0.008321 0.000005 0.003300 -0.000003
# 4 -0.000005 0.000002 0.000005 0.034167 -0.000002 0.006339
# 5 0.001720 -0.002626 0.003300 -0.000002 0.024416 0.000003
# 6 0.000007 -0.000006 -0.000003 0.006339 0.000003 0.001484
#
#
# Mechanical properties :
#
#
# Convention : Reuss Voigt Hill
#
# Bulk Modulus (GPa) = 84.49088 92.00857 88.24973
# Shear Modulus (GPa) = 37.62109 700.68086 369.15098
#
# Velocity S-wave (km/s) = 4.60354 19.86719 14.42044
# Velocity P-wave (km/s) = 8.70930 24.04379 18.08253
#
# Compressibility (1/GPa) = 0.01183560
#
# Stress axis : x y z
#
# Youngs Moduli (GPa) = 74.71032 53.59611 120.17692
#
# Poissons Ratio (x) = 0.41681 0.19858
# Poissons Ratio (y) = 0.58101 0.58105
# Poissons Ratio (z) = 0.12345 0.25914
#
# Static dielectric constant tensor:
#      x y z
#    x 1.535540 0.000000 -0.031710 
#    y 0.000000 1.624910 -0.000010 
#    z -0.031710 -0.000010 1.630040 
# 
# From -- ./inp_files/99056.got.cif
#   From: 2010.05.17/outbox.cif.g08.bks.cpg/sg12_50_cif.got.tgz:99056.got - 2010.06.03 13:09:07.
