data_PCOD9208526
_publ_section_title
;
Structure prediction by ZEFSAII (Michael W. Deem and Ramdas Pophale) SiO2 
 PCOD9208526
Probable space group: C 2/M
;
_chemical_formula_sum "Si O2"
_cell_formula_units_Z 56
_cell_length_a 29.907955
_cell_length_b 8.900096
_cell_length_c 22.180156
_cell_angle_alpha 90.000000
_cell_angle_beta 31.093188
_cell_angle_gamma 90.000000
_cell_volume 3049.009300
_symmetry_space_group_name_H-M "C 2/M"
_symmetry_group_IT_number 12
_symmetry_cell_setting 'monoclinic'
loop_
_space_group_symop_operation_xyz
x,y,z
-x,y,-z
-x,-y,-z
x,-y,z
1/2+x,1/2+y,z
1/2-x,1/2+y,-z
1/2-x,1/2-y,-z
1/2+x,1/2-y,z
loop_
_atom_site_type_symbol
_atom_site_label
_atom_site_fract_x
_atom_site_fract_y
_atom_site_fract_z
Si Si1 0.771957 0.679355 0.880607
Si Si2 0.884747 0.319516 0.272036
Si Si3 0.959547 0.175328 0.979806
Si Si4 0.077141 0.679229 0.637580
Si Si5 0.285095 0.319079 0.607552
Si Si6 0.229006 0.320136 0.806010
Si Si7 0.388165 0.320622 0.849763
O O1 0.783407 0.500000 0.867749
O O2 0.773900 0.744261 0.811434
O O3 0.841636 0.755554 0.844063
O O4 0.677749 0.712738 0.019075
O O5 0.894731 0.500000 0.254234
O O6 0.876855 0.284068 0.351782
O O7 0.800853 0.273645 0.330536
O O8 0.969613 0.240747 0.147519
O O9 0.942609 0.000000 0.986169
O O10 0.870294 0.265397 0.080491
O O11 0.000000 0.187233 0.000000
O O12 0.072223 0.500000 0.637881
O O13 0.132471 0.746689 0.519322
O O14 0.981102 0.746491 0.750781
O O15 0.291688 0.500000 0.596355
O O16 0.271596 0.277705 0.692875
O O17 0.231588 0.500000 0.808787
O O18 0.396506 0.500000 0.835538
#
# Coordination Sequence:
#
# PCOD9208526 Si02
#       7
#     8   8   8   8   8   8   8
#     4  10  21  38  63  92 119 145 182 234 288 338
#     4  10  21  38  58  82 113 153 196 236 285 343
#     4  11  22  34  53  83 116 149 188 236 284 329
#     4  11  23  37  58  85 113 149 194 242 287 332
#     4  10  22  39  57  79 113 156 197 235 279 338
#     4  11  22  37  59  84 116 156 193 230 283 345
#     4  10  21  39  62  87 117 150 186 230 284 343
#
# _framework density 18.366620999999999
#
# number of rings (size 3 to 8) (size 9 to 14) (size 15 to 20)
#    0.000    1.571    1.429    3.429    0.000    7.429 
#    0.000    0.714    0.000    4.286    0.000    0.000 
#    0.000    0.000    0.000    0.000    0.000    0.000 
#
# Total GULP energy -156522.210426 kJ/mol
# GULP energy per Si atom -5590.078944 kJ/mol
# Density = 1.832482 g / cm^3
# Si number density = 18.366621 Si / 1000 Ang^3
#
#
#
# Elastic Constant Matrix: (Units=GPa)
#
#
# Indices 1 2 3 4 5 6 
#
# 1 110.9859 40.4090 52.8112 -0.0007 23.8497 0.0005
# 2 40.4090 38.2853 34.0594 -0.0029 12.9891 0.0033
# 3 52.8112 34.0594 82.6526 -0.0046 16.8018 0.0016
# 4 -0.0007 -0.0029 -0.0046 26.2341 0.0014 2.6445
# 5 23.8497 12.9891 16.8018 0.0014 20.3655 -0.0001
# 6 0.0005 0.0033 0.0016 2.6445 -0.0001 31.0799
#
#
#
# Elastic Compliance Matrix: (Units=1/GPa)
#
#
# Indices 1 2 3 4 5 6 
#
# 1 0.017159 -0.010844 -0.004585 -0.000001 -0.009396 0.000001
# 2 -0.010844 0.052144 -0.012471 0.000004 -0.010269 -0.000005
# 3 -0.004585 -0.012471 0.020977 0.000002 -0.003983 0.000000
# 4 -0.000001 0.000004 0.000002 0.038448 -0.000006 -0.003271
# 5 -0.009396 -0.010269 -0.003983 -0.000006 0.069941 0.000002
# 6 0.000001 -0.000005 0.000000 -0.003271 0.000002 0.032453
#
#
# Mechanical properties :
#
#
# Convention : Reuss Voigt Hill
#
# Bulk Modulus (GPa) = 29.00285 54.05366 41.52826
# Shear Modulus (GPa) = 16.75508 22.51219 19.63364
#
# Velocity S-wave (km/s) = 3.02364 3.50482 3.27308
# Velocity P-wave (km/s) = 5.29294 6.77293 6.07815
#
# Compressibility (1/GPa) = 0.03447937
#
# Stress axis : x y z
#
# Youngs Moduli (GPa) = 58.27709 19.17777 47.67062
#
# Poissons Ratio (x) = 0.20797 0.21859
# Poissons Ratio (y) = 0.63197 0.59449
# Poissons Ratio (z) = 0.26722 0.23916
#
# Static dielectric constant tensor:
#      x y z
#    x 1.627200 0.000000 0.011450 
#    y 0.000000 1.610800 0.000000 
#    z 0.011450 0.000000 1.595020 
# 
# From -- ./inp_files/238234.got.cif
#   From: 2010.05.17/outbox.cif.g08.bks.cpg/sg12_120_cif.got.tgz:238234.got - 2010.06.03 13:09:07.
