data_PCOD9208132
_publ_section_title
;
Structure prediction by ZEFSAII (Michael W. Deem and Ramdas Pophale) SiO2 
 PCOD9208132
Probable space group: C 2/M
;
_chemical_formula_sum "Si O2"
_cell_formula_units_Z 56
_cell_length_a 14.508517
_cell_length_b 16.258972
_cell_length_c 19.336798
_cell_angle_alpha 90.000000
_cell_angle_beta 33.585406
_cell_angle_gamma 90.000000
_cell_volume 2523.286975
_symmetry_space_group_name_H-M "C 2/M"
_symmetry_group_IT_number 12
_symmetry_cell_setting 'monoclinic'
loop_
_space_group_symop_operation_xyz
x,y,z
-x,y,-z
-x,-y,-z
x,-y,z
1/2+x,1/2+y,z
1/2-x,1/2+y,-z
1/2-x,1/2-y,-z
1/2+x,1/2-y,z
loop_
_atom_site_type_symbol
_atom_site_label
_atom_site_fract_x
_atom_site_fract_y
_atom_site_fract_z
Si Si1 0.820839 0.657551 0.465646
Si Si2 0.525992 0.405511 0.275556
Si Si3 0.206233 0.090269 0.933731
Si Si4 0.559608 0.870200 0.763729
Si Si5 0.659447 0.903187 0.306917
Si Si6 0.471794 0.682435 0.173225
Si Si7 0.112676 0.093502 0.368440
O O1 0.750000 0.750000 0.500000
O O2 0.671608 0.603022 0.588352
O O3 0.869492 0.627923 0.358591
O O4 0.984926 0.645220 0.409602
O O5 0.576996 0.500000 0.234991
O O6 0.561651 0.356617 0.183838
O O7 0.600697 0.368374 0.299831
O O8 0.375591 0.093766 0.872540
O O9 0.260336 0.099571 0.820484
O O10 0.125951 0.000000 0.993192
O O11 0.083781 0.159988 0.037409
O O12 0.547520 0.777346 0.798324
O O13 0.698954 0.910341 0.724167
O O14 0.792749 0.860206 0.273321
O O15 0.633324 0.000000 0.339848
O O16 0.000000 0.132273 0.500000
O O17 0.045931 0.000000 0.401088
#
# Coordination Sequence:
#
# PCOD9208132 Si02
#       7
#     8   8   8   8   8   8   8
#     4  11  22  40  60  90 126 159 201 254 306 367
#     4  11  23  39  61  88 126 166 202 250 311 370
#     4  10  22  43  67  88 119 163 217 261 302 366
#     4  11  23  38  64  92 123 161 210 259 313 363
#     4  10  23  41  66  92 121 166 214 251 301 375
#     4  12  24  39  62  92 131 162 201 260 319 370
#     4  10  21  37  62  89 119 161 211 254 303 371
#
# _framework density 22.193275
#
# number of rings (size 3 to 8) (size 9 to 14) (size 15 to 20)
#    0.000    1.286    2.857    3.000    2.000    2.857 
#    0.000    3.571    0.000    2.571    0.000    0.000 
#    0.000    0.000    0.000    0.000    0.000    0.000 
#
# Total GULP energy -156567.734292 kJ/mol
# GULP energy per Si atom -5591.704796 kJ/mol
# Density = 2.214276 g / cm^3
# Si number density = 22.193275 Si / 1000 Ang^3
#
#
#
# Elastic Constant Matrix: (Units=GPa)
#
#
# Indices 1 2 3 4 5 6 
#
# 1 124.6930 15.4516 4.3878 -0.0007 -19.3588 0.0003
# 2 15.4516 83.3566 -1.4971 -0.0015 6.1342 0.0007
# 3 4.3878 -1.4971 43.8471 -0.0031 -5.0038 0.0014
# 4 -0.0007 -0.0015 -0.0031 33.2118 0.0015 -15.4349
# 5 -19.3588 6.1342 -5.0038 0.0015 31.9385 -0.0004
# 6 0.0003 0.0007 0.0014 -15.4349 -0.0004 36.3243
#
#
#
# Elastic Compliance Matrix: (Units=1/GPa)
#
#
# Indices 1 2 3 4 5 6 
#
# 1 0.009222 -0.002153 -0.000317 0.000000 0.005954 0.000000
# 2 -0.002153 0.012672 0.000226 0.000001 -0.003704 0.000000
# 3 -0.000317 0.000226 0.023234 0.000002 0.003405 0.000000
# 4 0.000000 0.000001 0.000002 0.037519 -0.000002 0.015943
# 5 0.005954 -0.003704 0.003405 -0.000002 0.036164 0.000000
# 6 0.000000 0.000000 0.000000 0.015943 0.000000 0.034304
#
#
# Mechanical properties :
#
#
# Convention : Reuss Voigt Hill
#
# Bulk Modulus (GPa) = 24.60668 32.06460 28.33564
# Shear Modulus (GPa) = 29.21390 35.86522 32.53956
#
# Velocity S-wave (km/s) = 3.63208 4.02436 3.83324
# Velocity P-wave (km/s) = 5.35731 6.00610 5.69096
#
# Compressibility (1/GPa) = 0.04063938
#
# Stress axis : x y z
#
# Youngs Moduli (GPa) = 108.43660 78.91159 43.03953
#
# Poissons Ratio (x) = 0.16992 0.01364
# Poissons Ratio (y) = 0.23349 -0.00971
# Poissons Ratio (z) = 0.03437 -0.01779
#
# Static dielectric constant tensor:
#      x y z
#    x 1.829450 0.000000 0.003380 
#    y 0.000000 1.797800 0.000000 
#    z 0.003380 0.000000 1.811400 
# 
# From -- ./inp_files/293917.got.cif
#   From: 2010.05.17/outbox.cif.g08.bks.cpg/sg12_147_cif.got.tgz:293917.got - 2010.06.03 13:09:07.
