data_PCOD9208202
_publ_section_title
;
Structure prediction by ZEFSAII (Michael W. Deem and Ramdas Pophale) SiO2 
 PCOD9208202
Probable space group: C 2/M
;
_chemical_formula_sum "Si O2"
_cell_formula_units_Z 58
_cell_length_a 14.244318
_cell_length_b 16.950669
_cell_length_c 12.710960
_cell_angle_alpha 90.000000
_cell_angle_beta 51.280938
_cell_angle_gamma 90.000000
_cell_volume 2394.557347
_symmetry_space_group_name_H-M "C 2/M"
_symmetry_group_IT_number 12
_symmetry_cell_setting 'monoclinic'
loop_
_space_group_symop_operation_xyz
x,y,z
-x,y,-z
-x,-y,-z
x,-y,z
1/2+x,1/2+y,z
1/2-x,1/2+y,-z
1/2-x,1/2-y,-z
1/2+x,1/2-y,z
loop_
_atom_site_type_symbol
_atom_site_label
_atom_site_fract_x
_atom_site_fract_y
_atom_site_fract_z
Si Si1 0.431526 0.697068 0.696484
Si Si2 0.652370 0.816996 0.578673
Si Si3 0.270385 0.407644 0.684272
Si Si4 0.000000 0.000000 0.000000
Si Si5 0.104468 0.590803 0.999574
Si Si6 0.715111 0.172420 0.120720
Si Si7 0.555567 0.409526 0.127865
Si Si8 0.144260 0.412224 0.383539
O O1 0.528868 0.768560 0.637277
O O2 0.380020 0.655016 0.626994
O O3 0.315338 0.736961 0.835376
O O4 0.479357 0.626632 0.737445
O O5 0.750000 0.750000 0.500000
O O6 0.675580 0.865852 0.670692
O O7 0.685961 0.876692 0.463038
O O8 0.297866 0.500000 0.634461
O O9 0.214971 0.413655 0.840575
O O10 0.045571 0.069253 0.885177
O O11 0.070277 0.500000 0.051346
O O12 0.132070 0.636830 0.086288
O O13 0.000000 0.626204 0.000000
O O14 0.682332 0.134674 0.254901
O O15 0.847915 0.146893 0.994119
O O16 0.611332 0.500000 0.092352
O O17 0.185513 0.500000 0.338880
O O18 0.000000 0.412112 0.500000
#
# Coordination Sequence:
#
# PCOD9208202 Si02
#       8
#     8   8   8   2   8   8   8   8
#     4  12  25  45  74 108 148 194 246 315 378 443
#     4  12  28  50  73 106 150 195 255 316 371 439
#     4  11  25  48  77 105 149 199 248 307 377 461
#     4   8  24  40  64  92 152 174 230 288 346 456
#     4  10  21  37  63 104 144 186 237 297 373 450
#     4  12  22  41  72 105 144 186 239 304 375 437
#     4  10  22  44  65 106 145 187 234 295 374 452
#     4  11  24  44  72 100 140 193 246 299 360 437
#
# _framework density 24.221596999999999
#
# number of rings (size 3 to 8) (size 9 to 14) (size 15 to 20)
#    0.414    0.552    2.759    4.138    0.000    2.207 
#    1.241    2.759    0.000    0.000    0.000    0.000 
#    0.000    0.000    0.000    0.000    0.000    0.000 
#
# Total GULP energy -161505.144169 kJ/mol
# GULP energy per Si atom -5569.142902 kJ/mol
# Density = 2.416647 g / cm^3
# Si number density = 24.221597 Si / 1000 Ang^3
#
#
#
# Elastic Constant Matrix: (Units=GPa)
#
#
# Indices 1 2 3 4 5 6 
#
# 1 75.9657 5.3527 3.3463 0.0000 -0.0694 0.0000
# 2 5.3527 94.8604 3.4861 0.0000 -0.5631 0.0000
# 3 3.3463 3.4861 66.1548 0.0000 15.2538 0.0000
# 4 0.0000 0.0000 0.0000 41.2492 0.0000 2.1219
# 5 -0.0694 -0.5631 15.2538 0.0000 28.5081 0.0000
# 6 0.0000 0.0000 0.0000 2.1219 0.0000 57.9149
#
#
#
# Elastic Compliance Matrix: (Units=1/GPa)
#
#
# Indices 1 2 3 4 5 6 
#
# 1 0.013247 -0.000718 -0.000726 0.000000 0.000407 0.000000
# 2 -0.000718 0.010610 -0.000651 0.000000 0.000556 0.000000
# 3 -0.000726 -0.000651 0.017328 0.000000 -0.009287 0.000000
# 4 0.000000 0.000000 0.000000 0.024289 0.000000 -0.000890
# 5 0.000407 0.000556 -0.009287 0.000000 0.040059 0.000000
# 6 0.000000 0.000000 0.000000 -0.000890 0.000000 0.017299
#
#
# Mechanical properties :
#
#
# Convention : Reuss Voigt Hill
#
# Bulk Modulus (GPa) = 27.03131 29.03900 28.03516
# Shear Modulus (GPa) = 35.88000 40.52082 38.20041
#
# Velocity S-wave (km/s) = 3.85297 4.09457 3.97561
# Velocity P-wave (km/s) = 5.56580 5.86250 5.71608
#
# Compressibility (1/GPa) = 0.03699413
#
# Stress axis : x y z
#
# Youngs Moduli (GPa) = 75.48995 94.25457 57.70886
#
# Poissons Ratio (x) = 0.06771 0.04189
# Poissons Ratio (y) = 0.05423 0.03757
# Poissons Ratio (z) = 0.05480 0.06136
#
# Static dielectric constant tensor:
#      x y z
#    x 0.937400 0.000000 -0.268690 
#    y 0.000000 1.429480 0.000000 
#    z -0.268690 0.000000 1.891520 
# 
# From -- ./inp_files/157775.got.cif
#   From: 2010.05.17/outbox.cif.g08.bks.cpg/sg12_79_cif.got.tgz:157775.got - 2010.06.03 13:09:07.
