data_PCOD9208195
_publ_section_title
;
Structure prediction by ZEFSAII (Michael W. Deem and Ramdas Pophale) SiO2 
 PCOD9208195
Probable space group: C 2/M
;
_chemical_formula_sum "Si O2"
_cell_formula_units_Z 58
_cell_length_a 5.070362
_cell_length_b 20.732285
_cell_length_c 28.470687
_cell_angle_alpha 90.000000
_cell_angle_beta 113.507903
_cell_angle_gamma 90.000000
_cell_volume 2744.453132
_symmetry_space_group_name_H-M "C 2/M"
_symmetry_group_IT_number 12
_symmetry_cell_setting 'monoclinic'
loop_
_space_group_symop_operation_xyz
x,y,z
-x,y,-z
-x,-y,-z
x,-y,z
1/2+x,1/2+y,z
1/2-x,1/2+y,-z
1/2-x,1/2-y,-z
1/2+x,1/2-y,z
loop_
_atom_site_type_symbol
_atom_site_label
_atom_site_fract_x
_atom_site_fract_y
_atom_site_fract_z
Si Si1 0.870724 0.285468 0.408266
Si Si2 0.150148 0.577020 0.118711
Si Si3 0.563121 0.650842 0.303316
Si Si4 0.660549 0.704061 0.810951
Si Si5 0.014669 0.075071 0.949126
Si Si6 0.061428 0.115993 0.452899
Si Si7 0.858606 0.423900 0.659019
Si Si8 0.500000 0.000000 0.500000
O O1 0.701379 0.226131 0.420221
O O2 0.710390 0.297293 0.347874
O O3 0.771831 0.341757 0.435178
O O4 0.234151 0.500000 0.133462
O O5 0.266169 0.634670 0.159947
O O6 0.261296 0.596177 0.074489
O O7 0.804875 0.578155 0.094869
O O8 0.468446 0.683931 0.248749
O O9 0.302798 0.617668 0.312781
O O10 0.809778 0.596647 0.315666
O O11 0.432128 0.748683 0.822230
O O12 0.094796 0.000000 0.962202
O O13 0.000000 0.105586 0.000000
O O14 0.251245 0.054369 0.477048
O O15 0.000000 0.143550 0.500000
O O16 0.788665 0.094602 0.401322
O O17 0.822626 0.500000 0.663794
#
# Coordination Sequence:
#
# PCOD9208195 Si02
#       8
#     8   8   8   8   8   8   8   2
#     4  11  24  44  66  90 121 153 204 256 298 356
#     4  10  21  37  62  98 134 172 222 285 330 377
#     4  11  24  43  68  93 124 168 213 260 316 378
#     4  12  25  44  69  95 131 177 222 266 331 406
#     4   9  17  33  60  94 132 177 227 275 328 386
#     4  11  27  41  67  93 125 167 196 243 306 380
#     4  11  24  42  66  98 129 161 207 258 314 373
#     4  12  26  44  68  90 128 164 202 234 302 400
#
# _framework density 21.133535999999999
#
# number of rings (size 3 to 8) (size 9 to 14) (size 15 to 20)
#    0.000    1.241    0.690    5.172    5.793    3.310 
#    0.000    1.379    0.000    8.276    0.000    0.000 
#    0.000    0.000    0.000    0.000    0.000    0.000 
#
# Total GULP energy -161721.253679 kJ/mol
# GULP energy per Si atom -5576.594954 kJ/mol
# Density = 2.108544 g / cm^3
# Si number density = 21.133536 Si / 1000 Ang^3
#
#
#
# Elastic Constant Matrix: (Units=GPa)
#
#
# Indices 1 2 3 4 5 6 
#
# 1 60.3448 -3.2933 -2.1680 0.0000 -6.3641 0.0000
# 2 -3.2933 95.3093 36.2277 0.0000 1.7110 0.0000
# 3 -2.1680 36.2277 64.2326 0.0000 -7.0023 0.0000
# 4 0.0000 0.0000 0.0000 28.4532 0.0000 1.6421
# 5 -6.3641 1.7110 -7.0023 0.0000 21.4689 0.0000
# 6 0.0000 0.0000 0.0000 1.6421 0.0000 40.9486
#
#
#
# Elastic Compliance Matrix: (Units=1/GPa)
#
#
# Indices 1 2 3 4 5 6 
#
# 1 0.017192 0.000062 0.001141 0.000000 0.005463 0.000000
# 2 0.000062 0.013637 -0.008094 0.000000 -0.003708 0.000000
# 3 0.001141 -0.008094 0.021027 0.000000 0.007841 0.000000
# 4 0.000000 0.000000 0.000000 0.035227 0.000000 -0.001413
# 5 0.005463 -0.003708 0.007841 0.000000 0.051051 0.000000
# 6 0.000000 0.000000 0.000000 -0.001413 0.000000 0.024477
#
#
# Mechanical properties :
#
#
# Convention : Reuss Voigt Hill
#
# Bulk Modulus (GPa) = 26.26418 31.26882 28.76650
# Shear Modulus (GPa) = 26.44316 30.78218 28.61267
#
# Velocity S-wave (km/s) = 3.54113 3.82063 3.68353
# Velocity P-wave (km/s) = 5.40131 5.85584 5.63316
#
# Compressibility (1/GPa) = 0.03807468
#
# Stress axis : x y z
#
# Youngs Moduli (GPa) = 58.16660 73.32795 47.55871
#
# Poissons Ratio (x) = -0.00458 -0.05425
# Poissons Ratio (y) = -0.00363 0.38493
# Poissons Ratio (z) = -0.06635 0.59350
#
# Static dielectric constant tensor:
#      x y z
#    x 1.771410 0.000000 -0.021160 
#    y 0.000000 1.795390 0.000000 
#    z -0.021160 0.000000 1.765660 
# 
# From -- ./inp_files/355117.got.cif
#   From: 2010.05.17/outbox.cif.g08.bks.cpg/sg12_178_cif.got.tgz:355117.got - 2010.06.03 13:09:07.
