data_PCOD9208915
_publ_section_title
;
Structure prediction by ZEFSAII (Michael W. Deem and Ramdas Pophale) SiO2 
 PCOD9208915
Probable space group: C 2/M
;
_chemical_formula_sum "Si O2"
_cell_formula_units_Z 56
_cell_length_a 29.476115
_cell_length_b 16.339887
_cell_length_c 9.332508
_cell_angle_alpha 90.000000
_cell_angle_beta 142.758647
_cell_angle_gamma 90.000000
_cell_volume 2720.181078
_symmetry_space_group_name_H-M "C 2/M"
_symmetry_group_IT_number 12
_symmetry_cell_setting 'monoclinic'
loop_
_space_group_symop_operation_xyz
x,y,z
-x,y,-z
-x,-y,-z
x,-y,z
1/2+x,1/2+y,z
1/2-x,1/2+y,-z
1/2-x,1/2-y,-z
1/2+x,1/2-y,z
loop_
_atom_site_type_symbol
_atom_site_label
_atom_site_fract_x
_atom_site_fract_y
_atom_site_fract_z
Si Si1 0.315216 0.364793 0.670015
Si Si2 0.013283 0.403453 0.701717
Si Si3 0.072365 0.149477 0.275357
Si Si4 0.717385 0.594031 0.090547
Si Si5 0.567276 0.595972 0.575275
Si Si6 0.124007 0.670670 0.465968
Si Si7 0.648479 0.172507 0.203451
O O1 0.372624 0.396890 0.695772
O O2 0.310440 0.404880 0.813867
O O3 0.340501 0.270564 0.763058
O O4 0.231758 0.363243 0.394778
O O5 0.022401 0.500000 0.754679
O O6 0.000000 0.392799 0.500000
O O7 0.941990 0.369236 0.608956
O O8 0.087519 0.355743 0.937392
O O9 0.051291 0.103488 0.367283
O O10 0.112439 0.232084 0.430222
O O11 0.000000 0.172405 0.000000
O O12 0.734247 0.500000 0.092161
O O13 0.793627 0.645418 0.273921
O O14 0.649077 0.628635 0.824443
O O15 0.500000 0.633170 0.500000
O O16 0.572099 0.500000 0.626000
O O17 0.120645 0.644270 0.290627
#
# Coordination Sequence:
#
# PCOD9208915 Si02
#       7
#     8   8   8   8   8   8   8
#     4   9  19  36  57  84 112 141 190 243 280 330
#     4  11  24  38  55  85 122 156 192 234 279 338
#     4  11  22  37  61  90 116 148 191 239 291 342
#     4  10  21  38  61  87 116 153 192 232 286 347
#     4  10  23  41  59  83 116 153 195 242 290 342
#     4  10  21  38  60  86 118 153 191 233 282 348
#     4   9  19  37  58  79 112 154 189 231 283 332
#
# _framework density 20.586866000000001
#
# number of rings (size 3 to 8) (size 9 to 14) (size 15 to 20)
#    0.000    2.000    0.000    4.286    0.000    7.714 
#    0.000    1.429    0.000    0.000    0.000    0.000 
#    0.000    0.000    0.000    0.000    0.000    0.000 
#
# Total GULP energy -156384.973330 kJ/mol
# GULP energy per Si atom -5585.177619 kJ/mol
# Density = 2.054001 g / cm^3
# Si number density = 20.586866 Si / 1000 Ang^3
#
#
#
# Elastic Constant Matrix: (Units=GPa)
#
#
# Indices 1 2 3 4 5 6 
#
# 1 88.5576 18.0468 32.0845 0.0000 16.2425 0.0000
# 2 18.0468 41.4425 39.8828 0.0000 12.3624 0.0000
# 3 32.0845 39.8828 139.4365 0.0000 12.2869 0.0000
# 4 0.0000 0.0000 0.0000 22.7154 0.0000 -3.5547
# 5 16.2425 12.3624 12.2869 0.0000 19.8454 0.0000
# 6 0.0000 0.0000 0.0000 -3.5547 0.0000 11.0105
#
#
#
# Elastic Compliance Matrix: (Units=1/GPa)
#
#
# Indices 1 2 3 4 5 6 
#
# 1 0.014019 -0.001379 -0.002005 0.000000 -0.009373 0.000000
# 2 -0.001379 0.038802 -0.009256 0.000000 -0.017312 0.000000
# 3 -0.002005 -0.009256 0.010183 0.000000 0.001102 0.000000
# 4 0.000000 0.000000 0.000000 0.046366 0.000000 0.014969
# 5 -0.009373 -0.017312 0.001102 0.000000 0.068163 0.000000
# 6 0.000000 0.000000 0.000000 0.014969 0.000000 0.095655
#
#
# Mechanical properties :
#
#
# Convention : Reuss Voigt Hill
#
# Bulk Modulus (GPa) = 26.50797 49.94055 38.22426
# Shear Modulus (GPa) = 16.07498 22.67575 19.37536
#
# Velocity S-wave (km/s) = 2.79738 3.32244 3.07115
# Velocity P-wave (km/s) = 4.83093 6.24734 5.58422
#
# Compressibility (1/GPa) = 0.03772450
#
# Stress axis : x y z
#
# Youngs Moduli (GPa) = 71.33288 25.77196 98.19857
#
# Poissons Ratio (x) = 0.03553 0.19693
# Poissons Ratio (y) = 0.09834 0.90890
# Poissons Ratio (z) = 0.14305 0.23854
#
# Static dielectric constant tensor:
#      x y z
#    x 1.740280 0.000000 0.016900 
#    y 0.000000 1.739290 0.000000 
#    z 0.016900 0.000000 1.712200 
# 
# From -- ./inp_files/106013.got.cif
#   From: 2010.05.17/outbox.cif.g08.bks.cpg/sg12_54_cif.got.tgz:106013.got - 2010.06.03 13:09:07.
