data_PCOD9208701
_publ_section_title
;
Structure prediction by ZEFSAII (Michael W. Deem and Ramdas Pophale) SiO2 
 PCOD9208701
Probable space group: C 2/M
;
_chemical_formula_sum "Si O2"
_cell_formula_units_Z 64
_cell_length_a 25.460181
_cell_length_b 13.976829
_cell_length_c 18.908981
_cell_angle_alpha 90.000000
_cell_angle_beta 28.784889
_cell_angle_gamma 90.000000
_cell_volume 3240.073693
_symmetry_space_group_name_H-M "C 2/M"
_symmetry_group_IT_number 12
_symmetry_cell_setting 'monoclinic'
loop_
_space_group_symop_operation_xyz
x,y,z
-x,y,-z
-x,-y,-z
x,-y,z
1/2+x,1/2+y,z
1/2-x,1/2+y,-z
1/2-x,1/2-y,-z
1/2+x,1/2-y,z
loop_
_atom_site_type_symbol
_atom_site_label
_atom_site_fract_x
_atom_site_fract_y
_atom_site_fract_z
Si Si1 0.282740 0.259740 0.151559
Si Si2 0.363925 0.729692 0.904751
Si Si3 0.068105 0.114429 0.613599
Si Si4 0.380354 0.609772 0.609263
Si Si5 0.045170 0.612143 0.722716
Si Si6 0.966820 0.611166 0.963317
Si Si7 0.627100 0.386652 0.832031
Si Si8 0.292106 0.384066 0.414330
O O1 0.171465 0.200282 0.288452
O O2 0.301765 0.330692 0.194289
O O3 0.322395 0.305326 0.031029
O O4 0.364392 0.171212 0.062780
O O5 0.447282 0.656990 0.768697
O O6 0.443341 0.823045 0.818945
O O7 0.250000 0.750000 0.000000
O O8 0.114689 0.135190 0.480334
O O9 0.146509 0.146166 0.586191
O O10 0.059977 0.000000 0.626777
O O11 0.500000 0.601095 0.500000
O O12 0.332185 0.500000 0.672486
O O13 0.025184 0.500000 0.729489
O O14 0.052933 0.619679 0.798922
O O15 0.164845 0.640847 0.555639
O O16 0.940079 0.500000 0.002070
O O17 0.000000 0.648210 0.000000
O O18 0.652941 0.500000 0.804404
O O19 0.646457 0.352065 0.729054
O O20 0.500000 0.375592 0.000000
O O21 0.294641 0.500000 0.413451
#
# Coordination Sequence:
#
# PCOD9208701 Si02
#       8
#     8   8   8   8   8   8   8   8
#     4  11  22  36  57  85 112 151 199 240 289 347
#     4  11  24  40  59  85 116 156 206 249 291 350
#     4  10  22  39  62  90 120 156 200 249 300 361
#     4  10  22  40  61  86 119 158 197 244 301 357
#     4   9  20  37  57  84 118 153 189 237 300 355
#     4   9  18  31  51  81 118 149 177 224 284 352
#     4  10  21  38  59  84 119 157 192 236 293 358
#     4   9  19  37  60  87 116 151 193 239 297 360
#
# _framework density 19.752637
#
# number of rings (size 3 to 8) (size 9 to 14) (size 15 to 20)
#    0.000    2.125    0.000    2.250    3.500    4.000 
#    0.000    0.000    0.000    0.375    0.000    0.000 
#    0.000    0.000    0.000    0.000    0.000    0.000 
#
# Total GULP energy -178376.455175 kJ/mol
# GULP energy per Si atom -5574.264224 kJ/mol
# Density = 1.970768 g / cm^3
# Si number density = 19.752637 Si / 1000 Ang^3
#
#
#
# Elastic Constant Matrix: (Units=GPa)
#
#
# Indices 1 2 3 4 5 6 
#
# 1 56.0087 -10.9623 10.0042 0.0000 -6.7150 0.0000
# 2 -10.9623 57.4433 7.6971 0.0000 0.9004 0.0000
# 3 10.0042 7.6971 72.5470 0.0000 -12.5294 0.0000
# 4 0.0000 0.0000 0.0000 24.6317 0.0000 -4.6919
# 5 -6.7150 0.9004 -12.5294 0.0000 23.6754 0.0000
# 6 0.0000 0.0000 0.0000 -4.6919 0.0000 26.6218
#
#
#
# Elastic Compliance Matrix: (Units=1/GPa)
#
#
# Indices 1 2 3 4 5 6 
#
# 1 0.019560 0.003991 -0.002409 0.000000 0.004121 0.000000
# 2 0.003991 0.018546 -0.002690 0.000000 -0.000997 0.000000
# 3 -0.002409 -0.002690 0.015740 0.000000 0.007749 0.000000
# 4 0.000000 0.000000 0.000000 0.042008 0.000000 0.007404
# 5 0.004121 -0.000997 0.007749 0.000000 0.047546 0.000000
# 6 0.000000 0.000000 0.000000 0.007404 0.000000 0.038868
#
#
# Mechanical properties :
#
#
# Convention : Reuss Voigt Hill
#
# Bulk Modulus (GPa) = 19.36877 22.16410 20.76644
# Shear Modulus (GPa) = 24.78994 26.93644 25.86319
#
# Velocity S-wave (km/s) = 3.54647 3.69682 3.62243
# Velocity P-wave (km/s) = 5.15721 5.42837 5.29453
#
# Compressibility (1/GPa) = 0.05162952
#
# Stress axis : x y z
#
# Youngs Moduli (GPa) = 51.12506 53.91943 63.53196
#
# Poissons Ratio (x) = -0.21519 0.15305
# Poissons Ratio (y) = -0.20404 0.17092
# Poissons Ratio (z) = 0.12316 0.14506
#
# Static dielectric constant tensor:
#      x y z
#    x 1.719210 0.000000 0.083700 
#    y 0.000000 1.738030 0.000000 
#    z 0.083700 0.000000 1.733870 
# 
# From -- ./inp_files/290117.got.cif
#   From: 2010.05.17/outbox.cif.g08.bks.cpg/sg12_146_cif.got.tgz:290117.got - 2010.06.03 13:09:07.
