data_PCOD9208564
_publ_section_title
;
Structure prediction by ZEFSAII (Michael W. Deem and Ramdas Pophale) SiO2 
 PCOD9208564
Probable space group: C 2/M
;
_chemical_formula_sum "Si O2"
_cell_formula_units_Z 44
_cell_length_a 9.263156
_cell_length_b 25.639500
_cell_length_c 13.970513
_cell_angle_alpha 90.000000
_cell_angle_beta 41.783724
_cell_angle_gamma 90.000000
_cell_volume 2210.874921
_symmetry_space_group_name_H-M "C 2/M"
_symmetry_group_IT_number 12
_symmetry_cell_setting 'monoclinic'
loop_
_space_group_symop_operation_xyz
x,y,z
-x,y,-z
-x,-y,-z
x,-y,z
1/2+x,1/2+y,z
1/2-x,1/2+y,-z
1/2-x,1/2-y,-z
1/2+x,1/2-y,z
loop_
_atom_site_type_symbol
_atom_site_label
_atom_site_fract_x
_atom_site_fract_y
_atom_site_fract_z
Si Si1 0.591535 0.939685 0.058403
Si Si2 0.305465 0.292623 0.045943
Si Si3 0.464674 0.872739 0.724273
Si Si4 0.344273 0.325941 0.413526
Si Si5 0.470672 0.388986 0.172037
Si Si6 0.500000 0.253967 0.500000
O O1 0.853786 0.934614 0.923398
O O2 0.528853 0.000000 0.101441
O O3 0.500000 0.921283 0.000000
O O4 0.512722 0.906398 0.189631
O O5 0.414472 0.343236 0.945031
O O6 0.500000 0.264351 0.000000
O O7 0.250000 0.250000 0.000000
O O8 0.117378 0.315043 0.204321
O O9 0.678974 0.860734 0.558567
O O10 0.267798 0.896267 0.756617
O O11 0.454829 0.365726 0.285933
O O12 0.496373 0.292154 0.409174
O O13 0.202935 0.284791 0.419389
#
# Coordination Sequence:
#
# PCOD9208564 Si02
#       6
#     8   8   8   8   8   4
#     4  10  23  43  65  87 112 148 196 251 311 361
#     4   9  20  30  46  74 111 148 190 228 273 328
#     4  10  21  38  58  85 117 153 195 243 290 353
#     4  11  22  38  57  90 124 163 205 237 282 342
#     4  10  21  38  58  85 117 153 195 243 290 353
#     4  10  24  34  56  84 130 174 198 228 284 340
#
# _framework density 19.901624000000002
#
# number of rings (size 3 to 8) (size 9 to 14) (size 15 to 20)
#    0.000    2.000    1.818    1.636    7.636    4.364 
#    0.000    0.909    0.000    4.364    0.000    0.000 
#    0.000    0.000    0.000    0.000    0.000    0.000 
#
# Total GULP energy -122620.858929 kJ/mol
# GULP energy per Si atom -5573.675406 kJ/mol
# Density = 1.985633 g / cm^3
# Si number density = 19.901624 Si / 1000 Ang^3
#
#
#
# Elastic Constant Matrix: (Units=GPa)
#
#
# Indices 1 2 3 4 5 6 
#
# 1 99.0838 34.7447 13.9981 0.0000 26.3684 0.0000
# 2 34.7447 41.7779 14.5760 0.0000 10.4616 0.0000
# 3 13.9981 14.5760 104.0664 0.0000 12.0510 0.0000
# 4 0.0000 0.0000 0.0000 14.9493 0.0000 3.0140
# 5 26.3684 10.4616 12.0510 0.0000 22.4148 0.0000
# 6 0.0000 0.0000 0.0000 3.0140 0.0000 30.3926
#
#
#
# Elastic Compliance Matrix: (Units=1/GPa)
#
#
# Indices 1 2 3 4 5 6 
#
# 1 0.018489 -0.011508 0.001089 0.000000 -0.016964 0.000000
# 2 -0.011508 0.034884 -0.003221 0.000000 -0.001012 0.000000
# 3 0.001089 -0.003221 0.010545 0.000000 -0.005448 0.000000
# 4 0.000000 0.000000 0.000000 0.068258 0.000000 -0.006769
# 5 -0.016964 -0.001012 -0.005448 0.000000 0.067971 0.000000
# 6 0.000000 0.000000 0.000000 -0.006769 0.000000 0.033574
#
#
# Mechanical properties :
#
#
# Convention : Reuss Voigt Hill
#
# Bulk Modulus (GPa) = 27.29409 41.28507 34.28958
# Shear Modulus (GPa) = 18.30086 25.65863 21.97975
#
# Velocity S-wave (km/s) = 3.03572 3.59454 3.32689
# Velocity P-wave (km/s) = 5.10213 6.16581 5.65902
#
# Compressibility (1/GPa) = 0.03663797
#
# Stress axis : x y z
#
# Youngs Moduli (GPa) = 54.08752 28.66651 94.83465
#
# Poissons Ratio (x) = 0.32990 -0.10332
# Poissons Ratio (y) = 0.62245 0.30545
# Poissons Ratio (z) = -0.05892 0.09233
#
# Static dielectric constant tensor:
#      x y z
#    x 1.737630 0.000000 -0.067460 
#    y 0.000000 1.752870 0.000000 
#    z -0.067460 0.000000 2.215250 
# 
# From -- ./inp_files/108114.got.cif
#   From: 2010.05.17/outbox.cif.g08.bks.cpg/sg12_55_cif.got.tgz:108114.got - 2010.06.03 13:09:07.
