data_PCOD9208029
_publ_section_title
;
Structure prediction by ZEFSAII (Michael W. Deem and Ramdas Pophale) SiO2 
 PCOD9208029
Probable space group: C 2/M
;
_chemical_formula_sum "Si O2"
_cell_formula_units_Z 48
_cell_length_a 24.897710
_cell_length_b 8.850133
_cell_length_c 20.141496
_cell_angle_alpha 90.000000
_cell_angle_beta 32.954572
_cell_angle_gamma 90.000000
_cell_volume 2414.231963
_symmetry_space_group_name_H-M "C 2/M"
_symmetry_group_IT_number 12
_symmetry_cell_setting 'monoclinic'
loop_
_space_group_symop_operation_xyz
x,y,z
-x,y,-z
-x,-y,-z
x,-y,z
1/2+x,1/2+y,z
1/2-x,1/2+y,-z
1/2-x,1/2-y,-z
1/2+x,1/2-y,z
loop_
_atom_site_type_symbol
_atom_site_label
_atom_site_fract_x
_atom_site_fract_y
_atom_site_fract_z
Si Si1 0.590098 0.184379 0.359665
Si Si2 0.312617 0.680511 0.149839
Si Si3 0.628610 0.820541 0.780305
Si Si4 0.947260 0.179222 0.887476
Si Si5 0.526852 0.819143 0.279573
Si Si6 0.792997 0.680415 0.522796
O O1 0.500000 0.234860 0.500000
O O2 0.698544 0.229358 0.271475
O O3 0.573907 0.231245 0.300245
O O4 0.588336 0.000000 0.362023
O O5 0.318078 0.500000 0.156781
O O6 0.376914 0.764046 0.138500
O O7 0.356254 0.707778 0.031491
O O8 0.542246 0.754988 0.823587
O O9 0.731125 0.754502 0.645859
O O10 0.627356 0.000000 0.777661
O O11 0.933436 0.242402 0.828112
O O12 0.964057 0.000000 0.866985
O O13 0.409391 0.789701 0.405851
O O14 0.539882 0.000000 0.260081
O O15 0.778506 0.500000 0.538598
O O16 0.750000 0.750000 0.500000
#
# Coordination Sequence:
#
# PCOD9208029 Si02
#       6
#     8   8   8   8   8   8
#     4   9  18  37  64  89 114 150 195 242 292 355
#     4  10  22  40  61  86 116 156 202 243 294 357
#     4  12  24  38  59  87 119 157 200 249 300 352
#     4  11  23  38  58  85 120 158 196 245 301 355
#     4  10  21  37  61  90 119 154 197 241 289 353
#     4  11  21  35  58  88 120 154 193 239 292 348
#
# _framework density 19.882100000000001
#
# number of rings (size 3 to 8) (size 9 to 14) (size 15 to 20)
#    0.000    1.500    1.667    4.000    0.000    7.333 
#    0.000    0.833    0.000    2.000    0.000    0.000 
#    0.000    0.000    0.000    0.000    0.000    0.000 
#
# Total GULP energy -134174.189451 kJ/mol
# GULP energy per Si atom -5590.591227 kJ/mol
# Density = 1.983685 g / cm^3
# Si number density = 19.882100 Si / 1000 Ang^3
#
#
#
# Elastic Constant Matrix: (Units=GPa)
#
#
# Indices 1 2 3 4 5 6 
#
# 1 112.8843 19.6010 27.0733 0.0000 20.8449 0.0003
# 2 19.6010 33.5786 34.5670 0.0026 4.8331 -0.0014
# 3 27.0733 34.5670 90.2866 0.0007 17.6424 -0.0002
# 4 0.0000 0.0026 0.0007 24.4160 -0.0001 12.3690
# 5 20.8449 4.8331 17.6424 -0.0001 27.6475 -0.0002
# 6 0.0003 -0.0014 -0.0002 12.3690 -0.0002 24.3158
#
#
#
# Elastic Compliance Matrix: (Units=1/GPa)
#
#
# Indices 1 2 3 4 5 6 
#
# 1 0.011193 -0.005804 0.000362 0.000001 -0.007655 -0.000001
# 2 -0.005804 0.052535 -0.019917 -0.000009 0.007902 0.000008
# 3 0.000362 -0.019917 0.020525 0.000003 -0.009888 -0.000003
# 4 0.000001 -0.000009 0.000003 0.055175 -0.000001 -0.028067
# 5 -0.007655 0.007902 -0.009888 -0.000001 0.046870 0.000001
# 6 -0.000001 0.000008 -0.000003 -0.028067 0.000001 0.055402
#
#
# Mechanical properties :
#
#
# Convention : Reuss Voigt Hill
#
# Bulk Modulus (GPa) = 29.82060 44.35911 37.08985
# Shear Modulus (GPa) = 16.46912 25.64308 21.05610
#
# Velocity S-wave (km/s) = 2.88121 3.59522 3.25783
# Velocity P-wave (km/s) = 5.10879 6.29235 5.73120
#
# Compressibility (1/GPa) = 0.03353387
#
# Stress axis : x y z
#
# Youngs Moduli (GPa) = 89.33847 19.03495 48.72106
#
# Poissons Ratio (x) = 0.11049 -0.01763
# Poissons Ratio (y) = 0.51856 0.97038
# Poissons Ratio (z) = -0.03232 0.37912
#
# Static dielectric constant tensor:
#      x y z
#    x 1.633120 0.000000 -0.051720 
#    y 0.000000 1.664870 0.000000 
#    z -0.051720 0.000000 1.637270 
# 
# From -- ./inp_files/327156.got.cif
#   From: 2010.05.17/outbox.cif.g08.bks.cpg/sg12_164_cif.got.tgz:327156.got - 2010.06.03 13:09:07.
