data_PCOD9208001
_publ_section_title
;
Structure prediction by ZEFSAII (Michael W. Deem and Ramdas Pophale) SiO2 
 PCOD9208001
Probable space group: C 2/M
;
_chemical_formula_sum "Si O2"
_cell_formula_units_Z 48
_cell_length_a 21.793151
_cell_length_b 13.660381
_cell_length_c 18.942993
_cell_angle_alpha 90.000000
_cell_angle_beta 20.429583
_cell_angle_gamma 90.000000
_cell_volume 1968.459441
_symmetry_space_group_name_H-M "C 2/M"
_symmetry_group_IT_number 12
_symmetry_cell_setting 'monoclinic'
loop_
_space_group_symop_operation_xyz
x,y,z
-x,y,-z
-x,-y,-z
x,-y,z
1/2+x,1/2+y,z
1/2-x,1/2+y,-z
1/2-x,1/2-y,-z
1/2+x,1/2-y,z
loop_
_atom_site_type_symbol
_atom_site_label
_atom_site_fract_x
_atom_site_fract_y
_atom_site_fract_z
Si Si1 0.799692 0.890255 0.929961
Si Si2 0.138183 0.114808 0.287408
Si Si3 0.604280 0.890884 0.671763
Si Si4 0.285310 0.393141 0.231150
Si Si5 0.231671 0.233714 0.626254
Si Si6 0.669552 0.694625 0.952687
O O1 0.606298 0.894364 0.103292
O O2 0.843968 0.000000 0.907831
O O3 0.923545 0.868833 0.728388
O O4 0.712898 0.677065 0.987587
O O5 0.279951 0.201912 0.138161
O O6 0.000000 0.126155 0.500000
O O7 0.195660 0.000000 0.228823
O O8 0.649456 0.816140 0.560746
O O9 0.687885 0.844832 0.652241
O O10 0.671257 0.000000 0.586632
O O11 0.232918 0.500000 0.315135
O O12 0.212861 0.305128 0.357211
O O13 0.238930 0.381061 0.199009
O O14 0.500000 0.388427 0.000000
O O15 0.039654 0.184552 0.822488
#
# Coordination Sequence:
#
# PCOD9208001 Si02
#       6
#     8   8   8   8   8   8
#     4  10  21  39  66  95 125 162 207 262 318 371
#     4  10  22  40  60  88 130 172 205 250 312 371
#     4  10  21  38  60  90 128 163 207 261 315 375
#     4   9  19  36  57  86 124 160 201 256 311 366
#     4  10  21  37  61  87 125 169 207 252 319 372
#     4  11  21  38  66  95 123 161 214 262 310 371
#
# _framework density 24.384550999999998
#
# number of rings (size 3 to 8) (size 9 to 14) (size 15 to 20)
#    0.000    2.000    1.667    1.500    0.000    3.333 
#    3.000    0.833    0.000    7.000    0.000    0.000 
#    0.000    0.000    0.000    0.000    0.000    0.000 
#
# Total GULP energy -133857.822731 kJ/mol
# GULP energy per Si atom -5577.409280 kJ/mol
# Density = 2.432905 g / cm^3
# Si number density = 24.384551 Si / 1000 Ang^3
#
#
#
# Elastic Constant Matrix: (Units=GPa)
#
#
# Indices 1 2 3 4 5 6 
#
# 1 101.6975 27.4359 40.4997 0.0011 35.2287 -0.0002
# 2 27.4359 80.2650 17.0202 -0.0026 23.3421 0.0009
# 3 40.4997 17.0202 90.3026 0.0009 26.7144 -0.0003
# 4 0.0011 -0.0026 0.0009 27.1428 -0.0017 15.1471
# 5 35.2287 23.3421 26.7144 -0.0017 43.4196 0.0008
# 6 -0.0002 0.0009 -0.0003 15.1471 0.0008 30.8351
#
#
#
# Elastic Compliance Matrix: (Units=1/GPa)
#
#
# Indices 1 2 3 4 5 6 
#
# 1 0.014834 -0.001715 -0.003719 -0.000002 -0.008825 0.000001
# 2 -0.001715 0.014987 -0.000102 0.000002 -0.006602 -0.000001
# 3 -0.003719 -0.000102 0.014489 -0.000001 -0.005843 0.000001
# 4 -0.000002 0.000002 -0.000001 0.050756 0.000004 -0.024933
# 5 -0.008825 -0.006602 -0.005843 0.000004 0.037336 -0.000003
# 6 0.000001 -0.000001 0.000001 -0.024933 -0.000003 0.044678
#
#
# Mechanical properties :
#
#
# Convention : Reuss Voigt Hill
#
# Bulk Modulus (GPa) = 30.08661 49.13075 39.60868
# Shear Modulus (GPa) = 25.09636 32.76677 28.93156
#
# Velocity S-wave (km/s) = 3.21158 3.66970 3.44826
# Velocity P-wave (km/s) = 5.11053 6.17638 5.66856
#
# Compressibility (1/GPa) = 0.03323738
#
# Stress axis : x y z
#
# Youngs Moduli (GPa) = 67.41270 66.72576 69.01609
#
# Poissons Ratio (x) = 0.11446 0.25665
# Poissons Ratio (y) = 0.11564 0.00706
# Poissons Ratio (z) = 0.25069 0.00682
#
# Static dielectric constant tensor:
#      x y z
#    x 2.004910 0.000000 0.023430 
#    y 0.000000 2.003450 0.000000 
#    z 0.023430 0.000000 1.946380 
# 
# From -- ./inp_files/353803.got.cif
#   From: 2010.05.17/outbox.cif.g08.bks.cpg/sg12_177_cif.got.tgz:353803.got - 2010.06.03 13:09:07.
