data_PCOD9208428
_publ_section_title
;
Structure prediction by ZEFSAII (Michael W. Deem and Ramdas Pophale) SiO2 
 PCOD9208428
Probable space group: C 2/M
;
_chemical_formula_sum "Si O2"
_cell_formula_units_Z 56
_cell_length_a 14.744676
_cell_length_b 8.512642
_cell_length_c 26.372308
_cell_angle_alpha 90.000000
_cell_angle_beta 66.448250
_cell_angle_gamma 90.000000
_cell_volume 3034.413482
_symmetry_space_group_name_H-M "C 2/M"
_symmetry_group_IT_number 12
_symmetry_cell_setting 'monoclinic'
loop_
_space_group_symop_operation_xyz
x,y,z
-x,y,-z
-x,-y,-z
x,-y,z
1/2+x,1/2+y,z
1/2-x,1/2+y,-z
1/2-x,1/2-y,-z
1/2+x,1/2-y,z
loop_
_atom_site_type_symbol
_atom_site_label
_atom_site_fract_x
_atom_site_fract_y
_atom_site_fract_z
Si Si1 0.784471 0.684381 0.138063
Si Si2 0.180363 0.688322 0.261284
Si Si3 0.260124 0.689391 0.353728
Si Si4 0.444657 0.310503 0.562921
Si Si5 0.475028 0.690255 0.345292
Si Si6 0.812651 0.316489 0.938855
Si Si7 0.506222 0.315836 0.938541
O O1 0.806508 0.500000 0.133682
O O2 0.731391 0.735264 0.201455
O O3 0.715942 0.725346 0.105463
O O4 0.885331 0.779231 0.106174
O O5 0.184526 0.500000 0.256062
O O6 0.236529 0.735720 0.300838
O O7 0.066703 0.741768 0.293016
O O8 0.258814 0.500000 0.355901
O O9 0.167506 0.750863 0.406899
O O10 0.367443 0.741849 0.349571
O O11 0.500000 0.255014 0.500000
O O12 0.442195 0.500000 0.562484
O O13 0.502947 0.263755 0.601218
O O14 0.478782 0.500000 0.341576
O O15 0.790163 0.500000 0.937349
O O16 0.926062 0.287650 0.927559
O O17 0.750000 0.250000 0.000000
O O18 0.482175 0.500000 0.937502
O O19 0.500000 0.280822 0.000000
#
# Coordination Sequence:
#
# PCOD9208428 Si02
#       7
#     8   8   8   8   8   8   8
#     4  12  25  41  62  87 117 153 192 237 291 350
#     4  10  21  38  57  80 110 142 186 239 288 340
#     4   9  19  35  56  79 107 147 188 233 283 334
#     4   9  18  32  51  79 115 151 188 232 280 334
#     4   9  18  35  56  78 109 149 190 232 285 343
#     4  12  24  40  62  88 117 150 188 231 283 342
#     4  11  23  40  63  88 117 152 189 232 283 342
#
# _framework density 18.454968000000001
#
# number of rings (size 3 to 8) (size 9 to 14) (size 15 to 20)
#    0.000    1.714    1.429    3.429    0.000    3.714 
#    0.000    4.286    0.000    0.000    0.000    0.000 
#    0.000    0.000    0.000    0.000    0.000    0.000 
#
# Total GULP energy -156418.594284 kJ/mol
# GULP energy per Si atom -5586.378367 kJ/mol
# Density = 1.841296 g / cm^3
# Si number density = 18.454968 Si / 1000 Ang^3
#
#
#
# Elastic Constant Matrix: (Units=GPa)
#
#
# Indices 1 2 3 4 5 6 
#
# 1 126.1165 5.2672 50.4344 0.0000 -13.3725 0.0000
# 2 5.2672 26.5417 13.7166 0.0000 0.4660 0.0000
# 3 50.4344 13.7166 143.0437 0.0000 -11.4877 0.0000
# 4 0.0000 0.0000 0.0000 22.2865 0.0000 -9.3963
# 5 -13.3725 0.4660 -11.4877 0.0000 13.9148 0.0000
# 6 0.0000 0.0000 0.0000 -9.3963 0.0000 27.2766
#
#
#
# Elastic Compliance Matrix: (Units=1/GPa)
#
#
# Indices 1 2 3 4 5 6 
#
# 1 0.009847 -0.000612 -0.002840 0.000000 0.007140 0.000000
# 2 -0.000612 0.039978 -0.004040 0.000000 -0.005263 0.000000
# 3 -0.002840 -0.004040 0.008752 0.000000 0.004631 0.000000
# 4 0.000000 0.000000 0.000000 0.052494 0.000000 0.018083
# 5 0.007140 -0.005263 0.004631 0.000000 0.082727 0.000000
# 6 0.000000 0.000000 0.000000 0.018083 0.000000 0.042891
#
#
# Mechanical properties :
#
#
# Convention : Reuss Voigt Hill
#
# Bulk Modulus (GPa) = 22.93955 48.28203 35.61079
# Shear Modulus (GPa) = 18.78252 27.78117 23.28185
#
# Velocity S-wave (km/s) = 3.19368 3.88409 3.55568
# Velocity P-wave (km/s) = 5.10455 6.80689 6.01624
#
# Compressibility (1/GPa) = 0.04359283
#
# Stress axis : x y z
#
# Youngs Moduli (GPa) = 101.54878 25.01348 114.26552
#
# Poissons Ratio (x) = 0.01531 0.32451
# Poissons Ratio (y) = 0.06214 0.46168
# Poissons Ratio (z) = 0.28840 0.10107
#
# Static dielectric constant tensor:
#      x y z
#    x 1.626860 0.000000 0.006790 
#    y 0.000000 1.621690 0.000000 
#    z 0.006790 0.000000 1.604620 
# 
# From -- ./inp_files/308929.got.cif
#   From: 2010.05.17/outbox.cif.g08.bks.cpg/sg12_155_cif.got.tgz:308929.got - 2010.06.03 13:09:07.
