data_PCOD9208694
_publ_section_title
;
Structure prediction by ZEFSAII (Michael W. Deem and Ramdas Pophale) SiO2 
 PCOD9208694
Probable space group: C 2/M
;
_chemical_formula_sum "Si O2"
_cell_formula_units_Z 48
_cell_length_a 17.583546
_cell_length_b 8.610564
_cell_length_c 15.296227
_cell_angle_alpha 90.000000
_cell_angle_beta 90.040305
_cell_angle_gamma 90.000000
_cell_volume 2315.913176
_symmetry_space_group_name_H-M "C 2/M"
_symmetry_group_IT_number 12
_symmetry_cell_setting 'monoclinic'
loop_
_space_group_symop_operation_xyz
x,y,z
-x,y,-z
-x,-y,-z
x,-y,z
1/2+x,1/2+y,z
1/2-x,1/2+y,-z
1/2-x,1/2-y,-z
1/2+x,1/2-y,z
loop_
_atom_site_type_symbol
_atom_site_label
_atom_site_fract_x
_atom_site_fract_y
_atom_site_fract_z
Si Si1 0.416573 0.810646 0.470227
Si Si2 0.418907 0.314064 0.800521
Si Si3 0.670125 0.187189 0.700256
Si Si4 0.832064 0.314666 0.641244
Si Si5 0.578666 0.186710 0.869012
Si Si6 0.668648 0.685671 0.028669
O O1 0.500000 0.757668 0.500000
O O2 0.389362 0.760555 0.374575
O O3 0.355996 0.762790 0.544100
O O4 0.418496 0.000000 0.469265
O O5 0.420330 0.500000 0.791555
O O6 0.396996 0.237438 0.709011
O O7 0.498618 0.254406 0.837817
O O8 0.354969 0.272292 0.872727
O O9 0.752738 0.246515 0.674015
O O10 0.640836 0.233793 0.795715
O O11 0.672322 0.000000 0.699442
O O12 0.827278 0.500000 0.641050
O O13 0.605745 0.249429 0.962051
O O14 0.574376 0.000000 0.871612
O O15 0.669877 0.500000 0.023195
O O16 0.750000 0.750000 0.000000
#
# Coordination Sequence:
#
# PCOD9208694 Si02
#       6
#     8   8   8   8   8   8
#     4   9  18  35  58  83 114 152 192 235 284 339
#     4  11  24  41  60  84 117 154 190 234 290 344
#     4  10  21  38  59  84 118 155 189 232 288 344
#     4  11  22  36  59  88 115 150 196 239 282 336
#     4  11  23  39  62  89 115 150 194 237 286 342
#     4  11  24  41  61  86 117 154 193 235 287 342
#
# _framework density 20.726165000000002
#
# number of rings (size 3 to 8) (size 9 to 14) (size 15 to 20)
#    0.000    1.500    0.000    5.000    0.000   12.667 
#    0.000    0.833    0.000    3.500    0.000    0.000 
#    0.000    0.000    0.000    0.000    0.000    0.000 
#
# Total GULP energy -134251.710095 kJ/mol
# GULP energy per Si atom -5593.821254 kJ/mol
# Density = 2.067899 g / cm^3
# Si number density = 20.726165 Si / 1000 Ang^3
#
#
#
# Elastic Constant Matrix: (Units=GPa)
#
#
# Indices 1 2 3 4 5 6 
#
# 1 51.9937 -3.3944 -28.8946 0.0000 -1.0753 0.0000
# 2 -3.3944 17.1421 8.4026 0.0000 -9.9390 0.0000
# 3 -28.8946 8.4026 63.7810 0.0000 -0.7845 0.0000
# 4 0.0000 0.0000 0.0000 18.7664 0.0000 0.3612
# 5 -1.0753 -9.9390 -0.7845 0.0000 40.8732 0.0000
# 6 0.0000 0.0000 0.0000 0.3612 0.0000 37.9104
#
#
#
# Elastic Compliance Matrix: (Units=1/GPa)
#
#
# Indices 1 2 3 4 5 6 
#
# 1 0.025738 -0.000128 0.011688 0.000000 0.000870 0.000000
# 2 -0.000128 0.073166 -0.009480 0.000000 0.017606 0.000000
# 3 0.011688 -0.009480 0.022203 0.000000 -0.001572 0.000000
# 4 0.000000 0.000000 0.000000 0.053297 0.000000 -0.000508
# 5 0.000870 0.017606 -0.001572 0.000000 0.028740 0.000000
# 6 0.000000 0.000000 0.000000 -0.000508 0.000000 0.026383
#
#
# Mechanical properties :
#
#
# Convention : Reuss Voigt Hill
#
# Bulk Modulus (GPa) = 7.98304 9.46045 8.72175
# Shear Modulus (GPa) = 18.71804 29.96355 24.34079
#
# Velocity S-wave (km/s) = 3.00844 3.80634 3.43067
# Velocity P-wave (km/s) = 3.99095 4.88795 4.46205
#
# Compressibility (1/GPa) = 0.12526553
#
# Stress axis : x y z
#
# Youngs Moduli (GPa) = 38.85325 13.66762 45.03891
#
# Poissons Ratio (x) = 0.00175 -0.52639
# Poissons Ratio (y) = 0.00496 0.42698
# Poissons Ratio (z) = -0.45410 0.12957
#
# Static dielectric constant tensor:
#      x y z
#    x 1.729010 0.000000 -0.006610 
#    y 0.000000 1.703550 0.000000 
#    z -0.006610 0.000000 1.730170 
# 
# From -- ./inp_files/221581.got.cif
#   From: 2010.05.17/outbox.cif.g08.bks.cpg/sg12_111_cif.got.tgz:221581.got - 2010.06.03 13:09:07.
