data_PCOD9208334
_publ_section_title
;
Structure prediction by ZEFSAII (Michael W. Deem and Ramdas Pophale) SiO2 
 PCOD9208334
Probable space group: C 2/M
;
_chemical_formula_sum "Si O2"
_cell_formula_units_Z 36
_cell_length_a 14.429276
_cell_length_b 10.544006
_cell_length_c 9.562517
_cell_angle_alpha 90.000000
_cell_angle_beta 103.515283
_cell_angle_gamma 90.000000
_cell_volume 1414.575374
_symmetry_space_group_name_H-M "C 2/M"
_symmetry_group_IT_number 12
_symmetry_cell_setting 'monoclinic'
loop_
_space_group_symop_operation_xyz
x,y,z
-x,y,-z
-x,-y,-z
x,-y,z
1/2+x,1/2+y,z
1/2-x,1/2+y,-z
1/2-x,1/2-y,-z
1/2+x,1/2-y,z
loop_
_atom_site_type_symbol
_atom_site_label
_atom_site_fract_x
_atom_site_fract_y
_atom_site_fract_z
Si Si1 0.172485 0.500000 0.281366
Si Si2 0.980489 0.851938 0.647932
Si Si3 0.204226 0.223221 0.243518
Si Si4 0.093247 0.222195 0.940560
Si Si5 0.339348 0.000000 0.391883
Si Si6 0.452523 0.000000 0.166263
O O1 0.226307 0.371891 0.258357
O O2 0.155009 0.500000 0.440870
O O3 0.065571 0.500000 0.180781
O O4 0.891140 0.788129 0.694106
O O5 0.000000 0.800052 0.500000
O O6 0.070672 0.837614 0.782607
O O7 0.955939 0.000000 0.625508
O O8 0.280016 0.125470 0.328515
O O9 0.177947 0.186525 0.074616
O O10 0.091671 0.372444 0.911609
O O11 0.000000 0.189566 0.000000
O O12 0.431130 0.000000 0.324639
#
# Coordination Sequence:
#
# PCOD9208334 Si02
#       6
#     4   8   8   8   4   4
#     4  12  24  46  72  99 136 191 237 278 340 416
#     4  10  21  37  67 106 138 180 234 286 338 415
#     4  11  24  45  70 102 141 184 225 293 354 404
#     4  10  21  39  73  99 133 176 240 283 340 410
#     4  12  29  43  68 106 150 176 233 287 361 404
#     4  12  23  42  73 104 132 182 240 285 336 415
#
# _framework density 25.449334
#
# number of rings (size 3 to 8) (size 9 to 14) (size 15 to 20)
#    0.000    1.111    5.556    2.000    4.667    2.222 
#    0.000    0.000    0.000    0.000    0.000    0.000 
#    0.000    0.000    0.000    0.000    0.000    0.000 
#
# Total GULP energy -100903.674846 kJ/mol
# GULP energy per Si atom -5605.759714 kJ/mol
# Density = 2.539141 g / cm^3
# Si number density = 25.449334 Si / 1000 Ang^3
#
#
#
# Elastic Constant Matrix: (Units=GPa)
#
#
# Indices 1 2 3 4 5 6 
#
# 1 102.0947 20.4313 25.9244 0.0000 -21.9328 0.0000
# 2 20.4313 99.7605 -10.9527 0.0000 17.3743 0.0000
# 3 25.9244 -10.9527 160.5778 0.0000 -14.8366 0.0000
# 4 0.0000 0.0000 0.0000 46.8209 0.0000 -3.5399
# 5 -21.9328 17.3743 -14.8366 0.0000 28.3422 0.0000
# 6 0.0000 0.0000 0.0000 -3.5399 0.0000 11.1396
#
#
#
# Elastic Compliance Matrix: (Units=1/GPa)
#
#
# Indices 1 2 3 4 5 6 
#
# 1 0.014136 -0.005403 -0.001402 0.000000 0.013518 0.000000
# 2 -0.005403 0.013290 0.000672 0.000000 -0.011977 0.000000
# 3 -0.001402 0.000672 0.006685 0.000000 0.002002 0.000000
# 4 0.000000 0.000000 0.000000 0.021884 0.000000 0.006954
# 5 0.013518 -0.011977 0.002002 0.000000 0.054134 0.000000
# 6 0.000000 0.000000 0.000000 0.006954 0.000000 0.091979
#
#
# Mechanical properties :
#
#
# Convention : Reuss Voigt Hill
#
# Bulk Modulus (GPa) = 45.77608 48.13766 46.95687
# Shear Modulus (GPa) = 22.55750 39.06255 30.81002
#
# Velocity S-wave (km/s) = 2.98042 3.92205 3.48320
# Velocity P-wave (km/s) = 5.46535 6.28221 5.88796
#
# Compressibility (1/GPa) = 0.02184547
#
# Stress axis : x y z
#
# Youngs Moduli (GPa) = 70.74082 75.24290 149.59566
#
# Poissons Ratio (x) = 0.40656 0.20970
# Poissons Ratio (y) = 0.38223 -0.10057
# Poissons Ratio (z) = 0.09916 -0.05058
#
# Static dielectric constant tensor:
#      x y z
#    x 2.011820 0.000000 -0.020120 
#    y 0.000000 1.955790 0.000000 
#    z -0.020120 0.000000 1.996500 
# 
# From -- ./inp_files/71527.got.cif
#   From: 2010.05.17/outbox.cif.g08.bks.cpg/sg12_36_cif.got.tgz:71527.got - 2010.06.03 13:09:07.
