data_PCOD9208094
_publ_section_title
;
Structure prediction by ZEFSAII (Michael W. Deem and Ramdas Pophale) SiO2 
 PCOD9208094
Probable space group: C 2/M
;
_chemical_formula_sum "Si O2"
_cell_formula_units_Z 40
_cell_length_a 9.291465
_cell_length_b 27.762667
_cell_length_c 13.446135
_cell_angle_alpha 90.000000
_cell_angle_beta 30.838445
_cell_angle_gamma 90.000000
_cell_volume 1778.024063
_symmetry_space_group_name_H-M "C 2/M"
_symmetry_group_IT_number 12
_symmetry_cell_setting 'monoclinic'
loop_
_space_group_symop_operation_xyz
x,y,z
-x,y,-z
-x,-y,-z
x,-y,z
1/2+x,1/2+y,z
1/2-x,1/2+y,-z
1/2-x,1/2-y,-z
1/2+x,1/2-y,z
loop_
_atom_site_type_symbol
_atom_site_label
_atom_site_fract_x
_atom_site_fract_y
_atom_site_fract_z
Si Si1 0.847974 0.300836 0.484841
Si Si2 0.344833 0.444265 0.409276
Si Si3 0.919698 0.053030 0.932144
Si Si4 0.213470 0.860200 0.223239
Si Si5 0.002028 0.626725 0.750986
O O1 0.750000 0.250000 0.500000
O O2 0.561593 0.332916 0.654428
O O3 0.061423 0.329427 0.284816
O O4 0.000000 0.296605 0.500000
O O5 0.339443 0.500000 0.440090
O O6 0.638206 0.416936 0.257195
O O7 0.125926 0.415206 0.606414
O O8 0.332767 0.441293 0.295822
O O9 0.729666 0.100445 0.044640
O O10 0.791897 0.000000 0.983494
O O11 0.000000 0.050532 0.000000
O O12 0.275921 0.852852 0.302212
O O13 0.500000 0.845816 0.000000
#
# Coordination Sequence:
#
# PCOD9208094 Si02
#       5
#     8   8   8   8   8
#     4  11  25  47  74 100 132 172 219 278 344 412
#     4  10  21  37  61  93 134 184 231 272 326 389
#     4  10  22  37  58  95 141 182 230 282 330 393
#     4  11  23  43  67 101 140 177 224 282 333 401
#     4  11  23  39  67  94 135 179 225 279 337 399
#
# _framework density 22.496881999999999
#
# number of rings (size 3 to 8) (size 9 to 14) (size 15 to 20)
#    0.000    1.400    2.000    4.200    5.600    2.800 
#    0.000    8.000    0.000    0.000    0.000    0.000 
#    0.000    0.000    0.000    0.000    0.000    0.000 
#
# Total GULP energy -111577.058020 kJ/mol
# GULP energy per Si atom -5578.852901 kJ/mol
# Density = 2.244568 g / cm^3
# Si number density = 22.496882 Si / 1000 Ang^3
#
#
#
# Elastic Constant Matrix: (Units=GPa)
#
#
# Indices 1 2 3 4 5 6 
#
# 1 142.2200 45.2533 15.6665 0.0000 26.0716 0.0000
# 2 45.2533 139.5368 36.3584 0.0000 5.0970 0.0000
# 3 15.6665 36.3584 95.8106 0.0000 10.0708 0.0000
# 4 0.0000 0.0000 0.0000 18.1048 0.0000 4.4566
# 5 26.0716 5.0970 10.0708 0.0000 39.8127 0.0000
# 6 0.0000 0.0000 0.0000 4.4566 0.0000 29.1372
#
#
#
# Elastic Compliance Matrix: (Units=1/GPa)
#
#
# Indices 1 2 3 4 5 6 
#
# 1 0.008891 -0.002724 0.000159 0.000000 -0.005514 0.000000
# 2 -0.002724 0.008790 -0.003040 0.000000 0.001427 0.000000
# 3 0.000159 -0.003040 0.011850 0.000000 -0.002713 0.000000
# 4 0.000000 0.000000 0.000000 0.057395 0.000000 -0.008779
# 5 -0.005514 0.001427 -0.002713 0.000000 0.029232 0.000000
# 6 0.000000 0.000000 0.000000 -0.008779 0.000000 0.035663
#
#
# Mechanical properties :
#
#
# Convention : Reuss Voigt Hill
#
# Bulk Modulus (GPa) = 54.57905 63.56930 59.07417
# Shear Modulus (GPa) = 29.56172 36.09691 32.82932
#
# Velocity S-wave (km/s) = 3.62890 4.01000 3.82420
# Velocity P-wave (km/s) = 6.47085 7.05397 6.76869
#
# Compressibility (1/GPa) = 0.01832205
#
# Stress axis : x y z
#
# Youngs Moduli (GPa) = 112.46969 113.76662 84.38771
#
# Poissons Ratio (x) = 0.30986 -0.01344
# Poissons Ratio (y) = 0.30633 0.25656
# Poissons Ratio (z) = -0.01792 0.34588
#
# Static dielectric constant tensor:
#      x y z
#    x 1.899880 0.000000 -0.005000 
#    y 0.000000 1.864140 0.000000 
#    z -0.005000 0.000000 1.876880 
# 
# From -- ./inp_files/125010.got.cif
#   From: 2010.05.17/outbox.cif.g08.bks.cpg/sg12_63_cif.got.tgz:125010.got - 2010.06.03 13:09:07.
