data_PCOD9208591
_publ_section_title
;
Structure prediction by ZEFSAII (Michael W. Deem and Ramdas Pophale) SiO2 
 PCOD9208591
Probable space group: C 2/M
;
_chemical_formula_sum "Si O2"
_cell_formula_units_Z 58
_cell_length_a 29.162607
_cell_length_b 9.200964
_cell_length_c 24.398009
_cell_angle_alpha 90.000000
_cell_angle_beta 29.885236
_cell_angle_gamma 90.000000
_cell_volume 3261.924248
_symmetry_space_group_name_H-M "C 2/M"
_symmetry_group_IT_number 12
_symmetry_cell_setting 'monoclinic'
loop_
_space_group_symop_operation_xyz
x,y,z
-x,y,-z
-x,-y,-z
x,-y,z
1/2+x,1/2+y,z
1/2-x,1/2+y,-z
1/2-x,1/2-y,-z
1/2+x,1/2-y,z
loop_
_atom_site_type_symbol
_atom_site_label
_atom_site_fract_x
_atom_site_fract_y
_atom_site_fract_z
Si Si1 0.500000 0.500000 0.000000
Si Si2 0.705578 0.328062 0.395098
Si Si3 0.498330 0.172982 0.195959
Si Si4 0.784303 0.672250 0.019096
Si Si5 0.446660 0.174871 0.373876
Si Si6 0.608962 0.662871 0.378408
Si Si7 0.864439 0.328360 0.757056
Si Si8 0.603577 0.339281 0.795431
O O1 0.455336 0.374871 0.088546
O O2 0.713193 0.500000 0.398257
O O3 0.638460 0.254246 0.509166
O O4 0.657913 0.309382 0.385226
O O5 0.805158 0.254340 0.289545
O O6 0.458473 0.211382 0.297417
O O7 0.454860 0.261682 0.191316
O O8 0.483234 0.000000 0.203682
O O9 0.607765 0.198613 0.084486
O O10 0.770445 0.500000 0.029093
O O11 0.721642 0.740262 0.130853
O O12 0.750000 0.750000 0.000000
O O13 0.541744 0.212219 0.307545
O O14 0.435920 0.000000 0.389459
O O15 0.500000 0.660022 0.500000
O O16 0.636583 0.500000 0.330243
O O17 0.627437 0.784423 0.314400
O O18 0.850894 0.500000 0.778841
O O19 0.632708 0.500000 0.745128
#
# Coordination Sequence:
#
# PCOD9208591 Si02
#       8
#     2   8   8   8   8   8   8   8
#     4   8  24  48  70  88 126 156 214 262 320 366
#     4  11  23  40  65  94 127 168 213 260 321 381
#     4  10  22  42  65  92 128 166 214 264 315 379
#     4  11  22  38  60  89 128 169 213 263 316 375
#     4  10  21  38  61  92 132 169 206 259 315 378
#     4  10  21  38  58  87 126 166 210 261 313 378
#     4  11  22  37  58  89 126 170 217 257 318 381
#     4  10  23  45  69  92 122 160 207 264 315 373
#
# _framework density 17.780915
#
# number of rings (size 3 to 8) (size 9 to 14) (size 15 to 20)
#    0.414    1.241    2.759    1.655    0.000    5.241 
#    2.483    2.759    0.000    0.000    0.000    0.000 
#    0.000    0.000    0.000    0.000    0.000    0.000 
#
# Total GULP energy -161540.333472 kJ/mol
# GULP energy per Si atom -5570.356327 kJ/mol
# Density = 1.774044 g / cm^3
# Si number density = 17.780915 Si / 1000 Ang^3
#
#
#
# Elastic Constant Matrix: (Units=GPa)
#
#
# Indices 1 2 3 4 5 6 
#
# 1 110.3881 78.9033 78.5469 -0.0002 -2.5256 0.0001
# 2 78.9033 87.2443 78.0231 -0.0002 -6.3830 -0.0025
# 3 78.5469 78.0231 130.5042 -0.0056 12.3300 0.0021
# 4 -0.0002 -0.0002 -0.0056 32.4734 0.0015 0.9161
# 5 -2.5256 -6.3830 12.3300 0.0015 22.6738 0.0003
# 6 0.0001 -0.0025 0.0021 0.9161 0.0003 30.8586
#
#
#
# Elastic Compliance Matrix: (Units=1/GPa)
#
#
# Indices 1 2 3 4 5 6 
#
# 1 0.026362 -0.021207 -0.003059 0.000000 -0.001370 -0.000002
# 2 -0.021207 0.048504 -0.018239 -0.000004 0.021211 0.000005
# 3 -0.003059 -0.018239 0.022058 0.000005 -0.017471 -0.000003
# 4 0.000000 -0.000004 0.000005 0.030820 -0.000006 -0.000915
# 5 -0.001370 0.021211 -0.017471 -0.000006 0.059423 0.000002
# 6 -0.000002 0.000005 -0.000003 -0.000915 0.000002 0.032433
#
#
# Mechanical properties :
#
#
# Convention : Reuss Voigt Hill
#
# Bulk Modulus (GPa) = 83.91838 88.78702 86.35270
# Shear Modulus (GPa) = 16.20319 23.37871 19.79095
#
# Velocity S-wave (km/s) = 3.02200 3.62998 3.33985
# Velocity P-wave (km/s) = 7.71199 8.22261 7.97139
#
# Compressibility (1/GPa) = 0.01191634
#
# Stress axis : x y z
#
# Youngs Moduli (GPa) = 37.93347 20.61672 45.33411
#
# Poissons Ratio (x) = 0.43721 0.13866
# Poissons Ratio (y) = 0.80444 0.82685
# Poissons Ratio (z) = 0.11602 0.37603
#
# Static dielectric constant tensor:
#      x y z
#    x 1.582380 0.000000 -0.000900 
#    y 0.000000 1.605790 0.000000 
#    z -0.000900 0.000000 1.602760 
# 
# From -- ./inp_files/351386.got.cif
#   From: 2010.05.17/outbox.cif.g08.bks.cpg/sg12_176_cif.got.tgz:351386.got - 2010.06.03 13:09:07.
