data_PCOD9208812
_publ_section_title
;
Structure prediction by ZEFSAII (Michael W. Deem and Ramdas Pophale) SiO2 
 PCOD9208812
Probable space group: C 2/M
;
_chemical_formula_sum "Si O2"
_cell_formula_units_Z 58
_cell_length_a 17.327978
_cell_length_b 20.287735
_cell_length_c 11.769395
_cell_angle_alpha 90.000000
_cell_angle_beta 136.798589
_cell_angle_gamma 90.000000
_cell_volume 2832.372165
_symmetry_space_group_name_H-M "C 2/M"
_symmetry_group_IT_number 12
_symmetry_cell_setting 'monoclinic'
loop_
_space_group_symop_operation_xyz
x,y,z
-x,y,-z
-x,-y,-z
x,-y,z
1/2+x,1/2+y,z
1/2-x,1/2+y,-z
1/2-x,1/2-y,-z
1/2+x,1/2-y,z
loop_
_atom_site_type_symbol
_atom_site_label
_atom_site_fract_x
_atom_site_fract_y
_atom_site_fract_z
Si Si1 0.233247 0.816287 0.405664
Si Si2 0.536521 0.805200 0.416159
Si Si3 0.394366 0.345029 0.955645
Si Si4 0.142172 0.722461 0.953724
Si Si5 0.092863 0.149347 0.455840
Si Si6 0.873706 0.926224 0.150912
Si Si7 0.207097 0.398256 0.166833
Si Si8 0.500000 0.000000 0.000000
O O1 0.250000 0.750000 0.500000
O O2 0.358781 0.843086 0.526182
O O3 0.189162 0.815283 0.229121
O O4 0.144947 0.855998 0.385563
O O5 0.500000 0.828085 0.500000
O O6 0.433701 0.811515 0.221181
O O7 0.573071 0.726977 0.465704
O O8 0.500000 0.372599 0.000000
O O9 0.428240 0.282584 0.069137
O O10 0.348387 0.395151 0.000301
O O11 0.250000 0.750000 0.000000
O O12 0.169697 0.674128 0.085638
O O13 0.188499 0.114257 0.634759
O O14 0.970805 0.115623 0.319442
O O15 0.764711 0.926153 0.114037
O O16 0.916512 0.000000 0.182762
O O17 0.101839 0.442134 0.095523
#
# Coordination Sequence:
#
# PCOD9208812 Si02
#       8
#     8   8   8   8   8   8   8   2
#     4  10  21  38  59  96 139 174 218 282 359 436
#     4  11  21  36  61 101 142 178 225 288 370 442
#     4  12  22  41  65 102 141 171 226 292 364 431
#     4  12  22  39  69 104 138 184 231 299 367 425
#     4  11  22  43  68 100 136 181 238 303 360 419
#     4  12  25  45  72 101 138 188 240 300 356 425
#     4  12  27  46  72 100 144 192 242 297 359 431
#     4  12  32  52  66 104 144 206 250 290 350 450
#
# _framework density 20.477536000000001
#
# number of rings (size 3 to 8) (size 9 to 14) (size 15 to 20)
#    0.000    0.552    4.828    5.379    3.862    0.828 
#    0.000    0.000    0.000    0.000    0.000    2.414 
#    0.000    0.000    0.000    0.000    0.000    0.000 
#
# Total GULP energy -161494.394125 kJ/mol
# GULP energy per Si atom -5568.772211 kJ/mol
# Density = 2.043093 g / cm^3
# Si number density = 20.477536 Si / 1000 Ang^3
#
#
#
# Elastic Constant Matrix: (Units=GPa)
#
#
# Indices 1 2 3 4 5 6 
#
# 1 116.3394 9.1547 35.1104 0.0000 11.8140 0.0000
# 2 9.1547 63.7025 0.5007 0.0000 0.7771 0.0000
# 3 35.1104 0.5007 112.7002 0.0000 -2.0758 0.0000
# 4 0.0000 0.0000 0.0000 9.5931 0.0000 14.5415
# 5 11.8140 0.7771 -2.0758 0.0000 39.3510 0.0000
# 6 0.0000 0.0000 0.0000 14.5415 0.0000 12.7416
#
#
#
# Elastic Compliance Matrix: (Units=1/GPa)
#
#
# Indices 1 2 3 4 5 6 
#
# 1 0.009975 -0.001370 -0.003159 0.000000 -0.003134 0.000000
# 2 -0.001370 0.015891 0.000358 0.000000 0.000117 0.000000
# 3 -0.003159 0.000358 0.009883 0.000000 0.001463 0.000000
# 4 0.000000 0.000000 0.000000 -0.142805 0.000000 0.162978
# 5 -0.003134 0.000117 0.001463 0.000000 0.026428 0.000000
# 6 0.000000 0.000000 0.000000 0.162978 0.000000 -0.107518
#
#
# Mechanical properties :
#
#
# Convention : Reuss Voigt Hill
#
# Bulk Modulus (GPa) = 36.48836 42.47488 39.48162
# Shear Modulus (GPa) = -29.29647 28.86889 -0.21379
#
# Velocity S-wave (km/s) = -3.78652 3.75878 -0.32346
# Velocity P-wave (km/s) = 1.12228 6.29485 4.37982
#
# Compressibility (1/GPa) = 0.02740600
#
# Stress axis : x y z
#
# Youngs Moduli (GPa) = 100.24954 62.92994 101.18713
#
# Poissons Ratio (x) = 0.08624 0.31968
# Poissons Ratio (y) = 0.13739 -0.03627
# Poissons Ratio (z) = 0.31672 -0.02256
#
# Static dielectric constant tensor:
#      x y z
#    x 1.782260 0.000000 -0.008810 
#    y 0.000000 1.682080 0.000000 
#    z -0.008810 0.000000 1.761930 
# 
# From -- ./inp_files/159787.got.cif
#   From: 2010.05.17/outbox.cif.g08.bks.cpg/sg12_80_cif.got.tgz:159787.got - 2010.06.03 13:09:07.
