data_PCOD9208941
_publ_section_title
;
Structure prediction by ZEFSAII (Michael W. Deem and Ramdas Pophale) SiO2 
 PCOD9208941
Probable space group: C 2/M
;
_chemical_formula_sum "Si O2"
_cell_formula_units_Z 64
_cell_length_a 20.290021
_cell_length_b 7.677253
_cell_length_c 33.442715
_cell_angle_alpha 90.000000
_cell_angle_beta 145.889167
_cell_angle_gamma 90.000000
_cell_volume 2921.422930
_symmetry_space_group_name_H-M "C 2/M"
_symmetry_group_IT_number 12
_symmetry_cell_setting 'monoclinic'
loop_
_space_group_symop_operation_xyz
x,y,z
-x,y,-z
-x,-y,-z
x,-y,z
1/2+x,1/2+y,z
1/2-x,1/2+y,-z
1/2-x,1/2-y,-z
1/2+x,1/2-y,z
loop_
_atom_site_type_symbol
_atom_site_label
_atom_site_fract_x
_atom_site_fract_y
_atom_site_fract_z
Si Si1 0.454578 0.299370 0.797664
Si Si2 0.089681 0.701788 0.312692
Si Si3 0.133763 0.286873 0.061538
Si Si4 0.969890 0.298054 0.441618
Si Si5 0.284317 0.709271 0.062316
Si Si6 0.341144 0.705566 0.224272
Si Si7 0.279798 0.787847 0.283845
Si Si8 0.787481 0.791704 0.473898
O O1 0.467810 0.500000 0.817127
O O2 0.411601 0.295511 0.730410
O O3 0.584404 0.220048 0.864087
O O4 0.352124 0.223443 0.773749
O O5 0.115847 0.500000 0.317601
O O6 0.187436 0.768951 0.392605
O O7 0.961167 0.713625 0.268032
O O8 0.130306 0.500000 0.060311
O O9 0.191198 0.228637 0.048493
O O10 0.225540 0.232724 0.142197
O O11 0.000000 0.226934 0.000000
O O12 0.937640 0.500000 0.432936
O O13 0.087983 0.289094 0.474953
O O14 0.000000 0.218104 0.500000
O O15 0.864993 0.223500 0.362132
O O16 0.287784 0.500000 0.069212
O O17 0.250000 0.750000 0.000000
O O18 0.352208 0.500000 0.221855
O O19 0.325368 0.735402 0.263336
O O20 0.280140 0.000000 0.285226
O O21 0.750000 0.750000 0.500000
O O22 0.798207 0.000000 0.475615
#
# Coordination Sequence:
#
# PCOD9208941 Si02
#       8
#     8   8   8   8   8   8   8   8
#     4  10  21  40  62  85 117 157 199 239 287 349
#     4  11  23  39  60  86 117 150 193 246 295 342
#     4   9  19  37  59  84 116 152 191 236 282 338
#     4  10  21  39  61  85 114 154 197 238 293 354
#     4  10  21  38  60  87 119 153 193 237 286 344
#     4  11  22  38  61  86 116 156 199 237 288 353
#     4  10  22  38  58  86 120 152 191 246 295 340
#     4  11  24  39  58  86 117 152 192 241 294 348
#
# _framework density 21.907133000000002
#
# number of rings (size 3 to 8) (size 9 to 14) (size 15 to 20)
#    0.000    1.750    1.250    2.625    1.750    7.750 
#    0.000    0.000    0.000    1.875    0.000    0.000 
#    0.000    0.000    0.000    0.000    0.000    0.000 
#
# Total GULP energy -178875.948220 kJ/mol
# GULP energy per Si atom -5589.873382 kJ/mol
# Density = 2.185727 g / cm^3
# Si number density = 21.907133 Si / 1000 Ang^3
#
#
#
# Elastic Constant Matrix: (Units=GPa)
#
#
# Indices 1 2 3 4 5 6 
#
# 1 89.4153 -15.5800 10.1588 -0.0016 3.5608 -0.0003
# 2 -15.5800 43.5476 -3.8829 -0.0005 2.9318 0.0017
# 3 10.1588 -3.8829 97.2391 -0.0011 5.0777 -0.0003
# 4 -0.0016 -0.0005 -0.0011 -15.4317 0.0001 -28.0820
# 5 3.5608 2.9318 5.0777 0.0001 44.1057 -0.0005
# 6 -0.0003 0.0017 -0.0003 -28.0820 -0.0005 9.6289
#
#
#
# Elastic Compliance Matrix: (Units=1/GPa)
#
#
# Indices 1 2 3 4 5 6 
#
# 1 0.012098 0.004313 -0.001032 0.000000 -0.001145 -0.000001
# 2 0.004313 0.024703 0.000644 0.000001 -0.002064 -0.000001
# 3 -0.001032 0.000644 0.010478 0.000000 -0.001166 0.000000
# 4 0.000000 0.000001 0.000000 -0.010274 0.000000 -0.029964
# 5 -0.001145 -0.002064 -0.001166 0.000000 0.023037 0.000000
# 6 -0.000001 -0.000001 0.000000 -0.029964 0.000000 0.016466
#
#
# Mechanical properties :
#
#
# Convention : Reuss Voigt Hill
#
# Bulk Modulus (GPa) = 18.13908 23.51043 20.82475
# Shear Modulus (GPa) = 57.44869 23.62764 40.53816
#
# Velocity S-wave (km/s) = 5.12647 3.28767 4.30636
# Velocity P-wave (km/s) = 6.58322 5.01666 5.85259
#
# Compressibility (1/GPa) = 0.05512960
#
# Stress axis : x y z
#
# Youngs Moduli (GPa) = 82.65708 40.48101 95.43520
#
# Poissons Ratio (x) = -0.17461 0.09848
# Poissons Ratio (y) = -0.35653 -0.06142
# Poissons Ratio (z) = 0.08530 -0.02605
#
# Static dielectric constant tensor:
#      x y z
#    x 1.743220 0.000000 0.014700 
#    y 0.000000 1.810320 0.000000 
#    z 0.014700 0.000000 1.790640 
# 
# From -- ./inp_files/378368.got.cif
#   From: 2010.05.17/outbox.cif.g08.bks.cpg/sg12_190_cif.got.tgz:378368.got - 2010.06.03 13:09:07.
