data_PCOD9208085
_publ_section_title
;
Structure prediction by ZEFSAII (Michael W. Deem and Ramdas Pophale) SiO2 
 PCOD9208085
Probable space group: C 2/M
;
_chemical_formula_sum "Si O2"
_cell_formula_units_Z 40
_cell_length_a 8.718036
_cell_length_b 28.728415
_cell_length_c 7.709058
_cell_angle_alpha 90.000000
_cell_angle_beta 119.246626
_cell_angle_gamma 90.000000
_cell_volume 1684.648915
_symmetry_space_group_name_H-M "C 2/M"
_symmetry_group_IT_number 12
_symmetry_cell_setting 'monoclinic'
loop_
_space_group_symop_operation_xyz
x,y,z
-x,y,-z
-x,-y,-z
x,-y,z
1/2+x,1/2+y,z
1/2-x,1/2+y,-z
1/2-x,1/2-y,-z
1/2+x,1/2-y,z
loop_
_atom_site_type_symbol
_atom_site_label
_atom_site_fract_x
_atom_site_fract_y
_atom_site_fract_z
Si Si1 0.654103 0.223257 0.228101
Si Si2 0.122250 0.087369 0.427646
Si Si3 0.661888 0.950809 0.726141
Si Si4 0.000853 0.185766 0.209428
Si Si5 0.970655 0.371591 0.779955
O O1 0.826680 0.206325 0.214621
O O2 0.648818 0.273918 0.314292
O O3 0.573685 0.181095 0.297699
O O4 0.500000 0.230053 0.000000
O O5 0.164019 0.055100 0.289382
O O6 0.301784 0.099700 0.627145
O O7 0.000000 0.064098 0.500000
O O8 0.043234 0.136765 0.322141
O O9 0.500000 0.953261 0.500000
O O10 0.633941 0.900986 0.800247
O O11 0.658986 0.000000 0.824160
O O12 0.000000 0.176920 0.000000
O O13 0.000000 0.370132 0.000000
#
# Coordination Sequence:
#
# PCOD9208085 Si02
#       5
#     8   8   8   8   8
#     4  10  21  37  61  93 125 171 209 251 310 365
#     4  11  23  40  60  96 126 163 207 259 316 368
#     4   9  21  41  66  92 121 162 209 261 318 374
#     4  11  23  38  63  91 132 170 210 258 311 370
#     4  10  22  41  65  89 126 164 213 255 310 372
#
# _framework density 23.743819999999999
#
# number of rings (size 3 to 8) (size 9 to 14) (size 15 to 20)
#    0.000    1.800    2.000    2.400    8.400    1.600 
#    0.000    0.000    0.000    1.800    0.000    0.000 
#    0.000    0.000    0.000    0.000    0.000    0.000 
#
# Total GULP energy -111513.914559 kJ/mol
# GULP energy per Si atom -5575.695728 kJ/mol
# Density = 2.368978 g / cm^3
# Si number density = 23.743820 Si / 1000 Ang^3
#
#
#
# Elastic Constant Matrix: (Units=GPa)
#
#
# Indices 1 2 3 4 5 6 
#
# 1 132.3739 52.6212 4.0708 0.0000 -13.8395 0.0000
# 2 52.6212 113.6627 16.6893 0.0000 -20.0203 0.0000
# 3 4.0708 16.6893 32.6283 0.0000 3.4503 0.0000
# 4 0.0000 0.0000 0.0000 4.2527 0.0000 -20.7064
# 5 -13.8395 -20.0203 3.4503 0.0000 25.4778 0.0000
# 6 0.0000 0.0000 0.0000 -20.7064 0.0000 65.5280
#
#
#
# Elastic Compliance Matrix: (Units=1/GPa)
#
#
# Indices 1 2 3 4 5 6 
#
# 1 0.009357 -0.004141 0.000768 0.000000 0.001725 0.000000
# 2 -0.004141 0.013430 -0.007336 0.000000 0.009297 0.000000
# 3 0.000768 -0.007336 0.035377 0.000000 -0.010138 0.000000
# 4 0.000000 0.000000 0.000000 -0.436610 0.000000 -0.137965
# 5 0.001725 0.009297 -0.010138 0.000000 0.048865 0.000000
# 6 0.000000 0.000000 0.000000 -0.137965 0.000000 -0.028335
#
#
# Mechanical properties :
#
#
# Convention : Reuss Voigt Hill
#
# Bulk Modulus (GPa) = 27.21335 47.26973 37.24154
# Shear Modulus (GPa) = -15.42019 32.73725 8.65853
#
# Velocity S-wave (km/s) = -2.55118 3.71721 1.91169
# Velocity P-wave (km/s) = 1.67574 6.19475 4.53779
#
# Compressibility (1/GPa) = 0.03674666
#
# Stress axis : x y z
#
# Youngs Moduli (GPa) = 106.86971 74.46155 28.26723
#
# Poissons Ratio (x) = 0.30835 -0.02172
# Poissons Ratio (y) = 0.44255 0.20736
# Poissons Ratio (z) = -0.08211 0.54623
#
# Static dielectric constant tensor:
#      x y z
#    x 1.980050 0.000000 0.004550 
#    y 0.000000 1.977710 0.000000 
#    z 0.004550 0.000000 1.992620 
# 
# From -- ./inp_files/41891.got.cif
#   From: 2010.05.17/outbox.cif.g08.bks.cpg/sg12_21_cif.got.tgz:41891.got - 2010.06.03 13:09:07.
