data_PCOD9208143
_publ_section_title
;
Structure prediction by ZEFSAII (Michael W. Deem and Ramdas Pophale) SiO2 
 PCOD9208143
Probable space group: C 2/M
;
_chemical_formula_sum "Si O2"
_cell_formula_units_Z 48
_cell_length_a 27.909635
_cell_length_b 7.937884
_cell_length_c 10.100937
_cell_angle_alpha 90.000000
_cell_angle_beta 89.753923
_cell_angle_gamma 90.000000
_cell_volume 2237.775743
_symmetry_space_group_name_H-M "C 2/M"
_symmetry_group_IT_number 12
_symmetry_cell_setting 'monoclinic'
loop_
_space_group_symop_operation_xyz
x,y,z
-x,y,-z
-x,-y,-z
x,-y,z
1/2+x,1/2+y,z
1/2-x,1/2+y,-z
1/2-x,1/2-y,-z
1/2+x,1/2-y,z
loop_
_atom_site_type_symbol
_atom_site_label
_atom_site_fract_x
_atom_site_fract_y
_atom_site_fract_z
Si Si1 0.298008 0.196343 0.186279
Si Si2 0.647772 0.203841 0.551439
Si Si3 0.696410 0.195306 0.284862
Si Si4 0.459892 0.702173 0.399313
Si Si5 0.543293 0.705919 0.903501
Si Si6 0.640336 0.305148 0.045242
O O1 0.328742 0.260004 0.311095
O O2 0.242827 0.214333 0.225934
O O3 0.308929 0.000000 0.163847
O O4 0.314996 0.291451 0.055630
O O5 0.678467 0.263863 0.425630
O O6 0.593031 0.259805 0.546885
O O7 0.649129 0.000000 0.549509
O O8 0.653989 0.210764 0.178763
O O9 0.709555 0.000000 0.301111
O O10 0.500000 0.768216 0.500000
O O11 0.465663 0.500000 0.392371
O O12 0.462982 0.765505 0.247564
O O13 0.544103 0.500000 0.899584
O O14 0.500000 0.756446 0.000000
O O15 0.593829 0.759294 0.966857
O O16 0.631876 0.500000 0.079655
#
# Coordination Sequence:
#
# PCOD9208143 Si02
#       6
#     8   8   8   8   8   8
#     4  11  22  40  63  87 117 156 200 246 296 353
#     4  10  23  41  61  86 122 159 194 244 299 351
#     4  11  24  40  59  87 121 157 199 246 292 349
#     4  10  21  37  62  91 118 152 196 244 291 347
#     4   9  19  36  58  87 119 150 190 241 291 341
#     4  11  22  38  62  89 120 159 196 242 296 349
#
# _framework density 21.449871000000002
#
# number of rings (size 3 to 8) (size 9 to 14) (size 15 to 20)
#    0.000    1.667    1.667    2.500    2.333    2.333 
#    0.000    0.000    0.000    2.500    0.000    0.000 
#    0.000    0.000    0.000    0.000    0.000    0.000 
#
# Total GULP energy -134182.714798 kJ/mol
# GULP energy per Si atom -5590.946450 kJ/mol
# Density = 2.140105 g / cm^3
# Si number density = 21.449871 Si / 1000 Ang^3
#
#
#
# Elastic Constant Matrix: (Units=GPa)
#
#
# Indices 1 2 3 4 5 6 
#
# 1 78.1623 -8.3612 -3.5624 0.0000 3.0112 0.0000
# 2 -8.3612 22.5993 -6.6705 0.0000 2.4884 0.0000
# 3 -3.5624 -6.6705 38.9207 0.0000 -0.5264 0.0000
# 4 0.0000 0.0000 0.0000 14.5833 0.0000 5.4809
# 5 3.0112 2.4884 -0.5264 0.0000 40.7108 0.0000
# 6 0.0000 0.0000 0.0000 5.4809 0.0000 15.0363
#
#
#
# Elastic Compliance Matrix: (Units=1/GPa)
#
#
# Indices 1 2 3 4 5 6 
#
# 1 0.013569 0.005823 0.002222 0.000000 -0.001331 0.000000
# 2 0.005823 0.049414 0.008957 0.000000 -0.003335 0.000000
# 3 0.002222 0.008957 0.027427 0.000000 -0.000357 0.000000
# 4 0.000000 0.000000 0.000000 0.079457 0.000000 -0.028963
# 5 -0.001331 -0.003335 -0.000357 0.000000 0.024861 0.000000
# 6 0.000000 0.000000 0.000000 -0.028963 0.000000 0.077063
#
#
# Mechanical properties :
#
#
# Convention : Reuss Voigt Hill
#
# Bulk Modulus (GPa) = 8.03773 11.38825 9.71299
# Shear Modulus (GPa) = 17.90450 24.61784 21.26117
#
# Velocity S-wave (km/s) = 2.89228 3.39144 3.15175
# Velocity P-wave (km/s) = 3.86122 4.54495 4.21696
#
# Compressibility (1/GPa) = 0.12441319
#
# Stress axis : x y z
#
# Youngs Moduli (GPa) = 73.69581 20.23706 36.46062
#
# Poissons Ratio (x) = -0.11783 -0.08101
# Poissons Ratio (y) = -0.42911 -0.32657
# Poissons Ratio (z) = -0.16375 -0.18126
#
# Static dielectric constant tensor:
#      x y z
#    x 1.748250 0.000000 0.017330 
#    y 0.000000 1.758660 0.000000 
#    z 0.017330 0.000000 1.760080 
# 
# From -- ./inp_files/108756.got.cif
#   From: 2010.05.17/outbox.cif.g08.bks.cpg/sg12_55_cif.got.tgz:108756.got - 2010.06.03 13:09:07.
