data_PCOD9208834
_publ_section_title
;
Structure prediction by ZEFSAII (Michael W. Deem and Ramdas Pophale) SiO2 
 PCOD9208834
Probable space group: C 2/M
;
_chemical_formula_sum "Si O2"
_cell_formula_units_Z 64
_cell_length_a 20.110147
_cell_length_b 8.760723
_cell_length_c 20.762727
_cell_angle_alpha 90.000000
_cell_angle_beta 123.079976
_cell_angle_gamma 90.000000
_cell_volume 3065.043992
_symmetry_space_group_name_H-M "C 2/M"
_symmetry_group_IT_number 12
_symmetry_cell_setting 'monoclinic'
loop_
_space_group_symop_operation_xyz
x,y,z
-x,y,-z
-x,-y,-z
x,-y,z
1/2+x,1/2+y,z
1/2-x,1/2+y,-z
1/2-x,1/2-y,-z
1/2+x,1/2-y,z
loop_
_atom_site_type_symbol
_atom_site_label
_atom_site_fract_x
_atom_site_fract_y
_atom_site_fract_z
Si Si1 0.259824 0.678459 0.109559
Si Si2 0.047917 0.182857 0.312738
Si Si3 0.971823 0.318659 0.914881
Si Si4 0.166022 0.315836 0.479978
Si Si5 0.626145 0.677761 0.954749
Si Si6 0.851304 0.816533 0.760168
Si Si7 0.615389 0.182533 0.733838
Si Si8 0.326247 0.814561 0.369438
O O1 0.247107 0.500000 0.117364
O O2 0.179780 0.753141 0.040273
O O3 0.302522 0.764733 0.190211
O O4 0.321772 0.689375 0.082425
O O5 0.097563 0.255004 0.397416
O O6 0.092482 0.225419 0.270327
O O7 0.958268 0.240754 0.269492
O O8 0.049543 0.000000 0.318200
O O9 0.964937 0.500000 0.913306
O O10 0.890833 0.250522 0.844822
O O11 0.044280 0.268168 0.907370
O O12 0.000000 0.263018 0.000000
O O13 0.168856 0.500000 0.479219
O O14 0.250000 0.250000 0.500000
O O15 0.153256 0.266699 0.547462
O O16 0.609266 0.500000 0.957246
O O17 0.762773 0.764332 0.696181
O O18 0.850131 0.000000 0.764869
O O19 0.617186 0.229701 0.659608
O O20 0.608977 0.000000 0.734664
O O21 0.325127 0.000000 0.369629
#
# Coordination Sequence:
#
# PCOD9208834 Si02
#       8
#     8   8   8   8   8   8   8   8
#     4  10  21  38  60  86 119 153 193 250 306 355
#     4  11  23  41  65  94 127 162 203 256 307 356
#     4  11  25  40  55  85 124 156 195 255 311 352
#     4  11  21  40  67  95 125 161 205 251 303 364
#     4  10  21  38  60  84 110 155 204 244 296 364
#     4  10  21  41  65  87 117 163 212 252 298 367
#     4  11  23  39  61  91 124 163 206 247 300 365
#     4   9  21  41  63  90 124 163 204 249 300 364
#
# _framework density 20.880611999999999
#
# number of rings (size 3 to 8) (size 9 to 14) (size 15 to 20)
#    0.000    1.625    1.250    3.000    1.750    7.000 
#    0.000    5.625    0.000    0.000    0.000    0.000 
#    0.000    0.000    0.000    0.000    0.000    0.000 
#
# Total GULP energy -178963.299392 kJ/mol
# GULP energy per Si atom -5592.603106 kJ/mol
# Density = 2.083309 g / cm^3
# Si number density = 20.880612 Si / 1000 Ang^3
#
#
#
# Elastic Constant Matrix: (Units=GPa)
#
#
# Indices 1 2 3 4 5 6 
#
# 1 48.2320 8.8575 0.8473 0.0000 -4.6175 0.0000
# 2 8.8575 33.7910 26.3471 0.0000 -10.8994 0.0000
# 3 0.8473 26.3471 99.5697 0.0000 2.0254 0.0000
# 4 0.0000 0.0000 0.0000 34.8354 0.0000 4.6687
# 5 -4.6175 -10.8994 2.0254 0.0000 32.5438 0.0000
# 6 0.0000 0.0000 0.0000 4.6687 0.0000 22.3650
#
#
#
# Elastic Compliance Matrix: (Units=1/GPa)
#
#
# Indices 1 2 3 4 5 6 
#
# 1 0.022020 -0.006764 0.001587 0.000000 0.000760 0.000000
# 2 -0.006764 0.045945 -0.012409 0.000000 0.015200 0.000000
# 3 0.001587 -0.012409 0.013410 0.000000 -0.004765 0.000000
# 4 0.000000 0.000000 0.000000 0.029533 0.000000 -0.006165
# 5 0.000760 0.015200 -0.004765 0.000000 0.036223 0.000000
# 6 0.000000 0.000000 0.000000 -0.006165 0.000000 0.046000
#
#
# Mechanical properties :
#
#
# Convention : Reuss Voigt Hill
#
# Bulk Modulus (GPa) = 21.64374 28.18852 24.91613
# Shear Modulus (GPa) = 20.51662 27.65157 24.08409
#
# Velocity S-wave (km/s) = 3.13799 3.64300 3.39989
# Velocity P-wave (km/s) = 4.84947 5.58788 5.23172
#
# Compressibility (1/GPa) = 0.04620273
#
# Stress axis : x y z
#
# Youngs Moduli (GPa) = 45.41279 21.76503 74.56986
#
# Poissons Ratio (x) = 0.14723 -0.11835
# Poissons Ratio (y) = 0.30719 0.92535
# Poissons Ratio (z) = -0.07207 0.27009
#
# Static dielectric constant tensor:
#      x y z
#    x 1.767320 0.000000 -0.024620 
#    y 0.000000 1.701360 0.000000 
#    z -0.024620 0.000000 1.743260 
# 
# From -- ./inp_files/320091.got.cif
#   From: 2010.05.17/outbox.cif.g08.bks.cpg/sg12_161_cif.got.tgz:320091.got - 2010.06.03 13:09:07.
