data_PCOD9208206
_publ_section_title
;
Structure prediction by ZEFSAII (Michael W. Deem and Ramdas Pophale) SiO2 
 PCOD9208206
Probable space group: C 2/M
;
_chemical_formula_sum "Si O2"
_cell_formula_units_Z 52
_cell_length_a 22.382961
_cell_length_b 11.778893
_cell_length_c 12.304384
_cell_angle_alpha 90.000000
_cell_angle_beta 61.467967
_cell_angle_gamma 90.000000
_cell_volume 2850.023725
_symmetry_space_group_name_H-M "C 2/M"
_symmetry_group_IT_number 12
_symmetry_cell_setting 'monoclinic'
loop_
_space_group_symop_operation_xyz
x,y,z
-x,y,-z
-x,-y,-z
x,-y,z
1/2+x,1/2+y,z
1/2-x,1/2+y,-z
1/2-x,1/2-y,-z
1/2+x,1/2-y,z
loop_
_atom_site_type_symbol
_atom_site_label
_atom_site_fract_x
_atom_site_fract_y
_atom_site_fract_z
Si Si1 0.359100 0.731301 0.339493
Si Si2 0.664459 0.500000 0.350494
Si Si3 0.146555 0.788370 0.022650
Si Si4 0.920657 0.368859 0.100260
Si Si5 0.916488 0.000000 0.807476
Si Si6 0.424216 0.500000 0.355664
Si Si7 0.710012 0.252757 0.372720
Si Si8 0.701046 0.868013 0.161827
O O1 0.404426 0.820956 0.234345
O O2 0.396861 0.611079 0.316998
O O3 0.337480 0.763074 0.480901
O O4 0.286754 0.722477 0.340469
O O5 0.631321 0.500000 0.259183
O O6 0.608040 0.500000 0.495285
O O7 0.706354 0.384074 0.335366
O O8 0.159150 0.703709 0.111543
O O9 0.099784 0.889889 0.105943
O O10 0.117427 0.715489 0.949073
O O11 0.219476 0.841138 0.928190
O O12 0.897675 0.500000 0.110540
O O13 0.000000 0.364996 0.000000
O O14 0.994969 0.000000 0.706636
O O15 0.685835 0.175264 0.295448
O O16 0.688420 0.000000 0.159404
#
# Coordination Sequence:
#
# PCOD9208206 Si02
#       8
#     8   4   8   8   4   4   8   8
#     4  10  22  39  59  90 116 159 198 250 302 354
#     4  10  21  40  60  96 117 159 205 247 310 353
#     4  11  23  38  59  89 117 156 202 241 302 354
#     4  11  24  41  60  83 119 163 202 238 290 363
#     4  12  21  39  64  89 121 165 200 248 296 370
#     4  10  23  39  62  89 127 156 201 253 300 357
#     4  10  21  37  63  87 121 151 201 253 302 359
#     4  11  22  37  57  87 122 151 192 253 299 353
#
# _framework density 18.245462
#
# number of rings (size 3 to 8) (size 9 to 14) (size 15 to 20)
#    0.000    1.385    3.846    1.615    2.154    1.231 
#    0.000    1.538    0.000    0.000    0.000    5.385 
#    0.000    0.000    0.000    0.000    0.000    0.000 
#
# Total GULP energy -145231.000529 kJ/mol
# GULP energy per Si atom -5585.807713 kJ/mol
# Density = 1.820393 g / cm^3
# Si number density = 18.245462 Si / 1000 Ang^3
#
#
#
# Elastic Constant Matrix: (Units=GPa)
#
#
# Indices 1 2 3 4 5 6 
#
# 1 35.5378 12.9635 17.0910 0.0000 6.6303 0.0000
# 2 12.9635 110.6550 42.0185 0.0000 8.5776 0.0000
# 3 17.0910 42.0185 85.2988 0.0000 13.7855 0.0000
# 4 0.0000 0.0000 0.0000 29.7152 0.0000 -1.4841
# 5 6.6303 8.5776 13.7855 0.0000 18.9079 0.0000
# 6 0.0000 0.0000 0.0000 -1.4841 0.0000 4.1317
#
#
#
# Elastic Compliance Matrix: (Units=1/GPa)
#
#
# Indices 1 2 3 4 5 6 
#
# 1 0.032231 -0.001483 -0.004545 0.000000 -0.007316 0.000000
# 2 -0.001483 0.011208 -0.005086 0.000000 -0.000857 0.000000
# 3 -0.004545 -0.005086 0.016447 0.000000 -0.008090 0.000000
# 4 0.000000 0.000000 0.000000 0.034267 0.000000 0.012309
# 5 -0.007316 -0.000857 -0.008090 0.000000 0.061740 0.000000
# 6 0.000000 0.000000 0.000000 0.012309 0.000000 0.246454
#
#
# Mechanical properties :
#
#
# Convention : Reuss Voigt Hill
#
# Bulk Modulus (GPa) = 26.55441 41.73752 34.14596
# Shear Modulus (GPa) = 11.43828 21.17887 16.30858
#
# Velocity S-wave (km/s) = 2.50653 3.41071 2.99296
# Velocity P-wave (km/s) = 4.79192 6.19966 5.54068
#
# Compressibility (1/GPa) = 0.03765853
#
# Stress axis : x y z
#
# Youngs Moduli (GPa) = 31.02628 89.21874 60.80163
#
# Poissons Ratio (x) = 0.13231 0.27635
# Poissons Ratio (y) = 0.04601 0.30922
# Poissons Ratio (z) = 0.14102 0.45374
#
# Static dielectric constant tensor:
#      x y z
#    x 1.599590 0.000000 -0.004520 
#    y 0.000000 1.605510 0.000000 
#    z -0.004520 0.000000 1.632510 
# 
# From -- ./inp_files/164802.got.cif
#   From: 2010.05.17/outbox.cif.g08.bks.cpg/sg12_83_cif.got.tgz:164802.got - 2010.06.03 13:09:07.
