data_PCOD9208801
_publ_section_title
;
Structure prediction by ZEFSAII (Michael W. Deem and Ramdas Pophale) SiO2 
 PCOD9208801
Probable space group: C 2/M
;
_chemical_formula_sum "Si O2"
_cell_formula_units_Z 64
_cell_length_a 17.659676
_cell_length_b 21.921910
_cell_length_c 7.862977
_cell_angle_alpha 90.000000
_cell_angle_beta 93.415550
_cell_angle_gamma 90.000000
_cell_volume 3038.617270
_symmetry_space_group_name_H-M "C 2/M"
_symmetry_group_IT_number 12
_symmetry_cell_setting 'monoclinic'
loop_
_space_group_symop_operation_xyz
x,y,z
-x,y,-z
-x,-y,-z
x,-y,z
1/2+x,1/2+y,z
1/2-x,1/2+y,-z
1/2-x,1/2-y,-z
1/2+x,1/2-y,z
loop_
_atom_site_type_symbol
_atom_site_label
_atom_site_fract_x
_atom_site_fract_y
_atom_site_fract_z
Si Si1 0.772064 0.068760 0.655319
Si Si2 0.422607 0.739084 0.831174
Si Si3 0.419760 0.360060 0.538780
Si Si4 0.122841 0.776471 0.791554
Si Si5 0.649525 0.855576 0.806378
Si Si6 0.211067 0.685158 0.159621
Si Si7 0.490407 0.863340 0.697288
Si Si8 0.666953 0.067138 0.321197
O O1 0.847912 0.098355 0.585003
O O2 0.729523 0.112634 0.782069
O O3 0.702030 0.063258 0.513140
O O4 0.788899 0.000000 0.718914
O O5 0.438154 0.684229 0.702358
O O6 0.337311 0.761061 0.763142
O O7 0.471344 0.799722 0.790004
O O8 0.422935 0.721662 0.033629
O O9 0.500000 0.391854 0.500000
O O10 0.398374 0.320677 0.367062
O O11 0.133198 0.708793 0.710896
O O12 0.206282 0.792934 0.869432
O O13 0.570436 0.890762 0.772309
O O14 0.657139 0.832777 0.997888
O O15 0.217196 0.621683 0.256094
O O16 0.500000 0.849978 0.500000
O O17 0.419058 0.908830 0.701384
O O18 0.674087 0.000000 0.242753
#
# Coordination Sequence:
#
# PCOD9208801 Si02
#       8
#     8   8   8   8   8   8   8   8
#     4  11  24  43  63  86 118 160 211 260 301 356
#     4  10  22  38  59  95 132 160 197 244 306 371
#     4  12  25  40  67  94 119 161 204 252 318 372
#     4  11  22  39  63  94 132 162 197 253 307 373
#     4  11  22  37  63  93 123 161 203 246 303 368
#     4  10  21  38  59  90 126 165 205 248 304 357
#     4  11  21  37  59  93 129 164 198 245 303 365
#     4  10  22  39  60  83 119 168 210 250 299 356
#
# _framework density 21.06221
#
# number of rings (size 3 to 8) (size 9 to 14) (size 15 to 20)
#    0.000    1.250    2.500    4.875    1.750    9.500 
#    0.000    0.625    0.000    0.000    0.000    2.625 
#    0.000    0.000    0.000    0.000    0.000    0.000 
#
# Total GULP energy -178256.297127 kJ/mol
# GULP energy per Si atom -5570.509285 kJ/mol
# Density = 2.101427 g / cm^3
# Si number density = 21.062210 Si / 1000 Ang^3
#
#
#
# Elastic Constant Matrix: (Units=GPa)
#
#
# Indices 1 2 3 4 5 6 
#
# 1 131.1556 34.3391 10.7489 0.0000 -29.9972 0.0000
# 2 34.3391 72.0966 11.1372 0.0000 -19.7803 0.0000
# 3 10.7489 11.1372 51.1545 0.0000 -5.9923 0.0000
# 4 0.0000 0.0000 0.0000 6.6276 0.0000 11.4062
# 5 -29.9972 -19.7803 -5.9923 0.0000 37.0842 0.0000
# 6 0.0000 0.0000 0.0000 11.4062 0.0000 -4.2430
#
#
#
# Elastic Compliance Matrix: (Units=1/GPa)
#
#
# Indices 1 2 3 4 5 6 
#
# 1 0.009884 -0.002853 -0.000711 0.000000 0.006358 0.000000
# 2 -0.002853 0.017410 -0.002419 0.000000 0.006587 0.000000
# 3 -0.000711 -0.002419 0.020392 0.000000 0.001430 0.000000
# 4 0.000000 0.000000 0.000000 0.026817 0.000000 0.072090
# 5 0.006358 0.006587 0.001430 0.000000 0.035854 0.000000
# 6 0.000000 0.000000 0.000000 0.072090 0.000000 -0.041888
#
#
# Mechanical properties :
#
#
# Convention : Reuss Voigt Hill
#
# Bulk Modulus (GPa) = 27.99589 40.76190 34.37889
# Shear Modulus (GPa) = 54.14601 21.10585 37.62593
#
# Velocity S-wave (km/s) = 5.07577 3.16899 4.23119
# Velocity P-wave (km/s) = 6.90450 5.72583 6.34260
#
# Compressibility (1/GPa) = 0.03571952
#
# Stress axis : x y z
#
# Youngs Moduli (GPa) = 101.17233 57.43687 49.03841
#
# Poissons Ratio (x) = 0.16389 0.03486
# Poissons Ratio (y) = 0.28869 0.11864
# Poissons Ratio (z) = 0.07192 0.13896
#
# Static dielectric constant tensor:
#      x y z
#    x 1.817690 0.000000 -0.002980 
#    y 0.000000 1.915010 0.000000 
#    z -0.002980 0.000000 1.817180 
# 
# From -- ./inp_files/77512.got.cif
#   From: 2010.05.17/outbox.cif.g08.bks.cpg/sg12_39_cif.got.tgz:77512.got - 2010.06.03 13:09:07.
