data_PCOD9208673
_publ_section_title
;
Structure prediction by ZEFSAII (Michael W. Deem and Ramdas Pophale) SiO2 
 PCOD9208673
Probable space group: C 2/M
;
_chemical_formula_sum "Si O2"
_cell_formula_units_Z 64
_cell_length_a 20.216675
_cell_length_b 7.464212
_cell_length_c 19.666077
_cell_angle_alpha 90.000000
_cell_angle_beta 60.504299
_cell_angle_gamma 90.000000
_cell_volume 2583.013292
_symmetry_space_group_name_H-M "C 2/M"
_symmetry_group_IT_number 12
_symmetry_cell_setting 'monoclinic'
loop_
_space_group_symop_operation_xyz
x,y,z
-x,y,-z
-x,-y,-z
x,-y,z
1/2+x,1/2+y,z
1/2-x,1/2+y,-z
1/2-x,1/2-y,-z
1/2+x,1/2-y,z
loop_
_atom_site_type_symbol
_atom_site_label
_atom_site_fract_x
_atom_site_fract_y
_atom_site_fract_z
Si Si1 0.183895 0.294237 0.833490
Si Si2 0.245038 0.213760 0.421550
Si Si3 0.922780 0.782195 0.501906
Si Si4 0.669641 0.213568 0.078918
Si Si5 0.892416 0.795690 0.260501
Si Si6 0.491634 0.280423 0.327571
Si Si7 0.575661 0.780625 0.001716
Si Si8 0.157200 0.203278 0.242170
O O1 0.201284 0.500000 0.842392
O O2 0.126315 0.295472 0.800562
O O3 0.144561 0.215730 0.919126
O O4 0.264445 0.212057 0.772343
O O5 0.250000 0.250000 0.500000
O O6 0.162262 0.276397 0.436174
O O7 0.316773 0.291827 0.345424
O O8 0.248851 0.000000 0.409531
O O9 0.935630 0.733564 0.416700
O O10 0.000000 0.721625 0.500000
O O11 0.922449 0.000000 0.507531
O O12 0.664622 0.296957 0.156262
O O13 0.664468 0.000000 0.090497
O O14 0.750000 0.250000 0.000000
O O15 0.599892 0.272915 0.065284
O O16 0.959125 0.716827 0.272532
O O17 0.910942 0.000000 0.234444
O O18 0.493217 0.500000 0.323653
O O19 0.576081 0.214951 0.299918
O O20 0.574175 0.000000 0.002427
O O21 0.500000 0.723315 0.000000
O O22 0.152810 0.000000 0.272116
#
# Coordination Sequence:
#
# PCOD9208673 Si02
#       8
#     8   8   8   8   8   8   8   8
#     4  10  21  38  59  84 112 149 193 232 280 340
#     4  11  21  37  62  87 112 149 192 235 285 337
#     4   9  18  33  58  86 110 143 192 236 274 331
#     4  11  21  37  61  85 112 149 191 235 286 340
#     4  11  23  39  57  83 119 153 189 234 286 339
#     4   9  19  36  56  81 115 151 187 233 282 333
#     4   9  19  36  57  82 114 149 187 235 286 338
#     4  10  21  38  60  84 114 149 192 238 283 338
#
# _framework density 24.777262
#
# number of rings (size 3 to 8) (size 9 to 14) (size 15 to 20)
#    0.000    2.000    2.500    1.125    3.500    0.500 
#    0.000    0.625    0.000    3.375    0.000    0.000 
#    0.000    0.000    0.000    0.000    0.000    0.000 
#
# Total GULP energy -178881.752388 kJ/mol
# GULP energy per Si atom -5590.054762 kJ/mol
# Density = 2.472087 g / cm^3
# Si number density = 24.777262 Si / 1000 Ang^3
#
#
#
# Elastic Constant Matrix: (Units=GPa)
#
#
# Indices 1 2 3 4 5 6 
#
# 1 116.5431 2.1831 -26.6026 0.0007 0.2206 -0.0016
# 2 2.1831 87.4699 -10.5843 0.0016 -0.8324 -0.0036
# 3 -26.6026 -10.5843 26.6661 0.0005 0.2229 -0.0010
# 4 0.0007 0.0016 0.0005 13.3797 -0.0004 5.5227
# 5 0.2206 -0.8324 0.2229 -0.0004 46.0430 0.0003
# 6 -0.0016 -0.0036 -0.0010 5.5227 0.0003 9.6433
#
#
#
# Elastic Compliance Matrix: (Units=1/GPa)
#
#
# Indices 1 2 3 4 5 6 
#
# 1 0.011216 0.001127 0.011637 -0.000003 -0.000090 0.000005
# 2 0.001127 0.012124 0.005936 -0.000005 0.000185 0.000008
# 3 0.011637 0.005936 0.051468 -0.000010 -0.000198 0.000015
# 4 -0.000003 -0.000005 -0.000010 0.097877 0.000001 -0.056055
# 5 -0.000090 0.000185 -0.000198 0.000001 0.021724 -0.000001
# 6 0.000005 0.000008 0.000015 -0.056055 -0.000001 0.135801
#
#
# Mechanical properties :
#
#
# Convention : Reuss Voigt Hill
#
# Bulk Modulus (GPa) = 8.91191 17.85239 13.38215
# Shear Modulus (GPa) = 15.14174 31.52541 23.33357
#
# Velocity S-wave (km/s) = 2.47475 3.57087 3.07210
# Velocity P-wave (km/s) = 3.43082 4.92162 4.24222
#
# Compressibility (1/GPa) = 0.11220940
#
# Stress axis : x y z
#
# Youngs Moduli (GPa) = 89.15846 82.47860 19.42951
#
# Poissons Ratio (x) = -0.09299 -0.22611
# Poissons Ratio (y) = -0.10052 -0.11533
# Poissons Ratio (z) = -1.03758 -0.48956
#
# Static dielectric constant tensor:
#      x y z
#    x 1.995950 0.000000 -0.025450 
#    y 0.000000 1.991060 0.000000 
#    z -0.025450 0.000000 1.928710 
# 
# From -- ./inp_files/319981.got.cif
#   From: 2010.05.17/outbox.cif.g08.bks.cpg/sg12_160_cif.got.tgz:319981.got - 2010.06.03 13:09:07.
