data_PCOD9208860
_publ_section_title
;
Structure prediction by ZEFSAII (Michael W. Deem and Ramdas Pophale) SiO2 
 PCOD9208860
Probable space group: C 2/M
;
_chemical_formula_sum "Si O2"
_cell_formula_units_Z 64
_cell_length_a 14.262790
_cell_length_b 8.838682
_cell_length_c 34.868886
_cell_angle_alpha 90.000000
_cell_angle_beta 139.557420
_cell_angle_gamma 90.000000
_cell_volume 2851.440884
_symmetry_space_group_name_H-M "C 2/M"
_symmetry_group_IT_number 12
_symmetry_cell_setting 'monoclinic'
loop_
_space_group_symop_operation_xyz
x,y,z
-x,y,-z
-x,-y,-z
x,-y,z
1/2+x,1/2+y,z
1/2-x,1/2+y,-z
1/2-x,1/2-y,-z
1/2+x,1/2-y,z
loop_
_atom_site_type_symbol
_atom_site_label
_atom_site_fract_x
_atom_site_fract_y
_atom_site_fract_z
Si Si1 0.018674 0.828052 0.275907
Si Si2 0.128091 0.673870 0.236455
Si Si3 0.264407 0.822022 0.546479
Si Si4 0.840151 0.325149 0.411734
Si Si5 0.450154 0.672869 0.371842
Si Si6 0.164998 0.321822 0.094993
Si Si7 0.233555 0.823998 0.196666
Si Si8 0.683252 0.176327 0.016791
O O1 0.042529 0.780261 0.239147
O O2 0.174530 0.821294 0.344474
O O3 0.900292 0.717752 0.256724
O O4 0.964652 0.000000 0.262521
O O5 0.079283 0.500000 0.224390
O O6 0.294426 0.679845 0.303283
O O7 0.133214 0.731609 0.194728
O O8 0.250000 0.750000 0.500000
O O9 0.167374 0.738064 0.547786
O O10 0.431708 0.785309 0.608445
O O11 0.237060 0.000000 0.537821
O O12 0.888879 0.500000 0.425118
O O13 0.925105 0.220623 0.408217
O O14 0.503655 0.500000 0.385273
O O15 0.202798 0.500000 0.111038
O O16 0.211223 0.228698 0.146229
O O17 0.990574 0.313987 0.039398
O O18 0.223409 0.264972 0.071932
O O19 0.206658 0.000000 0.193245
O O20 0.723165 0.000000 0.028927
O O21 0.750000 0.250000 0.000000
#
# Coordination Sequence:
#
# PCOD9208860 Si02
#       8
#     8   8   8   8   8   8   8   8
#     4  10  21  38  60  85 115 151 190 233 280 335
#     4  10  21  38  60  85 115 151 190 233 280 335
#     4  12  25  40  59  84 114 148 188 234 284 338
#     4  10  21  39  62  87 114 147 188 232 282 338
#     4  10  21  39  62  87 114 147 188 232 282 338
#     4   9  20  39  57  79 113 150 187 228 282 339
#     4  12  24  36  55  85 120 156 192 233 282 334
#     4   9  19  37  62  84 106 143 187 233 283 336
#
# _framework density 22.444794000000002
#
# number of rings (size 3 to 8) (size 9 to 14) (size 15 to 20)
#    0.000    1.750    0.000    5.250    0.000    8.500 
#    0.000    6.250    0.000    0.000    0.000    0.000 
#    0.000    0.000    0.000    0.000    0.000    0.000 
#
# Total GULP energy -179051.550727 kJ/mol
# GULP energy per Si atom -5595.360960 kJ/mol
# Density = 2.239371 g / cm^3
# Si number density = 22.444794 Si / 1000 Ang^3
#
#
#
# Elastic Constant Matrix: (Units=GPa)
#
#
# Indices 1 2 3 4 5 6 
#
# 1 83.4140 11.0167 15.1579 0.0000 -39.3368 0.0000
# 2 11.0167 92.6147 21.5358 0.0000 -17.3773 0.0000
# 3 15.1579 21.5358 70.1111 0.0000 -33.6284 0.0000
# 4 0.0000 0.0000 0.0000 27.5776 0.0000 -3.2578
# 5 -39.3368 -17.3773 -33.6284 0.0000 42.1242 0.0000
# 6 0.0000 0.0000 0.0000 -3.2578 0.0000 35.4531
#
#
#
# Elastic Compliance Matrix: (Units=1/GPa)
#
#
# Indices 1 2 3 4 5 6 
#
# 1 0.024682 0.000685 0.009146 0.000000 0.030633 0.000000
# 2 0.000685 0.011911 -0.001853 0.000000 0.004074 0.000000
# 3 0.009146 -0.001853 0.026876 0.000000 0.029232 0.000000
# 4 0.000000 0.000000 0.000000 0.036659 0.000000 0.003369
# 5 0.030633 0.004074 0.029232 0.000000 0.077363 0.000000
# 6 0.000000 0.000000 0.000000 0.003369 0.000000 0.028516
#
#
# Mechanical properties :
#
#
# Convention : Reuss Voigt Hill
#
# Bulk Modulus (GPa) = 12.59028 37.95119 25.27073
# Shear Modulus (GPa) = 23.09203 34.25960 28.67581
#
# Velocity S-wave (km/s) = 3.21103 3.91115 3.57825
# Velocity P-wave (km/s) = 4.40105 6.11077 5.32497
#
# Compressibility (1/GPa) = 0.07942636
#
# Stress axis : x y z
#
# Youngs Moduli (GPa) = 40.51541 83.95464 37.20815
#
# Poissons Ratio (x) = -0.05750 -0.34032
# Poissons Ratio (y) = -0.02775 0.06893
# Poissons Ratio (z) = -0.37057 0.15553
#
# Static dielectric constant tensor:
#      x y z
#    x 1.811860 0.000000 0.017970 
#    y 0.000000 1.749530 0.000000 
#    z 0.017970 0.000000 1.884630 
# 
# From -- ./inp_files/375566.got.cif
#   From: 2010.05.17/outbox.cif.g08.bks.cpg/sg12_188_cif.got.tgz:375566.got - 2010.06.03 13:09:07.
