data_PCOD9208618
_publ_section_title
;
Structure prediction by ZEFSAII (Michael W. Deem and Ramdas Pophale) SiO2 
 PCOD9208618
Probable space group: C 2/M
;
_chemical_formula_sum "Si O2"
_cell_formula_units_Z 52
_cell_length_a 12.477315
_cell_length_b 15.001632
_cell_length_c 15.254475
_cell_angle_alpha 90.000000
_cell_angle_beta 112.329647
_cell_angle_gamma 90.000000
_cell_volume 2641.221757
_symmetry_space_group_name_H-M "C 2/M"
_symmetry_group_IT_number 12
_symmetry_cell_setting 'monoclinic'
loop_
_space_group_symop_operation_xyz
x,y,z
-x,y,-z
-x,-y,-z
x,-y,z
1/2+x,1/2+y,z
1/2-x,1/2+y,-z
1/2-x,1/2-y,-z
1/2+x,1/2-y,z
loop_
_atom_site_type_symbol
_atom_site_label
_atom_site_fract_x
_atom_site_fract_y
_atom_site_fract_z
Si Si1 0.214237 0.102071 0.029263
Si Si2 0.868445 0.290308 0.433414
Si Si3 0.355284 0.795773 0.222120
Si Si4 0.426954 0.904845 0.741588
Si Si5 0.314720 0.847777 0.878297
Si Si6 0.728904 0.395551 0.533720
Si Si7 0.000000 0.787878 0.000000
O O1 0.277231 0.142918 0.133800
O O2 0.189400 0.000000 0.036581
O O3 0.295482 0.113060 0.969043
O O4 0.093099 0.153173 0.977010
O O5 0.845111 0.305553 0.323396
O O6 0.781165 0.353258 0.460974
O O7 0.851198 0.185330 0.454023
O O8 0.000000 0.314556 0.500000
O O9 0.485346 0.823014 0.238483
O O10 0.306320 0.698345 0.184968
O O11 0.358212 0.905378 0.811358
O O12 0.334731 0.898828 0.635376
O O13 0.491555 0.000000 0.753516
O O14 0.416583 0.774870 0.918042
O O15 0.687568 0.500000 0.512222
#
# Coordination Sequence:
#
# PCOD9208618 Si02
#       7
#     8   8   8   8   8   8   4
#     4  11  23  39  59  88 124 157 201 250 298 354
#     4  11  22  42  66  88 122 164 202 251 311 363
#     4  11  22  37  60  91 118 158 202 247 300 362
#     4  11  21  36  59  88 119 152 199 252 299 354
#     4  11  21  39  60  85 120 161 201 241 296 363
#     4  10  23  40  61  92 121 155 204 254 302 365
#     4  10  21  38  59  80 116 158 198 242 293 352
#
# _framework density 19.687859
#
# number of rings (size 3 to 8) (size 9 to 14) (size 15 to 20)
#    0.000    1.231    3.077    4.846    0.000    1.846 
#    0.000    2.308    0.000    3.692    0.000    0.000 
#    0.000    0.000    0.000    0.000    0.000    0.000 
#
# Total GULP energy -144920.328109 kJ/mol
# GULP energy per Si atom -5573.858773 kJ/mol
# Density = 1.964305 g / cm^3
# Si number density = 19.687859 Si / 1000 Ang^3
#
#
#
# Elastic Constant Matrix: (Units=GPa)
#
#
# Indices 1 2 3 4 5 6 
#
# 1 64.0166 14.1010 29.8232 0.0000 -20.2446 0.0000
# 2 14.1010 74.6031 23.3467 0.0000 -18.5425 0.0000
# 3 29.8232 23.3467 113.1865 0.0000 -27.3886 0.0000
# 4 0.0000 0.0000 0.0000 66.2110 0.0000 -4.8749
# 5 -20.2446 -18.5425 -27.3886 0.0000 33.8521 0.0000
# 6 0.0000 0.0000 0.0000 -4.8749 0.0000 17.9493
#
#
#
# Elastic Compliance Matrix: (Units=1/GPa)
#
#
# Indices 1 2 3 4 5 6 
#
# 1 0.020050 -0.000560 -0.002910 0.000000 0.009329 0.000000
# 2 -0.000560 0.015719 -0.001358 0.000000 0.007176 0.000000
# 3 -0.002910 -0.001358 0.011540 0.000000 0.006852 0.000000
# 4 0.000000 0.000000 0.000000 0.015411 0.000000 0.004186
# 5 0.009329 0.007176 0.006852 0.000000 0.044594 0.000000
# 6 0.000000 0.000000 0.000000 0.004186 0.000000 0.056849
#
#
# Mechanical properties :
#
#
# Convention : Reuss Voigt Hill
#
# Bulk Modulus (GPa) = 26.55881 42.92756 34.74319
# Shear Modulus (GPa) = 26.82806 35.90482 31.36644
#
# Velocity S-wave (km/s) = 3.69544 4.27512 3.99580
# Velocity P-wave (km/s) = 5.63273 6.79855 6.24291
#
# Compressibility (1/GPa) = 0.03765229
#
# Stress axis : x y z
#
# Youngs Moduli (GPa) = 49.87439 63.61800 86.65512
#
# Poissons Ratio (x) = 0.03565 0.25216
# Poissons Ratio (y) = 0.02795 0.11770
# Poissons Ratio (z) = 0.14513 0.08641
#
# Static dielectric constant tensor:
#      x y z
#    x 1.698090 0.000000 -0.009660 
#    y 0.000000 1.714080 0.000000 
#    z -0.009660 0.000000 1.680570 
# 
# From -- ./inp_files/205084.got.cif
#   From: 2010.05.17/outbox.cif.g08.bks.cpg/sg12_103_cif.got.tgz:205084.got - 2010.06.03 13:09:07.
