data_PCOD9208528
_publ_section_title
;
Structure prediction by ZEFSAII (Michael W. Deem and Ramdas Pophale) SiO2 
 PCOD9208528
Probable space group: C 2/M
;
_chemical_formula_sum "Si O2"
_cell_formula_units_Z 40
_cell_length_a 15.109887
_cell_length_b 8.387368
_cell_length_c 20.447194
_cell_angle_alpha 90.000000
_cell_angle_beta 56.832435
_cell_angle_gamma 90.000000
_cell_volume 2169.124925
_symmetry_space_group_name_H-M "C 2/M"
_symmetry_group_IT_number 12
_symmetry_cell_setting 'monoclinic'
loop_
_space_group_symop_operation_xyz
x,y,z
-x,y,-z
-x,-y,-z
x,-y,z
1/2+x,1/2+y,z
1/2-x,1/2+y,-z
1/2-x,1/2-y,-z
1/2+x,1/2-y,z
loop_
_atom_site_type_symbol
_atom_site_label
_atom_site_fract_x
_atom_site_fract_y
_atom_site_fract_z
Si Si1 0.224497 0.192122 0.203045
Si Si2 0.148214 0.309663 0.499806
Si Si3 0.086858 0.807868 0.381973
Si Si4 0.961600 0.305562 0.087293
Si Si5 0.662025 0.191164 0.086762
O O1 0.154982 0.247601 0.292255
O O2 0.345464 0.250585 0.153442
O O3 0.178929 0.241042 0.151635
O O4 0.226923 0.000000 0.205608
O O5 0.150802 0.500000 0.498495
O O6 0.250000 0.250000 0.500000
O O7 0.141595 0.248734 0.427347
O O8 0.033944 0.253337 0.573597
O O9 0.083147 0.000000 0.384963
O O10 0.958775 0.500000 0.086130
O O11 0.049262 0.258443 0.103820
O O12 0.000000 0.252449 0.000000
O O13 0.666696 0.000000 0.086925
O O14 0.750000 0.250000 0.000000
#
# Coordination Sequence:
#
# PCOD9208528 Si02
#       5
#     8   8   8   8   8
#     4  10  21  38  58  82 114 150 189 237 286 341
#     4  11  22  39  64  89 119 155 194 237 290 354
#     4  10  21  38  60  89 122 154 193 240 296 354
#     4   9  17  33  55  75 104 147 189 227 279 339
#     4  11  21  34  55  79 107 147 195 242 288 340
#
# _framework density 18.440617
#
# number of rings (size 3 to 8) (size 9 to 14) (size 15 to 20)
#    0.000    1.800    2.000    4.200    0.000    3.200 
#    0.000    5.000    0.000    0.000    0.000    0.000 
#    0.000    0.000    0.000    0.000    0.000    0.000 
#
# Total GULP energy -111641.289174 kJ/mol
# GULP energy per Si atom -5582.064459 kJ/mol
# Density = 1.839865 g / cm^3
# Si number density = 18.440617 Si / 1000 Ang^3
#
#
#
# Elastic Constant Matrix: (Units=GPa)
#
#
# Indices 1 2 3 4 5 6 
#
# 1 201.2562 26.0569 111.4056 0.0000 -4.0349 0.0000
# 2 26.0569 48.6783 25.8534 0.0000 -4.7756 0.0000
# 3 111.4056 25.8534 199.2871 0.0000 -8.6750 0.0000
# 4 0.0000 0.0000 0.0000 21.6236 0.0000 7.7890
# 5 -4.0349 -4.7756 -8.6750 0.0000 17.6261 0.0000
# 6 0.0000 0.0000 0.0000 7.7890 0.0000 30.2928
#
#
#
# Elastic Compliance Matrix: (Units=1/GPa)
#
#
# Indices 1 2 3 4 5 6 
#
# 1 0.007362 -0.001946 -0.003896 0.000000 -0.000760 0.000000
# 2 -0.001946 0.022960 -0.001675 0.000000 0.004951 0.000000
# 3 -0.003896 -0.001675 0.007516 0.000000 0.002353 0.000000
# 4 0.000000 0.000000 0.000000 0.050966 0.000000 -0.013105
# 5 -0.000760 0.004951 0.002353 0.000000 0.059060 0.000000
# 6 0.000000 0.000000 0.000000 -0.013105 0.000000 0.036381
#
#
# Mechanical properties :
#
#
# Convention : Reuss Voigt Hill
#
# Bulk Modulus (GPa) = 43.85376 86.20592 65.02984
# Shear Modulus (GPa) = 24.16846 32.96886 28.56866
#
# Velocity S-wave (km/s) = 3.62416 4.23287 3.94029
# Velocity P-wave (km/s) = 6.43004 8.41064 7.48613
#
# Compressibility (1/GPa) = 0.02280306
#
# Stress axis : x y z
#
# Youngs Moduli (GPa) = 135.82668 43.55368 133.05401
#
# Poissons Ratio (x) = 0.08476 0.51842
# Poissons Ratio (y) = 0.26434 0.22289
# Poissons Ratio (z) = 0.52922 0.07296
#
# Static dielectric constant tensor:
#      x y z
#    x 1.617050 0.000000 -0.013630 
#    y 0.000000 1.643160 0.000000 
#    z -0.013630 0.000000 1.628440 
# 
# From -- ./inp_files/266936.got.cif
#   From: 2010.05.17/outbox.cif.g08.bks.cpg/sg12_134_cif.got.tgz:266936.got - 2010.06.03 13:09:07.
