data_PCOD9208005
_publ_section_title
;
Structure prediction by ZEFSAII (Michael W. Deem and Ramdas Pophale) SiO2 
 PCOD9208005
Probable space group: C 2/M
;
_chemical_formula_sum "Si O2"
_cell_formula_units_Z 64
_cell_length_a 10.541635
_cell_length_b 21.470755
_cell_length_c 16.473511
_cell_angle_alpha 90.000000
_cell_angle_beta 121.821221
_cell_angle_gamma 90.000000
_cell_volume 3168.150344
_symmetry_space_group_name_H-M "C 2/M"
_symmetry_group_IT_number 12
_symmetry_cell_setting 'monoclinic'
loop_
_space_group_symop_operation_xyz
x,y,z
-x,y,-z
-x,-y,-z
x,-y,z
1/2+x,1/2+y,z
1/2-x,1/2+y,-z
1/2-x,1/2-y,-z
1/2+x,1/2-y,z
loop_
_atom_site_type_symbol
_atom_site_label
_atom_site_fract_x
_atom_site_fract_y
_atom_site_fract_z
Si Si1 0.909912 0.863308 0.214954
Si Si2 0.456801 0.572612 0.897792
Si Si3 0.917798 0.400347 0.722031
Si Si4 0.044538 0.741722 0.310506
Si Si5 0.322672 0.931358 0.298763
Si Si6 0.394436 0.070402 0.887362
Si Si7 0.354555 0.804130 0.396081
Si Si8 0.568122 0.427076 0.608293
O O1 0.734147 0.877838 0.158063
O O2 0.970759 0.890746 0.321718
O O3 0.965557 0.897842 0.153825
O O4 0.964777 0.792790 0.227801
O O5 0.499350 0.500000 0.913590
O O6 0.282938 0.576914 0.815568
O O7 0.500000 0.599493 0.000000
O O8 0.932547 0.326016 0.720175
O O9 0.976652 0.423478 0.828914
O O10 0.746400 0.420838 0.659915
O O11 0.010260 0.427777 0.678716
O O12 0.211628 0.768210 0.384489
O O13 0.927684 0.732813 0.344911
O O14 0.300317 0.872263 0.348716
O O15 0.290477 0.000000 0.322844
O O16 0.327785 0.000000 0.867980
O O17 0.500000 0.077395 0.000000
O O18 0.500000 0.812973 0.500000
O O19 0.500000 0.403362 0.500000
O O20 0.527714 0.500000 0.603718
#
# Coordination Sequence:
#
# PCOD9208005 Si02
#       8
#     8   8   8   8   8   8   8   8
#     4  11  21  39  61  90 126 156 205 257 304 362
#     4  10  21  37  61  88 118 160 203 249 307 363
#     4  10  21  39  59  84 124 160 202 247 304 370
#     4  11  24  41  63  86 125 166 213 256 306 367
#     4  10  21  38  60  87 124 158 196 251 313 373
#     4  10  21  37  64  95 121 153 199 257 319 372
#     4  11  23  41  64  90 121 163 212 258 310 373
#     4  10  21  38  64  94 122 157 201 258 325 375
#
# _framework density 20.201062
#
# number of rings (size 3 to 8) (size 9 to 14) (size 15 to 20)
#    0.000    1.625    1.250    4.875    1.750    4.250 
#    0.000    1.250    0.000    0.000    0.000    0.000 
#    0.000    0.000    0.000    0.000    0.000    0.000 
#
# Total GULP energy -178549.153662 kJ/mol
# GULP energy per Si atom -5579.661052 kJ/mol
# Density = 2.015508 g / cm^3
# Si number density = 20.201062 Si / 1000 Ang^3
#
#
#
# Elastic Constant Matrix: (Units=GPa)
#
#
# Indices 1 2 3 4 5 6 
#
# 1 65.8994 7.0521 -7.1585 0.0000 -1.1613 0.0000
# 2 7.0521 101.9174 29.4497 0.0000 3.3197 0.0000
# 3 -7.1585 29.4497 72.2724 0.0000 -11.9200 0.0000
# 4 0.0000 0.0000 0.0000 9.4073 0.0000 2.2452
# 5 -1.1613 3.3197 -11.9200 0.0000 25.5148 0.0000
# 6 0.0000 0.0000 0.0000 2.2452 0.0000 15.6506
#
#
#
# Elastic Compliance Matrix: (Units=1/GPa)
#
#
# Indices 1 2 3 4 5 6 
#
# 1 0.015718 -0.001946 0.002719 0.000000 0.002239 0.000000
# 2 -0.001946 0.011725 -0.005674 0.000000 -0.004265 0.000000
# 3 0.002719 -0.005674 0.017943 0.000000 0.009244 0.000000
# 4 0.000000 0.000000 0.000000 0.110069 0.000000 -0.015790
# 5 0.002239 -0.004265 0.009244 0.000000 0.044169 0.000000
# 6 0.000000 0.000000 0.000000 -0.015790 0.000000 0.066161
#
#
# Mechanical properties :
#
#
# Convention : Reuss Voigt Hill
#
# Bulk Modulus (GPa) = 28.10303 33.19732 30.65017
# Shear Modulus (GPa) = 17.39453 24.16426 20.77939
#
# Velocity S-wave (km/s) = 2.93758 3.46235 3.21070
# Velocity P-wave (km/s) = 5.04457 5.69675 5.38055
#
# Compressibility (1/GPa) = 0.03558336
#
# Stress axis : x y z
#
# Youngs Moduli (GPa) = 63.62234 85.28814 55.73336
#
# Poissons Ratio (x) = 0.16599 -0.15155
# Poissons Ratio (y) = 0.12382 0.31622
# Poissons Ratio (z) = -0.17300 0.48392
#
# Static dielectric constant tensor:
#      x y z
#    x 1.753700 0.000000 0.001330 
#    y 0.000000 1.713210 0.000000 
#    z 0.001330 0.000000 1.727560 
# 
# From -- ./inp_files/265084.got.cif
#   From: 2010.05.17/outbox.cif.g08.bks.cpg/sg12_133_cif.got.tgz:265084.got - 2010.06.03 13:09:07.
