data_PCOD9208225
_publ_section_title
;
Structure prediction by ZEFSAII (Michael W. Deem and Ramdas Pophale) SiO2 
 PCOD9208225
Probable space group: C 2/M
;
_chemical_formula_sum "Si O2"
_cell_formula_units_Z 36
_cell_length_a 25.913283
_cell_length_b 9.873790
_cell_length_c 22.757981
_cell_angle_alpha 90.000000
_cell_angle_beta 163.188021
_cell_angle_gamma 90.000000
_cell_volume 1684.171469
_symmetry_space_group_name_H-M "C 2/M"
_symmetry_group_IT_number 12
_symmetry_cell_setting 'monoclinic'
loop_
_space_group_symop_operation_xyz
x,y,z
-x,y,-z
-x,-y,-z
x,-y,z
1/2+x,1/2+y,z
1/2-x,1/2+y,-z
1/2-x,1/2-y,-z
1/2+x,1/2-y,z
loop_
_atom_site_type_symbol
_atom_site_label
_atom_site_fract_x
_atom_site_fract_y
_atom_site_fract_z
Si Si1 0.633341 0.786887 0.696304
Si Si2 0.948243 0.763544 0.614705
Si Si3 0.781280 0.500000 0.825630
Si Si4 0.950508 0.000000 0.200788
Si Si5 0.907594 0.000000 0.021538
Si Si6 0.275528 0.000000 0.473774
Si Si7 0.196456 0.500000 0.291551
O O1 0.500000 0.832637 0.500000
O O2 0.540268 0.798718 0.657780
O O3 0.679845 0.631213 0.737354
O O4 0.815883 0.870423 0.893486
O O5 0.075772 0.865462 0.789981
O O6 0.881615 0.639206 0.581837
O O7 0.791986 0.865403 0.421403
O O8 0.780050 0.500000 0.753441
O O9 0.984528 0.500000 0.070280
O O10 0.158994 0.000000 0.406231
O O11 0.856324 0.000000 0.035277
O O12 0.120686 0.000000 0.254646
#
# Coordination Sequence:
#
# PCOD9208225 Si02
#       7
#     8   8   4   4   4   4   4
#     4  12  23  41  63  93 131 164 204 255 313 374
#     4  11  21  41  68  91 124 166 206 253 317 371
#     4  11  21  39  61  93 126 159 206 254 297 373
#     4   9  23  42  66  89 124 160 218 258 303 364
#     4  10  25  41  59  90 132 163 206 255 313 356
#     4  10  22  42  62  94 120 162 216 257 305 361
#     4  10  21  37  63  93 122 163 204 246 310 367
#
# _framework density 21.375498
#
# number of rings (size 3 to 8) (size 9 to 14) (size 15 to 20)
#    0.667    0.667    2.222    4.667    0.000    0.889 
#    0.000    1.111    0.000    0.000    0.000    0.000 
#    0.000    0.000    0.000    0.000    0.000    0.000 
#
# Total GULP energy -100577.563065 kJ/mol
# GULP energy per Si atom -5587.642393 kJ/mol
# Density = 2.132685 g / cm^3
# Si number density = 21.375498 Si / 1000 Ang^3
#
#
#
# Elastic Constant Matrix: (Units=GPa)
#
#
# Indices 1 2 3 4 5 6 
#
# 1 46.9052 -8.4803 -24.8083 0.0008 4.9031 -0.0021
# 2 -8.4803 107.9437 12.3710 0.0061 -10.5204 0.0083
# 3 -24.8083 12.3710 49.6936 0.0110 -8.4826 0.0168
# 4 0.0008 0.0061 0.0110 20.5283 0.0032 -4.6716
# 5 4.9031 -10.5204 -8.4826 0.0032 24.6992 0.0032
# 6 -0.0021 0.0083 0.0168 -4.6716 0.0032 -87.1082
#
#
#
# Elastic Compliance Matrix: (Units=1/GPa)
#
#
# Indices 1 2 3 4 5 6 
#
# 1 0.029020 0.000588 0.014235 -0.000008 -0.000622 0.000003
# 2 0.000588 0.009833 -0.001550 -0.000002 0.003539 0.000001
# 3 0.014235 -0.001550 0.028703 -0.000015 0.006372 0.000006
# 4 -0.000008 -0.000002 -0.000015 0.048126 -0.000011 -0.002581
# 5 -0.000622 0.003539 0.006372 -0.000011 0.044306 0.000004
# 6 0.000003 0.000001 0.000006 -0.002581 0.000004 -0.011342
#
#
# Mechanical properties :
#
#
# Convention : Reuss Voigt Hill
#
# Bulk Modulus (GPa) = 10.62684 18.07857 14.35271
# Shear Modulus (GPa) = 32.58000 6.65454 19.61727
#
# Velocity S-wave (km/s) = 3.90830 1.76633 3.03272
# Velocity P-wave (km/s) = 5.03475 3.55470 4.35802
#
# Compressibility (1/GPa) = 0.09410131
#
# Stress axis : x y z
#
# Youngs Moduli (GPa) = 34.45920 101.69969 34.83912
#
# Poissons Ratio (x) = -0.05979 -0.49594
# Poissons Ratio (y) = -0.02026 0.05401
# Poissons Ratio (z) = -0.49053 0.15766
#
# Static dielectric constant tensor:
#      x y z
#    x 1.756550 0.000000 -0.001550 
#    y 0.000000 1.720560 0.000000 
#    z -0.001550 0.000000 1.777470 
# 
# From -- ./inp_files/92460.got.cif
#   From: 2010.05.17/outbox.cif.g08.bks.cpg/sg12_47_cif.got.tgz:92460.got - 2010.06.03 13:09:07.
