data_PCOD9208335
_publ_section_title
;
Structure prediction by ZEFSAII (Michael W. Deem and Ramdas Pophale) SiO2 
 PCOD9208335
Probable space group: C 2/M
;
_chemical_formula_sum "Si O2"
_cell_formula_units_Z 48
_cell_length_a 17.888479
_cell_length_b 30.029276
_cell_length_c 9.310690
_cell_angle_alpha 90.000000
_cell_angle_beta 27.904651
_cell_angle_gamma 90.000000
_cell_volume 2340.709070
_symmetry_space_group_name_H-M "C 2/M"
_symmetry_group_IT_number 12
_symmetry_cell_setting 'monoclinic'
loop_
_space_group_symop_operation_xyz
x,y,z
-x,y,-z
-x,-y,-z
x,-y,z
1/2+x,1/2+y,z
1/2-x,1/2+y,-z
1/2-x,1/2-y,-z
1/2+x,1/2-y,z
loop_
_atom_site_type_symbol
_atom_site_label
_atom_site_fract_x
_atom_site_fract_y
_atom_site_fract_z
Si Si1 0.354934 0.370319 0.856595
Si Si2 0.574161 0.891118 0.730216
Si Si3 0.652425 0.752730 0.513293
Si Si4 0.157120 0.687890 0.983535
Si Si5 0.148214 0.833431 0.836519
Si Si6 0.835840 0.549504 0.695089
O O1 0.500000 0.373124 0.500000
O O2 0.230471 0.333386 0.004240
O O3 0.409147 0.358817 0.925680
O O4 0.269440 0.417595 0.028307
O O5 0.442267 0.853607 0.912315
O O6 0.740123 0.863370 0.456290
O O7 0.615940 0.925980 0.534946
O O8 0.500000 0.911564 0.000000
O O9 0.750000 0.750000 0.500000
O O10 0.470757 0.770867 0.810886
O O11 0.740480 0.794772 0.293829
O O12 0.693866 0.707815 0.358948
O O13 0.000000 0.815315 0.000000
O O14 0.766728 0.500000 0.789274
O O15 0.000000 0.545095 0.500000
#
# Coordination Sequence:
#
# PCOD9208335 Si02
#       6
#     8   8   8   8   8   8
#     4  11  26  42  65  96 131 172 219 274 326 389
#     4  10  21  37  67  94 130 165 211 272 322 390
#     4  11  23  38  62  88 129 173 218 271 317 376
#     4  11  23  41  60  92 130 172 225 262 321 378
#     4  10  23  40  60  89 129 177 218 263 325 382
#     4  10  21  43  70  95 128 165 209 271 338 404
#
# _framework density 20.506606000000001
#
# number of rings (size 3 to 8) (size 9 to 14) (size 15 to 20)
#    0.000    1.500    1.667    3.500    7.000    1.333 
#    0.000    0.000    0.000    8.000    0.000    0.000 
#    0.000    0.000    0.000    0.000    0.000    0.000 
#
# Total GULP energy -133700.959715 kJ/mol
# GULP energy per Si atom -5570.873321 kJ/mol
# Density = 2.045993 g / cm^3
# Si number density = 20.506606 Si / 1000 Ang^3
#
#
#
# Elastic Constant Matrix: (Units=GPa)
#
#
# Indices 1 2 3 4 5 6 
#
# 1 60.6867 23.1021 43.7133 0.0000 2.1390 0.0000
# 2 23.1021 97.2613 47.9752 0.0001 4.0632 0.0000
# 3 43.7133 47.9752 125.9298 -0.0003 7.8784 0.0000
# 4 0.0000 0.0001 -0.0003 61.1790 0.0001 12.8307
# 5 2.1390 4.0632 7.8784 0.0001 28.5299 0.0000
# 6 0.0000 0.0000 0.0000 12.8307 0.0000 25.3430
#
#
#
# Elastic Compliance Matrix: (Units=1/GPa)
#
#
# Indices 1 2 3 4 5 6 
#
# 1 0.022237 -0.001823 -0.007059 0.000000 0.000542 0.000000
# 2 -0.001823 0.012817 -0.004217 0.000000 -0.000524 0.000000
# 3 -0.007059 -0.004217 0.012137 0.000000 -0.002222 0.000000
# 4 0.000000 0.000000 0.000000 0.018287 0.000000 -0.009258
# 5 0.000542 -0.000524 -0.002222 0.000000 0.035698 0.000000
# 6 0.000000 0.000000 0.000000 -0.009258 0.000000 0.044146
#
#
# Mechanical properties :
#
#
# Convention : Reuss Voigt Hill
#
# Bulk Modulus (GPa) = 47.63385 57.05099 52.34242
# Shear Modulus (GPa) = 28.00852 34.28288 31.14570
#
# Velocity S-wave (km/s) = 3.69972 4.09320 3.90142
# Velocity P-wave (km/s) = 6.44434 7.08662 6.77310
#
# Compressibility (1/GPa) = 0.02099347
#
# Stress axis : x y z
#
# Youngs Moduli (GPa) = 44.96962 78.02371 82.39462
#
# Poissons Ratio (x) = 0.14223 0.58158
# Poissons Ratio (y) = 0.08197 0.34747
# Poissons Ratio (z) = 0.31742 0.32904
#
# Static dielectric constant tensor:
#      x y z
#    x 1.735340 0.000000 0.014010 
#    y 0.000000 1.773420 0.000000 
#    z 0.014010 0.000000 1.808860 
# 
# From -- ./inp_files/80601.got.cif
#   From: 2010.05.17/outbox.cif.g08.bks.cpg/sg12_41_cif.got.tgz:80601.got - 2010.06.03 13:09:07.
