data_PCOD9208230
_publ_section_title
;
Structure prediction by ZEFSAII (Michael W. Deem and Ramdas Pophale) SiO2 
 PCOD9208230
Probable space group: C 2/M
;
_chemical_formula_sum "Si O2"
_cell_formula_units_Z 44
_cell_length_a 21.502259
_cell_length_b 16.476440
_cell_length_c 17.841703
_cell_angle_alpha 90.000000
_cell_angle_beta 20.046202
_cell_angle_gamma 90.000000
_cell_volume 2166.688287
_symmetry_space_group_name_H-M "C 2/M"
_symmetry_group_IT_number 12
_symmetry_cell_setting 'monoclinic'
loop_
_space_group_symop_operation_xyz
x,y,z
-x,y,-z
-x,-y,-z
x,-y,z
1/2+x,1/2+y,z
1/2-x,1/2+y,-z
1/2-x,1/2-y,-z
1/2+x,1/2-y,z
loop_
_atom_site_type_symbol
_atom_site_label
_atom_site_fract_x
_atom_site_fract_y
_atom_site_fract_z
Si Si1 0.697023 0.590000 0.738879
Si Si2 0.100919 0.803386 0.710056
Si Si3 0.007463 0.095321 0.306430
Si Si4 0.500000 0.159930 0.500000
Si Si5 0.284540 0.093239 0.233521
Si Si6 0.227476 0.789623 0.160278
O O1 0.730631 0.500000 0.669115
O O2 0.687628 0.657772 0.685816
O O3 0.845141 0.609200 0.634179
O O4 0.500000 0.590651 0.000000
O O5 0.250000 0.750000 0.500000
O O6 0.038688 0.874803 0.724328
O O7 0.926113 0.748122 0.925269
O O8 0.831297 0.106506 0.559949
O O9 0.159774 0.154708 0.168603
O O10 0.056757 0.000000 0.252946
O O11 0.591832 0.216371 0.332729
O O12 0.224174 0.153630 0.237307
O O13 0.250852 0.000000 0.248123
O O14 0.500000 0.103181 0.000000
#
# Coordination Sequence:
#
# PCOD9208230 Si02
#       6
#     8   8   8   4   8   8
#     4  11  25  47  71  98 132 178 227 278 331 396
#     4  12  26  43  67  96 136 178 220 273 338 397
#     4  11  23  42  63  96 138 176 214 268 339 403
#     4  12  23  42  73 104 128 164 232 284 329 382
#     4  10  21  37  63  93 128 174 220 267 322 387
#     4  12  23  40  67  98 133 168 228 272 328 387
#
# _framework density 20.307490000000001
#
# number of rings (size 3 to 8) (size 9 to 14) (size 15 to 20)
#    0.000    0.727    3.636    4.091    2.545    1.455 
#    0.000    4.545    0.000    0.000    0.000    0.000 
#    0.000    0.000    0.000    0.000    0.000    0.000 
#
# Total GULP energy -123102.261768 kJ/mol
# GULP energy per Si atom -5595.557353 kJ/mol
# Density = 2.026127 g / cm^3
# Si number density = 20.307490 Si / 1000 Ang^3
#
#
#
# Elastic Constant Matrix: (Units=GPa)
#
#
# Indices 1 2 3 4 5 6 
#
# 1 95.2812 36.7498 24.1716 -0.0316 -17.0283 0.0214
# 2 36.7498 88.4552 43.7662 -0.0536 -14.0980 0.0367
# 3 24.1716 43.7662 97.4301 -0.0385 -19.3280 0.0329
# 4 -0.0316 -0.0536 -0.0385 -5.8848 0.0243 9.1614
# 5 -17.0283 -14.0980 -19.3280 0.0243 29.1998 -0.0338
# 6 0.0214 0.0367 0.0329 9.1614 -0.0338 36.5177
#
#
#
# Elastic Compliance Matrix: (Units=1/GPa)
#
#
# Indices 1 2 3 4 5 6 
#
# 1 0.013267 -0.004566 -0.000164 -0.000002 0.005424 0.000003
# 2 -0.004566 0.016356 -0.005958 -0.000066 0.001290 0.000009
# 3 -0.000164 -0.005958 0.014265 -0.000009 0.006469 0.000002
# 4 -0.000002 -0.000066 -0.000009 -0.122201 0.000098 0.030658
# 5 0.005424 0.001290 0.006469 0.000098 0.042315 0.000004
# 6 0.000003 0.000009 0.000002 0.030658 0.000004 0.019693
#
#
# Mechanical properties :
#
#
# Convention : Reuss Voigt Hill
#
# Bulk Modulus (GPa) = 44.42569 54.50465 49.46517
# Shear Modulus (GPa) = 397.58147 23.73181 210.65664
#
# Velocity S-wave (km/s) = 14.00735 3.42222 10.19601
# Velocity P-wave (km/s) = 16.83840 6.52023 12.76803
#
# Compressibility (1/GPa) = 0.02250950
#
# Stress axis : x y z
#
# Youngs Moduli (GPa) = 75.37227 61.13947 70.10406
#
# Poissons Ratio (x) = 0.27919 0.01152
# Poissons Ratio (y) = 0.34418 0.41771
# Poissons Ratio (z) = 0.01239 0.36430
#
# Static dielectric constant tensor:
#      x y z
#    x 1.676570 0.000090 0.153440 
#    y 0.000090 1.718140 -0.000750 
#    z 0.153440 -0.000750 0.560620 
# 
# From -- ./inp_files/285118.got.cif
#   From: 2010.05.17/outbox.cif.g08.bks.cpg/sg12_143_cif.got.tgz:285118.got - 2010.06.03 13:09:07.
