data_PCOD9208598
_publ_section_title
;
Structure prediction by ZEFSAII (Michael W. Deem and Ramdas Pophale) SiO2 
 PCOD9208598
Probable space group: C 2/M
;
_chemical_formula_sum "Si O2"
_cell_formula_units_Z 32
_cell_length_a 13.679290
_cell_length_b 14.896614
_cell_length_c 11.967480
_cell_angle_alpha 90.000000
_cell_angle_beta 42.706484
_cell_angle_gamma 90.000000
_cell_volume 1654.013482
_symmetry_space_group_name_H-M "C 2/M"
_symmetry_group_IT_number 12
_symmetry_cell_setting 'monoclinic'
loop_
_space_group_symop_operation_xyz
x,y,z
-x,y,-z
-x,-y,-z
x,-y,z
1/2+x,1/2+y,z
1/2-x,1/2+y,-z
1/2-x,1/2-y,-z
1/2+x,1/2-y,z
loop_
_atom_site_type_symbol
_atom_site_label
_atom_site_fract_x
_atom_site_fract_y
_atom_site_fract_z
Si Si1 0.495407 0.500000 0.192678
Si Si2 0.255657 0.500000 0.205556
Si Si3 0.630956 0.823449 0.974120
Si Si4 0.940037 0.133437 0.668685
Si Si5 0.359622 0.825139 0.782947
O O1 0.358474 0.500000 0.226529
O O2 0.497767 0.584259 0.275316
O O3 0.636540 0.500000 0.993727
O O4 0.159357 0.410980 0.277581
O O5 0.767521 0.880422 0.817645
O O6 0.700756 0.723001 0.923545
O O7 0.500000 0.826078 0.000000
O O8 0.595249 0.851571 0.129942
O O9 0.957479 0.241490 0.663566
O O10 0.000000 0.103226 0.500000
#
# Coordination Sequence:
#
# PCOD9208598 Si02
#       5
#     4   4   8   8   8
#     4  11  21  34  64  88 114 153 204 241 285 340
#     4  11  20  34  61  90 110 155 206 242 271 349
#     4   9  18  35  59  82 115 156 198 231 287 346
#     4  10  21  38  58  89 124 150 188 248 295 345
#     4   9  20  35  57  85 121 146 203 236 288 334
#
# _framework density 19.346879000000001
#
# number of rings (size 3 to 8) (size 9 to 14) (size 15 to 20)
#    1.500    0.750    2.500    0.375    7.000    0.000 
#    0.000    8.125    0.000    0.000    0.000    0.000 
#    0.000    0.000    0.000    0.000    0.000    0.000 
#
# Total GULP energy -89100.021991 kJ/mol
# GULP energy per Si atom -5568.751374 kJ/mol
# Density = 1.930284 g / cm^3
# Si number density = 19.346879 Si / 1000 Ang^3
#
#
#
# Elastic Constant Matrix: (Units=GPa)
#
#
# Indices 1 2 3 4 5 6 
#
# 1 148.7444 46.9775 39.3081 0.0000 41.8366 0.0000
# 2 46.9775 127.6473 24.4799 0.0000 14.2069 0.0000
# 3 39.3081 24.4799 86.8730 0.0000 32.2135 0.0000
# 4 0.0000 0.0000 0.0000 4.2096 0.0000 9.6890
# 5 41.8366 14.2069 32.2135 0.0000 20.2438 0.0000
# 6 0.0000 0.0000 0.0000 9.6890 0.0000 22.1161
#
#
#
# Elastic Compliance Matrix: (Units=1/GPa)
#
#
# Indices 1 2 3 4 5 6 
#
# 1 0.026095 -0.004228 0.020201 0.000019 -0.083105 -0.000008
# 2 -0.004228 0.009190 -0.003720 -0.000002 0.008208 0.000001
# 3 0.020201 -0.003720 0.043741 0.000029 -0.108741 -0.000013
# 4 0.000019 -0.000002 0.000029-28.524045 -0.000094 12.496268
# 5 -0.083105 0.008208 -0.108741 -0.000094 0.388421 0.000041
# 6 -0.000008 0.000001 -0.000013 12.496268 0.000041 -5.429348
#
#
# Mechanical properties :
#
#
# Convention : Reuss Voigt Hill
#
# Bulk Modulus (GPa) = 9.65902 64.97729 37.31815
# Shear Modulus (GPa) = -0.14936 26.14719 12.99892
#
# Velocity S-wave (km/s) = -0.27815 3.68026 2.59489
# Velocity P-wave (km/s) = 2.21365 7.19148 5.32060
#
# Compressibility (1/GPa) = 0.10353021
#
# Stress axis : x y z
#
# Youngs Moduli (GPa) = 38.32220 108.81380 22.86168
#
# Poissons Ratio (x) = 0.46007 -0.46182
# Poissons Ratio (y) = 0.16203 0.08505
# Poissons Ratio (z) = -0.77413 0.40482
#
# Static dielectric constant tensor:
#      x y z
#    x 1.616820 0.000000 -0.007890 
#    y 0.000000 1.745770 0.000000 
#    z -0.007890 0.000000 1.683090 
# 
# From -- ./inp_files/128522.got.cif
#   From: 2010.05.17/outbox.cif.g08.bks.cpg/sg12_65_cif.got.tgz:128522.got - 2010.06.03 13:09:07.
