data_PCOD9208583
_publ_section_title
;
Structure prediction by ZEFSAII (Michael W. Deem and Ramdas Pophale) SiO2 
 PCOD9208583
Probable space group: C 2/M
;
_chemical_formula_sum "Si O2"
_cell_formula_units_Z 64
_cell_length_a 25.163318
_cell_length_b 19.068372
_cell_length_c 15.867051
_cell_angle_alpha 90.000000
_cell_angle_beta 26.883636
_cell_angle_gamma 90.000000
_cell_volume 3442.619924
_symmetry_space_group_name_H-M "C 2/M"
_symmetry_group_IT_number 12
_symmetry_cell_setting 'monoclinic'
loop_
_space_group_symop_operation_xyz
x,y,z
-x,y,-z
-x,-y,-z
x,-y,z
1/2+x,1/2+y,z
1/2-x,1/2+y,-z
1/2-x,1/2-y,-z
1/2+x,1/2-y,z
loop_
_atom_site_type_symbol
_atom_site_label
_atom_site_fract_x
_atom_site_fract_y
_atom_site_fract_z
Si Si1 0.699977 0.918169 0.980280
Si Si2 0.135259 0.757609 0.781775
Si Si3 0.307703 0.817179 0.679508
Si Si4 0.754338 0.136679 0.506590
Si Si5 0.616425 0.667234 0.385305
Si Si6 0.071992 0.078336 0.609717
Si Si7 0.576454 0.081561 0.618484
Si Si8 0.796035 0.081283 0.033000
O O1 0.560733 0.908220 0.167285
O O2 0.727817 0.000000 0.921826
O O3 0.772589 0.866718 0.818206
O O4 0.739098 0.905974 0.021728
O O5 0.209220 0.783021 0.757943
O O6 0.163279 0.814589 0.669163
O O7 0.185361 0.685992 0.670658
O O8 0.000000 0.752665 0.000000
O O9 0.374464 0.750838 0.623604
O O10 0.387212 0.866326 0.507796
O O11 0.253148 0.865442 0.828956
O O12 0.840078 0.086118 0.436578
O O13 0.660056 0.099672 0.579249
O O14 0.500000 0.645327 0.500000
O O15 0.606002 0.635842 0.493079
O O16 0.936710 0.088763 0.827058
O O17 0.081497 0.000000 0.559481
O O18 0.592981 0.000000 0.571198
O O19 0.770568 0.000000 0.091924
#
# Coordination Sequence:
#
# PCOD9208583 Si02
#       8
#     8   8   8   8   8   8   8   8
#     4  10  23  42  62  88 121 160 200 246 301 352
#     4  10  21  38  58  86 126 158 191 244 303 350
#     4  11  24  39  61  91 123 158 198 246 301 356
#     4  10  21  38  61  89 118 157 201 242 295 357
#     4  12  25  40  60  90 124 158 200 246 303 354
#     4  11  22  40  64  90 119 155 204 252 296 351
#     4  10  23  42  63  88 122 159 199 246 298 357
#     4  10  22  40  64  89 118 159 203 247 297 355
#
# _framework density 18.590492000000001
#
# number of rings (size 3 to 8) (size 9 to 14) (size 15 to 20)
#    0.000    1.500    2.500    1.875    3.500    2.000 
#    0.000    1.875    0.000    9.000    0.000    0.000 
#    0.000    0.000    0.000    0.000    0.000    0.000 
#
# Total GULP energy -178761.406894 kJ/mol
# GULP energy per Si atom -5586.293965 kJ/mol
# Density = 1.854818 g / cm^3
# Si number density = 18.590492 Si / 1000 Ang^3
#
#
#
# Elastic Constant Matrix: (Units=GPa)
#
#
# Indices 1 2 3 4 5 6 
#
# 1 77.9887 30.6987 36.9382 0.0002 -8.9931 0.0000
# 2 30.6987 99.0331 47.9452 0.0001 4.1181 -0.0001
# 3 36.9382 47.9452 83.1448 0.0002 -11.5378 -0.0001
# 4 0.0002 0.0001 0.0002 151.1041 0.0002 -0.9573
# 5 -8.9931 4.1181 -11.5378 0.0002 26.4180 0.0000
# 6 0.0000 -0.0001 -0.0001 -0.9573 0.0000 32.2808
#
#
#
# Elastic Compliance Matrix: (Units=1/GPa)
#
#
# Indices 1 2 3 4 5 6 
#
# 1 0.016910 -0.002808 -0.005359 0.000000 0.003854 0.000000
# 2 -0.002808 0.015456 -0.008657 0.000000 -0.007146 0.000000
# 3 -0.005359 -0.008657 0.020581 0.000000 0.008514 0.000000
# 4 0.000000 0.000000 0.000000 0.006619 0.000000 0.000196
# 5 0.003854 -0.007146 0.008514 0.000000 0.043997 0.000000
# 6 0.000000 0.000000 0.000000 0.000196 0.000000 0.030984
#
#
# Mechanical properties :
#
#
# Convention : Reuss Voigt Hill
#
# Bulk Modulus (GPa) = 51.81145 54.59231 53.20188
# Shear Modulus (GPa) = 28.63217 51.59956 40.11586
#
# Velocity S-wave (km/s) = 3.92873 5.27410 4.65033
# Velocity P-wave (km/s) = 6.96493 8.15584 7.58380
#
# Compressibility (1/GPa) = 0.01930075
#
# Stress axis : x y z
#
# Youngs Moduli (GPa) = 59.13647 64.69839 48.58761
#
# Poissons Ratio (x) = 0.18166 0.26036
# Poissons Ratio (y) = 0.16604 0.42063
# Poissons Ratio (z) = 0.31689 0.56010
#
# Static dielectric constant tensor:
#      x y z
#    x 1.639550 0.000000 -0.007270 
#    y 0.000000 1.631530 0.000000 
#    z -0.007270 0.000000 1.600750 
# 
# From -- ./inp_files/241450.got.cif
#   From: 2010.05.17/outbox.cif.g08.bks.cpg/sg12_121_cif.got.tgz:241450.got - 2010.06.03 13:09:07.
