data_PCOD9208887
_publ_section_title
;
Structure prediction by ZEFSAII (Michael W. Deem and Ramdas Pophale) SiO2 
 PCOD9208887
Probable space group: C 2/M
;
_chemical_formula_sum "Si O2"
_cell_formula_units_Z 56
_cell_length_a 9.339099
_cell_length_b 23.591961
_cell_length_c 15.346001
_cell_angle_alpha 90.000000
_cell_angle_beta 63.793028
_cell_angle_gamma 90.000000
_cell_volume 3033.582101
_symmetry_space_group_name_H-M "C 2/M"
_symmetry_group_IT_number 12
_symmetry_cell_setting 'monoclinic'
loop_
_space_group_symop_operation_xyz
x,y,z
-x,y,-z
-x,-y,-z
x,-y,z
1/2+x,1/2+y,z
1/2-x,1/2+y,-z
1/2-x,1/2-y,-z
1/2+x,1/2-y,z
loop_
_atom_site_type_symbol
_atom_site_label
_atom_site_fract_x
_atom_site_fract_y
_atom_site_fract_z
Si Si1 0.371248 0.297047 0.428768
Si Si2 0.684132 0.347722 0.387877
Si Si3 0.131501 0.841345 0.762327
Si Si4 0.586438 0.433594 0.265377
Si Si5 0.067934 0.247918 0.075758
Si Si6 0.538034 0.846400 0.224023
Si Si7 0.555333 0.066202 0.891969
O O1 0.250000 0.250000 0.500000
O O2 0.565153 0.295703 0.390210
O O3 0.334097 0.350276 0.503039
O O4 0.346983 0.306501 0.333556
O O5 0.624396 0.400356 0.345441
O O6 0.870668 0.339949 0.319284
O O7 0.303725 0.848183 0.760380
O O8 0.047322 0.899153 0.751927
O O9 0.013380 0.808382 0.861037
O O10 0.550364 0.500000 0.287500
O O11 0.754044 0.428698 0.168699
O O12 0.043289 0.294287 0.156380
O O13 0.250000 0.250000 0.000000
O O14 0.000000 0.261993 0.000000
O O15 0.523765 0.901432 0.166877
O O16 0.513315 0.000000 0.899308
O O17 0.500000 0.089344 0.000000
#
# Coordination Sequence:
#
# PCOD9208887 Si02
#       7
#     8   8   8   8   8   8   8
#     4  10  21  38  60  85 121 154 195 243 291 350
#     4   9  21  38  60  89 117 160 200 243 299 366
#     4  11  25  39  57  91 120 153 206 248 303 364
#     4   9  20  40  64  86 120 158 203 259 306 361
#     4  12  26  40  58  83 120 166 202 242 303 365
#     4  11  23  38  59  86 123 157 197 246 301 365
#     4   9  19  36  61  88 113 154 205 249 298 357
#
# _framework density 18.460024000000001
#
# number of rings (size 3 to 8) (size 9 to 14) (size 15 to 20)
#    0.000    1.857    1.429    1.286    8.000    8.000 
#    0.000    5.714    0.000    3.000    0.000   13.000 
#    0.000    0.000    0.000    0.000    0.000    0.000 
#
# Total GULP energy -155976.652985 kJ/mol
# GULP energy per Si atom -5570.594749 kJ/mol
# Density = 1.841801 g / cm^3
# Si number density = 18.460024 Si / 1000 Ang^3
#
#
#
# Elastic Constant Matrix: (Units=GPa)
#
#
# Indices 1 2 3 4 5 6 
#
# 1 169.4404 54.3267 60.2950 0.0000 -2.8128 0.0000
# 2 54.3267 86.2496 31.7165 0.0000 -9.3545 0.0000
# 3 60.2950 31.7165 123.3236 0.0000 -9.6209 0.0000
# 4 0.0000 0.0000 0.0000 11.3310 0.0000 2.9084
# 5 -2.8128 -9.3545 -9.6209 0.0000 31.9309 0.0000
# 6 0.0000 0.0000 0.0000 2.9084 0.0000 17.4478
#
#
#
# Elastic Compliance Matrix: (Units=1/GPa)
#
#
# Indices 1 2 3 4 5 6 
#
# 1 0.008351 -0.004279 -0.003096 0.000000 -0.001451 0.000000
# 2 -0.004279 0.015252 -0.001547 0.000000 0.003625 0.000000
# 3 -0.003096 -0.001547 0.010203 0.000000 0.002348 0.000000
# 4 0.000000 0.000000 0.000000 0.092199 0.000000 -0.015369
# 5 -0.001451 0.003625 0.002348 0.000000 0.032959 0.000000
# 6 0.000000 0.000000 0.000000 -0.015369 0.000000 0.059876
#
#
# Mechanical properties :
#
#
# Convention : Reuss Voigt Hill
#
# Bulk Modulus (GPa) = 62.64996 74.63224 68.64110
# Shear Modulus (GPa) = 20.66064 27.65363 24.15713
#
# Velocity S-wave (km/s) = 3.34909 3.87464 3.62141
# Velocity P-wave (km/s) = 6.99765 7.78036 7.39936
#
# Compressibility (1/GPa) = 0.01596170
#
# Stress axis : x y z
#
# Youngs Moduli (GPa) = 119.74116 65.56566 98.00562
#
# Poissons Ratio (x) = 0.28057 0.30340
# Poissons Ratio (y) = 0.51241 0.15166
# Poissons Ratio (z) = 0.37069 0.10146
#
# Static dielectric constant tensor:
#      x y z
#    x 1.621830 0.000000 -0.004690 
#    y 0.000000 1.664670 0.000000 
#    z -0.004690 0.000000 1.629660 
# 
# From -- ./inp_files/198794.got.cif
#   From: 2010.05.17/outbox.cif.g08.bks.cpg/sg12_100_cif.got.tgz:198794.got - 2010.06.03 13:09:07.
