data_PCOD9208972
_publ_section_title
;
Structure prediction by ZEFSAII (Michael W. Deem and Ramdas Pophale) SiO2 
 PCOD9208972
Probable space group: C 2/M
;
_chemical_formula_sum "Si O2"
_cell_formula_units_Z 48
_cell_length_a 25.320887
_cell_length_b 8.693123
_cell_length_c 20.833590
_cell_angle_alpha 90.000000
_cell_angle_beta 144.296726
_cell_angle_gamma 90.000000
_cell_volume 2676.239147
_symmetry_space_group_name_H-M "C 2/M"
_symmetry_group_IT_number 12
_symmetry_cell_setting 'monoclinic'
loop_
_space_group_symop_operation_xyz
x,y,z
-x,y,-z
-x,-y,-z
x,-y,z
1/2+x,1/2+y,z
1/2-x,1/2+y,-z
1/2-x,1/2-y,-z
1/2+x,1/2-y,z
loop_
_atom_site_type_symbol
_atom_site_label
_atom_site_fract_x
_atom_site_fract_y
_atom_site_fract_z
Si Si1 0.063089 0.314724 0.502813
Si Si2 0.752323 0.684839 0.877278
Si Si3 0.052196 0.684396 0.117552
Si Si4 0.948804 0.185121 0.275575
Si Si5 0.737284 0.315122 0.255757
Si Si6 0.931025 0.815221 0.112379
O O1 0.059428 0.500000 0.497837
O O2 0.166472 0.269676 0.618557
O O3 0.000000 0.262082 0.500000
O O4 0.021675 0.252330 0.396317
O O5 0.759263 0.500000 0.885533
O O6 0.651905 0.730911 0.800567
O O7 0.767808 0.743811 0.820363
O O8 0.830013 0.755834 0.998320
O O9 0.057202 0.500000 0.125529
O O10 0.151926 0.755210 0.211324
O O11 0.995963 0.747165 0.122028
O O12 0.000000 0.726036 0.000000
O O13 0.960195 0.231495 0.212825
O O14 0.952897 0.000000 0.282657
O O15 0.734213 0.500000 0.247672
O O16 0.931574 0.000000 0.109060
#
# Coordination Sequence:
#
# PCOD9208972 Si02
#       6
#     8   8   8   8   8   8
#     4  10  21  38  60  88 118 152 196 240 285 343
#     4  11  21  35  57  88 122 154 190 236 291 346
#     4  11  23  39  60  87 117 150 196 243 289 345
#     4  10  23  39  58  87 121 157 195 237 289 348
#     4  11  22  37  60  89 118 151 194 240 287 341
#     4  11  23  39  59  86 119 156 197 238 290 349
#
# _framework density 17.935617000000001
#
# number of rings (size 3 to 8) (size 9 to 14) (size 15 to 20)
#    0.000    1.333    3.333    2.500    0.000    4.333 
#    0.000    0.833    0.000    0.000    0.000    0.000 
#    0.000    0.000    0.000    0.000    0.000    0.000 
#
# Total GULP energy -134148.878714 kJ/mol
# GULP energy per Si atom -5589.536613 kJ/mol
# Density = 1.789480 g / cm^3
# Si number density = 17.935617 Si / 1000 Ang^3
#
#
#
# Elastic Constant Matrix: (Units=GPa)
#
#
# Indices 1 2 3 4 5 6 
#
# 1 64.2756 18.4438 41.5412 0.0000 -3.5529 0.0000
# 2 18.4438 31.0481 27.3194 0.0000 0.9242 0.0000
# 3 41.5412 27.3194 142.2663 0.0000 -5.8948 0.0000
# 4 0.0000 0.0000 0.0000 33.7602 0.0000 -0.3068
# 5 -3.5529 0.9242 -5.8948 0.0000 36.9894 0.0000
# 6 0.0000 0.0000 0.0000 -0.3068 0.0000 20.5490
#
#
#
# Elastic Compliance Matrix: (Units=1/GPa)
#
#
# Indices 1 2 3 4 5 6 
#
# 1 0.020962 -0.008625 -0.004401 0.000000 0.001528 0.000000
# 2 -0.008625 0.042479 -0.005755 0.000000 -0.002807 0.000000
# 3 -0.004401 -0.005755 0.009470 0.000000 0.001230 0.000000
# 4 0.000000 0.000000 0.000000 0.029625 0.000000 0.000442
# 5 0.001528 -0.002807 0.001230 0.000000 0.027448 0.000000
# 6 0.000000 0.000000 0.000000 0.000442 0.000000 0.048671
#
#
# Mechanical properties :
#
#
# Convention : Reuss Voigt Hill
#
# Bulk Modulus (GPa) = 28.28954 45.79985 37.04469
# Shear Modulus (GPa) = 21.92980 28.27876 25.10428
#
# Velocity S-wave (km/s) = 3.50050 3.97505 3.74530
# Velocity P-wave (km/s) = 5.66966 6.83075 6.27711
#
# Compressibility (1/GPa) = 0.03534875
#
# Stress axis : x y z
#
# Youngs Moduli (GPa) = 47.70565 23.54092 105.59272
#
# Poissons Ratio (x) = 0.20304 0.46474
# Poissons Ratio (y) = 0.41146 0.60770
# Poissons Ratio (z) = 0.20996 0.13548
#
# Static dielectric constant tensor:
#      x y z
#    x 1.592750 0.000000 0.004760 
#    y 0.000000 1.604510 0.000000 
#    z 0.004760 0.000000 1.590810 
# 
# From -- ./inp_files/327304.got.cif
#   From: 2010.05.17/outbox.cif.g08.bks.cpg/sg12_164_cif.got.tgz:327304.got - 2010.06.03 13:09:07.
