data_PCOD9208243
_publ_section_title
;
Structure prediction by ZEFSAII (Michael W. Deem and Ramdas Pophale) SiO2 
 PCOD9208243
Probable space group: C 2/M
;
_chemical_formula_sum "Si O2"
_cell_formula_units_Z 48
_cell_length_a 28.319055
_cell_length_b 18.469622
_cell_length_c 10.022054
_cell_angle_alpha 90.000000
_cell_angle_beta 152.534046
_cell_angle_gamma 90.000000
_cell_volume 2417.703314
_symmetry_space_group_name_H-M "C 2/M"
_symmetry_group_IT_number 12
_symmetry_cell_setting 'monoclinic'
loop_
_space_group_symop_operation_xyz
x,y,z
-x,y,-z
-x,-y,-z
x,-y,z
1/2+x,1/2+y,z
1/2-x,1/2+y,-z
1/2-x,1/2-y,-z
1/2+x,1/2-y,z
loop_
_atom_site_type_symbol
_atom_site_label
_atom_site_fract_x
_atom_site_fract_y
_atom_site_fract_z
Si Si1 0.379569 0.085313 0.672899
Si Si2 0.729560 0.144684 0.858132
Si Si3 0.571249 0.581550 0.563138
Si Si4 0.899504 0.085185 0.657853
Si Si5 0.379366 0.780915 0.173753
Si Si6 0.778776 0.323249 0.651860
O O1 0.341303 0.124621 0.443240
O O2 0.322249 0.121007 0.653340
O O3 0.356837 0.000000 0.605884
O O4 0.500000 0.094387 0.000000
O O5 0.663602 0.162958 0.823425
O O6 0.812128 0.082744 0.096394
O O7 0.805442 0.211589 0.012755
O O8 0.500000 0.613378 0.500000
O O9 0.532055 0.500000 0.444195
O O10 0.572182 0.615017 0.418463
O O11 0.816667 0.137567 0.515876
O O12 0.864699 0.000000 0.559084
O O13 0.000000 0.084887 0.000000
O O14 0.500000 0.770503 0.500000
O O15 0.357939 0.805833 0.969090
O O16 0.750000 0.250000 0.500000
#
# Coordination Sequence:
#
# PCOD9208243 Si02
#       6
#     8   8   8   8   8   8
#     4  11  25  44  67  97 134 176 223 271 328 400
#     4  11  22  42  65  91 130 171 216 273 330 390
#     4  10  21  37  63  95 125 162 211 266 331 397
#     4  10  23  42  65  96 132 170 217 274 335 395
#     4  11  24  42  65  94 130 171 224 278 330 391
#     4  12  24  44  66  98 132 180 219 275 333 394
#
# _framework density 19.853553000000002
#
# number of rings (size 3 to 8) (size 9 to 14) (size 15 to 20)
#    0.000    1.167    3.333    2.500    2.333    2.000 
#    0.000    0.000    0.000    4.000    0.000    0.000 
#    0.000    0.000    0.000    0.000    0.000    0.000 
#
# Total GULP energy -134029.997820 kJ/mol
# GULP energy per Si atom -5584.583243 kJ/mol
# Density = 1.980837 g / cm^3
# Si number density = 19.853553 Si / 1000 Ang^3
#
#
#
# Elastic Constant Matrix: (Units=GPa)
#
#
# Indices 1 2 3 4 5 6 
#
# 1 168.9949 62.2415 67.7917 0.0000 -17.6542 0.0000
# 2 62.2415 73.6350 50.2412 0.0000 5.2270 0.0000
# 3 67.7917 50.2412 145.4955 0.0000 -20.5916 0.0000
# 4 0.0000 0.0000 0.0000 28.4463 0.0000 -12.0203
# 5 -17.6542 5.2270 -20.5916 0.0000 38.1814 0.0000
# 6 0.0000 0.0000 0.0000 -12.0203 0.0000 -0.9624
#
#
#
# Elastic Compliance Matrix: (Units=1/GPa)
#
#
# Indices 1 2 3 4 5 6 
#
# 1 0.009786 -0.007843 -0.001147 0.000000 0.004980 0.000000
# 2 -0.007843 0.025528 -0.006678 0.000000 -0.010723 0.000000
# 3 -0.001147 -0.006678 0.010575 0.000000 0.006087 0.000000
# 4 0.000000 0.000000 0.000000 0.005600 0.000000 -0.069940
# 5 0.004980 -0.010723 0.006087 0.000000 0.033244 0.000000
# 6 0.000000 0.000000 0.000000 -0.069940 0.000000 -0.165515
#
#
# Mechanical properties :
#
#
# Convention : Reuss Voigt Hill
#
# Bulk Modulus (GPa) = 68.71447 83.18602 75.95025
# Shear Modulus (GPa) = -112.11972 26.98978 -42.56497
#
# Velocity S-wave (km/s) = -7.52303 3.69106 -4.63530
# Velocity P-wave (km/s) = 6.38557 7.75603 3.11292
#
# Compressibility (1/GPa) = 0.01455298
#
# Stress axis : x y z
#
# Youngs Moduli (GPa) = 102.18416 39.17292 94.56407
#
# Poissons Ratio (x) = 0.30724 0.10842
# Poissons Ratio (y) = 0.80146 0.63151
# Poissons Ratio (z) = 0.11716 0.26160
#
# Static dielectric constant tensor:
#      x y z
#    x 1.682000 0.000000 -0.007090 
#    y 0.000000 1.742490 0.000000 
#    z -0.007090 0.000000 1.672930 
# 
# From -- ./inp_files/106584.got.cif
#   From: 2010.05.17/outbox.cif.g08.bks.cpg/sg12_54_cif.got.tgz:106584.got - 2010.06.03 13:09:07.
