data_PCOD9208135
_publ_section_title
;
Structure prediction by ZEFSAII (Michael W. Deem and Ramdas Pophale) SiO2 
 PCOD9208135
Probable space group: C 2/M
;
_chemical_formula_sum "Si O2"
_cell_formula_units_Z 40
_cell_length_a 23.669655
_cell_length_b 17.776138
_cell_length_c 8.421901
_cell_angle_alpha 90.000000
_cell_angle_beta 31.709491
_cell_angle_gamma 90.000000
_cell_volume 1862.538351
_symmetry_space_group_name_H-M "C 2/M"
_symmetry_group_IT_number 12
_symmetry_cell_setting 'monoclinic'
loop_
_space_group_symop_operation_xyz
x,y,z
-x,y,-z
-x,-y,-z
x,-y,z
1/2+x,1/2+y,z
1/2-x,1/2+y,-z
1/2-x,1/2-y,-z
1/2+x,1/2-y,z
loop_
_atom_site_type_symbol
_atom_site_label
_atom_site_fract_x
_atom_site_fract_y
_atom_site_fract_z
Si Si1 0.291008 0.641053 0.780290
Si Si2 0.662068 0.641509 0.691386
Si Si3 0.103505 0.731476 0.349454
Si Si4 0.552091 0.500000 0.118099
Si Si5 0.116255 0.309913 0.686417
Si Si6 0.673334 0.500000 0.157517
O O1 0.311636 0.618919 0.552035
O O2 0.392037 0.679207 0.627419
O O3 0.257359 0.572097 0.967133
O O4 0.200620 0.704732 0.005823
O O5 0.774729 0.649347 0.517362
O O6 0.617759 0.727492 0.773421
O O7 0.584603 0.577223 0.948316
O O8 0.115757 0.700029 0.497643
O O9 0.000000 0.709389 0.500000
O O10 0.626243 0.500000 0.096579
O O11 0.429522 0.500000 0.474964
O O12 0.000000 0.345674 0.000000
#
# Coordination Sequence:
#
# PCOD9208135 Si02
#       6
#     8   8   8   4   8   4
#     4  10  22  39  59  89 121 160 201 248 296 358
#     4  10  22  39  60  88 123 158 202 249 295 358
#     4  10  21  37  63  88 122 158 202 248 297 354
#     4  11  25  39  62  87 125 161 198 247 303 359
#     4  10  21  37  62  89 120 159 202 248 297 352
#     4  11  25  39  60  89 124 162 197 246 304 358
#
# _framework density 21.476067
#
# number of rings (size 3 to 8) (size 9 to 14) (size 15 to 20)
#    0.000    1.800    0.000    3.000    8.400    4.000 
#    0.000    1.000    0.000    0.000    0.000    0.000 
#    0.000    0.000    0.000    0.000    0.000    0.000 
#
# Total GULP energy -111617.694705 kJ/mol
# GULP energy per Si atom -5580.884735 kJ/mol
# Density = 2.142719 g / cm^3
# Si number density = 21.476067 Si / 1000 Ang^3
#
#
#
# Elastic Constant Matrix: (Units=GPa)
#
#
# Indices 1 2 3 4 5 6 
#
# 1 131.4318 21.9961 34.7388 0.0000 -1.9333 0.0000
# 2 21.9961 58.6639 6.5974 0.0000 13.1406 0.0000
# 3 34.7388 6.5974 82.9498 0.0000 4.7031 0.0000
# 4 0.0000 0.0000 0.0000 23.9097 0.0000 7.1952
# 5 -1.9333 13.1406 4.7031 0.0000 39.3960 0.0000
# 6 0.0000 0.0000 0.0000 7.1952 0.0000 20.8761
#
#
#
# Elastic Compliance Matrix: (Units=1/GPa)
#
#
# Indices 1 2 3 4 5 6 
#
# 1 0.009199 -0.003495 -0.003691 0.000000 0.002058 0.000000
# 2 -0.003495 0.019855 0.000272 0.000000 -0.006827 0.000000
# 3 -0.003691 0.000272 0.013688 0.000000 -0.001906 0.000000
# 4 0.000000 0.000000 0.000000 0.046664 0.000000 -0.016083
# 5 0.002058 -0.006827 -0.001906 0.000000 0.027989 0.000000
# 6 0.000000 0.000000 0.000000 -0.016083 0.000000 0.053445
#
#
# Mechanical properties :
#
#
# Convention : Reuss Voigt Hill
#
# Bulk Modulus (GPa) = 34.58666 44.41222 39.49944
# Shear Modulus (GPa) = 25.73236 30.81723 28.27480
#
# Velocity S-wave (km/s) = 3.46524 3.79219 3.63240
# Velocity P-wave (km/s) = 5.67012 6.31657 6.00205
#
# Compressibility (1/GPa) = 0.02891289
#
# Stress axis : x y z
#
# Youngs Moduli (GPa) = 108.70303 50.36412 73.05754
#
# Poissons Ratio (x) = 0.17603 0.26968
# Poissons Ratio (y) = 0.37993 -0.01984
# Poissons Ratio (z) = 0.40126 -0.01368
#
# Static dielectric constant tensor:
#      x y z
#    x 1.755470 0.000000 -0.019100 
#    y 0.000000 1.821270 0.000000 
#    z -0.019100 0.000000 1.836190 
# 
# From -- ./inp_files/98305.got.cif
#   From: 2010.05.17/outbox.cif.g08.bks.cpg/sg12_50_cif.got.tgz:98305.got - 2010.06.03 13:09:07.
