data_PCOD9208789
_publ_section_title
;
Structure prediction by ZEFSAII (Michael W. Deem and Ramdas Pophale) SiO2 
 PCOD9208789
Probable space group: C 2/M
;
_chemical_formula_sum "Si O2"
_cell_formula_units_Z 56
_cell_length_a 24.236890
_cell_length_b 21.420698
_cell_length_c 17.992532
_cell_angle_alpha 90.000000
_cell_angle_beta 17.869841
_cell_angle_gamma 90.000000
_cell_volume 2866.401099
_symmetry_space_group_name_H-M "C 2/M"
_symmetry_group_IT_number 12
_symmetry_cell_setting 'monoclinic'
loop_
_space_group_symop_operation_xyz
x,y,z
-x,y,-z
-x,-y,-z
x,-y,z
1/2+x,1/2+y,z
1/2-x,1/2+y,-z
1/2-x,1/2-y,-z
1/2+x,1/2-y,z
loop_
_atom_site_type_symbol
_atom_site_label
_atom_site_fract_x
_atom_site_fract_y
_atom_site_fract_z
Si Si1 0.539548 0.785346 0.608469
Si Si2 0.776674 0.179820 0.433150
Si Si3 0.896793 0.071796 0.382001
Si Si4 0.203247 0.163805 0.217266
Si Si5 0.164451 0.162273 0.093509
Si Si6 0.324095 0.929078 0.185781
Si Si7 0.392509 0.265186 0.064498
O O1 0.622417 0.825665 0.569083
O O2 0.489351 0.716228 0.704397
O O3 0.697959 0.783865 0.345440
O O4 0.348339 0.809950 0.825216
O O5 0.750000 0.250000 0.500000
O O6 0.780312 0.121326 0.483808
O O7 0.972560 0.183757 0.142131
O O8 0.822743 0.071384 0.561074
O O9 0.090772 0.104087 0.142398
O O10 0.894715 0.000000 0.357916
O O11 0.204675 0.149188 0.128590
O O12 0.253258 0.106278 0.205457
O O13 0.346171 0.215816 0.059710
O O14 0.000000 0.183367 0.500000
O O15 0.369622 0.000000 0.106567
O O16 0.500000 0.901462 0.000000
O O17 0.500000 0.240587 0.000000
#
# Coordination Sequence:
#
# PCOD9208789 Si02
#       7
#     8   8   8   8   8   8   8
#     4  10  21  38  59  89 120 151 201 255 307 348
#     4  11  22  38  65  90 115 156 204 254 301 356
#     4  11  24  42  59  86 125 166 202 246 306 361
#     4  12  21  32  55  86 120 156 193 237 296 356
#     4  11  22  37  56  88 127 159 194 247 302 366
#     4  10  23  39  56  79 118 164 203 238 287 362
#     4  10  22  37  58  88 121 150 196 258 308 350
#
# _framework density 19.536693
#
# number of rings (size 3 to 8) (size 9 to 14) (size 15 to 20)
#    0.000    1.286    4.286    1.286    8.000    0.857 
#    0.000    0.714    0.000    5.571    0.000    0.000 
#    0.000    0.000    0.000    0.000    0.000    0.000 
#
# Total GULP energy -156292.575925 kJ/mol
# GULP energy per Si atom -5581.877712 kJ/mol
# Density = 1.949223 g / cm^3
# Si number density = 19.536693 Si / 1000 Ang^3
#
#
#
# Elastic Constant Matrix: (Units=GPa)
#
#
# Indices 1 2 3 4 5 6 
#
# 1 100.1774 43.8126 -0.7884 -0.0242 -12.3531 0.0280
# 2 43.8126 97.4413 10.4905 -0.0510 -6.8315 0.0541
# 3 -0.7884 10.4905 99.0619 -0.0423 0.2873 0.0610
# 4 -0.0242 -0.0510 -0.0423 15.2518 0.0396 -8.5785
# 5 -12.3531 -6.8315 0.2873 0.0396 24.6849 -0.0366
# 6 0.0280 0.0541 0.0610 -8.5785 -0.0366 15.2840
#
#
#
# Elastic Compliance Matrix: (Units=1/GPa)
#
#
# Indices 1 2 3 4 5 6 
#
# 1 0.013046 -0.005591 0.000681 -0.000009 0.004974 0.000000
# 2 -0.005591 0.012986 -0.001422 0.000019 0.000813 -0.000018
# 3 0.000681 -0.001422 0.010251 0.000006 -0.000172 -0.000034
# 4 -0.000009 0.000019 0.000006 0.095814 -0.000073 0.053778
# 5 0.004974 0.000813 -0.000172 -0.000073 0.043227 0.000051
# 6 0.000000 -0.000018 -0.000034 0.053778 0.000051 0.095612
#
#
# Mechanical properties :
#
#
# Convention : Reuss Voigt Hill
#
# Bulk Modulus (GPa) = 42.33482 44.85666 43.59574
# Shear Modulus (GPa) = 17.15428 27.25521 22.20474
#
# Velocity S-wave (km/s) = 2.96641 3.73913 3.37496
# Velocity P-wave (km/s) = 5.78353 6.45380 6.12783
#
# Compressibility (1/GPa) = 0.02362122
#
# Stress axis : x y z
#
# Youngs Moduli (GPa) = 76.65193 77.00381 97.54917
#
# Poissons Ratio (x) = 0.43049 -0.06647
# Poissons Ratio (y) = 0.42853 0.13872
# Poissons Ratio (z) = -0.05223 0.10950
#
# Static dielectric constant tensor:
#      x y z
#    x 1.719280 -0.000020 0.004500 
#    y -0.000020 1.697990 0.000010 
#    z 0.004500 0.000010 1.736420 
# 
# From -- ./inp_files/290808.got.cif
#   From: 2010.05.17/outbox.cif.g08.bks.cpg/sg12_146_cif.got.tgz:290808.got - 2010.06.03 13:09:07.
