data_PCOD9208136
_publ_section_title
;
Structure prediction by ZEFSAII (Michael W. Deem and Ramdas Pophale) SiO2 
 PCOD9208136
Probable space group: C 2/M
;
_chemical_formula_sum "Si O2"
_cell_formula_units_Z 56
_cell_length_a 9.002362
_cell_length_b 22.894141
_cell_length_c 16.480111
_cell_angle_alpha 90.000000
_cell_angle_beta 127.801242
_cell_angle_gamma 90.000000
_cell_volume 2683.774087
_symmetry_space_group_name_H-M "C 2/M"
_symmetry_group_IT_number 12
_symmetry_cell_setting 'monoclinic'
loop_
_space_group_symop_operation_xyz
x,y,z
-x,y,-z
-x,-y,-z
x,-y,z
1/2+x,1/2+y,z
1/2-x,1/2+y,-z
1/2-x,1/2-y,-z
1/2+x,1/2-y,z
loop_
_atom_site_type_symbol
_atom_site_label
_atom_site_fract_x
_atom_site_fract_y
_atom_site_fract_z
Si Si1 0.339210 0.068948 0.205368
Si Si2 0.543405 0.236446 0.329638
Si Si3 0.347544 0.669954 0.519852
Si Si4 0.515454 0.344294 0.913626
Si Si5 0.398973 0.069149 0.550354
Si Si6 0.128845 0.731126 0.186583
Si Si7 0.435400 0.885318 0.062525
O O1 0.154135 0.109604 0.152983
O O2 0.473931 0.080927 0.327317
O O3 0.438393 0.083774 0.151982
O O4 0.290360 0.000000 0.189356
O O5 0.585075 0.302153 0.373214
O O6 0.641791 0.199187 0.433338
O O7 0.325067 0.236386 0.234830
O O8 0.647400 0.212589 0.285806
O O9 0.500000 0.682475 0.500000
O O10 0.297706 0.602504 0.508423
O O11 0.511437 0.286099 0.859391
O O12 0.500000 0.320514 0.000000
O O13 0.715780 0.373825 0.974436
O O14 0.500000 0.087301 0.500000
O O15 0.371498 0.000000 0.537162
O O16 0.051490 0.675934 0.111583
O O17 0.500000 0.914904 0.000000
#
# Coordination Sequence:
#
# PCOD9208136 Si02
#       7
#     8   8   8   8   8   8   8
#     4  10  23  44  67  92 124 167 219 261 313 382
#     4  11  24  35  57  90 122 172 202 257 315 374
#     4  11  23  40  57  89 131 159 216 262 313 386
#     4  10  21  37  62  89 120 168 207 258 312 364
#     4  10  23  43  69  95 123 164 210 265 322 380
#     4  12  21  38  59  88 130 163 211 252 320 385
#     4  11  23  39  61  95 131 166 209 262 320 376
#
# _framework density 20.866137999999999
#
# number of rings (size 3 to 8) (size 9 to 14) (size 15 to 20)
#    0.000    1.286    1.429    5.143    4.000    3.143 
#    0.000    0.000    0.000    0.000    0.000    0.000 
#    0.000    0.000    0.000    0.000    0.000    0.000 
#
# Total GULP energy -156086.049104 kJ/mol
# GULP energy per Si atom -5574.501754 kJ/mol
# Density = 2.081865 g / cm^3
# Si number density = 20.866138 Si / 1000 Ang^3
#
#
#
# Elastic Constant Matrix: (Units=GPa)
#
#
# Indices 1 2 3 4 5 6 
#
# 1 62.2532 -1.0850 21.8107 0.0000 -7.0007 0.0000
# 2 -1.0850 66.5057 35.7537 0.0000 5.4100 0.0000
# 3 21.8107 35.7537 79.7617 0.0000 -16.2181 0.0000
# 4 0.0000 0.0000 0.0000 29.0362 0.0000 -3.3039
# 5 -7.0007 5.4100 -16.2181 0.0000 31.0796 0.0000
# 6 0.0000 0.0000 0.0000 -3.3039 0.0000 25.4380
#
#
#
# Elastic Compliance Matrix: (Units=1/GPa)
#
#
# Indices 1 2 3 4 5 6 
#
# 1 0.018535 0.004019 -0.006895 0.000000 -0.000122 0.000000
# 2 0.004019 0.023247 -0.013602 0.000000 -0.010239 0.000000
# 3 -0.006895 -0.013602 0.023141 0.000000 0.012890 0.000000
# 4 0.000000 0.000000 0.000000 0.034956 0.000000 0.004540
# 5 -0.000122 -0.010239 0.012890 0.000000 0.040656 0.000000
# 6 0.000000 0.000000 0.000000 0.004540 0.000000 0.039901
#
#
# Mechanical properties :
#
#
# Convention : Reuss Voigt Hill
#
# Bulk Modulus (GPa) = 31.28099 35.71992 33.50045
# Shear Modulus (GPa) = 22.31670 27.24685 24.78177
#
# Velocity S-wave (km/s) = 3.27390 3.61750 3.44998
# Velocity P-wave (km/s) = 5.41433 5.88253 5.65328
#
# Compressibility (1/GPa) = 0.03196830
#
# Stress axis : x y z
#
# Youngs Moduli (GPa) = 53.95084 43.01632 43.21402
#
# Poissons Ratio (x) = -0.17289 0.29796
# Poissons Ratio (y) = -0.21683 0.58778
# Poissons Ratio (z) = 0.37199 0.58509
#
# Static dielectric constant tensor:
#      x y z
#    x 1.790350 0.000000 -0.025400 
#    y 0.000000 1.786390 0.000000 
#    z -0.025400 0.000000 1.816560 
# 
# From -- ./inp_files/259260.got.cif
#   From: 2010.05.17/outbox.cif.g08.bks.cpg/sg12_130_cif.got.tgz:259260.got - 2010.06.03 13:09:07.
