data_PCOD9208227
_publ_section_title
;
Structure prediction by ZEFSAII (Michael W. Deem and Ramdas Pophale) SiO2 
 PCOD9208227
Probable space group: C 2/M
;
_chemical_formula_sum "Si O2"
_cell_formula_units_Z 64
_cell_length_a 8.889666
_cell_length_b 22.516415
_cell_length_c 17.374222
_cell_angle_alpha 90.000000
_cell_angle_beta 76.315418
_cell_angle_gamma 90.000000
_cell_volume 3378.961863
_symmetry_space_group_name_H-M "C 2/M"
_symmetry_group_IT_number 12
_symmetry_cell_setting 'monoclinic'
loop_
_space_group_symop_operation_xyz
x,y,z
-x,y,-z
-x,-y,-z
x,-y,z
1/2+x,1/2+y,z
1/2-x,1/2+y,-z
1/2-x,1/2-y,-z
1/2+x,1/2-y,z
loop_
_atom_site_type_symbol
_atom_site_label
_atom_site_fract_x
_atom_site_fract_y
_atom_site_fract_z
Si Si1 0.166138 0.657803 0.448006
Si Si2 0.296068 0.622316 0.690656
Si Si3 0.605891 0.429816 0.159940
Si Si4 0.318322 0.437259 0.537991
Si Si5 0.518852 0.279226 0.591210
Si Si6 0.549155 0.155058 0.309352
Si Si7 0.169998 0.428406 0.003544
Si Si8 0.759861 0.428951 0.826338
O O1 0.235091 0.615705 0.504756
O O2 0.297482 0.707831 0.418612
O O3 0.121964 0.623012 0.376018
O O4 0.000000 0.677883 0.500000
O O5 0.337601 0.604677 0.771657
O O6 0.298915 0.567572 0.631393
O O7 0.421676 0.667570 0.640933
O O8 0.123952 0.646884 0.700041
O O9 0.638867 0.500000 0.167256
O O10 0.700389 0.408917 0.073280
O O11 0.422472 0.424241 0.169619
O O12 0.500000 0.434145 0.500000
O O13 0.257371 0.500000 0.516140
O O14 0.500000 0.286037 0.500000
O O15 0.462684 0.221659 0.649050
O O16 0.652283 0.123186 0.231183
O O17 0.165950 0.500000 0.998283
O O18 0.210260 0.416562 0.087096
O O19 0.000000 0.405997 0.000000
O O20 0.804236 0.500000 0.806420
#
# Coordination Sequence:
#
# PCOD9208227 Si02
#       8
#     8   8   8   8   8   8   8   8
#     4  12  22  42  60  89 116 157 209 262 315 362
#     4  12  22  41  59  87 121 162 205 253 308 360
#     4  10  21  37  63  93 127 166 203 244 299 371
#     4  11  23  40  59  82 120 166 203 244 304 375
#     4  12  24  44  66  84 116 158 215 268 312 366
#     4  12  26  37  61  89 115 157 206 263 313 358
#     4   9  17  34  62  94 126 163 200 242 298 368
#     4  10  22  40  61  92 130 161 200 250 307 375
#
# _framework density 18.940728
#
# number of rings (size 3 to 8) (size 9 to 14) (size 15 to 20)
#    0.000    1.000    3.750    3.375    0.000    5.750 
#    0.000    1.250    0.000    0.750    0.000    1.750 
#    0.000    0.000    0.000    0.000    0.000    0.000 
#
# Total GULP energy -178154.964405 kJ/mol
# GULP energy per Si atom -5567.342638 kJ/mol
# Density = 1.889762 g / cm^3
# Si number density = 18.940728 Si / 1000 Ang^3
#
#
#
# Elastic Constant Matrix: (Units=GPa)
#
#
# Indices 1 2 3 4 5 6 
#
# 1 133.7085 40.1265 66.8339 0.0000 4.5029 0.0000
# 2 40.1265 85.6080 54.1458 0.0000 -7.5892 0.0000
# 3 66.8339 54.1458 161.7000 0.0000 8.5221 0.0000
# 4 0.0000 0.0000 0.0000 30.3055 0.0000 -3.1804
# 5 4.5029 -7.5892 8.5221 0.0000 41.0651 0.0000
# 6 0.0000 0.0000 0.0000 -3.1804 0.0000 11.3818
#
#
#
# Elastic Compliance Matrix: (Units=1/GPa)
#
#
# Indices 1 2 3 4 5 6 
#
# 1 0.009895 -0.002749 -0.003120 0.000000 -0.000946 0.000000
# 2 -0.002749 0.016198 -0.004511 0.000000 0.004231 0.000000
# 3 -0.003120 -0.004511 0.009110 0.000000 -0.002382 0.000000
# 4 0.000000 0.000000 0.000000 0.033994 0.000000 0.009499
# 5 -0.000946 0.004231 -0.002382 0.000000 0.025732 0.000000
# 6 0.000000 0.000000 0.000000 0.009499 0.000000 0.090514
#
#
# Mechanical properties :
#
#
# Convention : Reuss Voigt Hill
#
# Bulk Modulus (GPa) = 69.23185 78.13655 73.68420
# Shear Modulus (GPa) = 23.69501 31.21114 27.45307
#
# Velocity S-wave (km/s) = 3.54080 4.06375 3.81126
# Velocity P-wave (km/s) = 7.30394 7.96000 7.63901
#
# Compressibility (1/GPa) = 0.01444422
#
# Stress axis : x y z
#
# Youngs Moduli (GPa) = 101.06095 61.73755 109.77411
#
# Poissons Ratio (x) = 0.16970 0.34244
# Poissons Ratio (y) = 0.27780 0.49515
# Poissons Ratio (z) = 0.31526 0.27848
#
# Static dielectric constant tensor:
#      x y z
#    x 1.713940 0.000000 -0.002350 
#    y 0.000000 1.730470 0.000000 
#    z -0.002350 0.000000 1.678220 
# 
# From -- ./inp_files/199767.got.cif
#   From: 2010.05.17/outbox.cif.g08.bks.cpg/sg12_100_cif.got.tgz:199767.got - 2010.06.03 13:09:07.
