data_PCOD9208078
_publ_section_title
;
Structure prediction by ZEFSAII (Michael W. Deem and Ramdas Pophale) SiO2 
 PCOD9208078
Probable space group: C 2/M
;
_chemical_formula_sum "Si O2"
_cell_formula_units_Z 56
_cell_length_a 11.242222
_cell_length_b 19.328783
_cell_length_c 12.917956
_cell_angle_alpha 90.000000
_cell_angle_beta 91.551510
_cell_angle_gamma 90.000000
_cell_volume 2806.022967
_symmetry_space_group_name_H-M "C 2/M"
_symmetry_group_IT_number 12
_symmetry_cell_setting 'monoclinic'
loop_
_space_group_symop_operation_xyz
x,y,z
-x,y,-z
-x,-y,-z
x,-y,z
1/2+x,1/2+y,z
1/2-x,1/2+y,-z
1/2-x,1/2-y,-z
1/2+x,1/2-y,z
loop_
_atom_site_type_symbol
_atom_site_label
_atom_site_fract_x
_atom_site_fract_y
_atom_site_fract_z
Si Si1 0.793498 0.174973 0.957075
Si Si2 0.626955 0.231033 0.439878
Si Si3 0.100460 0.573412 0.182915
Si Si4 0.372697 0.580136 0.150983
Si Si5 0.047014 0.693426 0.898004
Si Si6 0.905469 0.425457 0.590134
Si Si7 0.963166 0.191807 0.764531
O O1 0.664629 0.148550 0.916405
O O2 0.869655 0.184175 0.855799
O O3 0.750000 0.250000 0.000000
O O4 0.853375 0.126032 0.045250
O O5 0.500000 0.234141 0.500000
O O6 0.750000 0.250000 0.500000
O O7 0.650561 0.150336 0.413640
O O8 0.600673 0.279901 0.339657
O O9 0.075635 0.500000 0.129486
O O10 0.242197 0.578160 0.199257
O O11 0.039504 0.573316 0.293665
O O12 0.058037 0.640338 0.124604
O O13 0.407120 0.500000 0.130225
O O14 0.462805 0.620689 0.228557
O O15 0.053732 0.747720 0.805283
O O16 0.000000 0.732087 0.000000
O O17 0.838561 0.500000 0.580423
O O18 0.000000 0.426000 0.500000
#
# Coordination Sequence:
#
# PCOD9208078 Si02
#       7
#     8   8   8   8   8   8   8
#     4  12  23  37  61  96 130 172 216 260 319 392
#     4  11  27  44  69 101 131 170 223 288 337 392
#     4  10  21  37  61  92 128 169 209 260 322 379
#     4  11  24  42  65  96 135 179 217 261 324 399
#     4  12  21  35  61  92 127 165 212 262 311 385
#     4   9  19  38  64  92 124 167 216 269 331 390
#     4  12  25  41  66  89 130 172 218 266 328 397
#
# _framework density 19.957070999999999
#
# number of rings (size 3 to 8) (size 9 to 14) (size 15 to 20)
#    0.000    1.000    5.714    0.429    4.000    2.000 
#    0.000    0.714    0.000    0.857    0.000    0.000 
#    0.000    0.000    0.000    0.000    0.000    0.000 
#
# Total GULP energy -155871.065460 kJ/mol
# GULP energy per Si atom -5566.823766 kJ/mol
# Density = 1.991165 g / cm^3
# Si number density = 19.957071 Si / 1000 Ang^3
#
#
#
# Elastic Constant Matrix: (Units=GPa)
#
#
# Indices 1 2 3 4 5 6 
#
# 1 73.2937 36.6442 31.0895 0.0000 14.9786 0.0000
# 2 36.6442 165.3340 42.4905 0.0000 23.6826 0.0000
# 3 31.0895 42.4905 102.0999 0.0000 7.5990 0.0000
# 4 0.0000 0.0000 0.0000 26.9799 0.0000 1.5260
# 5 14.9786 23.6826 7.5990 0.0000 34.4189 0.0000
# 6 0.0000 0.0000 0.0000 1.5260 0.0000 13.3716
#
#
#
# Elastic Compliance Matrix: (Units=1/GPa)
#
#
# Indices 1 2 3 4 5 6 
#
# 1 0.017486 -0.002073 -0.004068 0.000000 -0.005285 0.000000
# 2 -0.002073 0.007641 -0.002262 0.000000 -0.003856 0.000000
# 3 -0.004068 -0.002262 0.011923 0.000000 0.000695 0.000000
# 4 0.000000 0.000000 0.000000 0.037305 0.000000 -0.004257
# 5 -0.005285 -0.003856 0.000695 0.000000 0.033854 0.000000
# 6 0.000000 0.000000 0.000000 -0.004257 0.000000 0.075271
#
#
# Mechanical properties :
#
#
# Convention : Reuss Voigt Hill
#
# Bulk Modulus (GPa) = 49.39805 62.35288 55.87547
# Shear Modulus (GPa) = 24.15051 30.32099 27.23575
#
# Velocity S-wave (km/s) = 3.48246 3.90206 3.69822
# Velocity P-wave (km/s) = 6.40124 7.18420 6.80399
#
# Compressibility (1/GPa) = 0.02024371
#
# Stress axis : x y z
#
# Youngs Moduli (GPa) = 57.18875 130.86443 83.87289
#
# Poissons Ratio (x) = 0.27127 0.34123
# Poissons Ratio (y) = 0.11855 0.18971
# Poissons Ratio (z) = 0.23267 0.29600
#
# Static dielectric constant tensor:
#      x y z
#    x 1.867940 0.000000 -0.016410 
#    y 0.000000 1.780880 0.000000 
#    z -0.016410 0.000000 1.802870 
# 
# From -- ./inp_files/133217.got.cif
#   From: 2010.05.17/outbox.cif.g08.bks.cpg/sg12_67_cif.got.tgz:133217.got - 2010.06.03 13:09:07.
