data_PCOD9208608
_publ_section_title
;
Structure prediction by ZEFSAII (Michael W. Deem and Ramdas Pophale) SiO2 
 PCOD9208608
Probable space group: C 2/M
;
_chemical_formula_sum "Si O2"
_cell_formula_units_Z 48
_cell_length_a 33.100997
_cell_length_b 7.607206
_cell_length_c 7.556738
_cell_angle_alpha 90.000000
_cell_angle_beta 77.061870
_cell_angle_gamma 90.000000
_cell_volume 1854.524403
_symmetry_space_group_name_H-M "C 2/M"
_symmetry_group_IT_number 12
_symmetry_cell_setting 'monoclinic'
loop_
_space_group_symop_operation_xyz
x,y,z
-x,y,-z
-x,-y,-z
x,-y,z
1/2+x,1/2+y,z
1/2-x,1/2+y,-z
1/2-x,1/2-y,-z
1/2+x,1/2-y,z
loop_
_atom_site_type_symbol
_atom_site_label
_atom_site_fract_x
_atom_site_fract_y
_atom_site_fract_z
Si Si1 0.304982 0.794421 0.068581
Si Si2 0.344161 0.302167 0.378965
Si Si3 0.030932 0.786779 0.728019
Si Si4 0.561396 0.714417 0.064438
Si Si5 0.905864 0.214506 0.615239
Si Si6 0.214124 0.295973 0.287136
O O1 0.338684 0.771288 0.188528
O O2 0.262067 0.719266 0.187561
O O3 0.297918 0.000000 0.050211
O O4 0.310135 0.723642 0.863919
O O5 0.359278 0.500000 0.337255
O O6 0.372543 0.220497 0.505163
O O7 0.299876 0.301625 0.522777
O O8 0.050658 0.738624 0.522394
O O9 0.984426 0.733654 0.820187
O O10 0.029956 0.000000 0.731290
O O11 0.061011 0.729793 0.860521
O O12 0.563338 0.500000 0.061392
O O13 0.593143 0.777362 0.183575
O O14 0.902697 0.000000 0.624038
O O15 0.204863 0.500000 0.327941
#
# Coordination Sequence:
#
# PCOD9208608 Si02
#       6
#     8   8   8   8   8   8
#     4  10  21  38  59  79 100 130 170 214 256 300
#     4  11  22  33  49  76 110 143 170 203 251 307
#     4   8  13  22  37  56  81 119 165 206 242 284
#     4   8  13  22  37  56  81 119 165 206 242 284
#     4   9  17  26  37  59  93 131 164 195 239 295
#     4  10  21  38  59  79 100 130 170 214 256 300
#
# _framework density 25.882646000000001
#
# number of rings (size 3 to 8) (size 9 to 14) (size 15 to 20)
#    0.000    2.667    0.000    3.500    0.000    5.333 
#    0.000    3.333    0.000    0.000    0.000    0.000 
#    0.000   10.667    0.000   29.333    0.000   24.000 
#
# Total GULP energy -134103.599820 kJ/mol
# GULP energy per Si atom -5587.649992 kJ/mol
# Density = 2.582374 g / cm^3
# Si number density = 25.882646 Si / 1000 Ang^3
#
#
#
# Elastic Constant Matrix: (Units=GPa)
#
#
# Indices 1 2 3 4 5 6 
#
# 1 65.2953 -3.3901 30.1952 0.0000 23.9406 0.0000
# 2 -3.3901 66.6201 6.0040 0.0000 3.2474 0.0000
# 3 30.1952 6.0040 191.6683 0.0000 35.1912 0.0000
# 4 0.0000 0.0000 0.0000 9.1405 0.0000 12.6352
# 5 23.9406 3.2474 35.1912 0.0000 53.3078 0.0000
# 6 0.0000 0.0000 0.0000 12.6352 0.0000 -5.3285
#
#
#
# Elastic Compliance Matrix: (Units=1/GPa)
#
#
# Indices 1 2 3 4 5 6 
#
# 1 0.018900 0.001475 -0.001649 0.000000 -0.007490 0.000000
# 2 0.001475 0.015190 -0.000474 0.000000 -0.001275 0.000000
# 3 -0.001649 -0.000474 0.006089 0.000000 -0.003250 0.000000
# 4 0.000000 0.000000 0.000000 0.025574 0.000000 0.060643
# 5 -0.007490 -0.001275 -0.003250 0.000000 0.024346 0.000000
# 6 0.000000 0.000000 0.000000 0.060643 0.000000 -0.043870
#
#
# Mechanical properties :
#
#
# Convention : Reuss Voigt Hill
#
# Bulk Modulus (GPa) = 25.71719 43.24467 34.48093
# Shear Modulus (GPa) = 82.66430 30.80892 56.73661
#
# Velocity S-wave (km/s) = 5.65751 3.45386 4.68704
# Velocity P-wave (km/s) = 7.25495 5.71400 6.53009
#
# Compressibility (1/GPa) = 0.03888450
#
# Stress axis : x y z
#
# Youngs Moduli (GPa) = 52.90977 65.83086 164.23965
#
# Poissons Ratio (x) = -0.09713 0.27076
# Poissons Ratio (y) = -0.07806 0.07788
# Poissons Ratio (z) = 0.08723 0.03122
#
# Static dielectric constant tensor:
#      x y z
#    x 2.138240 0.000000 0.038640 
#    y 0.000000 1.807510 0.000000 
#    z 0.038640 0.000000 1.997960 
# 
# From -- ./inp_files/108554.got.cif
#   From: 2010.05.17/outbox.cif.g08.bks.cpg/sg12_55_cif.got.tgz:108554.got - 2010.06.03 13:09:07.
