data_PCOD9208255
_publ_section_title
;
Structure prediction by ZEFSAII (Michael W. Deem and Ramdas Pophale) SiO2 
 PCOD9208255
Probable space group: C 2/M
;
_chemical_formula_sum "Si O2"
_cell_formula_units_Z 52
_cell_length_a 19.732314
_cell_length_b 9.497198
_cell_length_c 13.485356
_cell_angle_alpha 90.000000
_cell_angle_beta 87.555379
_cell_angle_gamma 90.000000
_cell_volume 2524.878599
_symmetry_space_group_name_H-M "C 2/M"
_symmetry_group_IT_number 12
_symmetry_cell_setting 'monoclinic'
loop_
_space_group_symop_operation_xyz
x,y,z
-x,y,-z
-x,-y,-z
x,-y,z
1/2+x,1/2+y,z
1/2-x,1/2+y,-z
1/2-x,1/2-y,-z
1/2+x,1/2-y,z
loop_
_atom_site_type_symbol
_atom_site_label
_atom_site_fract_x
_atom_site_fract_y
_atom_site_fract_z
Si Si1 0.843443 0.833958 0.913844
Si Si2 0.250047 0.000000 0.450942
Si Si3 0.804509 0.292386 0.597198
Si Si4 0.477489 0.664039 0.391539
Si Si5 0.683345 0.164400 0.887046
Si Si6 0.840479 0.844213 0.296220
Si Si7 0.923520 0.662214 0.744455
O O1 0.765515 0.821609 0.879767
O O2 0.892610 0.750576 0.837289
O O3 0.859276 0.000000 0.919019
O O4 0.842801 0.758843 0.020714
O O5 0.199886 0.125393 0.414122
O O6 0.300330 0.122863 0.494941
O O7 0.734665 0.341704 0.654476
O O8 0.866845 0.333836 0.661605
O O9 0.500000 0.708754 0.500000
O O10 0.498451 0.500000 0.378631
O O11 0.397155 0.669378 0.377043
O O12 0.512329 0.759540 0.306505
O O13 0.655210 0.223770 0.785913
O O14 0.667822 0.000000 0.902638
O O15 0.850626 0.000000 0.249410
O O16 0.936726 0.500000 0.770882
#
# Coordination Sequence:
#
# PCOD9208255 Si02
#       7
#     8   4   8   8   8   8   8
#     4  10  21  38  64  95 128 165 204 254 314 380
#     4  10  24  36  56  92 122 158 206 268 312 366
#     4  11  23  38  62  90 120 159 211 261 315 368
#     4  10  26  44  64  86 125 174 218 256 309 372
#     4  10  21  37  63  97 129 161 201 260 320 371
#     4  11  22  40  62  91 124 166 210 258 308 378
#     4  12  24  40  62  94 127 164 206 263 314 372
#
# _framework density 20.595047999999998
#
# number of rings (size 3 to 8) (size 9 to 14) (size 15 to 20)
#    0.000    1.385    3.077    1.385    7.538    2.154 
#    0.000    0.769    0.000    4.615    0.000    0.000 
#    0.000    0.000    0.000    0.000    0.000    0.000 
#
# Total GULP energy -144815.821197 kJ/mol
# GULP energy per Si atom -5569.839277 kJ/mol
# Density = 2.054817 g / cm^3
# Si number density = 20.595048 Si / 1000 Ang^3
#
#
#
# Elastic Constant Matrix: (Units=GPa)
#
#
# Indices 1 2 3 4 5 6 
#
# 1 50.3474 18.0429 4.8022 0.0000 -8.2727 0.0000
# 2 18.0429 187.9705 32.3105 0.0000 -21.8440 0.0000
# 3 4.8022 32.3105 45.9927 0.0000 -1.8345 0.0000
# 4 0.0000 0.0000 0.0000-4811.0011 0.0000 2063.8552
# 5 -8.2727 -21.8440 -1.8345 0.0000 32.3218 0.0000
# 6 0.0000 0.0000 0.0000 2063.8552 0.0000 -852.9305
#
#
#
# Elastic Compliance Matrix: (Units=1/GPa)
#
#
# Indices 1 2 3 4 5 6 
#
# 1 0.021175 -0.001325 -0.001102 0.000000 0.004462 0.000000
# 2 -0.001325 0.006654 -0.004381 0.000000 0.003910 0.000000
# 3 -0.001102 -0.004381 0.024862 0.000000 -0.001832 0.000000
# 4 0.000000 0.000000 0.000000 0.005466 0.000000 0.013226
# 5 0.004462 0.003910 -0.001832 0.000000 0.034619 0.000000
# 6 0.000000 0.000000 0.000000 0.013226 0.000000 0.030830
#
#
# Mechanical properties :
#
#
# Convention : Reuss Voigt Hill
#
# Bulk Modulus (GPa) = 25.59092 43.84687 34.71889
# Shear Modulus (GPa) = 33.27849 -1111.04495 -538.88323
#
# Velocity S-wave (km/s) = 4.02412 -23.25173 -16.19335
# Velocity P-wave (km/s) = 5.83474 26.44846 18.24112
#
# Compressibility (1/GPa) = 0.03907636
#
# Stress axis : x y z
#
# Youngs Moduli (GPa) = 47.22559 150.27549 40.22190
#
# Poissons Ratio (x) = 0.19904 0.04434
# Poissons Ratio (y) = 0.06255 0.17620
# Poissons Ratio (z) = 0.05206 0.65830
#
# Static dielectric constant tensor:
#      x y z
#    x 1.732640 0.000000 -0.011370 
#    y 0.000000 1.748370 0.000000 
#    z -0.011370 0.000000 1.758260 
# 
# From -- ./inp_files/230264.got.cif
#   From: 2010.05.17/outbox.cif.g08.bks.cpg/sg12_116_cif.got.tgz:230264.got - 2010.06.03 13:09:07.
