data_PCOD9208269
_publ_section_title
;
Structure prediction by ZEFSAII (Michael W. Deem and Ramdas Pophale) SiO2 
 PCOD9208269
Probable space group: C 2/M
;
_chemical_formula_sum "Si O2"
_cell_formula_units_Z 56
_cell_length_a 12.047424
_cell_length_b 28.192041
_cell_length_c 13.580453
_cell_angle_alpha 90.000000
_cell_angle_beta 33.760315
_cell_angle_gamma 90.000000
_cell_volume 2563.249789
_symmetry_space_group_name_H-M "C 2/M"
_symmetry_group_IT_number 12
_symmetry_cell_setting 'monoclinic'
loop_
_space_group_symop_operation_xyz
x,y,z
-x,y,-z
-x,-y,-z
x,-y,z
1/2+x,1/2+y,z
1/2-x,1/2+y,-z
1/2-x,1/2-y,-z
1/2+x,1/2-y,z
loop_
_atom_site_type_symbol
_atom_site_label
_atom_site_fract_x
_atom_site_fract_y
_atom_site_fract_z
Si Si1 0.686468 0.000000 0.231908
Si Si2 0.068699 0.101017 0.710585
Si Si3 0.033446 0.243688 0.213553
Si Si4 0.470574 0.894146 0.663935
Si Si5 0.481425 0.500000 0.842448
Si Si6 0.129608 0.169870 0.815995
Si Si7 0.967672 0.657503 0.191483
Si Si8 0.679058 0.333270 0.232378
O O1 0.582351 0.051117 0.319528
O O2 0.851337 0.000000 0.195795
O O3 0.779801 0.000000 0.053838
O O4 0.303381 0.111263 0.538837
O O5 0.002280 0.126670 0.861049
O O6 0.975148 0.126972 0.687122
O O7 0.011913 0.046808 0.756969
O O8 0.079441 0.217618 0.282299
O O9 0.885875 0.209932 0.257755
O O10 0.953261 0.296612 0.272631
O O11 0.250000 0.250000 0.000000
O O12 0.323168 0.855457 0.721680
O O13 0.482221 0.885160 0.772619
O O14 0.000000 0.191239 0.000000
O O15 0.769408 0.657625 0.271914
O O16 0.142941 0.662900 0.980815
#
# Coordination Sequence:
#
# PCOD9208269 Si02
#       8
#     4   8   8   8   4   8   8   8
#     4  11  23  39  66  97 125 152 212 252 312 369
#     4  11  23  39  59  89 131 166 198 247 319 380
#     4   9  19  34  60  92 115 155 211 269 303 354
#     4  12  24  38  61  93 130 167 198 253 320 384
#     4  11  21  39  66  93 121 160 200 266 302 363
#     4  11  21  35  61  89 123 157 208 258 304 361
#     4  10  21  37  64  88 121 163 213 267 302 360
#     4   9  20  39  59  87 122 160 215 258 307 359
#
# _framework density 21.847266000000001
#
# number of rings (size 3 to 8) (size 9 to 14) (size 15 to 20)
#    0.000    1.571    1.429    5.143    6.000    1.143 
#    0.000    3.571    6.286    4.286    0.000    0.000 
#    0.000    0.000    0.000    0.000    0.000    0.000 
#
# Total GULP energy -156350.983713 kJ/mol
# GULP energy per Si atom -5583.963704 kJ/mol
# Density = 2.179754 g / cm^3
# Si number density = 21.847266 Si / 1000 Ang^3
#
#
#
# Elastic Constant Matrix: (Units=GPa)
#
#
# Indices 1 2 3 4 5 6 
#
# 1 130.1557 37.1134 25.7792 0.0000 -14.4361 0.0000
# 2 37.1134 105.0744 6.5888 0.0000 -13.8179 0.0000
# 3 25.7792 6.5888 46.5543 0.0000 -11.2172 0.0000
# 4 0.0000 0.0000 0.0000 32.5055 0.0000 2.6192
# 5 -14.4361 -13.8179 -11.2172 0.0000 30.3374 0.0000
# 6 0.0000 0.0000 0.0000 2.6192 0.0000 26.7191
#
#
#
# Elastic Compliance Matrix: (Units=1/GPa)
#
#
# Indices 1 2 3 4 5 6 
#
# 1 0.009576 -0.002893 -0.004515 0.000000 0.001570 0.000000
# 2 -0.002893 0.011003 0.001011 0.000000 0.004008 0.000000
# 3 -0.004515 0.001011 0.025722 0.000000 0.007823 0.000000
# 4 0.000000 0.000000 0.000000 0.031009 0.000000 -0.003040
# 5 0.001570 0.004008 0.007823 0.000000 0.038428 0.000000
# 6 0.000000 0.000000 0.000000 -0.003040 0.000000 0.037724
#
#
# Mechanical properties :
#
#
# Convention : Reuss Voigt Hill
#
# Bulk Modulus (GPa) = 29.84509 46.74967 38.29738
# Shear Modulus (GPa) = 28.18069 32.06593 30.12331
#
# Velocity S-wave (km/s) = 3.59541 3.83526 3.71727
# Velocity P-wave (km/s) = 5.56115 6.40758 5.99931
#
# Compressibility (1/GPa) = 0.03350635
#
# Stress axis : x y z
#
# Youngs Moduli (GPa) = 104.42303 90.88717 38.87668
#
# Poissons Ratio (x) = 0.26293 0.17554
# Poissons Ratio (y) = 0.30209 -0.03929
# Poissons Ratio (z) = 0.47149 -0.09185
#
# Static dielectric constant tensor:
#      x y z
#    x 1.803740 0.000000 -0.002370 
#    y 0.000000 1.795180 0.000000 
#    z -0.002370 0.000000 1.914900 
# 
# From -- ./inp_files/209148.got.cif
#   From: 2010.05.17/outbox.cif.g08.bks.cpg/sg12_105_cif.got.tgz:209148.got - 2010.06.03 13:09:07.
