data_PCOD9208220
_publ_section_title
;
Structure prediction by ZEFSAII (Michael W. Deem and Ramdas Pophale) SiO2 
 PCOD9208220
Probable space group: C 2/M
;
_chemical_formula_sum "Si O2"
_cell_formula_units_Z 56
_cell_length_a 23.685792
_cell_length_b 11.795273
_cell_length_c 25.590629
_cell_angle_alpha 90.000000
_cell_angle_beta 157.753073
_cell_angle_gamma 90.000000
_cell_volume 2706.800851
_symmetry_space_group_name_H-M "C 2/M"
_symmetry_group_IT_number 12
_symmetry_cell_setting 'monoclinic'
loop_
_space_group_symop_operation_xyz
x,y,z
-x,y,-z
-x,-y,-z
x,-y,z
1/2+x,1/2+y,z
1/2-x,1/2+y,-z
1/2-x,1/2-y,-z
1/2+x,1/2-y,z
loop_
_atom_site_type_symbol
_atom_site_label
_atom_site_fract_x
_atom_site_fract_y
_atom_site_fract_z
Si Si1 0.902779 0.118190 0.145531
Si Si2 0.313376 0.121852 0.687467
Si Si3 0.236521 0.794217 0.075856
Si Si4 0.282224 0.309374 0.582342
Si Si5 0.029460 0.872662 0.586982
Si Si6 0.479010 0.866804 0.042297
Si Si7 0.041244 0.371663 0.648818
O O1 0.839450 0.216731 0.127255
O O2 0.078158 0.110523 0.305513
O O3 0.828581 0.000000 0.098266
O O4 0.864121 0.138043 0.051629
O O5 0.356706 0.218958 0.685645
O O6 0.135850 0.117760 0.530910
O O7 0.377317 0.000000 0.726728
O O8 0.367844 0.142909 0.793118
O O9 0.136907 0.712444 0.026914
O O10 0.343940 0.866778 0.204673
O O11 0.250000 0.250000 0.500000
O O12 0.129232 0.356551 0.476193
O O13 0.080233 0.746536 0.650178
O O14 0.000000 0.866859 0.500000
O O15 0.102743 0.000000 0.659980
O O16 0.436405 0.000000 0.006962
O O17 0.500000 0.834223 0.000000
O O18 0.051920 0.500000 0.633807
#
# Coordination Sequence:
#
# PCOD9208220 Si02
#       7
#     8   8   8   8   8   8   8
#     4  11  23  40  63  87 120 163 209 260 316 380
#     4   9  19  36  57  86 122 155 204 264 316 370
#     4  11  23  41  60  90 126 160 209 260 322 378
#     4  11  21  41  59  89 121 166 210 251 314 385
#     4   9  20  38  63  90 120 160 209 263 313 366
#     4  10  21  37  63  92 122 164 214 266 321 381
#     4  11  24  40  62  92 129 165 204 258 316 380
#
# _framework density 20.68863
#
# number of rings (size 3 to 8) (size 9 to 14) (size 15 to 20)
#    0.000    1.714    2.857    1.286    2.000    2.571 
#    0.000    0.000    0.000    1.714    0.000    0.000 
#    0.000    0.000    0.000    0.000    0.000    0.000 
#
# Total GULP energy -155950.925822 kJ/mol
# GULP energy per Si atom -5569.675922 kJ/mol
# Density = 2.064154 g / cm^3
# Si number density = 20.688630 Si / 1000 Ang^3
#
#
#
# Elastic Constant Matrix: (Units=GPa)
#
#
# Indices 1 2 3 4 5 6 
#
# 1 49.7713 33.7152 0.6419 -0.0011 -13.3552 0.0003
# 2 33.7152 144.6867 33.0467 -0.0045 -19.2459 -0.0003
# 3 0.6419 33.0467 85.3558 -0.0043 -16.4445 -0.0006
# 4 -0.0011 -0.0045 -0.0043 15.3320 -0.0013 15.5220
# 5 -13.3552 -19.2459 -16.4445 -0.0013 28.7682 -0.0001
# 6 0.0003 -0.0003 -0.0006 15.5220 -0.0001 6.6704
#
#
#
# Elastic Compliance Matrix: (Units=1/GPa)
#
#
# Indices 1 2 3 4 5 6 
#
# 1 0.026884 -0.005747 0.004143 -0.000002 0.011004 0.000004
# 2 -0.005747 0.009202 -0.003200 -0.000001 0.001659 0.000002
# 3 0.004143 -0.003200 0.014476 -0.000002 0.008057 0.000006
# 4 -0.000002 -0.000001 -0.000002 -0.048105 -0.000005 0.111941
# 5 0.011004 0.001659 0.008057 -0.000005 0.045585 0.000012
# 6 0.000004 0.000002 0.000006 0.111941 0.000012 -0.110571
#
#
# Mechanical properties :
#
#
# Convention : Reuss Voigt Hill
#
# Bulk Modulus (GPa) = 24.41770 46.06904 35.24337
# Shear Modulus (GPa) = -127.32437 24.31479 -51.50479
#
# Velocity S-wave (km/s) = -7.85346 3.43194 -4.99492
# Velocity P-wave (km/s) = 8.39092 6.16607 4.02412
#
# Compressibility (1/GPa) = 0.04095390
#
# Stress axis : x y z
#
# Youngs Moduli (GPa) = 37.19643 108.66894 69.08143
#
# Poissons Ratio (x) = 0.62454 -0.28620
# Poissons Ratio (y) = 0.21377 0.22105
# Poissons Ratio (z) = -0.15410 0.34773
#
# Static dielectric constant tensor:
#      x y z
#    x 1.734560 0.000000 0.028360 
#    y 0.000000 1.778140 0.000000 
#    z 0.028360 0.000000 1.772240 
# 
# From -- ./inp_files/369414.got.cif
#   From: 2010.05.17/outbox.cif.g08.bks.cpg/sg12_185_cif.got.tgz:369414.got - 2010.06.03 13:09:07.
