data_PCOD9208222
_publ_section_title
;
Structure prediction by ZEFSAII (Michael W. Deem and Ramdas Pophale) SiO2 
 PCOD9208222
Probable space group: C 2/M
;
_chemical_formula_sum "Si O2"
_cell_formula_units_Z 58
_cell_length_a 17.228090
_cell_length_b 8.060398
_cell_length_c 23.046354
_cell_angle_alpha 90.000000
_cell_angle_beta 129.848299
_cell_angle_gamma 90.000000
_cell_volume 2457.039180
_symmetry_space_group_name_H-M "C 2/M"
_symmetry_group_IT_number 12
_symmetry_cell_setting 'monoclinic'
loop_
_space_group_symop_operation_xyz
x,y,z
-x,y,-z
-x,-y,-z
x,-y,z
1/2+x,1/2+y,z
1/2-x,1/2+y,-z
1/2-x,1/2-y,-z
1/2+x,1/2-y,z
loop_
_atom_site_type_symbol
_atom_site_label
_atom_site_fract_x
_atom_site_fract_y
_atom_site_fract_z
Si Si1 0.041983 0.310861 0.596196
Si Si2 0.177130 0.809267 0.516400
Si Si3 0.451839 0.194639 0.266575
Si Si4 0.128257 0.305661 0.182960
Si Si5 0.057230 0.803389 0.967769
Si Si6 0.165547 0.184098 0.325937
Si Si7 0.500000 0.500000 0.500000
Si Si8 0.756806 0.698236 0.879110
O O1 0.075879 0.500000 0.596872
O O2 0.919461 0.308313 0.535557
O O3 0.073424 0.275062 0.677682
O O4 0.061874 0.151434 0.565502
O O5 0.250000 0.750000 0.500000
O O6 0.252784 0.801465 0.606216
O O7 0.134520 0.000000 0.492186
O O8 0.554131 0.286473 0.298081
O O9 0.357721 0.242924 0.181271
O O10 0.472465 0.000000 0.270580
O O11 0.148706 0.500000 0.200919
O O12 0.160598 0.208284 0.255076
O O13 0.187748 0.245852 0.154154
O O14 0.008546 0.281470 0.113571
O O15 0.046254 0.000000 0.955873
O O16 0.173876 0.761029 0.034831
O O17 0.000000 0.750523 0.000000
O O18 0.198220 0.000000 0.357595
O O19 0.759116 0.500000 0.881522
#
# Coordination Sequence:
#
# PCOD9208222 Si02
#       8
#     8   8   8   8   8   8   2   8
#     4  11  25  45  67  96 128 171 218 268 326 392
#     4  12  23  41  67  94 122 164 219 267 320 382
#     4  11  24  42  64  90 126 168 212 261 321 387
#     4  10  21  39  61  92 128 162 207 261 312 370
#     4   9  17  33  59  89 123 163 207 251 306 371
#     4  12  25  40  64  93 126 164 213 268 321 380
#     4  12  26  44  68  94 132 168 208 270 334 378
#     4  10  21  37  63  92 125 166 209 253 312 384
#
# _framework density 23.605646
#
# number of rings (size 3 to 8) (size 9 to 14) (size 15 to 20)
#    0.000    1.241    2.069    4.345    1.931    4.414 
#    2.483    2.069    0.000    0.000    0.000    0.000 
#    0.000    0.000    0.000    0.000    0.000    0.000 
#
# Total GULP energy -162005.656399 kJ/mol
# GULP energy per Si atom -5586.401945 kJ/mol
# Density = 2.355192 g / cm^3
# Si number density = 23.605646 Si / 1000 Ang^3
#
#
#
# Elastic Constant Matrix: (Units=GPa)
#
#
# Indices 1 2 3 4 5 6 
#
# 1 56.7032 9.5548 15.4712 0.0000 21.7737 0.0000
# 2 9.5548 93.9167 -6.3075 0.0000 -0.5404 0.0000
# 3 15.4712 -6.3075 71.3895 0.0000 29.4175 0.0000
# 4 0.0000 0.0000 0.0000 30.5045 0.0000 2.4831
# 5 21.7737 -0.5404 29.4175 0.0000 33.1162 0.0000
# 6 0.0000 0.0000 0.0000 2.4831 0.0000 28.3846
#
#
#
# Elastic Compliance Matrix: (Units=1/GPa)
#
#
# Indices 1 2 3 4 5 6 
#
# 1 0.024328 -0.002458 0.001764 0.000000 -0.017603 0.000000
# 2 -0.002458 0.010983 0.001204 0.000000 0.000726 0.000000
# 3 0.001764 0.001204 0.022402 0.000000 -0.021040 0.000000
# 4 0.000000 0.000000 0.000000 0.033017 0.000000 -0.002888
# 5 -0.017603 0.000726 -0.021040 0.000000 0.060472 0.000000
# 6 0.000000 0.000000 0.000000 -0.002888 0.000000 0.035483
#
#
# Mechanical properties :
#
#
# Convention : Reuss Voigt Hill
#
# Bulk Modulus (GPa) = 17.02627 28.82737 22.92682
# Shear Modulus (GPa) = 24.36154 31.95380 28.15767
#
# Velocity S-wave (km/s) = 3.21599 3.68319 3.45749
# Velocity P-wave (km/s) = 4.58461 5.50694 5.06681
#
# Compressibility (1/GPa) = 0.05873277
#
# Stress axis : x y z
#
# Youngs Moduli (GPa) = 41.10522 91.05123 44.63962
#
# Poissons Ratio (x) = 0.22379 -0.07875
# Poissons Ratio (y) = 0.10103 -0.05374
# Poissons Ratio (z) = -0.07251 -0.10962
#
# Static dielectric constant tensor:
#      x y z
#    x 1.985900 0.000000 -0.050280 
#    y 0.000000 1.840340 0.000000 
#    z -0.050280 0.000000 1.864660 
# 
# From -- ./inp_files/346545.got.cif
#   From: 2010.05.17/outbox.cif.g08.bks.cpg/sg12_174_cif.got.tgz:346545.got - 2010.06.03 13:09:07.
