data_PCOD9208125
_publ_section_title
;
Structure prediction by ZEFSAII (Michael W. Deem and Ramdas Pophale) SiO2 
 PCOD9208125
Probable space group: C 2/M
;
_chemical_formula_sum "Si O2"
_cell_formula_units_Z 48
_cell_length_a 27.819194
_cell_length_b 20.766059
_cell_length_c 11.700774
_cell_angle_alpha 90.000000
_cell_angle_beta 162.135986
_cell_angle_gamma 90.000000
_cell_volume 2073.530218
_symmetry_space_group_name_H-M "C 2/M"
_symmetry_group_IT_number 12
_symmetry_cell_setting 'monoclinic'
loop_
_space_group_symop_operation_xyz
x,y,z
-x,y,-z
-x,-y,-z
x,-y,z
1/2+x,1/2+y,z
1/2-x,1/2+y,-z
1/2-x,1/2-y,-z
1/2+x,1/2-y,z
loop_
_atom_site_type_symbol
_atom_site_label
_atom_site_fract_x
_atom_site_fract_y
_atom_site_fract_z
Si Si1 0.120431 0.926533 0.880194
Si Si2 0.823766 0.569678 0.143838
Si Si3 0.763721 0.162439 0.659839
Si Si4 0.008122 0.272255 0.223936
Si Si5 0.232956 0.334255 0.168637
Si Si6 0.813043 0.073652 0.559623
O O1 0.000000 0.916100 0.500000
O O2 0.097137 0.000000 0.870137
O O3 0.289355 0.924657 0.199106
O O4 0.132955 0.875117 0.009382
O O5 0.753639 0.500000 0.950929
O O6 0.000000 0.567756 0.500000
O O7 0.756613 0.629830 0.926586
O O8 0.595701 0.181538 0.332482
O O9 0.747434 0.115100 0.516310
O O10 0.865752 0.226254 0.858111
O O11 0.149371 0.224630 0.571807
O O12 0.934658 0.308064 0.167050
O O13 0.279365 0.386563 0.369112
O O14 0.755257 0.000000 0.424066
O O15 0.000000 0.071924 0.000000
#
# Coordination Sequence:
#
# PCOD9208125 Si02
#       6
#     8   8   8   8   8   8
#     4  10  21  37  62  88 117 158 200 255 310 353
#     4  10  21  39  64  90 121 161 203 256 312 359
#     4  11  22  43  59  92 123 157 207 251 291 377
#     4  10  24  39  64  86 124 171 202 240 311 346
#     4  11  22  43  61  94 124 161 208 253 294 376
#     4  11  24  40  68  96 120 157 197 259 314 353
#
# _framework density 23.148925999999999
#
# number of rings (size 3 to 8) (size 9 to 14) (size 15 to 20)
#    0.000    1.500    1.667    3.000    0.000    4.667 
#    0.000   20.000    0.000    0.000    0.000    0.000 
#    0.000    0.000    0.000    0.000    0.000    0.000 
#
# Total GULP energy -134156.165792 kJ/mol
# GULP energy per Si atom -5589.840241 kJ/mol
# Density = 2.309624 g / cm^3
# Si number density = 23.148926 Si / 1000 Ang^3
#
#
#
# Elastic Constant Matrix: (Units=GPa)
#
#
# Indices 1 2 3 4 5 6 
#
# 1 61.4919 42.8729 20.1043 0.0000 22.2313 0.0000
# 2 42.8729 116.5305 20.0436 0.0000 4.2721 0.0000
# 3 20.1043 20.0436 59.3315 0.0000 24.1736 0.0000
# 4 0.0000 0.0000 0.0000 9.3009 0.0000 21.8813
# 5 22.2313 4.2721 24.1736 0.0000 43.0875 0.0000
# 6 0.0000 0.0000 0.0000 21.8813 0.0000 31.5935
#
#
#
# Elastic Compliance Matrix: (Units=1/GPa)
#
#
# Indices 1 2 3 4 5 6 
#
# 1 0.027989 -0.009661 -0.000942 0.000000 -0.012955 0.000000
# 2 -0.009661 0.012483 -0.003202 0.000000 0.005543 0.000000
# 3 -0.000942 -0.003202 0.023241 0.000000 -0.012235 0.000000
# 4 0.000000 0.000000 0.000000 -0.170828 0.000000 0.118314
# 5 -0.012955 0.005543 -0.012235 0.000000 0.036207 0.000000
# 6 0.000000 0.000000 0.000000 0.118314 0.000000 -0.050291
#
#
# Mechanical properties :
#
#
# Convention : Reuss Voigt Hill
#
# Bulk Modulus (GPa) = 27.69856 44.82170 36.26013
# Shear Modulus (GPa) = -61.30906 27.08527 -17.11190
#
# Velocity S-wave (km/s) = -5.15190 3.42430 -2.72179
# Velocity P-wave (km/s) = 4.83716 5.91936 2.41254
#
# Compressibility (1/GPa) = 0.03610296
#
# Stress axis : x y z
#
# Youngs Moduli (GPa) = 35.72775 80.10732 43.02832
#
# Poissons Ratio (x) = 0.77389 0.04055
# Poissons Ratio (y) = 0.34515 0.13779
# Poissons Ratio (z) = 0.03367 0.25652
#
# Static dielectric constant tensor:
#      x y z
#    x 1.836900 0.000000 0.013580 
#    y 0.000000 1.878270 0.000000 
#    z 0.013580 0.000000 1.952260 
# 
# From -- ./inp_files/184782.got.cif
#   From: 2010.05.17/outbox.cif.g08.bks.cpg/sg12_93_cif.got.tgz:184782.got - 2010.06.03 13:09:07.
