data_PCOD9208375
_publ_section_title
;
Structure prediction by ZEFSAII (Michael W. Deem and Ramdas Pophale) SiO2 
 PCOD9208375
Probable space group: C 2/M
;
_chemical_formula_sum "Si O2"
_cell_formula_units_Z 56
_cell_length_a 17.084673
_cell_length_b 28.704288
_cell_length_c 8.591856
_cell_angle_alpha 90.000000
_cell_angle_beta 42.283785
_cell_angle_gamma 90.000000
_cell_volume 2834.839441
_symmetry_space_group_name_H-M "C 2/M"
_symmetry_group_IT_number 12
_symmetry_cell_setting 'monoclinic'
loop_
_space_group_symop_operation_xyz
x,y,z
-x,y,-z
-x,-y,-z
x,-y,z
1/2+x,1/2+y,z
1/2-x,1/2+y,-z
1/2-x,1/2-y,-z
1/2+x,1/2-y,z
loop_
_atom_site_type_symbol
_atom_site_label
_atom_site_fract_x
_atom_site_fract_y
_atom_site_fract_z
Si Si1 0.075286 0.620813 0.234245
Si Si2 0.782194 0.829417 0.107313
Si Si3 0.922676 0.306774 0.251202
Si Si4 0.268891 0.375001 0.470739
Si Si5 0.878597 0.753095 0.594746
Si Si6 0.368988 0.947199 0.129381
Si Si7 0.467857 0.649421 0.391067
O O1 0.190363 0.645905 0.128737
O O2 0.000000 0.606609 0.500000
O O3 0.993596 0.656244 0.254748
O O4 0.119218 0.581420 0.049435
O O5 0.774474 0.858263 0.282400
O O6 0.732686 0.776401 0.186349
O O7 0.914401 0.831074 0.857937
O O8 0.814766 0.334517 0.339281
O O9 0.886306 0.263827 0.407214
O O10 0.000000 0.289221 0.000000
O O11 0.205528 0.421366 0.626402
O O12 0.393529 0.374829 0.368098
O O13 0.888686 0.808343 0.575504
O O14 0.000000 0.737252 0.500000
O O15 0.327972 0.000000 0.164046
O O16 0.500000 0.948348 0.000000
O O17 0.500000 0.620957 0.500000
#
# Coordination Sequence:
#
# PCOD9208375 Si02
#       7
#     8   8   8   8   8   8   8
#     4  12  18  37  63  90 123 163 196 242 309 366
#     4  11  22  39  64  83 121 168 209 247 295 373
#     4  11  19  32  61  86 113 164 195 244 298 359
#     4  11  21  41  59  84 122 159 200 247 309 361
#     4  10  21  38  55  87 121 162 207 256 299 341
#     4  11  22  38  64  98 125 152 199 254 309 369
#     4  11  26  38  58  89 121 165 209 256 299 354
#
# _framework density 19.754206
#
# number of rings (size 3 to 8) (size 9 to 14) (size 15 to 20)
#    0.000    1.000    7.143    1.286    0.000    7.143 
#    0.000    0.714    0.000    5.571    0.000    0.000 
#    0.000    0.000    0.000    0.000    0.000    0.000 
#
# Total GULP energy -156153.421501 kJ/mol
# GULP energy per Si atom -5576.907911 kJ/mol
# Density = 1.970924 g / cm^3
# Si number density = 19.754206 Si / 1000 Ang^3
#
#
#
# Elastic Constant Matrix: (Units=GPa)
#
#
# Indices 1 2 3 4 5 6 
#
# 1 102.0239 17.2931 34.1728 0.0000 -12.4426 0.0000
# 2 17.2931 58.3344 28.7254 0.0000 11.9208 0.0000
# 3 34.1728 28.7254 86.8805 0.0000 -0.8904 0.0000
# 4 0.0000 0.0000 0.0000 -19.8911 0.0000 0.0143
# 5 -12.4426 11.9208 -0.8904 0.0000 35.7680 0.0000
# 6 0.0000 0.0000 0.0000 0.0143 0.0000 14.4564
#
#
#
# Elastic Compliance Matrix: (Units=1/GPa)
#
#
# Indices 1 2 3 4 5 6 
#
# 1 0.012166 -0.002758 -0.003821 0.000000 0.005056 0.000000
# 2 -0.002758 0.023015 -0.006615 0.000000 -0.008794 0.000000
# 3 -0.003821 -0.006615 0.015213 0.000000 0.001254 0.000000
# 4 0.000000 0.000000 0.000000 -0.050274 0.000000 0.000050
# 5 0.005056 -0.008794 0.001254 0.000000 0.032679 0.000000
# 6 0.000000 0.000000 0.000000 0.000050 0.000000 0.069174
#
#
# Mechanical properties :
#
#
# Convention : Reuss Voigt Hill
#
# Bulk Modulus (GPa) = 41.65778 45.29128 43.47453
# Shear Modulus (GPa) = 36.66713 17.20317 26.93515
#
# Velocity S-wave (km/s) = 4.31300 2.95424 3.69659
# Velocity P-wave (km/s) = 6.77765 5.88336 6.34627
#
# Compressibility (1/GPa) = 0.02400512
#
# Stress axis : x y z
#
# Youngs Moduli (GPa) = 82.19813 43.45084 65.73315
#
# Poissons Ratio (x) = 0.11983 0.25120
# Poissons Ratio (y) = 0.22670 0.43480
# Poissons Ratio (z) = 0.31412 0.28741
#
# Static dielectric constant tensor:
#      x y z
#    x 1.746770 0.000000 0.014870 
#    y 0.000000 1.704210 0.000000 
#    z 0.014870 0.000000 1.761010 
# 
# From -- ./inp_files/80411.got.cif
#   From: 2010.05.17/outbox.cif.g08.bks.cpg/sg12_41_cif.got.tgz:80411.got - 2010.06.03 13:09:07.
