data_PCOD9208729
_publ_section_title
;
Structure prediction by ZEFSAII (Michael W. Deem and Ramdas Pophale) SiO2 
 PCOD9208729
Probable space group: C 2/M
;
_chemical_formula_sum "Si O2"
_cell_formula_units_Z 64
_cell_length_a 14.631973
_cell_length_b 8.695673
_cell_length_c 26.338509
_cell_angle_alpha 90.000000
_cell_angle_beta 72.797792
_cell_angle_gamma 90.000000
_cell_volume 3201.268024
_symmetry_space_group_name_H-M "C 2/M"
_symmetry_group_IT_number 12
_symmetry_cell_setting 'monoclinic'
loop_
_space_group_symop_operation_xyz
x,y,z
-x,y,-z
-x,-y,-z
x,-y,z
1/2+x,1/2+y,z
1/2-x,1/2+y,-z
1/2-x,1/2-y,-z
1/2+x,1/2-y,z
loop_
_atom_site_type_symbol
_atom_site_label
_atom_site_fract_x
_atom_site_fract_y
_atom_site_fract_z
Si Si1 0.025600 0.824482 0.054735
Si Si2 0.354005 0.815257 0.497289
Si Si3 0.345160 0.684551 0.699958
Si Si4 0.840970 0.677851 0.121219
Si Si5 0.559757 0.684583 0.208391
Si Si6 0.337010 0.682210 0.230616
Si Si7 0.173938 0.680117 0.093610
Si Si8 0.042482 0.185298 0.420560
O O1 0.130855 0.772438 0.053297
O O2 0.952120 0.713791 0.095521
O O3 0.009807 0.000000 0.074485
O O4 0.000000 0.814767 0.000000
O O5 0.250000 0.750000 0.500000
O O6 0.437173 0.756177 0.445592
O O7 0.390481 0.751382 0.545649
O O8 0.352135 0.000000 0.498314
O O9 0.332277 0.500000 0.702387
O O10 0.396002 0.728202 0.744591
O O11 0.241730 0.764045 0.716248
O O12 0.410625 0.723385 0.641176
O O13 0.819106 0.500000 0.117728
O O14 0.814307 0.730334 0.182000
O O15 0.781481 0.775552 0.090481
O O16 0.572113 0.500000 0.199541
O O17 0.446518 0.716945 0.226729
O O18 0.612574 0.767558 0.153169
O O19 0.329309 0.500000 0.223173
O O20 0.165009 0.500000 0.086518
O O21 0.036607 0.000000 0.426579
#
# Coordination Sequence:
#
# PCOD9208729 Si02
#       8
#     8   8   8   8   8   8   8   8
#     4  11  25  45  67  92 123 158 200 254 311 367
#     4  11  22  39  64  91 121 164 212 259 313 369
#     4  10  22  39  60  88 126 166 204 252 309 363
#     4  12  24  40  64  90 123 161 202 250 302 363
#     4  10  21  38  59  85 122 162 200 247 301 360
#     4  11  22  36  59  89 122 161 206 250 299 361
#     4  12  24  39  64  93 121 159 203 248 303 365
#     4  10  21  39  61  91 128 165 206 257 309 365
#
# _framework density 19.992076999999998
#
# number of rings (size 3 to 8) (size 9 to 14) (size 15 to 20)
#    0.000    1.125    2.500    5.250    0.000    4.000 
#    0.000    1.250    0.000    0.000    0.000    0.000 
#    0.000    0.000    0.000    0.000    0.000    0.000 
#
# Total GULP energy -178972.487312 kJ/mol
# GULP energy per Si atom -5592.890229 kJ/mol
# Density = 1.994657 g / cm^3
# Si number density = 19.992077 Si / 1000 Ang^3
#
#
#
# Elastic Constant Matrix: (Units=GPa)
#
#
# Indices 1 2 3 4 5 6 
#
# 1 90.0024 12.8989 -2.5783 0.0000 -3.7544 0.0000
# 2 12.8989 75.0247 10.6899 0.0000 -0.8720 0.0000
# 3 -2.5783 10.6899 45.2366 0.0000 -2.4927 0.0000
# 4 0.0000 0.0000 0.0000 26.1652 0.0000 -0.7422
# 5 -3.7544 -0.8720 -2.4927 0.0000 18.5646 0.0000
# 6 0.0000 0.0000 0.0000 -0.7422 0.0000 30.6150
#
#
#
# Elastic Compliance Matrix: (Units=1/GPa)
#
#
# Indices 1 2 3 4 5 6 
#
# 1 0.011556 -0.002144 0.001298 0.000000 0.002411 0.000000
# 2 -0.002144 0.014192 -0.003489 0.000000 -0.000235 0.000000
# 3 0.001298 -0.003489 0.023181 0.000000 0.003211 0.000000
# 4 0.000000 0.000000 0.000000 0.038245 0.000000 0.000927
# 5 0.002411 -0.000235 0.003211 0.000000 0.054774 0.000000
# 6 0.000000 0.000000 0.000000 0.000927 0.000000 0.032686
#
#
# Mechanical properties :
#
#
# Convention : Reuss Voigt Hill
#
# Bulk Modulus (GPa) = 24.83855 28.03165 26.43510
# Shear Modulus (GPa) = 25.41646 27.68582 26.55114
#
# Velocity S-wave (km/s) = 3.56943 3.72538 3.64824
# Velocity P-wave (km/s) = 5.42577 5.70582 5.56756
#
# Compressibility (1/GPa) = 0.04025999
#
# Stress axis : x y z
#
# Youngs Moduli (GPa) = 86.53671 70.46277 43.13810
#
# Poissons Ratio (x) = 0.15105 -0.05600
# Poissons Ratio (y) = 0.18551 0.15050
# Poissons Ratio (z) = -0.11233 0.24583
#
# Static dielectric constant tensor:
#      x y z
#    x 1.695850 0.000000 -0.006440 
#    y 0.000000 1.667540 0.000000 
#    z -0.006440 0.000000 1.696250 
# 
# From -- ./inp_files/359790.got.cif
#   From: 2010.05.17/outbox.cif.g08.bks.cpg/sg12_180_cif.got.tgz:359790.got - 2010.06.03 13:09:07.
