data_PCOD9208849
_publ_section_title
;
Structure prediction by ZEFSAII (Michael W. Deem and Ramdas Pophale) SiO2 
 PCOD9208849
Probable space group: C 2/M
;
_chemical_formula_sum "Si O2"
_cell_formula_units_Z 56
_cell_length_a 14.645548
_cell_length_b 7.891885
_cell_length_c 21.412404
_cell_angle_alpha 90.000000
_cell_angle_beta 85.768560
_cell_angle_gamma 90.000000
_cell_volume 2468.120508
_symmetry_space_group_name_H-M "C 2/M"
_symmetry_group_IT_number 12
_symmetry_cell_setting 'monoclinic'
loop_
_space_group_symop_operation_xyz
x,y,z
-x,y,-z
-x,-y,-z
x,-y,z
1/2+x,1/2+y,z
1/2-x,1/2+y,-z
1/2-x,1/2-y,-z
1/2+x,1/2-y,z
loop_
_atom_site_type_symbol
_atom_site_label
_atom_site_fract_x
_atom_site_fract_y
_atom_site_fract_z
Si Si1 0.708646 0.705367 0.352459
Si Si2 0.556995 0.707863 0.271620
Si Si3 0.515831 0.302689 0.856578
Si Si4 0.854043 0.796253 0.513737
Si Si5 0.365909 0.197383 0.950784
Si Si6 0.912670 0.798851 0.380969
Si Si7 0.315878 0.801388 0.090210
O O1 0.715128 0.500000 0.353770
O O2 0.657225 0.755572 0.291734
O O3 0.643475 0.758150 0.414357
O O4 0.809875 0.774247 0.359624
O O5 0.553943 0.500000 0.270530
O O6 0.525344 0.767647 0.205455
O O7 0.484098 0.767922 0.327082
O O8 0.493556 0.500000 0.860998
O O9 0.466116 0.218865 0.918115
O O10 0.624307 0.281029 0.858742
O O11 0.750000 0.750000 0.500000
O O12 0.913804 0.730875 0.452354
O O13 0.864968 0.000000 0.513682
O O14 0.292694 0.276067 0.906596
O O15 0.343880 0.000000 0.956116
O O16 0.349532 0.269360 0.020889
O O17 0.930385 0.000000 0.385093
O O18 0.335466 0.000000 0.092352
#
# Coordination Sequence:
#
# PCOD9208849 Si02
#       7
#     8   8   8   8   8   8   8
#     4   9  17  32  51  72  99 130 167 212 259 305
#     4   9  20  35  50  72 103 138 175 210 248 301
#     4  11  22  36  54  78 111 148 181 216 260 310
#     4   8  14  25  47  73  94 122 162 209 259 305
#     4  10  21  38  60  85 110 137 173 218 266 314
#     4   9  17  32  51  72  99 130 167 212 259 305
#     4  10  21  38  60  85 110 137 173 218 266 314
#
# _framework density 22.689330999999999
#
# number of rings (size 3 to 8) (size 9 to 14) (size 15 to 20)
#    0.000    2.571    0.000    1.714    0.000    5.143 
#    0.000    9.286    0.000    0.000    0.000   10.000 
#    0.000    0.000    0.000    0.000    0.000    0.000 
#
# Total GULP energy -156257.693675 kJ/mol
# GULP energy per Si atom -5580.631917 kJ/mol
# Density = 2.263769 g / cm^3
# Si number density = 22.689331 Si / 1000 Ang^3
#
#
#
# Elastic Constant Matrix: (Units=GPa)
#
#
# Indices 1 2 3 4 5 6 
#
# 1 63.2357 -7.8690 11.9210 0.0000 15.0739 0.0000
# 2 -7.8690 28.6134 6.3213 0.0000 -0.7350 0.0000
# 3 11.9210 6.3213 41.9045 0.0000 27.4553 0.0000
# 4 0.0000 0.0000 0.0000 11.0258 0.0000 2.6890
# 5 15.0739 -0.7350 27.4553 0.0000 38.5322 0.0000
# 6 0.0000 0.0000 0.0000 2.6890 0.0000 21.4354
#
#
#
# Elastic Compliance Matrix: (Units=1/GPa)
#
#
# Indices 1 2 3 4 5 6 
#
# 1 0.018216 0.005460 -0.002635 0.000000 -0.005145 0.000000
# 2 0.005460 0.039369 -0.012350 0.000000 0.007415 0.000000
# 3 -0.002635 -0.012350 0.048682 0.000000 -0.033892 0.000000
# 4 0.000000 0.000000 0.000000 0.093559 0.000000 -0.011737
# 5 -0.005145 0.007415 -0.033892 0.000000 0.052256 0.000000
# 6 0.000000 0.000000 0.000000 -0.011737 0.000000 0.048124
#
#
# Mechanical properties :
#
#
# Convention : Reuss Voigt Hill
#
# Bulk Modulus (GPa) = 11.46576 17.16670 14.31623
# Shear Modulus (GPa) = 14.35423 22.42404 18.38914
#
# Velocity S-wave (km/s) = 2.51797 3.14715 2.84997
# Velocity P-wave (km/s) = 3.67667 4.55943 4.14164
#
# Compressibility (1/GPa) = 0.08721617
#
# Stress axis : x y z
#
# Youngs Moduli (GPa) = 54.89576 25.40070 20.54139
#
# Poissons Ratio (x) = -0.13868 0.05413
# Poissons Ratio (y) = -0.29971 0.25369
# Poissons Ratio (z) = 0.14466 0.31370
#
# Static dielectric constant tensor:
#      x y z
#    x 1.818410 0.000000 0.013140 
#    y 0.000000 1.848520 0.000000 
#    z 0.013140 0.000000 1.877590 
# 
# From -- ./inp_files/309070.got.cif
#   From: 2010.05.17/outbox.cif.g08.bks.cpg/sg12_155_cif.got.tgz:309070.got - 2010.06.03 13:09:07.
