data_PCOD9208052
_publ_section_title
;
Structure prediction by ZEFSAII (Michael W. Deem and Ramdas Pophale) SiO2 
 PCOD9208052
Probable space group: C 2/M
;
_chemical_formula_sum "Si O2"
_cell_formula_units_Z 56
_cell_length_a 19.045529
_cell_length_b 9.047688
_cell_length_c 18.093842
_cell_angle_alpha 90.000000
_cell_angle_beta 62.562510
_cell_angle_gamma 90.000000
_cell_volume 2767.175469
_symmetry_space_group_name_H-M "C 2/M"
_symmetry_group_IT_number 12
_symmetry_cell_setting 'monoclinic'
loop_
_space_group_symop_operation_xyz
x,y,z
-x,y,-z
-x,-y,-z
x,-y,z
1/2+x,1/2+y,z
1/2-x,1/2+y,-z
1/2-x,1/2-y,-z
1/2+x,1/2-y,z
loop_
_atom_site_type_symbol
_atom_site_label
_atom_site_fract_x
_atom_site_fract_y
_atom_site_fract_z
Si Si1 0.834336 0.174017 0.973911
Si Si2 0.167178 0.676682 0.876920
Si Si3 0.008210 0.325025 0.686295
Si Si4 0.115339 0.824396 0.751442
Si Si5 0.855666 0.828264 0.795783
Si Si6 0.578761 0.671059 0.510468
Si Si7 0.265987 0.824696 0.571916
O O1 0.866757 0.255906 0.030326
O O2 0.824823 0.000000 0.994376
O O3 0.750000 0.250000 0.000000
O O4 0.874429 0.186520 0.874416
O O5 0.157074 0.500000 0.880729
O O6 0.129756 0.754079 0.824276
O O7 0.262695 0.705504 0.829684
O O8 0.014702 0.500000 0.683122
O O9 0.045167 0.256001 0.742263
O O10 0.058271 0.255408 0.595535
O O11 0.917349 0.273693 0.723710
O O12 0.193777 0.800964 0.663091
O O13 0.100989 0.000000 0.763329
O O14 0.868171 0.000000 0.768869
O O15 0.500000 0.676282 0.500000
O O16 0.598067 0.500000 0.516912
O O17 0.653815 0.749808 0.437656
O O18 0.250000 0.750000 0.500000
O O19 0.276550 0.000000 0.557025
#
# Coordination Sequence:
#
# PCOD9208052 Si02
#       7
#     8   8   8   8   8   8   8
#     4   9  17  33  58  87 119 156 195 240 293 348
#     4  10  21  37  61  91 121 155 197 245 292 347
#     4  12  25  40  61  87 119 156 196 245 295 349
#     4  11  24  41  61  86 120 158 197 242 294 353
#     4   9  20  38  60  87 121 158 193 237 294 351
#     4  11  25  43  63  87 119 157 195 242 296 350
#     4  11  23  40  64  89 116 155 199 243 293 349
#
# _framework density 20.237241999999998
#
# number of rings (size 3 to 8) (size 9 to 14) (size 15 to 20)
#    0.000    1.571    1.429    4.286    2.000    6.286 
#    0.000    0.714    0.000    4.286    0.000    0.000 
#    0.000    0.000    0.000    0.000    0.000    0.000 
#
# Total GULP energy -156485.617279 kJ/mol
# GULP energy per Si atom -5588.772046 kJ/mol
# Density = 2.019118 g / cm^3
# Si number density = 20.237242 Si / 1000 Ang^3
#
#
#
# Elastic Constant Matrix: (Units=GPa)
#
#
# Indices 1 2 3 4 5 6 
#
# 1 50.5189 29.2413 0.2819 0.0000 6.8202 0.0000
# 2 29.2413 95.7286 20.2431 0.0000 -1.8351 0.0000
# 3 0.2819 20.2431 20.8557 0.0000 16.3749 0.0000
# 4 0.0000 0.0000 0.0000 30.4562 0.0000 1.8253
# 5 6.8202 -1.8351 16.3749 0.0000 34.9617 0.0000
# 6 0.0000 0.0000 0.0000 1.8253 0.0000 28.8662
#
#
#
# Elastic Compliance Matrix: (Units=1/GPa)
#
#
# Indices 1 2 3 4 5 6 
#
# 1 0.033817 -0.018729 0.037442 0.000000 -0.025117 0.000000
# 2 -0.018729 0.026538 -0.046607 0.000000 0.026876 0.000000
# 3 0.037442 -0.046607 0.158694 0.000000 -0.084077 0.000000
# 4 0.000000 0.000000 0.000000 0.032959 0.000000 -0.002084
# 5 -0.025117 0.026876 -0.084077 0.000000 0.074292 0.000000
# 6 0.000000 0.000000 0.000000 -0.002084 0.000000 0.034774
#
#
# Mechanical properties :
#
#
# Convention : Reuss Voigt Hill
#
# Bulk Modulus (GPa) = 6.12514 29.62618 17.87566
# Shear Modulus (GPa) = 10.60937 26.67928 18.64433
#
# Velocity S-wave (km/s) = 2.29213 3.63481 3.03857
# Velocity P-wave (km/s) = 3.16835 5.68217 4.60030
#
# Compressibility (1/GPa) = 0.16326146
#
# Stress axis : x y z
#
# Youngs Moduli (GPa) = 29.57083 37.68190 6.30145
#
# Poissons Ratio (x) = 0.70574 -0.23594
# Poissons Ratio (y) = 0.55383 0.29369
# Poissons Ratio (z) = -1.10719 1.75623
#
# Static dielectric constant tensor:
#      x y z
#    x 1.719300 0.000000 -0.008790 
#    y 0.000000 1.670560 0.000000 
#    z -0.008790 0.000000 1.703540 
# 
# From -- ./inp_files/275130.got.cif
#   From: 2010.05.17/outbox.cif.g08.bks.cpg/sg12_138_cif.got.tgz:275130.got - 2010.06.03 13:09:07.
