data_PCOD9208301
_publ_section_title
;
Structure prediction by ZEFSAII (Michael W. Deem and Ramdas Pophale) SiO2 
 PCOD9208301
Probable space group: C 2/M
;
_chemical_formula_sum "Si O2"
_cell_formula_units_Z 60
_cell_length_a 24.809530
_cell_length_b 15.745134
_cell_length_c 14.454120
_cell_angle_alpha 90.000000
_cell_angle_beta 151.238120
_cell_angle_gamma 90.000000
_cell_volume 2716.786977
_symmetry_space_group_name_H-M "C 2/M"
_symmetry_group_IT_number 12
_symmetry_cell_setting 'monoclinic'
loop_
_space_group_symop_operation_xyz
x,y,z
-x,y,-z
-x,-y,-z
x,-y,z
1/2+x,1/2+y,z
1/2-x,1/2+y,-z
1/2-x,1/2-y,-z
1/2+x,1/2-y,z
loop_
_atom_site_type_symbol
_atom_site_label
_atom_site_fract_x
_atom_site_fract_y
_atom_site_fract_z
Si Si1 0.465292 0.845567 0.680024
Si Si2 0.870664 0.840900 0.325581
Si Si3 0.573142 0.657826 0.318603
Si Si4 0.091423 0.000000 0.481812
Si Si5 0.677337 0.156910 0.710020
Si Si6 0.183055 0.600476 0.920836
Si Si7 0.382682 0.598450 0.916316
Si Si8 0.739630 0.100640 0.517756
O O1 0.457232 0.744203 0.675932
O O2 0.406157 0.874700 0.495371
O O3 0.592117 0.876245 0.862533
O O4 0.388363 0.880149 0.647835
O O5 0.814893 0.758516 0.287379
O O6 0.000000 0.820162 0.500000
O O7 0.869749 0.925011 0.386054
O O8 0.801742 0.860491 0.128892
O O9 0.554162 0.575355 0.352598
O O10 0.701602 0.652161 0.476240
O O11 0.492535 0.649925 0.108088
O O12 0.643204 0.137675 0.763140
O O13 0.795741 0.113184 0.868909
O O14 0.192768 0.500000 0.927284
O O15 0.413140 0.500000 0.953270
O O16 0.311212 0.621056 0.717938
O O17 0.752078 0.000000 0.516583
#
# Coordination Sequence:
#
# PCOD9208301 Si02
#       8
#     8   8   8   4   8   8   8   8
#     4  11  24  42  64  94 131 167 212 263 313 382
#     4  12  26  45  64  93 128 164 216 264 314 377
#     4  12  22  40  67  94 128 170 216 265 322 364
#     4  12  25  40  69  91 125 163 217 270 320 368
#     4  11  24  40  65  95 129 164 208 256 319 383
#     4  12  26  43  67  91 128 170 208 258 322 384
#     4  10  21  37  64  99 133 164 211 262 315 380
#     4  10  21  40  64  96 129 170 213 262 318 376
#
# _framework density 22.084911999999999
#
# number of rings (size 3 to 8) (size 9 to 14) (size 15 to 20)
#    0.000    0.800    3.333    4.200    1.867    3.200 
#    0.000    0.000    0.000    0.800    0.000    0.000 
#    0.000    0.000    0.000    0.000    0.000    0.000 
#
# Total GULP energy -167251.573575 kJ/mol
# GULP energy per Si atom -5575.052452 kJ/mol
# Density = 2.203465 g / cm^3
# Si number density = 22.084912 Si / 1000 Ang^3
#
#
#
# Elastic Constant Matrix: (Units=GPa)
#
#
# Indices 1 2 3 4 5 6 
#
# 1 42.6518 -3.2649 16.7709 0.0000 20.7998 0.0000
# 2 -3.2649 56.9520 3.0499 0.0000 -0.1735 0.0000
# 3 16.7709 3.0499 61.2030 0.0000 11.0592 0.0000
# 4 0.0000 0.0000 0.0000 25.6972 0.0000 -5.2034
# 5 20.7998 -0.1735 11.0592 0.0000 31.2110 0.0000
# 6 0.0000 0.0000 0.0000 -5.2034 0.0000 -1.5746
#
#
#
# Elastic Compliance Matrix: (Units=1/GPa)
#
#
# Indices 1 2 3 4 5 6 
#
# 1 0.037021 0.002386 -0.006205 0.000000 -0.022460 0.000000
# 2 0.002386 0.017765 -0.001356 0.000000 -0.001011 0.000000
# 3 -0.006205 -0.001356 0.018549 0.000000 -0.002445 0.000000
# 4 0.000000 0.000000 0.000000 0.023314 0.000000 -0.077044
# 5 -0.022460 -0.001011 -0.002445 0.000000 0.047869 0.000000
# 6 0.000000 0.000000 0.000000 -0.077044 0.000000 -0.380484
#
#
# Mechanical properties :
#
#
# Convention : Reuss Voigt Hill
#
# Bulk Modulus (GPa) = 15.87700 21.54651 18.71176
# Shear Modulus (GPa) = -24.43542 20.68345 -1.87599
#
# Velocity S-wave (km/s) = -3.32991 3.06362 -0.92265
# Velocity P-wave (km/s) = 2.75314 4.72141 2.71219
#
# Compressibility (1/GPa) = 0.06298419
#
# Stress axis : x y z
#
# Youngs Moduli (GPa) = 27.01161 56.29045 53.91194
#
# Poissons Ratio (x) = -0.13432 0.33453
# Poissons Ratio (y) = -0.06445 0.07313
# Poissons Ratio (z) = 0.16761 0.07636
#
# Static dielectric constant tensor:
#      x y z
#    x 1.905490 0.000000 0.031180 
#    y 0.000000 1.769640 0.000000 
#    z 0.031180 0.000000 1.827340 
# 
# From -- ./inp_files/246733.got.cif
#   From: 2010.05.17/outbox.cif.g08.bks.cpg/sg12_124_cif.got.tgz:246733.got - 2010.06.03 13:09:07.
