data_PCOD9208740
_publ_section_title
;
Structure prediction by ZEFSAII (Michael W. Deem and Ramdas Pophale) SiO2 
 PCOD9208740
Probable space group: C 2/M
;
_chemical_formula_sum "Si O2"
_cell_formula_units_Z 28
_cell_length_a 13.723271
_cell_length_b 8.291769
_cell_length_c 18.499327
_cell_angle_alpha 90.000000
_cell_angle_beta 140.638520
_cell_angle_gamma 90.000000
_cell_volume 1335.040492
_symmetry_space_group_name_H-M "C 2/M"
_symmetry_group_IT_number 12
_symmetry_cell_setting 'monoclinic'
loop_
_space_group_symop_operation_xyz
x,y,z
-x,y,-z
-x,-y,-z
x,-y,z
1/2+x,1/2+y,z
1/2-x,1/2+y,-z
1/2-x,1/2-y,-z
1/2+x,1/2-y,z
loop_
_atom_site_type_symbol
_atom_site_label
_atom_site_fract_x
_atom_site_fract_y
_atom_site_fract_z
Si Si1 0.500000 0.756737 0.500000
Si Si2 0.637014 0.808352 0.131696
Si Si3 0.971920 0.311799 0.330882
Si Si4 0.142898 0.181172 0.292774
O O1 0.501296 0.696441 0.417301
O O2 0.671936 0.828497 0.600299
O O3 0.796436 0.718003 0.206824
O O4 0.598304 0.768167 0.192767
O O5 0.661106 0.000000 0.137863
O O6 0.500000 0.759160 0.000000
O O7 0.991435 0.500000 0.364336
O O8 0.083070 0.272395 0.328777
O O9 0.080167 0.000000 0.257428
#
# Coordination Sequence:
#
# PCOD9208740 Si02
#       4
#     4   8   8   8
#     4  10  21  38  59  86 119 154 191 236 285 338
#     4  10  22  41  62  85 114 149 193 242 290 340
#     4  11  22  38  60  87 119 153 192 235 285 342
#     4  11  22  38  60  87 119 153 192 235 285 342
#
# _framework density 20.973146
#
# number of rings (size 3 to 8) (size 9 to 14) (size 15 to 20)
#    0.000    1.429    0.000    7.714    0.000    3.429 
#    0.000   24.286    0.000    0.000    0.000    0.000 
#    0.000    0.000    0.000    0.000    0.000    0.000 
#
# Total GULP energy -78000.632311 kJ/mol
# GULP energy per Si atom -5571.473736 kJ/mol
# Density = 2.092541 g / cm^3
# Si number density = 20.973146 Si / 1000 Ang^3
#
#
#
# Elastic Constant Matrix: (Units=GPa)
#
#
# Indices 1 2 3 4 5 6 
#
# 1 163.6403 22.0368 53.2219 0.0000 -25.0845 0.0000
# 2 22.0368 62.2969 16.8318 0.0000 -1.6520 0.0000
# 3 53.2219 16.8318 150.7492 0.0000 -14.9690 0.0000
# 4 0.0000 0.0000 0.0000 21.6305 0.0000 -7.1030
# 5 -25.0845 -1.6520 -14.9690 0.0000 16.9217 0.0000
# 6 0.0000 0.0000 0.0000 -7.1030 0.0000 11.4472
#
#
#
# Elastic Compliance Matrix: (Units=1/GPa)
#
#
# Indices 1 2 3 4 5 6 
#
# 1 0.008684 -0.002317 -0.001701 0.000000 0.011143 0.000000
# 2 -0.002317 0.017170 -0.001396 0.000000 -0.002994 0.000000
# 3 -0.001701 -0.001396 0.007812 0.000000 0.004253 0.000000
# 4 0.000000 0.000000 0.000000 0.058062 0.000000 0.036027
# 5 0.011143 -0.002994 0.004253 0.000000 0.079083 0.000000
# 6 0.000000 0.000000 0.000000 0.036027 0.000000 0.109713
#
#
# Mechanical properties :
#
#
# Convention : Reuss Voigt Hill
#
# Bulk Modulus (GPa) = 43.78679 62.31860 53.05269
# Shear Modulus (GPa) = 16.72438 28.97292 22.84865
#
# Velocity S-wave (km/s) = 2.82692 3.72079 3.30422
# Velocity P-wave (km/s) = 5.61945 6.94529 6.31725
#
# Compressibility (1/GPa) = 0.02283794
#
# Stress axis : x y z
#
# Youngs Moduli (GPa) = 115.15171 58.24233 128.00420
#
# Poissons Ratio (x) = 0.13494 0.21771
# Poissons Ratio (y) = 0.26680 0.17874
# Poissons Ratio (z) = 0.19585 0.08133
#
# Static dielectric constant tensor:
#      x y z
#    x 1.728390 0.000000 -0.020640 
#    y 0.000000 1.764280 0.000000 
#    z -0.020640 0.000000 1.736220 
# 
# From -- ./inp_files/138117.got.cif
#   From: 2010.05.17/outbox.cif.g08.bks.cpg/sg12_70_cif.got.tgz:138117.got - 2010.06.03 13:09:07.
