data_PCOD9208357
_publ_section_title
;
Structure prediction by ZEFSAII (Michael W. Deem and Ramdas Pophale) SiO2 
 PCOD9208357
Probable space group: C 2/M
;
_chemical_formula_sum "Si O2"
_cell_formula_units_Z 56
_cell_length_a 30.964354
_cell_length_b 8.668638
_cell_length_c 12.875681
_cell_angle_alpha 90.000000
_cell_angle_beta 74.129906
_cell_angle_gamma 90.000000
_cell_volume 3324.343395
_symmetry_space_group_name_H-M "C 2/M"
_symmetry_group_IT_number 12
_symmetry_cell_setting 'monoclinic'
loop_
_space_group_symop_operation_xyz
x,y,z
-x,y,-z
-x,-y,-z
x,-y,z
1/2+x,1/2+y,z
1/2-x,1/2+y,-z
1/2-x,1/2-y,-z
1/2+x,1/2-y,z
loop_
_atom_site_type_symbol
_atom_site_label
_atom_site_fract_x
_atom_site_fract_y
_atom_site_fract_z
Si Si1 0.194987 0.812387 0.368254
Si Si2 0.948536 0.685735 0.413861
Si Si3 0.296418 0.815062 0.015296
Si Si4 0.139902 0.184705 0.198956
Si Si5 0.296125 0.186340 0.255977
Si Si6 0.641634 0.684594 0.608722
Si Si7 0.949455 0.686000 0.656037
O O1 0.168215 0.764250 0.282465
O O2 0.246701 0.762672 0.327337
O O3 0.169833 0.760272 0.488817
O O4 0.194776 0.000000 0.368715
O O5 0.945792 0.500000 0.410396
O O6 0.909077 0.758438 0.373052
O O7 0.942211 0.729190 0.539519
O O8 0.999382 0.729994 0.350449
O O9 0.301190 0.767927 0.132373
O O10 0.294434 0.000000 0.013246
O O11 0.250000 0.750000 0.000000
O O12 0.336587 0.755478 0.917049
O O13 0.089094 0.238316 0.250371
O O14 0.142313 0.000000 0.191855
O O15 0.334114 0.252599 0.305342
O O16 0.297360 0.000000 0.259920
O O17 0.642460 0.500000 0.608807
O O18 0.946233 0.500000 0.664444
#
# Coordination Sequence:
#
# PCOD9208357 Si02
#       7
#     8   8   8   8   8   8   8
#     4   9  18  33  50  75 109 142 173 212 260 314
#     4   9  18  33  53  77 109 143 176 217 265 319
#     4  11  22  37  57  79 105 141 184 227 267 312
#     4  11  20  34  55  80 112 142 175 222 271 316
#     4  10  21  38  54  71 105 147 183 218 262 314
#     4  11  21  33  52  80 111 141 179 220 263 319
#     4   9  18  33  53  80 108 139 180 219 262 320
#
# _framework density 16.845431000000001
#
# number of rings (size 3 to 8) (size 9 to 14) (size 15 to 20)
#    0.000    2.000    2.857    2.571    0.000    1.714 
#    0.000    2.143    0.000    0.857    0.000    6.000 
#    0.000    0.000    0.000    0.000    0.000    0.000 
#
# Total GULP energy -156298.411294 kJ/mol
# GULP energy per Si atom -5582.086118 kJ/mol
# Density = 1.680709 g / cm^3
# Si number density = 16.845431 Si / 1000 Ang^3
#
#
#
# Elastic Constant Matrix: (Units=GPa)
#
#
# Indices 1 2 3 4 5 6 
#
# 1 159.9906 36.6682 82.8248 0.0000 -0.9422 0.0000
# 2 36.6682 27.5042 31.3327 0.0000 0.1410 0.0000
# 3 82.8248 31.3327 99.6586 0.0000 0.8817 0.0000
# 4 0.0000 0.0000 0.0000 22.7457 0.0000 -2.6464
# 5 -0.9422 0.1410 0.8817 0.0000 29.9980 0.0000
# 6 0.0000 0.0000 0.0000 -2.6464 0.0000 27.6109
#
#
#
# Elastic Compliance Matrix: (Units=1/GPa)
#
#
# Indices 1 2 3 4 5 6 
#
# 1 0.011810 -0.007105 -0.007587 0.000000 0.000627 0.000000
# 2 -0.007105 0.060924 -0.013248 0.000000 -0.000120 0.000000
# 3 -0.007587 -0.013248 0.020512 0.000000 -0.000779 0.000000
# 4 0.000000 0.000000 0.000000 0.044460 0.000000 0.004261
# 5 0.000627 -0.000120 -0.000779 0.000000 0.033379 0.000000
# 6 0.000000 0.000000 0.000000 0.004261 0.000000 0.036626
#
#
# Mechanical properties :
#
#
# Convention : Reuss Voigt Hill
#
# Bulk Modulus (GPa) = 26.76316 65.42274 46.09295
# Shear Modulus (GPa) = 18.11288 25.15941 21.63615
#
# Velocity S-wave (km/s) = 3.28264 3.86883 3.58773
# Velocity P-wave (km/s) = 5.50360 7.67324 6.67713
#
# Compressibility (1/GPa) = 0.03736480
#
# Stress axis : x y z
#
# Youngs Moduli (GPa) = 84.67284 16.41392 48.75262
#
# Poissons Ratio (x) = 0.11663 0.36988
# Poissons Ratio (y) = 0.60164 0.64588
# Poissons Ratio (z) = 0.64240 0.21745
#
# Static dielectric constant tensor:
#      x y z
#    x 1.554250 0.000000 -0.008040 
#    y 0.000000 1.570840 0.000000 
#    z -0.008040 0.000000 1.552560 
# 
# From -- ./inp_files/186389.got.cif
#   From: 2010.05.17/outbox.cif.g08.bks.cpg/sg12_94_cif.got.tgz:186389.got - 2010.06.03 13:09:07.
