data_PCOD9208678
_publ_section_title
;
Structure prediction by ZEFSAII (Michael W. Deem and Ramdas Pophale) SiO2 
 PCOD9208678
Probable space group: C 2/M
;
_chemical_formula_sum "Si O2"
_cell_formula_units_Z 64
_cell_length_a 17.046869
_cell_length_b 8.669130
_cell_length_c 29.737599
_cell_angle_alpha 90.000000
_cell_angle_beta 137.444067
_cell_angle_gamma 90.000000
_cell_volume 2972.156061
_symmetry_space_group_name_H-M "C 2/M"
_symmetry_group_IT_number 12
_symmetry_cell_setting 'monoclinic'
loop_
_space_group_symop_operation_xyz
x,y,z
-x,y,-z
-x,-y,-z
x,-y,z
1/2+x,1/2+y,z
1/2-x,1/2+y,-z
1/2-x,1/2-y,-z
1/2+x,1/2-y,z
loop_
_atom_site_type_symbol
_atom_site_label
_atom_site_fract_x
_atom_site_fract_y
_atom_site_fract_z
Si Si1 0.687887 0.676074 0.337705
Si Si2 0.023934 0.676569 0.726923
Si Si3 0.755659 0.183129 0.137150
Si Si4 0.957241 0.172479 0.610077
Si Si5 0.099986 0.814230 0.144625
Si Si6 0.396653 0.185079 0.490006
Si Si7 0.656624 0.313863 0.925698
Si Si8 0.730492 0.672903 0.710241
O O1 0.648920 0.500000 0.326674
O O2 0.576363 0.780577 0.280503
O O3 0.775327 0.719463 0.414504
O O4 0.763003 0.697549 0.325056
O O5 0.059466 0.500000 0.741992
O O6 0.134903 0.779376 0.784398
O O7 0.953961 0.719884 0.652189
O O8 0.643210 0.262694 0.112863
O O9 0.801377 0.235753 0.106915
O O10 0.735295 0.000000 0.127042
O O11 0.095491 0.161232 0.663650
O O12 0.906110 0.239426 0.542731
O O13 0.910092 0.000000 0.598152
O O14 0.190181 0.729896 0.215722
O O15 0.971515 0.771352 0.109094
O O16 0.110715 0.000000 0.152176
O O17 0.500000 0.237171 0.500000
O O18 0.406563 0.000000 0.498640
O O19 0.658133 0.500000 0.925458
O O20 0.750000 0.250000 0.000000
O O21 0.765936 0.500000 0.710648
#
# Coordination Sequence:
#
# PCOD9208678 Si02
#       8
#     8   8   8   8   8   8   8   8
#     4  11  23  39  61  86 121 163 208 267 328 390
#     4  12  25  41  63  91 124 162 209 262 322 386
#     4  11  23  43  69 100 135 174 220 271 327 388
#     4  11  23  38  60  87 120 157 201 258 317 375
#     4  11  23  41  68 101 134 177 223 271 328 388
#     4  10  21  38  59  84 114 157 209 258 319 388
#     4  10  25  46  69  99 138 179 219 263 319 382
#     4  11  22  37  61  93 124 160 208 262 318 380
#
# _framework density 21.533189
#
# number of rings (size 3 to 8) (size 9 to 14) (size 15 to 20)
#    0.000    1.125    2.500    3.750    0.000    6.250 
#    0.000    2.500    0.000    0.000    0.000    0.000 
#    0.000    0.000    0.000    0.000    0.000    0.000 
#
# Total GULP energy -178607.126532 kJ/mol
# GULP energy per Si atom -5581.472704 kJ/mol
# Density = 2.148418 g / cm^3
# Si number density = 21.533189 Si / 1000 Ang^3
#
#
#
# Elastic Constant Matrix: (Units=GPa)
#
#
# Indices 1 2 3 4 5 6 
#
# 1 116.2229 24.1364 47.4299 0.0000 0.2462 0.0000
# 2 24.1364 33.9140 16.3152 0.0000 3.5301 0.0000
# 3 47.4299 16.3152 84.2329 0.0000 -7.6500 0.0000
# 4 0.0000 0.0000 0.0000 27.6509 0.0000 -4.7607
# 5 0.2462 3.5301 -7.6500 0.0000 31.6029 0.0000
# 6 0.0000 0.0000 0.0000 -4.7607 0.0000 27.1237
#
#
#
# Elastic Compliance Matrix: (Units=1/GPa)
#
#
# Indices 1 2 3 4 5 6 
#
# 1 0.012180 -0.005781 -0.005817 0.000000 -0.000857 0.000000
# 2 -0.005781 0.036143 -0.004200 0.000000 -0.005009 0.000000
# 3 -0.005817 -0.004200 0.016367 0.000000 0.004476 0.000000
# 4 0.000000 0.000000 0.000000 0.037292 0.000000 0.006546
# 5 -0.000857 -0.005009 0.004476 0.000000 0.033292 0.000000
# 6 0.000000 0.000000 0.000000 0.006546 0.000000 0.038017
#
#
# Mechanical properties :
#
#
# Convention : Reuss Voigt Hill
#
# Bulk Modulus (GPa) = 30.21665 45.57028 37.89346
# Shear Modulus (GPa) = 23.15683 27.04138 25.09910
#
# Velocity S-wave (km/s) = 3.28289 3.54757 3.41779
# Velocity P-wave (km/s) = 5.33225 6.16353 5.76290
#
# Compressibility (1/GPa) = 0.03309434
#
# Stress axis : x y z
#
# Youngs Moduli (GPa) = 82.09994 27.66803 61.09816
#
# Poissons Ratio (x) = 0.15995 0.35538
# Poissons Ratio (y) = 0.47464 0.25662
# Poissons Ratio (z) = 0.47754 0.11621
#
# Static dielectric constant tensor:
#      x y z
#    x 1.915480 0.000000 -0.018260 
#    y 0.000000 1.761670 0.000000 
#    z -0.018260 0.000000 1.737930 
# 
# From -- ./inp_files/378382.got.cif
#   From: 2010.05.17/outbox.cif.g08.bks.cpg/sg12_190_cif.got.tgz:378382.got - 2010.06.03 13:09:07.
