data_PCOD9208505
_publ_section_title
;
Structure prediction by ZEFSAII (Michael W. Deem and Ramdas Pophale) SiO2 
 PCOD9208505
Probable space group: C 2/M
;
_chemical_formula_sum "Si O2"
_cell_formula_units_Z 56
_cell_length_a 15.338891
_cell_length_b 21.862940
_cell_length_c 8.037476
_cell_angle_alpha 90.000000
_cell_angle_beta 71.716419
_cell_angle_gamma 90.000000
_cell_volume 2559.317902
_symmetry_space_group_name_H-M "C 2/M"
_symmetry_group_IT_number 12
_symmetry_cell_setting 'monoclinic'
loop_
_space_group_symop_operation_xyz
x,y,z
-x,y,-z
-x,-y,-z
x,-y,z
1/2+x,1/2+y,z
1/2-x,1/2+y,-z
1/2-x,1/2-y,-z
1/2+x,1/2-y,z
loop_
_atom_site_type_symbol
_atom_site_label
_atom_site_fract_x
_atom_site_fract_y
_atom_site_fract_z
Si Si1 0.296693 0.870723 0.665157
Si Si2 0.094711 0.250818 0.360826
Si Si3 0.385943 0.928138 0.922990
Si Si4 0.449216 0.648785 0.855372
Si Si5 0.059170 0.429508 0.636537
Si Si6 0.626360 0.630911 0.555858
Si Si7 0.208940 0.071911 0.190474
O O1 0.333512 0.804825 0.698987
O O2 0.325570 0.917267 0.792355
O O3 0.354177 0.889705 0.466399
O O4 0.191896 0.869575 0.675812
O O5 0.072986 0.216349 0.201702
O O6 0.129285 0.197030 0.463151
O O7 0.000000 0.274719 0.500000
O O8 0.487541 0.903907 0.816394
O O9 0.401816 0.000000 0.937129
O O10 0.315256 0.906824 0.106961
O O11 0.522787 0.621460 0.678895
O O12 0.356894 0.609463 0.894661
O O13 0.500000 0.649607 0.000000
O O14 0.085480 0.500000 0.659902
O O15 0.000000 0.432011 0.500000
O O16 0.666286 0.584388 0.396817
O O17 0.793169 0.000000 0.845334
#
# Coordination Sequence:
#
# PCOD9208505 Si02
#       7
#     8   8   8   8   8   8   8
#     4  11  18  32  58  83 108 147 190 220 265 335
#     4   9  19  36  56  79 110 146 181 225 277 326
#     4   9  18  33  53  79 109 141 182 231 274 314
#     4  10  21  40  59  81 111 141 180 235 285 321
#     4   8  15  28  49  78 109 140 177 224 269 310
#     4  10  22  36  53  80 115 144 177 228 279 324
#     4  10  21  38  58  80 111 150 186 223 275 333
#
# _framework density 21.880831000000001
#
# number of rings (size 3 to 8) (size 9 to 14) (size 15 to 20)
#    0.000    2.429    0.000    5.143    0.000    2.571 
#    0.000   10.000    0.000    2.571    0.000    0.000 
#    0.000    0.571    0.000    0.000    0.000    0.000 
#
# Total GULP energy -156334.506905 kJ/mol
# GULP energy per Si atom -5583.375247 kJ/mol
# Density = 2.183103 g / cm^3
# Si number density = 21.880831 Si / 1000 Ang^3
#
#
#
# Elastic Constant Matrix: (Units=GPa)
#
#
# Indices 1 2 3 4 5 6 
#
# 1 70.8844 15.1134 18.1430 0.0000 -9.7159 0.0000
# 2 15.1134 39.7753 16.7825 0.0000 -7.7559 0.0000
# 3 18.1430 16.7825 108.6240 0.0000 -8.6137 0.0000
# 4 0.0000 0.0000 0.0000 11.9166 0.0000 -13.1094
# 5 -9.7159 -7.7559 -8.6137 0.0000 50.3750 0.0000
# 6 0.0000 0.0000 0.0000 -13.1094 0.0000 7.2284
#
#
#
# Elastic Compliance Matrix: (Units=1/GPa)
#
#
# Indices 1 2 3 4 5 6 
#
# 1 0.015873 -0.004908 -0.001734 0.000000 0.002009 0.000000
# 2 -0.004908 0.029027 -0.003432 0.000000 0.002936 0.000000
# 3 -0.001734 -0.003432 0.010094 0.000000 0.000863 0.000000
# 4 0.000000 0.000000 0.000000 -0.084329 0.000000 -0.152938
# 5 0.002009 0.002936 0.000863 0.000000 0.020838 0.000000
# 6 0.000000 0.000000 0.000000 -0.152938 0.000000 -0.139022
#
#
# Mechanical properties :
#
#
# Convention : Reuss Voigt Hill
#
# Bulk Modulus (GPa) = 28.69717 35.48463 32.09090
# Shear Modulus (GPa) = -43.19430 25.18699 -9.00366
#
# Velocity S-wave (km/s) = -4.44787 3.39646 -2.03071
# Velocity P-wave (km/s) = 3.63791 5.62439 3.03309
#
# Compressibility (1/GPa) = 0.03484665
#
# Stress axis : x y z
#
# Youngs Moduli (GPa) = 62.99987 34.45114 99.06537
#
# Poissons Ratio (x) = 0.16909 0.17174
# Poissons Ratio (y) = 0.30920 0.34000
# Poissons Ratio (z) = 0.10922 0.11824
#
# Static dielectric constant tensor:
#      x y z
#    x 1.803790 0.000000 0.017890 
#    y 0.000000 1.745710 0.000000 
#    z 0.017890 0.000000 1.881020 
# 
# From -- ./inp_files/65782.got.cif
#   From: 2010.05.17/outbox.cif.g08.bks.cpg/sg12_33_cif.got.tgz:65782.got - 2010.06.03 13:09:07.
