data_PCOD9208117
_publ_section_title
;
Structure prediction by ZEFSAII (Michael W. Deem and Ramdas Pophale) SiO2 
 PCOD9208117
Probable space group: C 2/M
;
_chemical_formula_sum "Si O2"
_cell_formula_units_Z 40
_cell_length_a 13.508718
_cell_length_b 10.842845
_cell_length_c 23.065721
_cell_angle_alpha 90.000000
_cell_angle_beta 36.395498
_cell_angle_gamma 90.000000
_cell_volume 2004.654323
_symmetry_space_group_name_H-M "C 2/M"
_symmetry_group_IT_number 12
_symmetry_cell_setting 'monoclinic'
loop_
_space_group_symop_operation_xyz
x,y,z
-x,y,-z
-x,-y,-z
x,-y,z
1/2+x,1/2+y,z
1/2-x,1/2+y,-z
1/2-x,1/2-y,-z
1/2+x,1/2-y,z
loop_
_atom_site_type_symbol
_atom_site_label
_atom_site_fract_x
_atom_site_fract_y
_atom_site_fract_z
Si Si1 0.912812 0.768337 0.667532
Si Si2 0.966384 0.740555 0.173238
Si Si3 0.983232 0.000000 0.908082
Si Si4 0.853076 0.500000 0.879339
Si Si5 0.134937 0.863739 0.663577
Si Si6 0.381775 0.000000 0.731483
Si Si7 0.500000 0.227715 0.500000
O O1 0.714666 0.788134 0.769837
O O2 0.938895 0.622972 0.670735
O O3 0.032525 0.842247 0.653620
O O4 0.956649 0.796697 0.580171
O O5 0.926777 0.769112 0.259098
O O6 0.081769 0.621431 0.118484
O O7 0.040004 0.868046 0.113364
O O8 0.180553 0.000000 0.826656
O O9 0.847544 0.000000 0.023199
O O10 0.923237 0.500000 0.780357
O O11 0.332871 0.847637 0.564102
O O12 0.103149 0.000000 0.701817
#
# Coordination Sequence:
#
# PCOD9208117 Si02
#       7
#     8   8   4   4   8   4   4
#     4  10  22  39  59  84 120 151 196 239 294 349
#     4  10  22  38  61  88 119 160 192 238 301 348
#     4  10  21  40  60  89 117 157 198 242 287 358
#     4  12  21  38  62  89 121 149 200 250 293 339
#     4  11  21  38  61  83 119 154 198 240 291 354
#     4  10  21  37  62  84 112 156 196 235 291 352
#     4  10  23  38  59  88 110 159 202 239 290 351
#
# _framework density 19.953565000000001
#
# number of rings (size 3 to 8) (size 9 to 14) (size 15 to 20)
#    0.000    1.600    3.000    1.800    7.000    0.000 
#    0.000    0.500    0.000    1.200    0.000    0.000 
#    0.000    0.000    0.000    0.000    0.000    0.000 
#
# Total GULP energy -111523.269568 kJ/mol
# GULP energy per Si atom -5576.163478 kJ/mol
# Density = 1.990815 g / cm^3
# Si number density = 19.953565 Si / 1000 Ang^3
#
#
#
# Elastic Constant Matrix: (Units=GPa)
#
#
# Indices 1 2 3 4 5 6 
#
# 1 97.2567 15.3520 20.8339 0.0000 -10.0312 0.0000
# 2 15.3520 87.8205 21.2512 0.0000 -19.2364 0.0000
# 3 20.8339 21.2512 76.2872 0.0000 -1.5673 0.0000
# 4 0.0000 0.0000 0.0000 15.1741 0.0000 13.1984
# 5 -10.0312 -19.2364 -1.5673 0.0000 23.1337 0.0000
# 6 0.0000 0.0000 0.0000 13.1984 0.0000 81.9320
#
#
#
# Elastic Compliance Matrix: (Units=1/GPa)
#
#
# Indices 1 2 3 4 5 6 
#
# 1 0.011425 -0.000297 -0.002945 0.000000 0.004507 0.000000
# 2 -0.000297 0.015022 -0.003855 0.000000 0.012102 0.000000
# 3 -0.002945 -0.003855 0.014915 0.000000 -0.003472 0.000000
# 4 0.000000 0.000000 0.000000 0.076640 0.000000 -0.012346
# 5 0.004507 0.012102 -0.003472 0.000000 0.055009 0.000000
# 6 0.000000 0.000000 0.000000 -0.012346 0.000000 0.014194
#
#
# Mechanical properties :
#
#
# Convention : Reuss Voigt Hill
#
# Bulk Modulus (GPa) = 36.80754 41.80429 39.30592
# Shear Modulus (GPa) = 23.75797 37.64310 30.70053
#
# Velocity S-wave (km/s) = 3.45434 4.34814 3.92675
# Velocity P-wave (km/s) = 5.86486 6.79740 6.34828
#
# Compressibility (1/GPa) = 0.02716834
#
# Stress axis : x y z
#
# Youngs Moduli (GPa) = 87.52991 66.56709 67.04624
#
# Poissons Ratio (x) = 0.01979 0.19743
# Poissons Ratio (y) = 0.02603 0.25846
# Poissons Ratio (z) = 0.25774 0.25661
#
# Static dielectric constant tensor:
#      x y z
#    x 1.707360 0.000000 0.003660 
#    y 0.000000 1.681380 0.000000 
#    z 0.003660 0.000000 1.703490 
# 
# From -- ./inp_files/203327.got.cif
#   From: 2010.05.17/outbox.cif.g08.bks.cpg/sg12_102_cif.got.tgz:203327.got - 2010.06.03 13:09:07.
