data_PCOD9208867
_publ_section_title
;
Structure prediction by ZEFSAII (Michael W. Deem and Ramdas Pophale) SiO2 
 PCOD9208867
Probable space group: C 2/M
;
_chemical_formula_sum "Si O2"
_cell_formula_units_Z 56
_cell_length_a 24.629428
_cell_length_b 14.435105
_cell_length_c 8.639531
_cell_angle_alpha 90.000000
_cell_angle_beta 109.554531
_cell_angle_gamma 90.000000
_cell_volume 2894.438991
_symmetry_space_group_name_H-M "C 2/M"
_symmetry_group_IT_number 12
_symmetry_cell_setting 'monoclinic'
loop_
_space_group_symop_operation_xyz
x,y,z
-x,y,-z
-x,-y,-z
x,-y,z
1/2+x,1/2+y,z
1/2-x,1/2+y,-z
1/2-x,1/2-y,-z
1/2+x,1/2-y,z
loop_
_atom_site_type_symbol
_atom_site_label
_atom_site_fract_x
_atom_site_fract_y
_atom_site_fract_z
Si Si1 0.493252 0.800548 0.179907
Si Si2 0.238034 0.390474 0.071295
Si Si3 0.296940 0.771687 0.674474
Si Si4 0.161498 0.892379 0.075786
Si Si5 0.471395 0.601080 0.142123
Si Si6 0.881017 0.389546 0.215776
Si Si7 0.892218 0.610117 0.587832
O O1 0.497060 0.693819 0.240107
O O2 0.431327 0.839072 0.170481
O O3 0.543551 0.861255 0.302116
O O4 0.500000 0.802171 0.000000
O O5 0.236818 0.500000 0.109350
O O6 0.233869 0.328377 0.218260
O O7 0.293885 0.373423 0.020143
O O8 0.181230 0.369693 0.915563
O O9 0.250000 0.750000 0.500000
O O10 0.324448 0.679174 0.774756
O O11 0.347451 0.834246 0.650539
O O12 0.169621 0.000000 0.132103
O O13 0.096485 0.883394 0.952296
O O14 0.479916 0.500000 0.225803
O O15 0.500000 0.595743 0.000000
O O16 0.890818 0.500000 0.212896
O O17 0.882794 0.365753 0.398695
O O18 0.884080 0.500000 0.598856
#
# Coordination Sequence:
#
# PCOD9208867 Si02
#       7
#     8   8   8   8   8   8   8
#     4  11  21  35  60  90 118 152 197 246 300 361
#     4  10  21  39  62  87 117 155 200 249 298 353
#     4  12  24  37  59  89 122 156 194 245 302 358
#     4  10  21  38  60  85 116 158 205 248 295 355
#     4   9  18  34  57  83 112 148 191 238 286 343
#     4  10  21  38  60  85 118 159 199 244 298 356
#     4  11  24  41  59  85 121 158 197 243 299 361
#
# _framework density 19.347446999999999
#
# number of rings (size 3 to 8) (size 9 to 14) (size 15 to 20)
#    0.000    1.571    0.000    6.000    0.000    6.857 
#    0.000    0.000    0.000    2.571    0.000    0.000 
#    0.000    0.000    0.000    0.000    0.000    0.000 
#
# Total GULP energy -156515.954835 kJ/mol
# GULP energy per Si atom -5589.855530 kJ/mol
# Density = 1.930341 g / cm^3
# Si number density = 19.347447 Si / 1000 Ang^3
#
#
#
# Elastic Constant Matrix: (Units=GPa)
#
#
# Indices 1 2 3 4 5 6 
#
# 1 137.7612 52.0500 27.1481 0.0000 -4.5014 0.0000
# 2 52.0500 96.9777 46.2245 0.0000 -20.4283 0.0000
# 3 27.1481 46.2245 79.6123 0.0000 -12.1799 0.0000
# 4 0.0000 0.0000 0.0000 28.6646 0.0000 -2.7705
# 5 -4.5014 -20.4283 -12.1799 0.0000 19.7489 0.0000
# 6 0.0000 0.0000 0.0000 -2.7705 0.0000 45.5664
#
#
#
# Elastic Compliance Matrix: (Units=1/GPa)
#
#
# Indices 1 2 3 4 5 6 
#
# 1 0.009353 -0.005600 -0.000550 0.000000 -0.004000 0.000000
# 2 -0.005600 0.019975 -0.007423 0.000000 0.014808 0.000000
# 3 -0.000550 -0.007423 0.017517 0.000000 0.003000 0.000000
# 4 0.000000 0.000000 0.000000 0.035092 0.000000 0.002134
# 5 -0.004000 0.014808 0.003000 0.000000 0.066891 0.000000
# 6 0.000000 0.000000 0.000000 0.002134 0.000000 0.022076
#
#
# Mechanical properties :
#
#
# Convention : Reuss Voigt Hill
#
# Bulk Modulus (GPa) = 50.76344 62.79960 56.78152
# Shear Modulus (GPa) = 24.43611 31.39120 27.91365
#
# Velocity S-wave (km/s) = 3.55775 4.03239 3.80248
# Velocity P-wave (km/s) = 6.57050 7.36272 6.97786
#
# Compressibility (1/GPa) = 0.01969922
#
# Stress axis : x y z
#
# Youngs Moduli (GPa) = 106.92311 50.06336 57.08754
#
# Poissons Ratio (x) = 0.28038 0.03137
# Poissons Ratio (y) = 0.59881 0.42373
# Poissons Ratio (z) = 0.05876 0.37160
#
# Static dielectric constant tensor:
#      x y z
#    x 1.648310 0.000000 -0.000100 
#    y 0.000000 1.706830 0.000000 
#    z -0.000100 0.000000 1.634520 
# 
# From -- ./inp_files/96947.got.cif
#   From: 2010.05.17/outbox.cif.g08.bks.cpg/sg12_49_cif.got.tgz:96947.got - 2010.06.03 13:09:07.
