data_PCOD9208469
_publ_section_title
;
Structure prediction by ZEFSAII (Michael W. Deem and Ramdas Pophale) SiO2 
 PCOD9208469
Probable space group: C 2/M
;
_chemical_formula_sum "Si O2"
_cell_formula_units_Z 64
_cell_length_a 17.013514
_cell_length_b 21.532619
_cell_length_c 17.656720
_cell_angle_alpha 90.000000
_cell_angle_beta 148.647240
_cell_angle_gamma 90.000000
_cell_volume 3365.576751
_symmetry_space_group_name_H-M "C 2/M"
_symmetry_group_IT_number 12
_symmetry_cell_setting 'monoclinic'
loop_
_space_group_symop_operation_xyz
x,y,z
-x,y,-z
-x,-y,-z
x,-y,z
1/2+x,1/2+y,z
1/2-x,1/2+y,-z
1/2-x,1/2-y,-z
1/2+x,1/2-y,z
loop_
_atom_site_type_symbol
_atom_site_label
_atom_site_fract_x
_atom_site_fract_y
_atom_site_fract_z
Si Si1 0.821805 0.759019 0.349974
Si Si2 0.321834 0.195844 0.507189
Si Si3 0.825357 0.721078 0.181115
Si Si4 0.851101 0.630129 0.839307
Si Si5 0.716358 0.654636 0.953512
Si Si6 0.902300 0.927374 0.261616
Si Si7 0.006130 0.567079 0.841208
Si Si8 0.226358 0.070366 0.499127
O O1 0.796087 0.713372 0.398518
O O2 0.784471 0.733490 0.235084
O O3 0.722638 0.820485 0.277694
O O4 0.000000 0.774834 0.500000
O O5 0.250000 0.250000 0.500000
O O6 0.501518 0.197219 0.672894
O O7 0.249330 0.129236 0.464412
O O8 0.816902 0.785387 0.126336
O O9 0.721076 0.675431 0.044865
O O10 0.720335 0.608473 0.788701
O O11 0.920498 0.573400 0.850117
O O12 0.000000 0.659400 0.000000
O O13 0.608540 0.601121 0.831940
O O14 0.880636 0.624353 0.073526
O O15 0.077024 0.918438 0.427330
O O16 0.868858 0.000000 0.237434
O O17 0.084468 0.500000 0.900525
O O18 0.877100 0.569375 0.672619
O O19 0.207270 0.000000 0.451014
#
# Coordination Sequence:
#
# PCOD9208469 Si02
#       8
#     8   8   8   8   8   8   8   8
#     4  10  23  39  60  85 120 152 196 248 300 356
#     4  11  21  37  65  90 115 158 207 245 301 359
#     4  10  21  38  57  88 117 151 192 257 297 343
#     4  12  23  36  53  85 124 155 193 242 296 358
#     4  11  20  36  61  81 121 152 196 241 295 351
#     4  11  23  38  57  83 118 159 197 237 294 362
#     4  11  22  36  57  84 116 161 202 238 288 361
#     4  10  23  41  58  84 118 154 204 253 297 356
#
# _framework density 19.016058000000001
#
# number of rings (size 3 to 8) (size 9 to 14) (size 15 to 20)
#    0.000    1.250    3.750    2.250    3.500    0.500 
#    2.250    1.875    0.000    4.875    0.000    1.750 
#    0.000    0.000    0.000    0.000    0.000    0.000 
#
# Total GULP energy -178480.721976 kJ/mol
# GULP energy per Si atom -5577.522562 kJ/mol
# Density = 1.897278 g / cm^3
# Si number density = 19.016058 Si / 1000 Ang^3
#
#
#
# Elastic Constant Matrix: (Units=GPa)
#
#
# Indices 1 2 3 4 5 6 
#
# 1 51.0134 27.6913 26.9275 -0.0006 -7.8587 0.0000
# 2 27.6913 88.7330 35.0782 -0.0004 4.1156 -0.0001
# 3 26.9275 35.0782 70.0449 -0.0030 -3.5594 -0.0008
# 4 -0.0006 -0.0004 -0.0030 28.0521 -0.0013 2.9984
# 5 -7.8587 4.1156 -3.5594 -0.0013 35.4668 -0.0002
# 6 0.0000 -0.0001 -0.0008 2.9984 -0.0002 25.2181
#
#
#
# Elastic Compliance Matrix: (Units=1/GPa)
#
#
# Indices 1 2 3 4 5 6 
#
# 1 0.027673 -0.006029 -0.007309 0.000000 0.006098 0.000000
# 2 -0.006029 0.015563 -0.005664 -0.000001 -0.003710 0.000000
# 3 -0.007309 -0.005664 0.019976 0.000002 0.001043 0.000000
# 4 0.000000 -0.000001 0.000002 0.036107 0.000002 -0.004293
# 5 0.006098 -0.003710 0.001043 0.000002 0.030082 0.000000
# 6 0.000000 0.000000 0.000000 -0.004293 0.000000 0.040164
#
#
# Mechanical properties :
#
#
# Convention : Reuss Voigt Hill
#
# Bulk Modulus (GPa) = 39.67284 43.24281 41.45783
# Shear Modulus (GPa) = 23.15107 25.75370 24.45239
#
# Velocity S-wave (km/s) = 3.49298 3.68409 3.58981
# Velocity P-wave (km/s) = 6.09721 6.39423 6.24749
#
# Compressibility (1/GPa) = 0.02520616
#
# Stress axis : x y z
#
# Youngs Moduli (GPa) = 36.13619 64.25597 50.05999
#
# Poissons Ratio (x) = 0.38743 0.36589
# Poissons Ratio (y) = 0.21788 0.28356
# Poissons Ratio (z) = 0.26412 0.36397
#
# Static dielectric constant tensor:
#      x y z
#    x 1.660070 0.000000 -0.007000 
#    y 0.000000 1.666770 0.000000 
#    z -0.007000 0.000000 1.712250 
# 
# From -- ./inp_files/99151.got.cif
#   From: 2010.05.17/outbox.cif.g08.bks.cpg/sg12_50_cif.got.tgz:99151.got - 2010.06.03 13:09:07.
