data_PCOD9208669
_publ_section_title
;
Structure prediction by ZEFSAII (Michael W. Deem and Ramdas Pophale) SiO2 
 PCOD9208669
Probable space group: C 2/M
;
_chemical_formula_sum "Si O2"
_cell_formula_units_Z 48
_cell_length_a 15.733658
_cell_length_b 11.016837
_cell_length_c 12.211082
_cell_angle_alpha 90.000000
_cell_angle_beta 81.198618
_cell_angle_gamma 90.000000
_cell_volume 2091.685944
_symmetry_space_group_name_H-M "C 2/M"
_symmetry_group_IT_number 12
_symmetry_cell_setting 'monoclinic'
loop_
_space_group_symop_operation_xyz
x,y,z
-x,y,-z
-x,-y,-z
x,-y,z
1/2+x,1/2+y,z
1/2-x,1/2+y,-z
1/2-x,1/2-y,-z
1/2+x,1/2-y,z
loop_
_atom_site_type_symbol
_atom_site_label
_atom_site_fract_x
_atom_site_fract_y
_atom_site_fract_z
Si Si1 0.897472 0.359092 0.142715
Si Si2 0.118932 0.639822 0.449206
Si Si3 0.724827 0.743128 0.274920
Si Si4 0.816987 0.646539 0.940992
Si Si5 0.563130 0.500000 0.627853
Si Si6 0.533717 0.233295 0.671496
Si Si7 0.359902 0.500000 0.614908
O O1 0.877613 0.500000 0.162012
O O2 0.818648 0.283313 0.209773
O O3 0.974645 0.328859 0.209365
O O4 0.895250 0.340459 0.012577
O O5 0.098639 0.500000 0.436048
O O6 0.211460 0.672628 0.383170
O O7 0.104892 0.671467 0.578386
O O8 0.050229 0.716125 0.389190
O O9 0.675143 0.811602 0.185618
O O10 0.684471 0.615316 0.320546
O O11 0.792651 0.500000 0.949236
O O12 0.750000 0.750000 0.000000
O O13 0.563587 0.370714 0.685778
O O14 0.462305 0.500000 0.612586
O O15 0.635322 0.500000 0.518254
#
# Coordination Sequence:
#
# PCOD9208669 Si02
#       7
#     8   8   8   8   4   8   4
#     4  10  21  38  59  83 117 154 190 238 296 347
#     4  11  21  35  58  83 112 151 193 239 288 351
#     4  11  20  36  61  86 114 148 199 242 289 348
#     4   9  20  38  59  85 117 157 198 240 299 355
#     4  11  20  38  59  83 117 154 198 232 298 362
#     4  11  21  38  56  83 116 151 192 236 292 359
#     4  11  18  38  63  85 111 157 198 240 289 365
#
# _framework density 22.947996
#
# number of rings (size 3 to 8) (size 9 to 14) (size 15 to 20)
#    0.000    1.500    4.167    3.500    1.167    0.667 
#    7.500    0.833    0.000    4.000    0.000    0.000 
#    0.000    0.000    0.000    0.000    0.000    0.000 
#
# Total GULP energy -133748.384774 kJ/mol
# GULP energy per Si atom -5572.849366 kJ/mol
# Density = 2.289577 g / cm^3
# Si number density = 22.947996 Si / 1000 Ang^3
#
#
#
# Elastic Constant Matrix: (Units=GPa)
#
#
# Indices 1 2 3 4 5 6 
#
# 1 44.5257 19.4276 24.3250 0.0000 3.8223 0.0000
# 2 19.4276 128.4080 22.9720 0.0000 7.0689 0.0000
# 3 24.3250 22.9720 96.0088 0.0000 5.9316 0.0000
# 4 0.0000 0.0000 0.0000 34.9608 0.0000 5.3228
# 5 3.8223 7.0689 5.9316 0.0000 40.3821 0.0000
# 6 0.0000 0.0000 0.0000 5.3228 0.0000 -112.4633
#
#
#
# Elastic Compliance Matrix: (Units=1/GPa)
#
#
# Indices 1 2 3 4 5 6 
#
# 1 0.027186 -0.002956 -0.006109 0.000000 -0.001158 0.000000
# 2 -0.002956 0.008511 -0.001224 0.000000 -0.001030 0.000000
# 3 -0.006109 -0.001224 0.012319 0.000000 -0.001017 0.000000
# 4 0.000000 0.000000 0.000000 0.028399 0.000000 0.001344
# 5 -0.001158 -0.001030 -0.001017 0.000000 0.025203 0.000000
# 6 0.000000 0.000000 0.000000 0.001344 0.000000 -0.008828
#
#
# Mechanical properties :
#
#
# Convention : Reuss Voigt Hill
#
# Bulk Modulus (GPa) = 36.44649 44.71020 40.57834
# Shear Modulus (GPa) = 40.81213 6.05710 23.43461
#
# Velocity S-wave (km/s) = 4.22176 1.62641 3.19910
# Velocity P-wave (km/s) = 6.29928 4.80130 5.60060
#
# Compressibility (1/GPa) = 0.02743749
#
# Stress axis : x y z
#
# Youngs Moduli (GPa) = 36.78405 117.50059 81.17495
#
# Poissons Ratio (x) = 0.34739 0.49589
# Poissons Ratio (y) = 0.10875 0.09933
# Poissons Ratio (z) = 0.22471 0.14378
#
# Static dielectric constant tensor:
#      x y z
#    x 1.966270 0.000000 0.044450 
#    y 0.000000 1.859940 0.000000 
#    z 0.044450 0.000000 1.871320 
# 
# From -- ./inp_files/164201.got.cif
#   From: 2010.05.17/outbox.cif.g08.bks.cpg/sg12_83_cif.got.tgz:164201.got - 2010.06.03 13:09:07.
