data_PCOD9208503
_publ_section_title
;
Structure prediction by ZEFSAII (Michael W. Deem and Ramdas Pophale) SiO2 
 PCOD9208503
Probable space group: C 2/M
;
_chemical_formula_sum "Si O2"
_cell_formula_units_Z 56
_cell_length_a 15.931125
_cell_length_b 8.863369
_cell_length_c 20.585505
_cell_angle_alpha 90.000000
_cell_angle_beta 112.159189
_cell_angle_gamma 90.000000
_cell_volume 2692.050480
_symmetry_space_group_name_H-M "C 2/M"
_symmetry_group_IT_number 12
_symmetry_cell_setting 'monoclinic'
loop_
_space_group_symop_operation_xyz
x,y,z
-x,y,-z
-x,-y,-z
x,-y,z
1/2+x,1/2+y,z
1/2-x,1/2+y,-z
1/2-x,1/2-y,-z
1/2+x,1/2-y,z
loop_
_atom_site_type_symbol
_atom_site_label
_atom_site_fract_x
_atom_site_fract_y
_atom_site_fract_z
Si Si1 0.272768 0.680004 0.303468
Si Si2 0.359455 0.681199 0.842279
Si Si3 0.019533 0.820451 0.677924
Si Si4 0.970300 0.318710 0.177241
Si Si5 0.553786 0.170916 0.462676
Si Si6 0.252969 0.833084 0.431799
Si Si7 0.765967 0.318310 0.075184
O O1 0.261491 0.500000 0.294737
O O2 0.212276 0.764327 0.232682
O O3 0.379381 0.714284 0.321124
O O4 0.238008 0.735538 0.363484
O O5 0.367572 0.500000 0.843153
O O6 0.455999 0.753393 0.851720
O O7 0.312976 0.726624 0.897060
O O8 0.009101 0.745139 0.745064
O O9 0.946423 0.756180 0.605342
O O10 0.012320 0.000000 0.681903
O O11 0.976558 0.500000 0.179757
O O12 0.866535 0.275156 0.129774
O O13 0.500000 0.268361 0.500000
O O14 0.639998 0.145242 0.532369
O O15 0.519536 0.000000 0.437794
O O16 0.250000 0.750000 0.500000
O O17 0.210190 0.000000 0.417435
O O18 0.764588 0.500000 0.071108
O O19 0.750000 0.250000 0.000000
#
# Coordination Sequence:
#
# PCOD9208503 Si02
#       7
#     8   8   8   8   8   8   8
#     4  11  23  40  63  91 124 168 218 272 331 390
#     4  11  24  44  68  99 134 174 222 270 324 387
#     4  11  23  38  62  92 122 162 213 268 324 385
#     4  11  24  44  68  98 134 174 218 264 321 387
#     4  10  21  38  58  80 110 155 207 258 319 380
#     4  11  24  40  58  82 119 165 214 272 331 387
#     4  10  24  45  72 102 137 176 214 262 321 386
#
# _framework density 20.801985999999999
#
# number of rings (size 3 to 8) (size 9 to 14) (size 15 to 20)
#    0.000    1.286    2.857    2.143    2.000    5.429 
#    0.000    2.857    0.000    0.000    0.000    0.000 
#    0.000    0.000    0.000    0.000    0.000    0.000 
#
# Total GULP energy -156147.597218 kJ/mol
# GULP energy per Si atom -5576.699901 kJ/mol
# Density = 2.075464 g / cm^3
# Si number density = 20.801986 Si / 1000 Ang^3
#
#
#
# Elastic Constant Matrix: (Units=GPa)
#
#
# Indices 1 2 3 4 5 6 
#
# 1 77.9763 26.2874 27.1929 0.0000 -28.8935 0.0000
# 2 26.2874 72.4213 28.8640 0.0000 -16.3355 0.0000
# 3 27.1929 28.8640 128.2629 0.0000 -31.3639 0.0000
# 4 0.0000 0.0000 0.0000 35.8348 0.0000 -1.9906
# 5 -28.8935 -16.3355 -31.3639 0.0000 37.2665 0.0000
# 6 0.0000 0.0000 0.0000 -1.9906 0.0000 31.7730
#
#
#
# Elastic Compliance Matrix: (Units=1/GPa)
#
#
# Indices 1 2 3 4 5 6 
#
# 1 0.018964 -0.003971 0.000054 0.000000 0.013008 0.000000
# 2 -0.003971 0.016700 -0.002366 0.000000 0.002250 0.000000
# 3 0.000054 -0.002366 0.010166 0.000000 0.007561 0.000000
# 4 0.000000 0.000000 0.000000 0.028003 0.000000 0.001754
# 5 0.013008 0.002250 0.007561 0.000000 0.044269 0.000000
# 6 0.000000 0.000000 0.000000 0.001754 0.000000 0.031583
#
#
# Mechanical properties :
#
#
# Convention : Reuss Voigt Hill
#
# Bulk Modulus (GPa) = 30.06208 49.26100 39.66154
# Shear Modulus (GPa) = 28.84495 34.06259 31.45377
#
# Velocity S-wave (km/s) = 3.72781 4.05095 3.89274
# Velocity P-wave (km/s) = 5.74558 6.75371 6.26994
#
# Compressibility (1/GPa) = 0.03326449
#
# Stress axis : x y z
#
# Youngs Moduli (GPa) = 52.73036 59.88011 98.36409
#
# Poissons Ratio (x) = 0.23778 -0.00530
# Poissons Ratio (y) = 0.20939 0.23273
# Poissons Ratio (z) = -0.00284 0.14168
#
# Static dielectric constant tensor:
#      x y z
#    x 1.607110 0.000000 -0.014190 
#    y 0.000000 1.774720 0.000000 
#    z -0.014190 0.000000 1.692690 
# 
# From -- ./inp_files/275659.got.cif
#   From: 2010.05.17/outbox.cif.g08.bks.cpg/sg12_138_cif.got.tgz:275659.got - 2010.06.03 13:09:07.
