data_PCOD9208050
_publ_section_title
;
Structure prediction by ZEFSAII (Michael W. Deem and Ramdas Pophale) SiO2 
 PCOD9208050
Probable space group: C 2/M
;
_chemical_formula_sum "Si O2"
_cell_formula_units_Z 56
_cell_length_a 13.501959
_cell_length_b 13.519659
_cell_length_c 17.805807
_cell_angle_alpha 90.000000
_cell_angle_beta 57.901579
_cell_angle_gamma 90.000000
_cell_volume 2753.452649
_symmetry_space_group_name_H-M "C 2/M"
_symmetry_group_IT_number 12
_symmetry_cell_setting 'monoclinic'
loop_
_space_group_symop_operation_xyz
x,y,z
-x,y,-z
-x,-y,-z
x,-y,z
1/2+x,1/2+y,z
1/2-x,1/2+y,-z
1/2-x,1/2-y,-z
1/2+x,1/2-y,z
loop_
_atom_site_type_symbol
_atom_site_label
_atom_site_fract_x
_atom_site_fract_y
_atom_site_fract_z
Si Si1 0.197159 0.778380 0.602743
Si Si2 0.155320 0.615267 0.144800
Si Si3 0.606925 0.894244 0.400006
Si Si4 0.584039 0.606751 0.894906
Si Si5 0.283276 0.113567 0.273263
Si Si6 0.500639 0.182621 0.909288
Si Si7 0.931999 0.227038 0.705526
O O1 0.250000 0.750000 0.500000
O O2 0.276021 0.865450 0.604287
O O3 0.204836 0.686317 0.659040
O O4 0.063190 0.811997 0.651702
O O5 0.120775 0.500000 0.169980
O O6 0.287001 0.623697 0.122913
O O7 0.123459 0.644377 0.072318
O O8 0.087345 0.701349 0.215942
O O9 0.500000 0.899795 0.500000
O O10 0.578263 0.806002 0.356952
O O11 0.619329 0.000000 0.355456
O O12 0.583305 0.500000 0.854761
O O13 0.536107 0.703970 0.873865
O O14 0.500000 0.598184 0.000000
O O15 0.397499 0.122310 0.174127
O O16 0.171878 0.150274 0.268956
O O17 0.268979 0.000000 0.302988
O O18 0.500000 0.175144 0.000000
#
# Coordination Sequence:
#
# PCOD9208050 Si02
#       7
#     8   8   8   8   8   8   8
#     4  11  23  41  65  91 126 164 209 259 317 387
#     4  11  22  39  64  92 122 171 219 260 321 382
#     4  10  21  37  61  91 118 150 200 257 308 367
#     4   9  20  40  63  89 124 165 211 260 319 381
#     4  11  25  43  64  94 132 172 211 266 327 379
#     4  11  23  40  67  95 132 168 219 269 316 376
#     4  11  22  41  62  87 126 165 210 261 315 383
#
# _framework density 20.338101999999999
#
# number of rings (size 3 to 8) (size 9 to 14) (size 15 to 20)
#    0.000    1.429    4.286    0.857    0.000    5.143 
#    0.000    1.429    0.000    0.000    0.000    0.000 
#    0.000    0.000    0.000    0.000    0.000    0.000 
#
# Total GULP energy -156169.608406 kJ/mol
# GULP energy per Si atom -5577.486014 kJ/mol
# Density = 2.029181 g / cm^3
# Si number density = 20.338102 Si / 1000 Ang^3
#
#
#
# Elastic Constant Matrix: (Units=GPa)
#
#
# Indices 1 2 3 4 5 6 
#
# 1 87.3915 26.3863 13.0117 0.0000 -14.5742 0.0000
# 2 26.3863 98.7955 7.1345 0.0000 -4.4984 0.0000
# 3 13.0117 7.1345 67.6165 0.0000 0.5227 0.0000
# 4 0.0000 0.0000 0.0000 11.3138 0.0000 -2.7957
# 5 -14.5742 -4.4984 0.5227 0.0000 34.9503 0.0000
# 6 0.0000 0.0000 0.0000 -2.7957 0.0000 27.7937
#
#
#
# Elastic Compliance Matrix: (Units=1/GPa)
#
#
# Indices 1 2 3 4 5 6 
#
# 1 0.013652 -0.003236 -0.002327 0.000000 0.005311 0.000000
# 2 -0.003236 0.011029 -0.000542 0.000000 0.000078 0.000000
# 3 -0.002327 -0.000542 0.015304 0.000000 -0.001269 0.000000
# 4 0.000000 0.000000 0.000000 0.090640 0.000000 0.009117
# 5 0.005311 0.000078 -0.001269 0.000000 0.030856 0.000000
# 6 0.000000 0.000000 0.000000 0.009117 0.000000 0.036896
#
#
# Mechanical properties :
#
#
# Convention : Reuss Voigt Hill
#
# Bulk Modulus (GPa) = 36.00253 38.54096 37.27174
# Shear Modulus (GPa) = 22.74326 28.62964 25.68645
#
# Velocity S-wave (km/s) = 3.34767 3.75598 3.55769
# Velocity P-wave (km/s) = 5.71690 6.14826 5.93650
#
# Compressibility (1/GPa) = 0.02777583
#
# Stress axis : x y z
#
# Youngs Moduli (GPa) = 73.24901 90.67052 65.34252
#
# Poissons Ratio (x) = 0.29344 0.15203
# Poissons Ratio (y) = 0.23706 0.03539
# Poissons Ratio (z) = 0.17043 0.04910
#
# Static dielectric constant tensor:
#      x y z
#    x 4.959230 0.000000 0.021920 
#    y 0.000000 1.752360 0.000000 
#    z 0.021920 0.000000 1.722920 
# 
# From -- ./inp_files/263266.got.cif
#   From: 2010.05.17/outbox.cif.g08.bks.cpg/sg12_132_cif.got.tgz:263266.got - 2010.06.03 13:09:07.
