data_PCOD9208653
_publ_section_title
;
Structure prediction by ZEFSAII (Michael W. Deem and Ramdas Pophale) SiO2 
 PCOD9208653
Probable space group: C 2/M
;
_chemical_formula_sum "Si O2"
_cell_formula_units_Z 48
_cell_length_a 31.732763
_cell_length_b 8.754427
_cell_length_c 18.478548
_cell_angle_alpha 90.000000
_cell_angle_beta 30.768020
_cell_angle_gamma 90.000000
_cell_volume 2626.049330
_symmetry_space_group_name_H-M "C 2/M"
_symmetry_group_IT_number 12
_symmetry_cell_setting 'monoclinic'
loop_
_space_group_symop_operation_xyz
x,y,z
-x,y,-z
-x,-y,-z
x,-y,z
1/2+x,1/2+y,z
1/2-x,1/2+y,-z
1/2-x,1/2-y,-z
1/2+x,1/2-y,z
loop_
_atom_site_type_symbol
_atom_site_label
_atom_site_fract_x
_atom_site_fract_y
_atom_site_fract_z
Si Si1 0.331526 0.316363 0.417198
Si Si2 0.998962 0.183944 0.086114
Si Si3 0.754038 0.182005 0.914913
Si Si4 0.916211 0.183673 0.583754
Si Si5 0.834895 0.683725 0.095020
Si Si6 0.676394 0.817596 0.411077
O O1 0.325986 0.500000 0.427673
O O2 0.250000 0.250000 0.500000
O O3 0.412699 0.274827 0.251140
O O4 0.337735 0.251269 0.488929
O O5 0.007895 0.000000 0.077319
O O6 0.000000 0.226516 0.000000
O O7 0.076511 0.260379 0.010481
O O8 0.840638 0.218518 0.748851
O O9 0.685412 0.231374 0.957729
O O10 0.748502 0.000000 0.929538
O O11 0.750000 0.250000 0.000000
O O12 0.894205 0.263940 0.540832
O O13 0.000000 0.228889 0.500000
O O14 0.917822 0.000000 0.569430
O O15 0.828643 0.500000 0.108547
O O16 0.762639 0.753919 0.251519
O O17 0.680074 0.000000 0.409086
#
# Coordination Sequence:
#
# PCOD9208653 Si02
#       6
#     8   8   8   8   8   8
#     4  11  23  39  60  86 117 150 186 231 282 335
#     4  10  22  39  59  85 114 144 182 228 278 334
#     4   9  19  34  53  79 109 142 180 224 274 328
#     4   9  19  37  58  80 109 146 189 236 285 333
#     4  10  21  38  59  83 112 147 189 234 281 333
#     4  11  22  37  58  83 114 151 192 235 280 335
#
# _framework density 18.278407000000001
#
# number of rings (size 3 to 8) (size 9 to 14) (size 15 to 20)
#    0.000    2.000    0.000    4.500    0.000    8.000 
#    0.000    5.000    0.000    0.000    0.000    0.000 
#    0.000    0.000    0.000    0.000    0.000    0.000 
#
# Total GULP energy -134039.823161 kJ/mol
# GULP energy per Si atom -5584.992632 kJ/mol
# Density = 1.823680 g / cm^3
# Si number density = 18.278407 Si / 1000 Ang^3
#
#
#
# Elastic Constant Matrix: (Units=GPa)
#
#
# Indices 1 2 3 4 5 6 
#
# 1 214.4979 73.6701 122.2377 -0.0005 2.0101 0.0001
# 2 73.6701 59.5909 60.1327 -0.0005 -1.2899 0.0004
# 3 122.2377 60.1327 120.5361 -0.0005 -0.3214 0.0004
# 4 -0.0005 -0.0005 -0.0005 26.7289 0.0008 -1.6069
# 5 2.0101 -1.2899 -0.3214 0.0008 43.4753 -0.0003
# 6 0.0001 0.0004 0.0004 -1.6069 -0.0003 38.6772
#
#
#
# Elastic Compliance Matrix: (Units=1/GPa)
#
#
# Indices 1 2 3 4 5 6 
#
# 1 0.011777 -0.005079 -0.009412 0.000000 -0.000765 0.000000
# 2 -0.005079 0.036017 -0.012814 0.000000 0.001209 0.000000
# 3 -0.009412 -0.012814 0.024234 0.000000 0.000234 0.000000
# 4 0.000000 0.000000 0.000000 0.037506 -0.000001 0.001558
# 5 -0.000765 0.001209 0.000234 -0.000001 0.023075 0.000000
# 6 0.000000 0.000000 0.000000 0.001558 0.000000 0.025920
#
#
# Mechanical properties :
#
#
# Convention : Reuss Voigt Hill
#
# Bulk Modulus (GPa) = 57.40993 100.74510 79.07752
# Shear Modulus (GPa) = 22.83695 31.01526 26.92611
#
# Velocity S-wave (km/s) = 3.53851 4.12372 3.84228
# Velocity P-wave (km/s) = 6.94057 8.82667 7.93983
#
# Compressibility (1/GPa) = 0.01741859
#
# Stress axis : x y z
#
# Youngs Moduli (GPa) = 84.91098 27.76492 41.26452
#
# Poissons Ratio (x) = 0.14102 0.38836
# Poissons Ratio (y) = 0.43126 0.52876
# Poissons Ratio (z) = 0.79914 0.35578
#
# Static dielectric constant tensor:
#      x y z
#    x 1.616920 0.000000 -0.000260 
#    y 0.000000 1.618740 0.000000 
#    z -0.000260 0.000000 1.606310 
# 
# From -- ./inp_files/274124.got.cif
#   From: 2010.05.17/outbox.cif.g08.bks.cpg/sg12_138_cif.got.tgz:274124.got - 2010.06.03 13:09:07.
