data_PCOD9208630
_publ_section_title
;
Structure prediction by ZEFSAII (Michael W. Deem and Ramdas Pophale) SiO2 
 PCOD9208630
Probable space group: C 2/M
;
_chemical_formula_sum "Si O2"
_cell_formula_units_Z 56
_cell_length_a 29.600039
_cell_length_b 9.177630
_cell_length_c 19.487192
_cell_angle_alpha 90.000000
_cell_angle_beta 146.629431
_cell_angle_gamma 90.000000
_cell_volume 2911.894986
_symmetry_space_group_name_H-M "C 2/M"
_symmetry_group_IT_number 12
_symmetry_cell_setting 'monoclinic'
loop_
_space_group_symop_operation_xyz
x,y,z
-x,y,-z
-x,-y,-z
x,-y,z
1/2+x,1/2+y,z
1/2-x,1/2+y,-z
1/2-x,1/2-y,-z
1/2+x,1/2-y,z
loop_
_atom_site_type_symbol
_atom_site_label
_atom_site_fract_x
_atom_site_fract_y
_atom_site_fract_z
Si Si1 0.177604 0.674647 0.866313
Si Si2 0.276825 0.172616 0.230502
Si Si3 0.162100 0.826450 0.555564
Si Si4 0.042110 0.330528 0.195826
Si Si5 0.186108 0.829629 0.314993
Si Si6 0.900551 0.832553 0.943522
Si Si7 0.500170 0.827999 0.700031
O O1 0.185818 0.500000 0.883602
O O2 0.187068 0.708831 0.797760
O O3 0.088679 0.715511 0.783038
O O4 0.250000 0.750000 0.000000
O O5 0.314246 0.267523 0.338924
O O6 0.178212 0.192578 0.107506
O O7 0.290857 0.000000 0.263160
O O8 0.229430 0.755393 0.589978
O O9 0.072797 0.766382 0.423811
O O10 0.166412 0.000000 0.558043
O O11 0.059508 0.500000 0.205544
O O12 0.125830 0.240339 0.293932
O O13 0.004730 0.312947 0.224131
O O14 0.974421 0.271865 0.056758
O O15 0.136003 0.816877 0.179211
O O16 0.201767 0.000000 0.347356
O O17 0.928907 0.000000 0.987346
O O18 0.486970 0.000000 0.667133
#
# Coordination Sequence:
#
# PCOD9208630 Si02
#       7
#     8   8   8   8   8   8   8
#     4  10  21  38  62  89 117 152 190 228 276 332
#     4   9  19  37  60  84 114 153 189 227 281 338
#     4  11  23  39  60  85 110 142 189 239 283 329
#     4  11  22  34  53  82 114 149 189 234 281 327
#     4  10  21  38  59  81 111 150 187 228 281 341
#     4   9  18  33  54  81 112 146 184 227 280 338
#     4  10  23  41  57  79 115 154 189 228 278 336
#
# _framework density 19.231463000000002
#
# number of rings (size 3 to 8) (size 9 to 14) (size 15 to 20)
#    0.000    2.000    0.000    4.286    0.000    8.000 
#    0.000    2.857    0.000    0.000    0.000    0.000 
#    0.000    0.000    0.000    0.000    0.000    0.000 
#
# Total GULP energy -156489.550600 kJ/mol
# GULP energy per Si atom -5588.912521 kJ/mol
# Density = 1.918769 g / cm^3
# Si number density = 19.231463 Si / 1000 Ang^3
#
#
#
# Elastic Constant Matrix: (Units=GPa)
#
#
# Indices 1 2 3 4 5 6 
#
# 1 103.0340 46.2766 23.8786 0.0000 35.1715 0.0000
# 2 46.2766 94.6191 55.8104 0.0000 17.5175 0.0000
# 3 23.8786 55.8104 78.0310 0.0000 22.8439 0.0000
# 4 0.0000 0.0000 0.0000 33.0378 0.0000 1.9850
# 5 35.1715 17.5175 22.8439 0.0000 25.2107 0.0000
# 6 0.0000 0.0000 0.0000 1.9850 0.0000 24.5406
#
#
#
# Elastic Compliance Matrix: (Units=1/GPa)
#
#
# Indices 1 2 3 4 5 6 
#
# 1 0.025573 -0.012829 0.012501 0.000000 -0.038090 0.000000
# 2 -0.012829 0.024742 -0.019023 0.000000 0.017943 0.000000
# 3 0.012501 -0.019023 0.032437 0.000000 -0.033613 0.000000
# 4 0.000000 0.000000 0.000000 0.030416 0.000000 -0.002460
# 5 -0.038090 0.017943 -0.033613 0.000000 0.110794 0.000000
# 6 0.000000 0.000000 0.000000 -0.002460 0.000000 0.040948
#
#
# Mechanical properties :
#
#
# Convention : Reuss Voigt Hill
#
# Bulk Modulus (GPa) = 22.70232 58.62394 40.66313
# Shear Modulus (GPa) = 15.70870 26.53906 21.12388
#
# Velocity S-wave (km/s) = 2.86111 3.71884 3.31781
# Velocity P-wave (km/s) = 4.76917 6.99923 5.98892
#
# Compressibility (1/GPa) = 0.04404835
#
# Stress axis : x y z
#
# Youngs Moduli (GPa) = 39.10447 40.41715 30.82939
#
# Poissons Ratio (x) = 0.51851 -0.38540
# Poissons Ratio (y) = 0.50167 0.58648
# Poissons Ratio (z) = -0.48885 0.76887
#
# Static dielectric constant tensor:
#      x y z
#    x 1.684920 0.000000 -0.004400 
#    y 0.000000 1.644730 0.000000 
#    z -0.004400 0.000000 1.642040 
# 
# From -- ./inp_files/281674.got.cif
#   From: 2010.05.17/outbox.cif.g08.bks.cpg/sg12_141_cif.got.tgz:281674.got - 2010.06.03 13:09:07.
