data_PCOD9208312
_publ_section_title
;
Structure prediction by ZEFSAII (Michael W. Deem and Ramdas Pophale) SiO2 
 PCOD9208312
Probable space group: C 2/M
;
_chemical_formula_sum "Si O2"
_cell_formula_units_Z 40
_cell_length_a 8.845120
_cell_length_b 14.599075
_cell_length_c 31.611298
_cell_angle_alpha 90.000000
_cell_angle_beta 30.716717
_cell_angle_gamma 90.000000
_cell_volume 2085.052485
_symmetry_space_group_name_H-M "C 2/M"
_symmetry_group_IT_number 12
_symmetry_cell_setting 'monoclinic'
loop_
_space_group_symop_operation_xyz
x,y,z
-x,y,-z
-x,-y,-z
x,-y,z
1/2+x,1/2+y,z
1/2-x,1/2+y,-z
1/2-x,1/2-y,-z
1/2+x,1/2-y,z
loop_
_atom_site_type_symbol
_atom_site_label
_atom_site_fract_x
_atom_site_fract_y
_atom_site_fract_z
Si Si1 0.807561 0.000000 0.745116
Si Si2 0.662536 0.000000 0.594935
Si Si3 0.173370 0.696123 0.060167
Si Si4 0.848045 0.500000 0.921082
Si Si5 0.803855 0.155593 0.305515
Si Si6 0.030537 0.500000 0.726676
Si Si7 0.284898 0.192143 0.771300
O O1 0.790434 0.000000 0.698895
O O2 0.964441 0.086958 0.728217
O O3 0.477572 0.000000 0.842634
O O4 0.494448 0.093057 0.619492
O O5 0.634648 0.000000 0.652738
O O6 0.000000 0.000000 0.500000
O O7 0.050280 0.593888 0.081658
O O8 0.952608 0.750567 0.144326
O O9 0.500000 0.684117 0.000000
O O10 0.250000 0.750000 0.000000
O O11 0.500000 0.500000 0.000000
O O12 0.824905 0.176579 0.250273
O O13 0.901413 0.252003 0.303294
O O14 0.843862 0.592762 0.777031
#
# Coordination Sequence:
#
# PCOD9208312 Si02
#       7
#     4   4   8   4   8   4   8
#     4  11  20  39  61  85 118 160 212 252 302 367
#     4   9  21  45  67  99 131 151 194 253 313 381
#     4  11  24  38  56  84 120 163 209 268 319 354
#     4  10  23  37  57  82 119 160 210 264 317 349
#     4  10  21  37  65  90 119 165 198 251 306 368
#     4  10  24  37  66  91 120 168 205 256 312 371
#     4  11  21  39  58  89 123 159 219 251 304 378
#
# _framework density 19.184170000000002
#
# number of rings (size 3 to 8) (size 9 to 14) (size 15 to 20)
#    0.000    1.600    2.000    3.000    5.600    0.000 
#    0.000    7.000    0.000    0.000    0.000    0.000 
#    0.000    0.000    0.000    0.000    0.000    0.000 
#
# Total GULP energy -111360.440719 kJ/mol
# GULP energy per Si atom -5568.022036 kJ/mol
# Density = 1.914051 g / cm^3
# Si number density = 19.184170 Si / 1000 Ang^3
#
#
#
# Elastic Constant Matrix: (Units=GPa)
#
#
# Indices 1 2 3 4 5 6 
#
# 1 109.2473 39.7920 8.5795 0.0046 -4.3912 0.0000
# 2 39.7920 169.0983 27.0333 0.0050 -5.5780 0.0008
# 3 8.5795 27.0333 84.9836 -0.0208 -24.1497 0.0146
# 4 0.0046 0.0050 -0.0208 17.3003 0.0176 -6.6795
# 5 -4.3912 -5.5780 -24.1497 0.0176 20.6431 -0.0025
# 6 0.0000 0.0008 0.0146 -6.6795 -0.0025 31.3830
#
#
#
# Elastic Compliance Matrix: (Units=1/GPa)
#
#
# Indices 1 2 3 4 5 6 
#
# 1 0.010061 -0.002347 0.000238 -0.000004 0.001784 -0.000001
# 2 -0.002347 0.006790 -0.002312 -0.000003 -0.001369 0.000000
# 3 0.000238 -0.002312 0.018448 -0.000001 0.021008 -0.000007
# 4 -0.000004 -0.000003 -0.000001 0.062978 -0.000055 0.013404
# 5 0.001784 -0.001369 0.021008 -0.000055 0.073028 -0.000016
# 6 -0.000001 0.000000 -0.000007 0.013404 -0.000016 0.034717
#
#
# Mechanical properties :
#
#
# Convention : Reuss Voigt Hill
#
# Bulk Modulus (GPa) = 37.79626 57.12654 47.46140
# Shear Modulus (GPa) = 22.35286 33.06025 27.70656
#
# Velocity S-wave (km/s) = 3.41717 4.15578 3.80444
# Velocity P-wave (km/s) = 5.94255 7.27117 6.64018
#
# Compressibility (1/GPa) = 0.02645764
#
# Stress axis : x y z
#
# Youngs Moduli (GPa) = 99.38993 147.26573 54.20555
#
# Poissons Ratio (x) = 0.34560 -0.01289
# Poissons Ratio (y) = 0.23325 0.12534
# Poissons Ratio (z) = -0.02364 0.34052
#
# Static dielectric constant tensor:
#      x y z
#    x 1.662150 -0.000020 -0.023920 
#    y -0.000020 1.817550 0.000010 
#    z -0.023920 0.000010 1.653120 
# 
# From -- ./inp_files/194640.got.cif
#   From: 2010.05.17/outbox.cif.g08.bks.cpg/sg12_98_cif.got.tgz:194640.got - 2010.06.03 13:09:07.
