data_PCOD9208869
_publ_section_title
;
Structure prediction by ZEFSAII (Michael W. Deem and Ramdas Pophale) SiO2 
 PCOD9208869
Probable space group: C 2/M
;
_chemical_formula_sum "Si O2"
_cell_formula_units_Z 56
_cell_length_a 16.243584
_cell_length_b 9.183653
_cell_length_c 21.259463
_cell_angle_alpha 90.000000
_cell_angle_beta 111.592816
_cell_angle_gamma 90.000000
_cell_volume 2948.829952
_symmetry_space_group_name_H-M "C 2/M"
_symmetry_group_IT_number 12
_symmetry_cell_setting 'monoclinic'
loop_
_space_group_symop_operation_xyz
x,y,z
-x,y,-z
-x,-y,-z
x,-y,z
1/2+x,1/2+y,z
1/2-x,1/2+y,-z
1/2-x,1/2-y,-z
1/2+x,1/2-y,z
loop_
_atom_site_type_symbol
_atom_site_label
_atom_site_fract_x
_atom_site_fract_y
_atom_site_fract_z
Si Si1 0.928301 0.677132 0.660537
Si Si2 0.927079 0.830311 0.069545
Si Si3 0.070541 0.326198 0.798297
Si Si4 0.630972 0.670252 0.081797
Si Si5 0.260231 0.327998 0.356308
Si Si6 0.235793 0.829692 0.789313
Si Si7 0.448334 0.174555 0.420958
O O1 0.925341 0.500000 0.658104
O O2 0.826598 0.726840 0.631066
O O3 0.978088 0.717319 0.739353
O O4 0.990043 0.724395 0.619996
O O5 0.915686 0.736873 0.128510
O O6 0.029892 0.822076 0.077577
O O7 0.907359 0.000000 0.077236
O O8 0.871021 0.785937 0.992260
O O9 0.075071 0.500000 0.800986
O O10 0.147437 0.261815 0.776476
O O11 0.658306 0.500000 0.093197
O O12 0.691581 0.768304 0.142487
O O13 0.272586 0.500000 0.372736
O O14 0.237518 0.313910 0.275829
O O15 0.352013 0.246847 0.394063
O O16 0.219411 0.000000 0.796747
O O17 0.500000 0.204591 0.500000
O O18 0.437381 0.000000 0.411957
#
# Coordination Sequence:
#
# PCOD9208869 Si02
#       7
#     8   8   8   8   8   8   8
#     4   9  19  37  59  84 117 154 191 234 287 342
#     4   9  19  36  55  78 109 143 187 241 290 342
#     4  11  21  35  57  80 109 151 193 235 293 348
#     4   9  19  36  56  77 107 148 187 233 295 348
#     4  10  21  38  60  85 117 154 191 237 290 339
#     4  11  22  35  54  81 112 145 191 245 291 339
#     4  10  21  39  62  88 120 155 191 232 280 341
#
# _framework density 18.990583000000001
#
# number of rings (size 3 to 8) (size 9 to 14) (size 15 to 20)
#    0.000    2.143    1.429    2.571    0.000    4.286 
#    0.000    3.571    0.000    0.000    0.000    0.000 
#    0.000    0.000    0.000    0.000    0.000    0.000 
#
# Total GULP energy -156281.615568 kJ/mol
# GULP energy per Si atom -5581.486270 kJ/mol
# Density = 1.894736 g / cm^3
# Si number density = 18.990583 Si / 1000 Ang^3
#
#
#
# Elastic Constant Matrix: (Units=GPa)
#
#
# Indices 1 2 3 4 5 6 
#
# 1 71.7412 19.7482 26.8086 0.0000 25.1592 0.0000
# 2 19.7482 39.9508 38.7161 0.0000 9.3432 0.0000
# 3 26.8086 38.7161 88.1250 0.0000 20.3229 0.0000
# 4 0.0000 0.0000 0.0000 21.1415 0.0000 8.2103
# 5 25.1592 9.3432 20.3229 0.0000 25.0079 0.0000
# 6 0.0000 0.0000 0.0000 8.2103 0.0000 23.6480
#
#
#
# Elastic Compliance Matrix: (Units=1/GPa)
#
#
# Indices 1 2 3 4 5 6 
#
# 1 0.023064 -0.007626 0.001265 0.000000 -0.021383 0.000000
# 2 -0.007626 0.046127 -0.019370 0.000000 0.006181 0.000000
# 3 0.001265 -0.019370 0.022271 0.000000 -0.012135 0.000000
# 4 0.000000 0.000000 0.000000 0.054672 0.000000 -0.018981
# 5 -0.021383 0.006181 -0.012135 0.000000 0.069052 0.000000
# 6 0.000000 0.000000 0.000000 -0.018981 0.000000 0.048877
#
#
# Mechanical properties :
#
#
# Convention : Reuss Voigt Hill
#
# Bulk Modulus (GPa) = 25.00042 41.15144 33.07593
# Shear Modulus (GPa) = 15.20410 21.59576 18.39993
#
# Velocity S-wave (km/s) = 2.83258 3.37587 3.11609
# Velocity P-wave (km/s) = 4.88787 6.07551 5.51376
#
# Compressibility (1/GPa) = 0.03999933
#
# Stress axis : x y z
#
# Youngs Moduli (GPa) = 43.35701 21.67930 44.90138
#
# Poissons Ratio (x) = 0.16534 -0.05681
# Poissons Ratio (y) = 0.33066 0.86975
# Poissons Ratio (z) = -0.05486 0.41993
#
# Static dielectric constant tensor:
#      x y z
#    x 1.672220 0.000000 -0.006570 
#    y 0.000000 1.634980 0.000000 
#    z -0.006570 0.000000 1.656740 
# 
# From -- ./inp_files/314397.got.cif
#   From: 2010.05.17/outbox.cif.g08.bks.cpg/sg12_158_cif.got.tgz:314397.got - 2010.06.03 13:09:07.
