data_PCOD9208654
_publ_section_title
;
Structure prediction by ZEFSAII (Michael W. Deem and Ramdas Pophale) SiO2 
 PCOD9208654
Probable space group: C 2/M
;
_chemical_formula_sum "Si O2"
_cell_formula_units_Z 48
_cell_length_a 25.813034
_cell_length_b 8.705701
_cell_length_c 12.649916
_cell_angle_alpha 90.000000
_cell_angle_beta 70.763178
_cell_angle_gamma 90.000000
_cell_volume 2683.973716
_symmetry_space_group_name_H-M "C 2/M"
_symmetry_group_IT_number 12
_symmetry_cell_setting 'monoclinic'
loop_
_space_group_symop_operation_xyz
x,y,z
-x,y,-z
-x,-y,-z
x,-y,z
1/2+x,1/2+y,z
1/2-x,1/2+y,-z
1/2-x,1/2-y,-z
1/2+x,1/2-y,z
loop_
_atom_site_type_symbol
_atom_site_label
_atom_site_fract_x
_atom_site_fract_y
_atom_site_fract_z
Si Si1 0.621631 0.815541 0.213920
Si Si2 0.186061 0.815875 0.370386
Si Si3 0.502284 0.185147 0.375954
Si Si4 0.803838 0.185465 0.260330
Si Si5 0.305745 0.315796 0.013137
Si Si6 0.389028 0.684830 0.378729
O O1 0.660941 0.757071 0.281405
O O2 0.559762 0.767563 0.284919
O O3 0.624221 0.000000 0.208490
O O4 0.644254 0.747063 0.090082
O O5 0.247891 0.757428 0.342035
O O6 0.147795 0.771180 0.494825
O O7 0.185730 0.000000 0.361415
O O8 0.500000 0.237847 0.500000
O O9 0.449050 0.245614 0.351587
O O10 0.500882 0.000000 0.377829
O O11 0.809521 0.228760 0.133592
O O12 0.855527 0.231649 0.296991
O O13 0.798949 0.000000 0.269278
O O14 0.304066 0.500000 0.008025
O O15 0.250000 0.250000 0.000000
O O16 0.393551 0.500000 0.375623
#
# Coordination Sequence:
#
# PCOD9208654 Si02
#       6
#     8   8   8   8   8   8
#     4  11  22  37  58  84 115 148 188 236 284 334
#     4  11  21  33  56  88 117 146 185 233 284 341
#     4  10  21  38  59  83 112 150 191 232 284 337
#     4  10  22  39  57  81 117 155 186 229 286 341
#     4  11  22  37  59  84 114 150 192 234 281 335
#     4  10  22  38  57  85 117 150 189 231 284 343
#
# _framework density 17.883929999999999
#
# number of rings (size 3 to 8) (size 9 to 14) (size 15 to 20)
#    0.000    1.500    3.333    2.000    0.000    3.667 
#    0.000    0.833    0.000    5.000    0.000    0.000 
#    0.000    0.000    0.000    0.000    0.000    0.000 
#
# Total GULP energy -134103.048340 kJ/mol
# GULP energy per Si atom -5587.627014 kJ/mol
# Density = 1.784323 g / cm^3
# Si number density = 17.883930 Si / 1000 Ang^3
#
#
#
# Elastic Constant Matrix: (Units=GPa)
#
#
# Indices 1 2 3 4 5 6 
#
# 1 135.3131 18.4959 33.1400 0.0000 -10.0232 0.0000
# 2 18.4959 18.7225 17.6517 0.0000 -3.1534 0.0000
# 3 33.1400 17.6517 70.7594 0.0000 -13.5435 0.0000
# 4 0.0000 0.0000 0.0000 24.7467 0.0000 -3.8540
# 5 -10.0232 -3.1534 -13.5435 0.0000 33.0685 0.0000
# 6 0.0000 0.0000 0.0000 -3.8540 0.0000 33.4664
#
#
#
# Elastic Compliance Matrix: (Units=1/GPa)
#
#
# Indices 1 2 3 4 5 6 
#
# 1 0.008928 -0.006396 -0.002371 0.000000 0.001125 0.000000
# 2 -0.006396 0.074426 -0.015824 0.000000 -0.001322 0.000000
# 3 -0.002371 -0.015824 0.020360 0.000000 0.006111 0.000000
# 4 0.000000 0.000000 0.000000 0.041147 0.000000 0.004739
# 5 0.001125 -0.001322 0.006111 0.000000 0.032958 0.000000
# 6 0.000000 0.000000 0.000000 0.004739 0.000000 0.030426
#
#
# Mechanical properties :
#
#
# Convention : Reuss Voigt Hill
#
# Bulk Modulus (GPa) = 18.33736 40.37448 29.35592
# Shear Modulus (GPa) = 18.14190 28.62349 23.38269
#
# Velocity S-wave (km/s) = 3.18846 4.00498 3.61982
# Velocity P-wave (km/s) = 4.88168 6.63411 5.82418
#
# Compressibility (1/GPa) = 0.05453346
#
# Stress axis : x y z
#
# Youngs Moduli (GPa) = 112.00098 13.43615 49.11621
#
# Poissons Ratio (x) = 0.08593 0.11644
# Poissons Ratio (y) = 0.71633 0.77722
# Poissons Ratio (z) = 0.26553 0.21261
#
# Static dielectric constant tensor:
#      x y z
#    x 1.582110 0.000000 0.000220 
#    y 0.000000 1.604320 0.000000 
#    z 0.000220 0.000000 1.605930 
# 
# From -- ./inp_files/172031.got.cif
#   From: 2010.05.17/outbox.cif.g08.bks.cpg/sg12_87_cif.got.tgz:172031.got - 2010.06.03 13:09:07.
