data_PCOD9208189
_publ_section_title
;
Structure prediction by ZEFSAII (Michael W. Deem and Ramdas Pophale) SiO2 
 PCOD9208189
Probable space group: C 2/M
;
_chemical_formula_sum "Si O2"
_cell_formula_units_Z 52
_cell_length_a 9.371317
_cell_length_b 19.689102
_cell_length_c 18.304528
_cell_angle_alpha 90.000000
_cell_angle_beta 134.180219
_cell_angle_gamma 90.000000
_cell_volume 2422.121006
_symmetry_space_group_name_H-M "C 2/M"
_symmetry_group_IT_number 12
_symmetry_cell_setting 'monoclinic'
loop_
_space_group_symop_operation_xyz
x,y,z
-x,y,-z
-x,-y,-z
x,-y,z
1/2+x,1/2+y,z
1/2-x,1/2+y,-z
1/2-x,1/2-y,-z
1/2+x,1/2-y,z
loop_
_atom_site_type_symbol
_atom_site_label
_atom_site_fract_x
_atom_site_fract_y
_atom_site_fract_z
Si Si1 0.000000 0.101412 0.500000
Si Si2 0.107300 0.200232 0.901774
Si Si3 0.876085 0.576441 0.731488
Si Si4 0.122763 0.196158 0.412475
Si Si5 0.757659 0.697646 0.793727
Si Si6 0.192672 0.921445 0.180419
Si Si7 0.285875 0.927081 0.385050
O O1 0.212703 0.072415 0.606465
O O2 0.058383 0.145896 0.452692
O O3 0.223884 0.185815 0.867775
O O4 0.924613 0.251037 0.828098
O O5 0.994375 0.131527 0.891731
O O6 0.250000 0.250000 0.000000
O O7 0.889530 0.500000 0.765420
O O8 0.796568 0.627662 0.764660
O O9 0.101848 0.597062 0.788756
O O10 0.250000 0.250000 0.500000
O O11 0.208336 0.145126 0.383633
O O12 0.941777 0.231635 0.308185
O O13 0.266591 0.924299 0.291161
O O14 0.137160 0.000000 0.141102
O O15 0.500000 0.930582 0.500000
O O16 0.184998 0.000000 0.371499
#
# Coordination Sequence:
#
# PCOD9208189 Si02
#       7
#     4   8   8   8   8   8   8
#     4  10  23  36  56  94 143 204 236 272 337 408
#     4  12  26  48  74 101 135 178 239 302 369 420
#     4  10  22  42  67 103 148 189 234 282 343 423
#     4  11  25  36  59  95 141 187 233 279 337 413
#     4  11  26  43  68 100 135 186 228 294 359 422
#     4  10  22  43  72 103 140 188 238 295 354 426
#     4  10  21  37  62  96 138 185 233 277 333 413
#
# _framework density 21.468788
#
# number of rings (size 3 to 8) (size 9 to 14) (size 15 to 20)
#    0.000    1.385    1.538    2.538    9.692    4.923 
#    0.000    0.769    0.000    5.538    0.000    0.000 
#    0.000    0.000    0.000    0.000    0.000    0.000 
#
# Total GULP energy -144755.108306 kJ/mol
# GULP energy per Si atom -5567.504166 kJ/mol
# Density = 2.141992 g / cm^3
# Si number density = 21.468788 Si / 1000 Ang^3
#
#
#
# Elastic Constant Matrix: (Units=GPa)
#
#
# Indices 1 2 3 4 5 6 
#
# 1 95.4905 51.5171 33.6451 0.0000 -11.3302 0.0000
# 2 51.5171 115.8797 43.9293 0.0000 4.5251 0.0000
# 3 33.6451 43.9293 82.2653 0.0001 3.6749 0.0000
# 4 0.0000 0.0000 0.0001 62.1153 0.0000 16.8866
# 5 -11.3302 4.5251 3.6749 0.0000 23.5190 0.0000
# 6 0.0000 0.0000 0.0000 16.8866 0.0000 38.3581
#
#
#
# Elastic Compliance Matrix: (Units=1/GPa)
#
#
# Indices 1 2 3 4 5 6 
#
# 1 0.016283 -0.006178 -0.003790 0.000000 0.009625 0.000000
# 2 -0.006178 0.013197 -0.004304 0.000000 -0.004843 0.000000
# 3 -0.003790 -0.004304 0.016162 0.000000 -0.003523 0.000000
# 4 0.000000 0.000000 0.000000 0.018288 0.000000 -0.008051
# 5 0.009625 -0.004843 -0.003523 0.000000 0.048638 0.000000
# 6 0.000000 0.000000 0.000000 -0.008051 0.000000 0.029614
#
#
# Mechanical properties :
#
#
# Convention : Reuss Voigt Hill
#
# Bulk Modulus (GPa) = 58.49076 61.31317 59.90197
# Shear Modulus (GPa) = 28.34065 35.76809 32.05437
#
# Velocity S-wave (km/s) = 3.63724 4.08616 3.86822
# Velocity P-wave (km/s) = 6.70396 7.13326 6.92194
#
# Compressibility (1/GPa) = 0.01709672
#
# Stress axis : x y z
#
# Youngs Moduli (GPa) = 61.41483 75.77526 61.87438
#
# Poissons Ratio (x) = 0.46813 0.23453
# Poissons Ratio (y) = 0.37941 0.26632
# Poissons Ratio (z) = 0.23279 0.32615
#
# Static dielectric constant tensor:
#      x y z
#    x 1.827590 0.000000 0.059310 
#    y 0.000000 1.812420 0.000000 
#    z 0.059310 0.000000 1.819750 
# 
# From -- ./inp_files/258544.got.cif
#   From: 2010.05.17/outbox.cif.g08.bks.cpg/sg12_130_cif.got.tgz:258544.got - 2010.06.03 13:09:07.
