data_PCOD9208082
_publ_section_title
;
Structure prediction by ZEFSAII (Michael W. Deem and Ramdas Pophale) SiO2 
 PCOD9208082
Probable space group: C 2/M
;
_chemical_formula_sum "Si O2"
_cell_formula_units_Z 64
_cell_length_a 23.297704
_cell_length_b 23.166525
_cell_length_c 16.587417
_cell_angle_alpha 90.000000
_cell_angle_beta 158.024700
_cell_angle_gamma 90.000000
_cell_volume 3350.152038
_symmetry_space_group_name_H-M "C 2/M"
_symmetry_group_IT_number 12
_symmetry_cell_setting 'monoclinic'
loop_
_space_group_symop_operation_xyz
x,y,z
-x,y,-z
-x,-y,-z
x,-y,z
1/2+x,1/2+y,z
1/2-x,1/2+y,-z
1/2-x,1/2-y,-z
1/2+x,1/2-y,z
loop_
_atom_site_type_symbol
_atom_site_label
_atom_site_fract_x
_atom_site_fract_y
_atom_site_fract_z
Si Si1 0.612256 0.721142 0.270279
Si Si2 0.288345 0.566202 0.028452
Si Si3 0.586984 0.636126 0.366059
Si Si4 0.346795 0.751772 0.451192
Si Si5 0.318505 0.932138 0.773789
Si Si6 0.718282 0.764132 0.110870
Si Si7 0.177948 0.886551 0.756824
Si Si8 0.081845 0.335983 0.694059
O O1 0.750000 0.750000 0.500000
O O2 0.596353 0.656969 0.285779
O O3 0.682445 0.728608 0.273174
O O4 0.455345 0.753756 0.086850
O O5 0.278448 0.500000 0.990162
O O6 0.440468 0.597297 0.192694
O O7 0.303026 0.569904 0.144428
O O8 0.148185 0.604790 0.814039
O O9 0.585122 0.696449 0.413986
O O10 0.732319 0.602065 0.590572
O O11 0.320339 0.734594 0.324790
O O12 0.463423 0.805027 0.600523
O O13 0.265966 0.905913 0.790879
O O14 0.277789 0.000000 0.718489
O O15 0.500000 0.926085 0.000000
O O16 0.753008 0.826379 0.119632
O O17 0.781299 0.710619 0.141550
O O18 0.000000 0.881029 0.500000
O O19 0.000000 0.343884 0.500000
#
# Coordination Sequence:
#
# PCOD9208082 Si02
#       8
#     8   8   8   8   8   8   8   8
#     4  10  23  33  55  92 121 158 196 242 309 370
#     4  12  25  40  63  88 119 168 213 256 302 356
#     4  11  21  38  59  89 122 159 204 251 299 368
#     4  10  21  37  61  93 122 155 195 252 320 363
#     4  11  25  41  58  84 126 173 206 242 292 360
#     4  11  20  38  60  88 125 158 192 246 319 369
#     4  12  24  38  63  93 123 163 205 253 296 369
#     4  10  23  41  63  91 119 153 202 261 314 366
#
# _framework density 19.103611000000001
#
# number of rings (size 3 to 8) (size 9 to 14) (size 15 to 20)
#    0.000    1.125    3.750    3.000    7.000    1.750 
#    0.000    0.000    0.000    0.750    0.000    1.750 
#    0.000    0.000    0.000    0.000    0.000    0.000 
#
# Total GULP energy -178776.607568 kJ/mol
# GULP energy per Si atom -5586.768986 kJ/mol
# Density = 1.906013 g / cm^3
# Si number density = 19.103611 Si / 1000 Ang^3
#
#
#
# Elastic Constant Matrix: (Units=GPa)
#
#
# Indices 1 2 3 4 5 6 
#
# 1 50.9443 28.4901 6.8592 0.0000 17.6866 0.0000
# 2 28.4901 144.3881 52.4713 0.0000 8.2251 0.0000
# 3 6.8592 52.4713 90.6089 0.0000 15.3733 0.0000
# 4 0.0000 0.0000 0.0000 19.7987 0.0000 -5.8572
# 5 17.6866 8.2251 15.3733 0.0000 30.8412 0.0000
# 6 0.0000 0.0000 0.0000 -5.8572 0.0000 17.4748
#
#
#
# Elastic Compliance Matrix: (Units=1/GPa)
#
#
# Indices 1 2 3 4 5 6 
#
# 1 0.028321 -0.006190 0.004278 0.000000 -0.016723 0.000000
# 2 -0.006190 0.010126 -0.006051 0.000000 0.003866 0.000000
# 3 0.004278 -0.006051 0.015686 0.000000 -0.008658 0.000000
# 4 0.000000 0.000000 0.000000 0.056068 0.000000 0.018793
# 5 -0.016723 0.003866 -0.008658 0.000000 0.045299 0.000000
# 6 0.000000 0.000000 0.000000 0.018793 0.000000 0.063525
#
#
# Mechanical properties :
#
#
# Convention : Reuss Voigt Hill
#
# Bulk Modulus (GPa) = 26.17387 51.28695 38.73041
# Shear Modulus (GPa) = 20.18680 26.83098 23.50889
#
# Velocity S-wave (km/s) = 3.25422 3.75173 3.51180
# Velocity P-wave (km/s) = 5.27737 6.75813 6.06313
#
# Compressibility (1/GPa) = 0.03820605
#
# Stress axis : x y z
#
# Youngs Moduli (GPa) = 35.30972 98.75518 63.75156
#
# Poissons Ratio (x) = 0.61132 -0.27274
# Poissons Ratio (y) = 0.21858 0.38578
# Poissons Ratio (z) = -0.15106 0.59759
#
# Static dielectric constant tensor:
#      x y z
#    x 1.725470 0.000000 -0.007320 
#    y 0.000000 1.654580 0.000000 
#    z -0.007320 0.000000 1.675690 
# 
# From -- ./inp_files/290938.got.cif
#   From: 2010.05.17/outbox.cif.g08.bks.cpg/sg12_146_cif.got.tgz:290938.got - 2010.06.03 13:09:07.
