data_PCOD9208661
_publ_section_title
;
Structure prediction by ZEFSAII (Michael W. Deem and Ramdas Pophale) SiO2 
 PCOD9208661
Probable space group: C 2/M
;
_chemical_formula_sum "Si O2"
_cell_formula_units_Z 48
_cell_length_a 14.922050
_cell_length_b 7.768788
_cell_length_c 17.869645
_cell_angle_alpha 90.000000
_cell_angle_beta 85.159398
_cell_angle_gamma 90.000000
_cell_volume 2064.172196
_symmetry_space_group_name_H-M "C 2/M"
_symmetry_group_IT_number 12
_symmetry_cell_setting 'monoclinic'
loop_
_space_group_symop_operation_xyz
x,y,z
-x,y,-z
-x,-y,-z
x,-y,z
1/2+x,1/2+y,z
1/2-x,1/2+y,-z
1/2-x,1/2-y,-z
1/2+x,1/2-y,z
loop_
_atom_site_type_symbol
_atom_site_label
_atom_site_fract_x
_atom_site_fract_y
_atom_site_fract_z
Si Si1 0.659044 0.210260 0.294137
Si Si2 0.454171 0.797556 0.318236
Si Si3 0.573829 0.300232 0.841069
Si Si4 0.073392 0.303144 0.050501
Si Si5 0.789699 0.795369 0.416920
Si Si6 0.234776 0.710902 0.126712
O O1 0.556528 0.266179 0.316226
O O2 0.724696 0.271596 0.355356
O O3 0.694061 0.263963 0.209900
O O4 0.660316 0.000000 0.294468
O O5 0.408801 0.713894 0.248311
O O6 0.390470 0.767844 0.393397
O O7 0.457831 0.000000 0.303269
O O8 0.558751 0.500000 0.859303
O O9 0.484398 0.198220 0.868618
O O10 0.661090 0.236988 0.880362
O O11 0.087583 0.500000 0.025182
O O12 0.169093 0.224783 0.065672
O O13 0.000000 0.221108 0.000000
O O14 0.750000 0.750000 0.500000
O O15 0.791812 0.000000 0.410450
O O16 0.233445 0.500000 0.124613
#
# Coordination Sequence:
#
# PCOD9208661 Si02
#       6
#     8   8   8   8   8   8
#     4   9  18  35  60  82 111 152 190 224 279 348
#     4  11  21  37  62  88 112 148 195 237 275 333
#     4  11  21  35  58  85 115 151 189 234 285 339
#     4  10  21  38  59  83 114 151 192 236 281 335
#     4  11  23  41  60  85 118 152 187 232 287 338
#     4   9  17  34  57  82 112 151 187 225 284 345
#
# _framework density 23.253875000000001
#
# number of rings (size 3 to 8) (size 9 to 14) (size 15 to 20)
#    0.000    1.833    3.333    1.500    0.000    1.667 
#    0.000   10.000    0.000    0.000    0.000    0.000 
#    0.000    0.000    0.000    0.000    0.000    0.000 
#
# Total GULP energy -134159.825902 kJ/mol
# GULP energy per Si atom -5589.992746 kJ/mol
# Density = 2.320095 g / cm^3
# Si number density = 23.253875 Si / 1000 Ang^3
#
#
#
# Elastic Constant Matrix: (Units=GPa)
#
#
# Indices 1 2 3 4 5 6 
#
# 1 132.9713 12.3235 10.4788 0.0000 3.4748 0.0000
# 2 12.3235 58.3732 5.0503 0.0000 -1.2971 0.0000
# 3 10.4788 5.0503 64.3472 0.0000 -3.1675 0.0000
# 4 0.0000 0.0000 0.0000 25.5896 0.0000 -7.4290
# 5 3.4748 -1.2971 -3.1675 0.0000 38.4321 0.0000
# 6 0.0000 0.0000 0.0000 -7.4290 0.0000 17.5223
#
#
#
# Elastic Compliance Matrix: (Units=1/GPa)
#
#
# Indices 1 2 3 4 5 6 
#
# 1 0.007781 -0.001559 -0.001187 0.000000 -0.000854 0.000000
# 2 -0.001559 0.017569 -0.001093 0.000000 0.000644 0.000000
# 3 -0.001187 -0.001093 0.015888 0.000000 0.001380 0.000000
# 4 0.000000 0.000000 0.000000 0.044564 0.000000 0.018894
# 5 -0.000854 0.000644 0.001380 0.000000 0.026233 0.000000
# 6 0.000000 0.000000 0.000000 0.018894 0.000000 0.065081
#
#
# Mechanical properties :
#
#
# Convention : Reuss Voigt Hill
#
# Bulk Modulus (GPa) = 29.79781 34.59965 32.19873
# Shear Modulus (GPa) = 25.51291 31.49806 28.50549
#
# Velocity S-wave (km/s) = 3.31591 3.68439 3.50500
# Velocity P-wave (km/s) = 5.24427 5.74552 5.50061
#
# Compressibility (1/GPa) = 0.03355951
#
# Stress axis : x y z
#
# Youngs Moduli (GPa) = 128.52252 56.91786 62.94177
#
# Poissons Ratio (x) = 0.08873 0.07470
# Poissons Ratio (y) = 0.20036 0.06882
# Poissons Ratio (z) = 0.15253 0.06223
#
# Static dielectric constant tensor:
#      x y z
#    x 1.897180 0.000000 -0.013770 
#    y 0.000000 1.865510 0.000000 
#    z -0.013770 0.000000 1.931650 
# 
# From -- ./inp_files/267604.got.cif
#   From: 2010.05.17/outbox.cif.g08.bks.cpg/sg12_134_cif.got.tgz:267604.got - 2010.06.03 13:09:07.
