data_PCOD9208162
_publ_section_title
;
Structure prediction by ZEFSAII (Michael W. Deem and Ramdas Pophale) SiO2 
 PCOD9208162
Probable space group: C 2/M
;
_chemical_formula_sum "Si O2"
_cell_formula_units_Z 56
_cell_length_a 14.528546
_cell_length_b 17.968772
_cell_length_c 12.749150
_cell_angle_alpha 90.000000
_cell_angle_beta 123.568327
_cell_angle_gamma 90.000000
_cell_volume 2773.225152
_symmetry_space_group_name_H-M "C 2/M"
_symmetry_group_IT_number 12
_symmetry_cell_setting 'monoclinic'
loop_
_space_group_symop_operation_xyz
x,y,z
-x,y,-z
-x,-y,-z
x,-y,z
1/2+x,1/2+y,z
1/2-x,1/2+y,-z
1/2-x,1/2-y,-z
1/2+x,1/2-y,z
loop_
_atom_site_type_symbol
_atom_site_label
_atom_site_fract_x
_atom_site_fract_y
_atom_site_fract_z
Si Si1 0.682152 0.582335 0.647950
Si Si2 0.400641 0.845704 0.865464
Si Si3 0.875151 0.083913 0.956989
Si Si4 0.000196 0.752018 0.740457
Si Si5 0.534648 0.417379 0.763515
Si Si6 0.264329 0.777501 0.189760
Si Si7 0.158390 0.236105 0.530502
O O1 0.671245 0.500000 0.596026
O O2 0.807231 0.597427 0.766385
O O3 0.601090 0.588096 0.696760
O O4 0.650495 0.648230 0.550003
O O5 0.449426 0.801134 0.796205
O O6 0.331533 0.783538 0.885749
O O7 0.500000 0.875106 0.000000
O O8 0.787036 0.142646 0.863312
O O9 0.854747 0.000000 0.905794
O O10 0.879913 0.082728 0.085838
O O11 0.000000 0.104429 0.000000
O O12 0.970880 0.839437 0.739671
O O13 0.131258 0.742109 0.816193
O O14 0.951628 0.734735 0.594425
O O15 0.479871 0.500000 0.733131
O O16 0.303804 0.770109 0.335444
O O17 0.250000 0.250000 0.500000
#
# Coordination Sequence:
#
# PCOD9208162 Si02
#       7
#     8   8   8   8   8   8   8
#     4  10  22  42  62  90 126 159 203 257 311 370
#     4  11  23  38  61  94 121 161 205 251 308 372
#     4  10  22  40  61  91 129 165 206 259 313 369
#     4  12  22  38  65  90 123 163 203 254 314 365
#     4  10  21  37  62  93 125 156 197 256 318 365
#     4  11  22  38  61  89 122 159 208 255 303 367
#     4  11  22  42  62  89 122 161 208 259 304 366
#
# _framework density 20.193096000000001
#
# number of rings (size 3 to 8) (size 9 to 14) (size 15 to 20)
#    0.000    1.286    5.714    2.571    2.000    2.000 
#    0.000    2.857    0.000    0.857    0.000    0.000 
#    0.000    0.000    0.000    0.000    0.000    0.000 
#
# Total GULP energy -156411.766222 kJ/mol
# GULP energy per Si atom -5586.134508 kJ/mol
# Density = 2.014714 g / cm^3
# Si number density = 20.193096 Si / 1000 Ang^3
#
#
#
# Elastic Constant Matrix: (Units=GPa)
#
#
# Indices 1 2 3 4 5 6 
#
# 1 65.3266 10.7276 1.6889 0.0000 -3.8486 0.0000
# 2 10.7276 85.3283 21.1671 0.0000 -10.3077 0.0000
# 3 1.6889 21.1671 67.2761 0.0000 0.8807 0.0000
# 4 0.0000 0.0000 0.0000 21.8743 0.0000 -2.8173
# 5 -3.8486 -10.3077 0.8807 0.0000 31.6900 0.0000
# 6 0.0000 0.0000 0.0000 -2.8173 0.0000 18.6320
#
#
#
# Elastic Compliance Matrix: (Units=1/GPa)
#
#
# Indices 1 2 3 4 5 6 
#
# 1 0.015685 -0.001859 0.000174 0.000000 0.001295 0.000000
# 2 -0.001859 0.013530 -0.004267 0.000000 0.004294 0.000000
# 3 0.000174 -0.004267 0.016226 0.000000 -0.001818 0.000000
# 4 0.000000 0.000000 0.000000 0.046624 0.000000 0.007050
# 5 0.001295 0.004294 -0.001818 0.000000 0.033160 0.000000
# 6 0.000000 0.000000 0.000000 0.007050 0.000000 0.054737
#
#
# Mechanical properties :
#
#
# Convention : Reuss Voigt Hill
#
# Bulk Modulus (GPa) = 29.81634 31.67758 30.74696
# Shear Modulus (GPa) = 24.62524 26.72908 25.67716
#
# Velocity S-wave (km/s) = 3.49591 3.64218 3.56979
# Velocity P-wave (km/s) = 5.57609 5.78003 5.67897
#
# Compressibility (1/GPa) = 0.03353865
#
# Stress axis : x y z
#
# Youngs Moduli (GPa) = 63.75629 73.90881 61.62972
#
# Poissons Ratio (x) = 0.13737 -0.01073
# Poissons Ratio (y) = 0.11850 0.26295
# Poissons Ratio (z) = -0.01110 0.31534
#
# Static dielectric constant tensor:
#      x y z
#    x 1.737260 0.000000 0.017110 
#    y 0.000000 1.727400 0.000000 
#    z 0.017110 0.000000 1.751660 
# 
# From -- ./inp_files/146242.got.cif
#   From: 2010.05.17/outbox.cif.g08.bks.cpg/sg12_74_cif.got.tgz:146242.got - 2010.06.03 13:09:07.
