data_PCOD9208322
_publ_section_title
;
Structure prediction by ZEFSAII (Michael W. Deem and Ramdas Pophale) SiO2 
 PCOD9208322
Probable space group: C 2/M
;
_chemical_formula_sum "Si O2"
_cell_formula_units_Z 36
_cell_length_a 15.062698
_cell_length_b 14.287933
_cell_length_c 9.206564
_cell_angle_alpha 90.000000
_cell_angle_beta 74.163777
_cell_angle_gamma 90.000000
_cell_volume 1906.186706
_symmetry_space_group_name_H-M "C 2/M"
_symmetry_group_IT_number 12
_symmetry_cell_setting 'monoclinic'
loop_
_space_group_symop_operation_xyz
x,y,z
-x,y,-z
-x,-y,-z
x,-y,z
1/2+x,1/2+y,z
1/2-x,1/2+y,-z
1/2-x,1/2-y,-z
1/2+x,1/2-y,z
loop_
_atom_site_type_symbol
_atom_site_label
_atom_site_fract_x
_atom_site_fract_y
_atom_site_fract_z
Si Si1 0.605416 0.500000 0.406868
Si Si2 0.259205 0.855073 0.853119
Si Si3 0.443342 0.000000 0.376140
Si Si4 0.642690 0.329605 0.176399
Si Si5 0.962268 0.655886 0.854223
Si Si6 0.745225 0.500000 0.604427
O O1 0.500000 0.500000 0.500000
O O2 0.628190 0.409609 0.298675
O O3 0.662940 0.500000 0.528654
O O4 0.276650 0.744713 0.815889
O O5 0.357219 0.883575 0.883967
O O6 0.245200 0.911895 0.713348
O O7 0.177534 0.867236 0.005047
O O8 0.500000 0.000000 0.500000
O O9 0.473001 0.908522 0.272753
O O10 0.662399 0.000000 0.532155
O O11 0.553721 0.262329 0.193872
O O12 0.000000 0.654704 0.000000
#
# Coordination Sequence:
#
# PCOD9208322 Si02
#       6
#     4   8   4   8   8   4
#     4  12  29  45  57  90 125 177 214 250 301 372
#     4   9  20  42  64  96 120 161 207 256 303 371
#     4  12  21  36  62 104 135 154 186 257 342 378
#     4   9  22  43  66  83 126 163 218 253 293 360
#     4  10  21  37  65  99 126 157 203 253 314 372
#     4  12  25  39  67  91 131 163 196 261 328 370
#
# _framework density 18.885871999999999
#
# number of rings (size 3 to 8) (size 9 to 14) (size 15 to 20)
#    1.333    0.444    2.222    1.000    3.111    5.333 
#    0.000    1.667    0.000    0.000    0.000    0.000 
#    0.000    0.000    0.000    0.000    0.000    0.000 
#
# Total GULP energy -100348.647477 kJ/mol
# GULP energy per Si atom -5574.924860 kJ/mol
# Density = 1.884289 g / cm^3
# Si number density = 18.885872 Si / 1000 Ang^3
#
#
#
# Elastic Constant Matrix: (Units=GPa)
#
#
# Indices 1 2 3 4 5 6 
#
# 1 103.1686 43.6624 66.9676 0.0000 11.2926 0.0000
# 2 43.6624 103.8951 91.8596 0.0000 4.0677 0.0000
# 3 66.9676 91.8596 146.7324 0.0000 17.9938 0.0000
# 4 0.0000 0.0000 0.0000 96.8865 0.0000 -28.3407
# 5 11.2926 4.0677 17.9938 0.0000 38.7314 0.0000
# 6 0.0000 0.0000 0.0000 -28.3407 0.0000 -6.0297
#
#
#
# Elastic Compliance Matrix: (Units=1/GPa)
#
#
# Indices 1 2 3 4 5 6 
#
# 1 0.013846 -0.000722 -0.005707 0.000000 -0.001310 0.000000
# 2 -0.000722 0.022275 -0.014161 0.000000 0.004450 0.000000
# 3 -0.005707 -0.014161 0.018980 0.000000 -0.005667 0.000000
# 4 0.000000 0.000000 0.000000 0.004346 0.000000 -0.020427
# 5 -0.001310 0.004450 -0.005667 0.000000 0.028366 0.000000
# 6 0.000000 0.000000 0.000000 -0.020427 0.000000 -0.069834
#
#
# Mechanical properties :
#
#
# Convention : Reuss Voigt Hill
#
# Bulk Modulus (GPa) = 71.83202 84.30836 78.07019
# Shear Modulus (GPa) = 78.37152 36.00475 57.18814
#
# Velocity S-wave (km/s) = 6.44884 4.37102 5.50878
# Velocity P-wave (km/s) = 9.67302 8.37927 9.04930
#
# Compressibility (1/GPa) = 0.01392137
#
# Stress axis : x y z
#
# Youngs Moduli (GPa) = 72.22295 44.89367 52.68793
#
# Poissons Ratio (x) = 0.03242 0.30066
# Poissons Ratio (y) = 0.05215 0.74611
# Poissons Ratio (z) = 0.41214 0.63574
#
# Static dielectric constant tensor:
#      x y z
#    x 1.642510 0.000000 -0.008950 
#    y 0.000000 1.690100 0.000000 
#    z -0.008950 0.000000 1.610220 
# 
# From -- ./inp_files/58549.got.cif
#   From: 2010.05.17/outbox.cif.g08.bks.cpg/sg12_30_cif.got.tgz:58549.got - 2010.06.03 13:09:07.
