data_PCOD9208731
_publ_section_title
;
Structure prediction by ZEFSAII (Michael W. Deem and Ramdas Pophale) SiO2 
 PCOD9208731
Probable space group: C 2/M
;
_chemical_formula_sum "Si O2"
_cell_formula_units_Z 48
_cell_length_a 25.078216
_cell_length_b 7.707201
_cell_length_c 14.334670
_cell_angle_alpha 90.000000
_cell_angle_beta 137.966768
_cell_angle_gamma 90.000000
_cell_volume 1855.117885
_symmetry_space_group_name_H-M "C 2/M"
_symmetry_group_IT_number 12
_symmetry_cell_setting 'monoclinic'
loop_
_space_group_symop_operation_xyz
x,y,z
-x,y,-z
-x,-y,-z
x,-y,z
1/2+x,1/2+y,z
1/2-x,1/2+y,-z
1/2-x,1/2-y,-z
1/2+x,1/2-y,z
loop_
_atom_site_type_symbol
_atom_site_label
_atom_site_fract_x
_atom_site_fract_y
_atom_site_fract_z
Si Si1 0.835084 0.203986 0.505588
Si Si2 0.834629 0.699424 0.151813
Si Si3 0.422121 0.802443 0.013098
Si Si4 0.904565 0.798988 0.780899
Si Si5 0.994996 0.711202 0.602804
Si Si6 0.750824 0.288562 0.781622
O O1 0.768305 0.272943 0.348041
O O2 0.849150 0.276469 0.627287
O O3 0.917798 0.222430 0.556234
O O4 0.820001 0.000000 0.498940
O O5 0.842724 0.500000 0.138687
O O6 0.921440 0.775923 0.243663
O O7 0.818389 0.723957 0.240931
O O8 0.750000 0.750000 0.000000
O O9 0.408789 0.802091 0.883256
O O10 0.336501 0.730690 0.932442
O O11 0.432020 0.000000 0.058317
O O12 0.504101 0.706364 0.137797
O O13 0.886153 0.000000 0.776804
O O14 0.991780 0.500000 0.602178
O O15 0.000000 0.760178 0.500000
O O16 0.751191 0.500000 0.783164
#
# Coordination Sequence:
#
# PCOD9208731 Si02
#       6
#     8   8   8   8   8   8
#     4  10  22  38  59  86 115 151 191 233 283 338
#     4  11  24  40  59  85 117 152 192 236 285 338
#     4  10  21  38  60  84 113 150 189 233 284 339
#     4  10  21  38  59  86 115 146 188 235 284 341
#     4  10  21  39  59  83 115 150 190 235 279 333
#     4  10  22  40  59  84 117 151 191 236 283 338
#
# _framework density 25.874366999999999
#
# number of rings (size 3 to 8) (size 9 to 14) (size 15 to 20)
#    0.000    1.833    1.667    2.500    2.333    5.000 
#    0.000    0.000    0.000    0.000    0.000    0.000 
#    0.000    0.000    0.000    0.000    0.000    0.000 
#
# Total GULP energy -134247.533048 kJ/mol
# GULP energy per Si atom -5593.647210 kJ/mol
# Density = 2.581548 g / cm^3
# Si number density = 25.874367 Si / 1000 Ang^3
#
#
#
# Elastic Constant Matrix: (Units=GPa)
#
#
# Indices 1 2 3 4 5 6 
#
# 1 80.8369 -1.1726 0.5959 0.0000 6.3357 0.0000
# 2 -1.1726 65.9724 6.8970 0.0000 2.8340 0.0000
# 3 0.5959 6.8970 130.3803 0.0000 3.5313 0.0000
# 4 0.0000 0.0000 0.0000 18.4085 0.0000 1.0628
# 5 6.3357 2.8340 3.5313 0.0000 56.9147 0.0000
# 6 0.0000 0.0000 0.0000 1.0628 0.0000 22.2321
#
#
#
# Elastic Compliance Matrix: (Units=1/GPa)
#
#
# Indices 1 2 3 4 5 6 
#
# 1 0.012485 0.000286 -0.000034 0.000000 -0.001402 0.000000
# 2 0.000286 0.015277 -0.000789 0.000000 -0.000744 0.000000
# 3 -0.000034 -0.000789 0.007724 0.000000 -0.000436 0.000000
# 4 0.000000 0.000000 0.000000 0.054473 0.000000 -0.002604
# 5 -0.001402 -0.000744 -0.000436 0.000000 0.017790 0.000000
# 6 0.000000 0.000000 0.000000 -0.002604 0.000000 0.045104
#
#
# Mechanical properties :
#
#
# Convention : Reuss Voigt Hill
#
# Bulk Modulus (GPa) = 29.06115 32.20336 30.63226
# Shear Modulus (GPa) = 30.22989 37.56904 33.89946
#
# Velocity S-wave (km/s) = 3.42180 3.81462 3.62353
# Velocity P-wave (km/s) = 5.18340 5.64578 5.41952
#
# Compressibility (1/GPa) = 0.03441019
#
# Stress axis : x y z
#
# Youngs Moduli (GPa) = 80.09704 65.45620 129.47343
#
# Poissons Ratio (x) = -0.01870 0.00443
# Poissons Ratio (y) = -0.02288 0.10220
# Poissons Ratio (z) = 0.00274 0.05167
#
# Static dielectric constant tensor:
#      x y z
#    x 2.155580 0.000000 0.005940 
#    y 0.000000 1.918570 0.000000 
#    z 0.005940 0.000000 2.126760 
# 
# From -- ./inp_files/244828.got.cif
#   From: 2010.05.17/outbox.cif.g08.bks.cpg/sg12_123_cif.got.tgz:244828.got - 2010.06.03 13:09:07.
