data_PCOD9208476
_publ_section_title
;
Structure prediction by ZEFSAII (Michael W. Deem and Ramdas Pophale) SiO2 
 PCOD9208476
Probable space group: C 2/M
;
_chemical_formula_sum "Si O2"
_cell_formula_units_Z 52
_cell_length_a 21.628266
_cell_length_b 18.666067
_cell_length_c 12.196267
_cell_angle_alpha 90.000000
_cell_angle_beta 146.138492
_cell_angle_gamma 90.000000
_cell_volume 2743.485758
_symmetry_space_group_name_H-M "C 2/M"
_symmetry_group_IT_number 12
_symmetry_cell_setting 'monoclinic'
loop_
_space_group_symop_operation_xyz
x,y,z
-x,y,-z
-x,-y,-z
x,-y,z
1/2+x,1/2+y,z
1/2-x,1/2+y,-z
1/2-x,1/2-y,-z
1/2+x,1/2-y,z
loop_
_atom_site_type_symbol
_atom_site_label
_atom_site_fract_x
_atom_site_fract_y
_atom_site_fract_z
Si Si1 0.680165 0.851534 0.540722
Si Si2 0.092015 0.500000 0.346311
Si Si3 0.684286 0.842161 0.996140
Si Si4 0.010712 0.274309 0.143544
Si Si5 0.583527 0.617446 0.212423
Si Si6 0.370450 0.768987 0.311150
Si Si7 0.294731 0.500000 0.473517
Si Si8 0.833054 0.500000 0.943395
O O1 0.618756 0.928427 0.454115
O O2 0.620815 0.808967 0.355409
O O3 0.807981 0.860409 0.697540
O O4 0.662654 0.808430 0.625924
O O5 0.184102 0.500000 0.386180
O O6 0.966475 0.500000 0.116689
O O7 0.798592 0.802518 0.192464
O O8 0.687802 0.926582 0.022005
O O9 0.590870 0.806445 0.937046
O O10 0.655140 0.820645 0.829241
O O11 0.023599 0.188580 0.169375
O O12 0.000000 0.292883 0.000000
O O13 0.630656 0.567391 0.378060
O O14 0.500000 0.583485 0.000000
O O15 0.500000 0.752754 0.500000
O O16 0.246309 0.500000 0.280149
#
# Coordination Sequence:
#
# PCOD9208476 Si02
#       8
#     8   4   8   8   8   8   4   4
#     4  11  22  38  64  92 120 167 206 253 314 364
#     4  10  21  38  57  94 125 156 204 253 319 357
#     4  11  26  40  64  94 123 163 204 258 312 356
#     4  11  22  37  62  94 127 159 202 261 304 367
#     4  10  22  39  57  91 126 164 212 250 301 367
#     4  11  22  44  65  87 121 164 215 255 296 365
#     4  10  24  34  62  85 129 175 191 249 311 379
#     4  12  23  40  58  95 126 155 199 255 319 369
#
# _framework density 18.953990999999998
#
# number of rings (size 3 to 8) (size 9 to 14) (size 15 to 20)
#    0.000    1.231    3.077    2.769    6.462    0.615 
#    0.000    1.923    0.000    3.692    0.000    0.000 
#    0.000    0.000    0.000    0.000    0.000    0.000 
#
# Total GULP energy -145263.377993 kJ/mol
# GULP energy per Si atom -5587.053000 kJ/mol
# Density = 1.891085 g / cm^3
# Si number density = 18.953991 Si / 1000 Ang^3
#
#
#
# Elastic Constant Matrix: (Units=GPa)
#
#
# Indices 1 2 3 4 5 6 
#
# 1 73.4151 40.9332 42.4414 0.0000 -8.6338 0.0000
# 2 40.9332 136.4568 74.5762 0.0000 -1.4794 0.0000
# 3 42.4414 74.5762 141.3070 0.0000 -4.2903 0.0000
# 4 0.0000 0.0000 0.0000 15.9374 0.0000 5.6262
# 5 -8.6338 -1.4794 -4.2903 0.0000 26.4409 0.0000
# 6 0.0000 0.0000 0.0000 5.6262 0.0000 19.4274
#
#
#
# Elastic Compliance Matrix: (Units=1/GPa)
#
#
# Indices 1 2 3 4 5 6 
#
# 1 0.018184 -0.003513 -0.003450 0.000000 0.005181 0.000000
# 2 -0.003513 0.010980 -0.004779 0.000000 -0.001308 0.000000
# 3 -0.003450 -0.004779 0.010646 0.000000 0.000333 0.000000
# 4 0.000000 0.000000 0.000000 0.069891 0.000000 -0.020240
# 5 0.005181 -0.001308 0.000333 0.000000 0.039493 0.000000
# 6 0.000000 0.000000 0.000000 -0.020240 0.000000 0.057335
#
#
# Mechanical properties :
#
#
# Convention : Reuss Voigt Hill
#
# Bulk Modulus (GPa) = 61.25846 74.12007 67.68927
# Shear Modulus (GPa) = 21.23553 25.24301 23.23927
#
# Velocity S-wave (km/s) = 3.35083 3.65335 3.50535
# Velocity P-wave (km/s) = 6.88189 7.54891 7.22311
#
# Compressibility (1/GPa) = 0.01632427
#
# Stress axis : x y z
#
# Youngs Moduli (GPa) = 54.99439 91.07519 93.93575
#
# Poissons Ratio (x) = 0.31993 0.32410
# Poissons Ratio (y) = 0.19319 0.44896
# Poissons Ratio (z) = 0.18974 0.43529
#
# Static dielectric constant tensor:
#      x y z
#    x 1.624050 0.000000 0.003020 
#    y 0.000000 1.674460 0.000000 
#    z 0.003020 0.000000 1.667450 
# 
# From -- ./inp_files/169907.got.cif
#   From: 2010.05.17/outbox.cif.g08.bks.cpg/sg12_85_cif.got.tgz:169907.got - 2010.06.03 13:09:07.
