data_PCOD9208471
_publ_section_title
;
Structure prediction by ZEFSAII (Michael W. Deem and Ramdas Pophale) SiO2 
 PCOD9208471
Probable space group: C 2/M
;
_chemical_formula_sum "Si O2"
_cell_formula_units_Z 56
_cell_length_a 9.048047
_cell_length_b 25.477035
_cell_length_c 13.783232
_cell_angle_alpha 90.000000
_cell_angle_beta 111.765484
_cell_angle_gamma 90.000000
_cell_volume 2950.765033
_symmetry_space_group_name_H-M "C 2/M"
_symmetry_group_IT_number 12
_symmetry_cell_setting 'monoclinic'
loop_
_space_group_symop_operation_xyz
x,y,z
-x,y,-z
-x,-y,-z
x,-y,z
1/2+x,1/2+y,z
1/2-x,1/2+y,-z
1/2-x,1/2-y,-z
1/2+x,1/2-y,z
loop_
_atom_site_type_symbol
_atom_site_label
_atom_site_fract_x
_atom_site_fract_y
_atom_site_fract_z
Si Si1 0.326061 0.269067 0.260787
Si Si2 0.847659 0.713376 0.595026
Si Si3 0.155103 0.438476 0.235235
Si Si4 0.610269 0.877175 0.945136
Si Si5 0.769900 0.155177 0.788787
Si Si6 0.012800 0.395226 0.399030
Si Si7 0.872912 0.871918 0.158354
O O1 0.254812 0.299149 0.335312
O O2 0.494900 0.244202 0.332410
O O3 0.216806 0.217557 0.223478
O O4 0.334735 0.310959 0.176631
O O5 0.750000 0.750000 0.500000
O O6 0.891271 0.658537 0.557693
O O7 0.182652 0.500000 0.233153
O O8 0.100196 0.424469 0.331401
O O9 0.308038 0.406301 0.232934
O O10 0.007715 0.420661 0.129237
O O11 0.676058 0.847323 0.867961
O O12 0.500000 0.849082 0.000000
O O13 0.767124 0.892248 0.042947
O O14 0.655283 0.125650 0.684524
O O15 0.941659 0.128282 0.823329
O O16 0.000000 0.423277 0.500000
#
# Coordination Sequence:
#
# PCOD9208471 Si02
#       7
#     8   8   8   8   8   8   8
#     4  11  21  33  54  84 126 160 200 242 292 356
#     4  11  20  35  54  88 120 166 205 241 289 351
#     4  10  22  43  66  87 115 152 200 257 309 361
#     4   9  21  37  62  86 113 152 201 245 297 355
#     4  10  21  38  57  88 128 160 196 242 297 361
#     4  10  21  38  61  90 122 158 201 247 294 362
#     4  11  21  37  58  87 121 156 200 253 294 355
#
# _framework density 18.97813
#
# number of rings (size 3 to 8) (size 9 to 14) (size 15 to 20)
#    0.000    1.714    2.857    2.571    2.000    3.429 
#    0.000    5.000    0.000    7.714    0.000    0.000 
#    0.000    0.000    0.000    0.000    0.000    0.000 
#
# Total GULP energy -155987.754091 kJ/mol
# GULP energy per Si atom -5570.991218 kJ/mol
# Density = 1.893494 g / cm^3
# Si number density = 18.978130 Si / 1000 Ang^3
#
#
#
# Elastic Constant Matrix: (Units=GPa)
#
#
# Indices 1 2 3 4 5 6 
#
# 1 101.2237 29.7830 44.5512 0.0000 -1.7408 0.0000
# 2 29.7830 72.1585 8.7815 0.0000 2.2396 0.0000
# 3 44.5512 8.7815 79.0987 0.0000 -17.1336 0.0000
# 4 0.0000 0.0000 0.0000 10.7792 0.0000 2.8063
# 5 -1.7408 2.2396 -17.1336 0.0000 33.0444 0.0000
# 6 0.0000 0.0000 0.0000 2.8063 0.0000 14.5255
#
#
#
# Elastic Compliance Matrix: (Units=1/GPa)
#
#
# Indices 1 2 3 4 5 6 
#
# 1 0.015145 -0.005088 -0.008694 0.000000 -0.003365 0.000000
# 2 -0.005088 0.015874 0.000915 0.000000 -0.000869 0.000000
# 3 -0.008694 0.000915 0.019517 0.000000 0.009600 0.000000
# 4 0.000000 0.000000 0.000000 0.097685 0.000000 -0.018872
# 5 -0.003365 -0.000869 0.009600 0.000000 0.035121 0.000000
# 6 0.000000 0.000000 0.000000 -0.018872 0.000000 0.072491
#
#
# Mechanical properties :
#
#
# Convention : Reuss Voigt Hill
#
# Bulk Modulus (GPa) = 40.31998 46.52357 43.42178
# Shear Modulus (GPa) = 17.25119 22.96081 20.10600
#
# Velocity S-wave (km/s) = 3.01824 3.48207 3.25842
# Velocity P-wave (km/s) = 5.78256 6.38232 6.08983
#
# Compressibility (1/GPa) = 0.02480160
#
# Stress axis : x y z
#
# Youngs Moduli (GPa) = 66.02844 62.99523 51.23711
#
# Poissons Ratio (x) = 0.32055 0.44547
# Poissons Ratio (y) = 0.33599 -0.04690
# Poissons Ratio (z) = 0.57407 -0.05766
#
# Static dielectric constant tensor:
#      x y z
#    x 1.699080 0.000000 -0.021660 
#    y 0.000000 1.647590 0.000000 
#    z -0.021660 0.000000 1.684090 
# 
# From -- ./inp_files/199938.got.cif
#   From: 2010.05.17/outbox.cif.g08.bks.cpg/sg12_100_cif.got.tgz:199938.got - 2010.06.03 13:09:07.
