data_PCOD9208668
_publ_section_title
;
Structure prediction by ZEFSAII (Michael W. Deem and Ramdas Pophale) SiO2 
 PCOD9208668
Probable space group: C 2/M
;
_chemical_formula_sum "Si O2"
_cell_formula_units_Z 40
_cell_length_a 18.343995
_cell_length_b 8.521379
_cell_length_c 14.032357
_cell_angle_alpha 90.000000
_cell_angle_beta 109.134374
_cell_angle_gamma 90.000000
_cell_volume 2072.299147
_symmetry_space_group_name_H-M "C 2/M"
_symmetry_group_IT_number 12
_symmetry_cell_setting 'monoclinic'
loop_
_space_group_symop_operation_xyz
x,y,z
-x,y,-z
-x,-y,-z
x,-y,z
1/2+x,1/2+y,z
1/2-x,1/2+y,-z
1/2-x,1/2-y,-z
1/2+x,1/2-y,z
loop_
_atom_site_type_symbol
_atom_site_label
_atom_site_fract_x
_atom_site_fract_y
_atom_site_fract_z
Si Si1 0.316886 0.688346 0.597611
Si Si2 0.482202 0.811719 0.600653
Si Si3 0.719371 0.309991 0.201188
Si Si4 0.115412 0.188371 0.796384
Si Si5 0.083969 0.191407 0.999788
O O1 0.317216 0.500000 0.595415
O O2 0.250000 0.750000 0.500000
O O3 0.399581 0.749234 0.598817
O O4 0.300055 0.738116 0.699162
O O5 0.500000 0.760495 0.500000
O O6 0.548866 0.752031 0.699152
O O7 0.480993 0.000000 0.601675
O O8 0.722559 0.500000 0.200534
O O9 0.801490 0.245496 0.203380
O O10 0.651731 0.258679 0.100296
O O11 0.100447 0.241179 0.898736
O O12 0.113151 0.000000 0.793840
O O13 0.083415 0.000000 0.000227
O O14 0.000000 0.243320 0.000000
#
# Coordination Sequence:
#
# PCOD9208668 Si02
#       5
#     8   8   8   8   8
#     4  11  23  39  61  87 115 151 192 234 283 336
#     4  11  24  41  60  83 114 152 191 233 285 341
#     4  10  21  38  59  83 116 155 190 229 282 341
#     4  11  22  36  59  88 115 148 191 237 284 334
#     4   9  18  35  58  83 113 150 191 233 280 337
#
# _framework density 19.302233000000001
#
# number of rings (size 3 to 8) (size 9 to 14) (size 15 to 20)
#    0.000    1.600    0.000    4.800    0.000   11.200 
#    0.000    1.000    0.000    4.200    0.000    0.000 
#    0.000    0.000    0.000    0.000    0.000    0.000 
#
# Total GULP energy -111839.107399 kJ/mol
# GULP energy per Si atom -5591.955370 kJ/mol
# Density = 1.925830 g / cm^3
# Si number density = 19.302233 Si / 1000 Ang^3
#
#
#
# Elastic Constant Matrix: (Units=GPa)
#
#
# Indices 1 2 3 4 5 6 
#
# 1 244.4215 40.5013 151.4468 0.0000 0.1071 0.0000
# 2 40.5013 29.9787 45.7723 0.0000 -2.9776 0.0000
# 3 151.4468 45.7723 246.2884 0.0000 -0.3185 0.0000
# 4 0.0000 0.0000 0.0000 18.3369 0.0000 0.1489
# 5 0.1071 -2.9776 -0.3185 0.0000 46.9458 0.0000
# 6 0.0000 0.0000 0.0000 0.1489 0.0000 37.8218
#
#
#
# Elastic Compliance Matrix: (Units=1/GPa)
#
#
# Indices 1 2 3 4 5 6 
#
# 1 0.006940 -0.004033 -0.003518 0.000000 -0.000296 0.000000
# 2 -0.004033 0.049313 -0.006681 0.000000 0.003092 0.000000
# 3 -0.003518 -0.006681 0.007465 0.000000 -0.000365 0.000000
# 4 0.000000 0.000000 0.000000 0.054537 0.000000 -0.000215
# 5 -0.000296 0.003092 -0.000365 0.000000 0.021495 0.000000
# 6 0.000000 0.000000 0.000000 -0.000215 0.000000 0.026441
#
#
# Mechanical properties :
#
#
# Convention : Reuss Voigt Hill
#
# Bulk Modulus (GPa) = 28.36597 110.68105 69.52351
# Shear Modulus (GPa) = 24.22418 39.48544 31.85481
#
# Velocity S-wave (km/s) = 3.54643 4.52778 4.06682
# Velocity P-wave (km/s) = 5.61223 9.20869 7.62552
#
# Compressibility (1/GPa) = 0.03525351
#
# Stress axis : x y z
#
# Youngs Moduli (GPa) = 144.10069 20.27855 133.96337
#
# Poissons Ratio (x) = 0.08179 0.47129
# Poissons Ratio (y) = 0.58119 0.89496
# Poissons Ratio (z) = 0.50696 0.13547
#
# Static dielectric constant tensor:
#      x y z
#    x 1.620890 0.000000 -0.009990 
#    y 0.000000 1.666780 0.000000 
#    z -0.009990 0.000000 1.655620 
# 
# From -- ./inp_files/151704.got.cif
#   From: 2010.05.17/outbox.cif.g08.bks.cpg/sg12_76_cif.got.tgz:151704.got - 2010.06.03 13:09:07.
