data_PCOD9208898
_publ_section_title
;
Structure prediction by ZEFSAII (Michael W. Deem and Ramdas Pophale) SiO2 
 PCOD9208898
Probable space group: C 2/M
;
_chemical_formula_sum "Si O2"
_cell_formula_units_Z 56
_cell_length_a 31.737490
_cell_length_b 9.204178
_cell_length_c 24.252970
_cell_angle_alpha 90.000000
_cell_angle_beta 25.503589
_cell_angle_gamma 90.000000
_cell_volume 3050.449895
_symmetry_space_group_name_H-M "C 2/M"
_symmetry_group_IT_number 12
_symmetry_cell_setting 'monoclinic'
loop_
_space_group_symop_operation_xyz
x,y,z
-x,y,-z
-x,-y,-z
x,-y,z
1/2+x,1/2+y,z
1/2-x,1/2+y,-z
1/2-x,1/2-y,-z
1/2+x,1/2-y,z
loop_
_atom_site_type_symbol
_atom_site_label
_atom_site_fract_x
_atom_site_fract_y
_atom_site_fract_z
Si Si1 0.284133 0.825212 0.903380
Si Si2 0.010807 0.672467 0.624154
Si Si3 0.512685 0.325829 0.049397
Si Si4 0.848135 0.327279 0.315295
Si Si5 0.648113 0.171537 0.560928
Si Si6 0.778986 0.825125 0.142629
Si Si7 0.100385 0.170762 0.415886
O O1 0.397105 0.785333 0.757248
O O2 0.223842 0.786844 0.919185
O O3 0.279782 0.000000 0.915732
O O4 0.250000 0.750000 0.000000
O O5 0.016497 0.500000 0.605217
O O6 0.055256 0.697322 0.632105
O O7 0.076185 0.757189 0.503022
O O8 0.501940 0.500000 0.067941
O O9 0.428709 0.246714 0.182532
O O10 0.500000 0.290275 0.000000
O O11 0.619075 0.286849 0.948252
O O12 0.848070 0.500000 0.308252
O O13 0.740891 0.262449 0.430950
O O14 0.870018 0.293651 0.353777
O O15 0.672737 0.000000 0.528545
O O16 0.688901 0.749422 0.280055
O O17 0.766164 0.000000 0.161235
O O18 0.000000 0.187726 0.500000
O O19 0.121442 0.000000 0.396557
#
# Coordination Sequence:
#
# PCOD9208898 Si02
#       7
#     8   8   8   8   8   8   8
#     4  10  22  38  59  87 118 153 195 235 284 347
#     4  10  21  38  61  85 114 154 194 232 282 347
#     4  10  23  41  60  83 114 154 198 239 285 344
#     4  10  21  38  60  86 116 149 190 241 291 340
#     4   9  20  38  60  85 114 152 191 233 288 345
#     4  10  22  41  62  84 113 157 199 235 286 348
#     4  11  23  38  58  87 119 149 186 237 291 337
#
# _framework density 18.357949000000001
#
# number of rings (size 3 to 8) (size 9 to 14) (size 15 to 20)
#    0.000    2.000    1.429    0.857    4.000    3.714 
#    0.000    0.000    0.000    0.000    0.000    0.000 
#    0.000    0.000    0.000    0.000    0.000    0.000 
#
# Total GULP energy -156351.021258 kJ/mol
# GULP energy per Si atom -5583.965045 kJ/mol
# Density = 1.831617 g / cm^3
# Si number density = 18.357949 Si / 1000 Ang^3
#
#
#
# Elastic Constant Matrix: (Units=GPa)
#
#
# Indices 1 2 3 4 5 6 
#
# 1 130.4329 45.3821 65.1728 -0.0002 -4.3267 0.0000
# 2 45.3821 30.7594 54.3338 -0.0027 2.3126 0.0008
# 3 65.1728 54.3338 135.5443 -0.0005 9.8268 0.0006
# 4 -0.0002 -0.0027 -0.0005 31.8284 0.0001 7.8458
# 5 -4.3267 2.3126 9.8268 0.0001 20.6402 0.0002
# 6 0.0000 0.0008 0.0006 7.8458 0.0002 23.6361
#
#
#
# Elastic Compliance Matrix: (Units=1/GPa)
#
#
# Indices 1 2 3 4 5 6 
#
# 1 0.017787 -0.037233 0.006007 -0.000004 0.005040 0.000002
# 2 -0.037233 0.190977 -0.058556 0.000018 -0.001324 -0.000011
# 3 0.006007 -0.058556 0.028374 -0.000005 -0.005689 0.000003
# 4 -0.000004 0.000018 -0.000005 0.034218 0.000000 -0.011359
# 5 0.005040 -0.001324 -0.005689 0.000000 0.052363 0.000000
# 6 0.000002 -0.000011 0.000003 -0.011359 0.000000 0.046079
#
#
# Mechanical properties :
#
#
# Convention : Reuss Voigt Hill
#
# Bulk Modulus (GPa) = 17.36871 69.61267 43.49069
# Shear Modulus (GPa) = 8.79428 24.01079 16.40254
#
# Velocity S-wave (km/s) = 2.19108 3.62045 2.99236
# Velocity P-wave (km/s) = 3.98532 7.44841 5.97334
#
# Compressibility (1/GPa) = 0.05757480
#
# Stress axis : x y z
#
# Youngs Moduli (GPa) = 56.22072 5.23625 35.24355
#
# Poissons Ratio (x) = 0.19496 -0.21172
# Poissons Ratio (y) = 2.09327 2.06370
# Poissons Ratio (z) = -0.33773 0.30661
#
# Static dielectric constant tensor:
#      x y z
#    x 1.643620 0.000000 0.000990 
#    y 0.000000 1.612730 0.000000 
#    z 0.000990 0.000000 1.583110 
# 
# From -- ./inp_files/329542.got.cif
#   From: 2010.05.17/outbox.cif.g08.bks.cpg/sg12_165_cif.got.tgz:329542.got - 2010.06.03 13:09:07.
