data_PCOD9208172
_publ_section_title
;
Structure prediction by ZEFSAII (Michael W. Deem and Ramdas Pophale) SiO2 
 PCOD9208172
Probable space group: C 2/M
;
_chemical_formula_sum "Si O2"
_cell_formula_units_Z 56
_cell_length_a 23.247079
_cell_length_b 7.910925
_cell_length_c 15.413037
_cell_angle_alpha 90.000000
_cell_angle_beta 53.909194
_cell_angle_gamma 90.000000
_cell_volume 2290.554411
_symmetry_space_group_name_H-M "C 2/M"
_symmetry_group_IT_number 12
_symmetry_cell_setting 'monoclinic'
loop_
_space_group_symop_operation_xyz
x,y,z
-x,y,-z
-x,-y,-z
x,-y,z
1/2+x,1/2+y,z
1/2-x,1/2+y,-z
1/2-x,1/2-y,-z
1/2+x,1/2-y,z
loop_
_atom_site_type_symbol
_atom_site_label
_atom_site_fract_x
_atom_site_fract_y
_atom_site_fract_z
Si Si1 0.036770 0.195140 0.651835
Si Si2 0.209691 0.203149 0.182617
Si Si3 0.625893 0.298227 0.936218
Si Si4 0.259195 0.191497 0.589207
Si Si5 0.114184 0.190008 0.419408
Si Si6 0.602919 0.195453 0.148996
Si Si7 0.904343 0.804511 0.219792
O O1 0.058027 0.266835 0.538394
O O2 0.069859 0.272349 0.711376
O O3 0.953841 0.199848 0.745448
O O4 0.062150 0.000000 0.625498
O O5 0.289155 0.260453 0.135583
O O6 0.148879 0.272356 0.303181
O O7 0.180954 0.259595 0.114773
O O8 0.209697 0.000000 0.187767
O O9 0.618040 0.500000 0.940853
O O10 0.586460 0.230122 0.884715
O O11 0.595452 0.233190 0.054027
O O12 0.250000 0.250000 0.500000
O O13 0.314253 0.313130 0.586210
O O14 0.181116 0.190979 0.698473
O O15 0.287585 0.000000 0.568556
O O16 0.089504 0.000000 0.418030
O O17 0.588625 0.000000 0.176707
O O18 0.931494 0.000000 0.195372
#
# Coordination Sequence:
#
# PCOD9208172 Si02
#       7
#     8   8   8   8   8   8   8
#     4  10  21  42  64  88 125 167 204 241 294 371
#     4  11  23  41  66  96 123 157 201 255 312 363
#     4  11  22  41  67  95 122 158 203 254 308 362
#     4  11  19  32  55  89 127 163 201 245 301 362
#     4  10  21  37  62  94 126 158 199 248 306 367
#     4  12  27  45  61  85 120 164 212 260 307 358
#     4   9  19  35  61  92 124 159 198 241 299 365
#
# _framework density 24.448229000000001
#
# number of rings (size 3 to 8) (size 9 to 14) (size 15 to 20)
#    0.000    1.429    2.857    3.000    0.000    2.286 
#    0.000    7.143    0.000    0.000    0.000    0.000 
#    0.000    0.000    0.000    0.000    0.000    0.000 
#
# Total GULP energy -156388.007752 kJ/mol
# GULP energy per Si atom -5585.285991 kJ/mol
# Density = 2.439258 g / cm^3
# Si number density = 24.448229 Si / 1000 Ang^3
#
#
#
# Elastic Constant Matrix: (Units=GPa)
#
#
# Indices 1 2 3 4 5 6 
#
# 1 45.0537 -1.9533 6.3263 0.0000 -0.1875 0.0000
# 2 -1.9533 70.0992 2.9660 0.0000 1.4843 0.0000
# 3 6.3263 2.9660 110.4548 -0.0001 -5.3848 0.0000
# 4 0.0000 0.0000 -0.0001 13.9002 0.0000 -7.6990
# 5 -0.1875 1.4843 -5.3848 0.0000 34.7276 0.0000
# 6 0.0000 0.0000 0.0000 -7.6990 0.0000 16.5176
#
#
#
# Elastic Compliance Matrix: (Units=1/GPa)
#
#
# Indices 1 2 3 4 5 6 
#
# 1 0.022408 0.000682 -0.001307 0.000000 -0.000111 0.000000
# 2 0.000682 0.014318 -0.000457 0.000000 -0.000679 0.000000
# 3 -0.001307 -0.000457 0.009211 0.000000 0.001441 0.000000
# 4 0.000000 0.000000 0.000000 0.096978 0.000000 0.045202
# 5 -0.000111 -0.000679 0.001441 0.000000 0.029047 0.000000
# 6 0.000000 0.000000 0.000000 0.045202 0.000000 0.081611
#
#
# Mechanical properties :
#
#
# Convention : Reuss Voigt Hill
#
# Bulk Modulus (GPa) = 22.84463 26.69839 24.77151
# Shear Modulus (GPa) = 18.49601 27.58032 23.03817
#
# Velocity S-wave (km/s) = 2.75351 3.36238 3.07306
# Velocity P-wave (km/s) = 4.41287 5.10081 4.76926
#
# Compressibility (1/GPa) = 0.04377397
#
# Stress axis : x y z
#
# Youngs Moduli (GPa) = 44.62612 69.84118 108.56773
#
# Poissons Ratio (x) = -0.04764 0.14191
# Poissons Ratio (y) = -0.03044 0.04958
# Poissons Ratio (z) = 0.05833 0.03189
#
# Static dielectric constant tensor:
#      x y z
#    x 1.956980 0.000000 0.003120 
#    y 0.000000 1.910610 0.000000 
#    z 0.003120 0.000000 2.038030 
# 
# From -- ./inp_files/238387.got.cif
#   From: 2010.05.17/outbox.cif.g08.bks.cpg/sg12_120_cif.got.tgz:238387.got - 2010.06.03 13:09:07.
