data_PCOD9208986
_publ_section_title
;
Structure prediction by ZEFSAII (Michael W. Deem and Ramdas Pophale) SiO2 
 PCOD9208986
Probable space group: C 2/M
;
_chemical_formula_sum "Si O2"
_cell_formula_units_Z 56
_cell_length_a 22.043500
_cell_length_b 18.141533
_cell_length_c 9.335699
_cell_angle_alpha 90.000000
_cell_angle_beta 52.622204
_cell_angle_gamma 90.000000
_cell_volume 2966.724581
_symmetry_space_group_name_H-M "C 2/M"
_symmetry_group_IT_number 12
_symmetry_cell_setting 'monoclinic'
loop_
_space_group_symop_operation_xyz
x,y,z
-x,y,-z
-x,-y,-z
x,-y,z
1/2+x,1/2+y,z
1/2-x,1/2+y,-z
1/2-x,1/2-y,-z
1/2+x,1/2-y,z
loop_
_atom_site_type_symbol
_atom_site_label
_atom_site_fract_x
_atom_site_fract_y
_atom_site_fract_z
Si Si1 0.163810 0.155900 0.261806
Si Si2 0.822360 0.202359 0.439683
Si Si3 0.515113 0.725663 0.810990
Si Si4 0.204757 0.587445 0.121714
Si Si5 0.178520 0.083031 0.803393
Si Si6 0.075099 0.699268 0.292019
Si Si7 0.452809 0.582806 0.763550
O O1 0.184344 0.162874 0.397914
O O2 0.133468 0.235929 0.254891
O O3 0.093198 0.103052 0.315415
O O4 0.237611 0.128278 0.069689
O O5 0.750000 0.250000 0.500000
O O6 0.898619 0.251780 0.335366
O O7 0.835470 0.142115 0.297798
O O8 0.454634 0.779383 0.823257
O O9 0.507847 0.648611 0.733304
O O10 0.500000 0.715054 0.000000
O O11 0.204819 0.500000 0.092888
O O12 0.243381 0.598011 0.222402
O O13 0.122233 0.624263 0.231824
O O14 0.180058 0.000000 0.742931
O O15 0.112414 0.085279 0.018746
O O16 0.000000 0.700767 0.500000
O O17 0.484076 0.500000 0.714574
#
# Coordination Sequence:
#
# PCOD9208986 Si02
#       7
#     8   8   8   8   8   8   8
#     4  10  21  38  60  88 123 155 197 244 294 359
#     4  12  24  36  57  87 119 152 194 244 295 346
#     4  11  23  38  58  87 117 154 199 239 297 357
#     4  10  22  41  65  88 117 162 206 243 293 354
#     4   9  19  36  57  85 114 150 191 235 288 348
#     4  11  22  39  63  89 121 154 202 253 298 346
#     4   9  19  37  61  85 116 150 189 235 289 356
#
# _framework density 18.876035000000002
#
# number of rings (size 3 to 8) (size 9 to 14) (size 15 to 20)
#    0.000    1.714    2.857    2.571    2.000    2.286 
#    0.000    0.714    0.000    0.429    0.000    0.000 
#    0.000    0.000    0.000    0.000    0.000    0.000 
#
# Total GULP energy -156385.401030 kJ/mol
# GULP energy per Si atom -5585.192894 kJ/mol
# Density = 1.883307 g / cm^3
# Si number density = 18.876035 Si / 1000 Ang^3
#
#
#
# Elastic Constant Matrix: (Units=GPa)
#
#
# Indices 1 2 3 4 5 6 
#
# 1 105.9729 47.6770 37.2583 0.0000 1.5908 0.0000
# 2 47.6770 54.3927 31.8591 0.0000 -3.7576 0.0000
# 3 37.2583 31.8591 63.9373 0.0000 13.4663 0.0000
# 4 0.0000 0.0000 0.0000 17.0162 0.0000 -2.5053
# 5 1.5908 -3.7576 13.4663 0.0000 33.4904 0.0000
# 6 0.0000 0.0000 0.0000 -2.5053 0.0000 19.5873
#
#
#
# Elastic Compliance Matrix: (Units=1/GPa)
#
#
# Indices 1 2 3 4 5 6 
#
# 1 0.016087 -0.012419 -0.002985 0.000000 -0.000957 0.000000
# 2 -0.012419 0.038205 -0.014014 0.000000 0.010511 0.000000
# 3 -0.002985 -0.014014 0.026946 0.000000 -0.012265 0.000000
# 4 0.000000 0.000000 0.000000 0.059895 0.000000 0.007661
# 5 -0.000957 0.010511 -0.012265 0.000000 0.036016 0.000000
# 6 0.000000 0.000000 0.000000 0.007661 0.000000 0.052033
#
#
# Mechanical properties :
#
#
# Convention : Reuss Voigt Hill
#
# Bulk Modulus (GPa) = 44.63726 50.87683 47.75705
# Shear Modulus (GPa) = 16.92127 21.18602 19.05365
#
# Velocity S-wave (km/s) = 2.99731 3.35382 3.18057
# Velocity P-wave (km/s) = 5.97306 6.48145 6.23244
#
# Compressibility (1/GPa) = 0.02240281
#
# Stress axis : x y z
#
# Youngs Moduli (GPa) = 62.16028 26.17464 37.11142
#
# Poissons Ratio (x) = 0.32506 0.11077
# Poissons Ratio (y) = 0.77197 0.52008
# Poissons Ratio (z) = 0.18553 0.36681
#
# Static dielectric constant tensor:
#      x y z
#    x 1.665780 0.000000 -0.004990 
#    y 0.000000 1.638120 0.000000 
#    z -0.004990 0.000000 1.675680 
# 
# From -- ./inp_files/75848.got.cif
#   From: 2010.05.17/outbox.cif.g08.bks.cpg/sg12_38_cif.got.tgz:75848.got - 2010.06.03 13:09:07.
