data_PCOD9208016
_publ_section_title
;
Structure prediction by ZEFSAII (Michael W. Deem and Ramdas Pophale) SiO2 
 PCOD9208016
Probable space group: C 2/M
;
_chemical_formula_sum "Si O2"
_cell_formula_units_Z 24
_cell_length_a 15.660370
_cell_length_b 10.951587
_cell_length_c 14.356809
_cell_angle_alpha 90.000000
_cell_angle_beta 30.442618
_cell_angle_gamma 90.000000
_cell_volume 1247.574909
_symmetry_space_group_name_H-M "C 2/M"
_symmetry_group_IT_number 12
_symmetry_cell_setting 'monoclinic'
loop_
_space_group_symop_operation_xyz
x,y,z
-x,y,-z
-x,-y,-z
x,-y,z
1/2+x,1/2+y,z
1/2-x,1/2+y,-z
1/2-x,1/2-y,-z
1/2+x,1/2-y,z
loop_
_atom_site_type_symbol
_atom_site_label
_atom_site_fract_x
_atom_site_fract_y
_atom_site_fract_z
Si Si1 0.776616 0.500000 0.173981
Si Si2 0.447840 0.737716 0.836805
Si Si3 0.556401 0.500000 0.622692
Si Si4 0.556517 0.000000 0.744806
Si Si5 0.500000 0.215652 0.000000
O O1 0.585444 0.500000 0.323569
O O2 0.838852 0.625367 0.161579
O O3 0.902426 0.500000 0.964701
O O4 0.521486 0.621109 0.715569
O O5 0.476629 0.721852 0.921623
O O6 0.528744 0.866267 0.726402
O O7 0.250000 0.750000 0.000000
O O8 0.748340 0.500000 0.410192
#
# Coordination Sequence:
#
# PCOD9208016 Si02
#       5
#     4   8   4   4   4
#     4   9  18  38  59  85 111 154 196 242 281 336
#     4  11  20  39  61  87 116 158 188 240 293 337
#     4  12  21  36  66  87 116 156 190 239 298 337
#     4  10  21  37  61  89 115 150 202 235 286 349
#     4   9  18  35  62  82 118 150 196 232 286 352
#
# _framework density 19.237321999999999
#
# number of rings (size 3 to 8) (size 9 to 14) (size 15 to 20)
#    0.000    1.667    6.667    2.000    0.000    0.667 
#    0.000   13.333    0.000    2.000    0.000    0.000 
#    0.000    0.000    0.000    0.000    0.000    0.000 
#
# Total GULP energy -66816.583985 kJ/mol
# GULP energy per Si atom -5568.048665 kJ/mol
# Density = 1.919354 g / cm^3
# Si number density = 19.237322 Si / 1000 Ang^3
#
#
#
# Elastic Constant Matrix: (Units=GPa)
#
#
# Indices 1 2 3 4 5 6 
#
# 1 123.6666 32.1204 41.6771 0.0000 -18.3055 0.0000
# 2 32.1204 125.0308 43.8589 0.0000 2.2032 0.0000
# 3 41.6771 43.8589 105.9220 -0.0001 -27.3841 0.0000
# 4 0.0000 0.0000 -0.0001 17.7249 0.0000 -8.8578
# 5 -18.3055 2.2032 -27.3841 0.0000 46.7713 0.0000
# 6 0.0000 0.0000 0.0000 -8.8578 0.0000 27.1689
#
#
#
# Elastic Compliance Matrix: (Units=1/GPa)
#
#
# Indices 1 2 3 4 5 6 
#
# 1 0.009721 -0.001657 -0.002516 0.000000 0.002410 0.000000
# 2 -0.001657 0.010063 -0.004483 0.000000 -0.003748 0.000000
# 3 -0.002516 -0.004483 0.014243 0.000000 0.007566 0.000000
# 4 0.000000 0.000000 0.000000 0.067399 0.000000 0.021974
# 5 0.002410 -0.003748 0.007566 0.000000 0.026930 0.000000
# 6 0.000000 0.000000 0.000000 0.021974 0.000000 0.043971
#
#
# Mechanical properties :
#
#
# Convention : Reuss Voigt Hill
#
# Bulk Modulus (GPa) = 59.82964 65.54801 62.68882
# Shear Modulus (GPa) = 25.61328 34.13056 29.87192
#
# Velocity S-wave (km/s) = 3.65284 4.21668 3.94485
# Velocity P-wave (km/s) = 6.99710 7.60621 7.30800
#
# Compressibility (1/GPa) = 0.01671412
#
# Stress axis : x y z
#
# Youngs Moduli (GPa) = 102.86699 99.37871 70.20914
#
# Poissons Ratio (x) = 0.16471 0.17663
# Poissons Ratio (y) = 0.17049 0.31477
# Poissons Ratio (z) = 0.25879 0.44555
#
# Static dielectric constant tensor:
#      x y z
#    x 1.780990 0.000000 0.042730 
#    y 0.000000 1.707060 0.000000 
#    z 0.042730 0.000000 1.670820 
# 
# From -- ./inp_files/55621.got.cif
#   From: 2010.05.17/outbox.cif.g08.bks.cpg/sg12_28_cif.got.tgz:55621.got - 2010.06.03 13:09:07.
