data_PCOD9208116
_publ_section_title
;
Structure prediction by ZEFSAII (Michael W. Deem and Ramdas Pophale) SiO2 
 PCOD9208116
Probable space group: C 2/M
;
_chemical_formula_sum "Si O2"
_cell_formula_units_Z 48
_cell_length_a 17.384608
_cell_length_b 17.070085
_cell_length_c 9.294237
_cell_angle_alpha 90.000000
_cell_angle_beta 103.863066
_cell_angle_gamma 90.000000
_cell_volume 2677.786318
_symmetry_space_group_name_H-M "C 2/M"
_symmetry_group_IT_number 12
_symmetry_cell_setting 'monoclinic'
loop_
_space_group_symop_operation_xyz
x,y,z
-x,y,-z
-x,-y,-z
x,-y,z
1/2+x,1/2+y,z
1/2-x,1/2+y,-z
1/2-x,1/2-y,-z
1/2+x,1/2-y,z
loop_
_atom_site_type_symbol
_atom_site_label
_atom_site_fract_x
_atom_site_fract_y
_atom_site_fract_z
Si Si1 0.010189 0.409965 0.831329
Si Si2 0.411469 0.317108 0.440537
Si Si3 0.707618 0.592323 0.417216
Si Si4 0.862756 0.331340 0.608431
Si Si5 0.869061 0.269281 0.143645
Si Si6 0.691494 0.286056 0.174694
O O1 0.030070 0.500000 0.802469
O O2 0.076818 0.346228 0.823286
O O3 0.930119 0.383661 0.713373
O O4 0.000000 0.406641 0.000000
O O5 0.500000 0.347180 0.500000
O O6 0.347318 0.375428 0.478609
O O7 0.401267 0.235192 0.524161
O O8 0.397864 0.295200 0.269453
O O9 0.704492 0.500000 0.404523
O O10 0.797043 0.621179 0.490524
O O11 0.677676 0.635659 0.259642
O O12 0.816739 0.283528 0.712672
O O13 0.779475 0.289637 0.149378
O O14 0.866738 0.234464 0.981921
#
# Coordination Sequence:
#
# PCOD9208116 Si02
#       6
#     8   8   8   8   8   8
#     4  11  23  36  56  92 127 152 182 234 304 351
#     4  11  21  37  63  85 114 152 202 238 283 344
#     4  11  23  40  59  85 121 153 192 247 291 337
#     4  11  19  39  60  86 117 159 189 231 290 360
#     4  11  20  38  60  86 115 155 195 239 274 345
#     4  10  21  37  62  82 113 158 204 229 281 348
#
# _framework density 17.925253999999999
#
# number of rings (size 3 to 8) (size 9 to 14) (size 15 to 20)
#    0.000    1.167    6.667    1.500    0.000    1.000 
#    0.000    1.667    0.000    1.000    0.000    0.000 
#    0.000    0.000    0.000    0.000    0.000    0.000 
#
# Total GULP energy -134013.257616 kJ/mol
# GULP energy per Si atom -5583.885734 kJ/mol
# Density = 1.788446 g / cm^3
# Si number density = 17.925254 Si / 1000 Ang^3
#
#
#
# Elastic Constant Matrix: (Units=GPa)
#
#
# Indices 1 2 3 4 5 6 
#
# 1 77.0284 30.8300 6.9102 0.0000 9.2353 0.0000
# 2 30.8300 110.2761 51.1161 0.0000 11.3280 0.0000
# 3 6.9102 51.1161 84.2856 0.0000 1.3423 0.0000
# 4 0.0000 0.0000 0.0000 11.5312 0.0000 0.1637
# 5 9.2353 11.3280 1.3423 0.0000 17.4429 0.0000
# 6 0.0000 0.0000 0.0000 0.1637 0.0000 15.0235
#
#
#
# Elastic Compliance Matrix: (Units=1/GPa)
#
#
# Indices 1 2 3 4 5 6 
#
# 1 0.015253 -0.004420 0.001515 0.000000 -0.005322 0.000000
# 2 -0.004420 0.014992 -0.008623 0.000000 -0.006733 0.000000
# 3 0.001515 -0.008623 0.016914 0.000000 0.003496 0.000000
# 4 0.000000 0.000000 0.000000 0.086735 0.000000 -0.000945
# 5 -0.005322 -0.006733 0.003496 0.000000 0.064251 0.000000
# 6 0.000000 0.000000 0.000000 -0.000945 0.000000 0.066573
#
#
# Mechanical properties :
#
#
# Convention : Reuss Voigt Hill
#
# Bulk Modulus (GPa) = 41.48691 49.92251 45.70471
# Shear Modulus (GPa) = 16.90282 20.98178 18.94230
#
# Velocity S-wave (km/s) = 3.07410 3.42499 3.25428
# Velocity P-wave (km/s) = 5.98287 6.59936 6.29866
#
# Compressibility (1/GPa) = 0.02410399
#
# Stress axis : x y z
#
# Youngs Moduli (GPa) = 65.55898 66.70105 59.12295
#
# Poissons Ratio (x) = 0.29480 -0.08955
# Poissons Ratio (y) = 0.28976 0.50980
# Poissons Ratio (z) = -0.09930 0.57514
#
# Static dielectric constant tensor:
#      x y z
#    x 1.616510 0.000000 0.003280 
#    y 0.000000 1.572350 0.000000 
#    z 0.003280 0.000000 1.632230 
# 
# From -- ./inp_files/61748.got.cif
#   From: 2010.05.17/outbox.cif.g08.bks.cpg/sg12_31_cif.got.tgz:61748.got - 2010.06.03 13:09:07.
