data_PCOD9208432
_publ_section_title
;
Structure prediction by ZEFSAII (Michael W. Deem and Ramdas Pophale) SiO2 
 PCOD9208432
Probable space group: C 2/M
;
_chemical_formula_sum "Si O2"
_cell_formula_units_Z 48
_cell_length_a 30.274833
_cell_length_b 11.297581
_cell_length_c 25.501070
_cell_angle_alpha 90.000000
_cell_angle_beta 164.215272
_cell_angle_gamma 90.000000
_cell_volume 2372.643371
_symmetry_space_group_name_H-M "C 2/M"
_symmetry_group_IT_number 12
_symmetry_cell_setting 'monoclinic'
loop_
_space_group_symop_operation_xyz
x,y,z
-x,y,-z
-x,-y,-z
x,-y,z
1/2+x,1/2+y,z
1/2-x,1/2+y,-z
1/2-x,1/2-y,-z
1/2+x,1/2-y,z
loop_
_atom_site_type_symbol
_atom_site_label
_atom_site_fract_x
_atom_site_fract_y
_atom_site_fract_z
Si Si1 0.999011 0.708927 0.249730
Si Si2 0.686484 0.133709 0.697591
Si Si3 0.138675 0.858357 0.199745
Si Si4 0.359695 0.364444 0.681471
Si Si5 0.162216 0.132641 0.720766
Si Si6 0.362960 0.367716 0.185579
O O1 0.166822 0.638636 0.448468
O O2 0.039884 0.794319 0.247428
O O3 0.958236 0.779326 0.256578
O O4 0.831068 0.642312 0.046005
O O5 0.500000 0.124661 0.500000
O O6 0.702235 0.161009 0.653729
O O7 0.752800 0.248021 0.804688
O O8 0.757555 0.000000 0.788215
O O9 0.128106 0.810253 0.246006
O O10 0.128605 0.000000 0.194571
O O11 0.000000 0.821455 0.000000
O O12 0.415600 0.500000 0.744985
O O13 0.115963 0.150820 0.728441
O O14 0.000000 0.127679 0.500000
O O15 0.239540 0.000000 0.804823
O O16 0.417458 0.500000 0.234654
#
# Coordination Sequence:
#
# PCOD9208432 Si02
#       6
#     8   8   8   8   8   8
#     4  10  22  37  58  83 106 152 194 231 281 334
#     4   9  18  32  53  83 112 139 183 232 281 335
#     4   9  19  34  53  80 112 143 173 225 290 340
#     4  10  21  38  57  80 115 150 186 229 282 345
#     4   9  19  34  55  81 113 149 181 226 291 343
#     4  10  21  39  59  83 114 145 192 245 282 334
#
# _framework density 20.230601
#
# number of rings (size 3 to 8) (size 9 to 14) (size 15 to 20)
#    0.000    2.500    0.000    1.000    7.000    0.000 
#    0.000    3.333    0.000    1.500    0.000    0.000 
#    0.000    0.000    0.000    0.000    0.000    0.000 
#
# Total GULP energy -133642.207997 kJ/mol
# GULP energy per Si atom -5568.425333 kJ/mol
# Density = 2.018455 g / cm^3
# Si number density = 20.230601 Si / 1000 Ang^3
#
#
#
# Elastic Constant Matrix: (Units=GPa)
#
#
# Indices 1 2 3 4 5 6 
#
# 1 142.3686 42.4638 17.4919 -0.0012 -9.5914 -0.0013
# 2 42.4638 115.7970 -7.5241 0.0015 -1.7585 0.0023
# 3 17.4919 -7.5241 40.0546 0.0024 2.9566 0.0025
# 4 -0.0012 0.0015 0.0024 5.4923 0.0008 -3.8956
# 5 -9.5914 -1.7585 2.9566 0.0008 34.1531 0.0004
# 6 -0.0013 0.0023 0.0025 -3.8956 0.0004 17.9193
#
#
#
# Elastic Compliance Matrix: (Units=1/GPa)
#
#
# Indices 1 2 3 4 5 6 
#
# 1 0.008831 -0.003503 -0.004714 0.000007 0.002708 0.000003
# 2 -0.003503 0.010136 0.003490 -0.000008 -0.000764 -0.000004
# 3 -0.004714 0.003490 0.027943 -0.000020 -0.003563 -0.000009
# 4 0.000007 -0.000008 -0.000020 0.215264 -0.000003 0.046797
# 5 0.002708 -0.000764 -0.003563 -0.000003 0.030309 -0.000001
# 6 0.000003 -0.000004 -0.000009 0.046797 -0.000001 0.065979
#
#
# Mechanical properties :
#
#
# Convention : Reuss Voigt Hill
#
# Bulk Modulus (GPa) = 26.69883 44.78702 35.74293
# Shear Modulus (GPa) = 13.14397 27.89886 20.52142
#
# Velocity S-wave (km/s) = 2.55170 3.71757 3.18838
# Velocity P-wave (km/s) = 4.68054 6.37287 5.59111
#
# Compressibility (1/GPa) = 0.03745482
#
# Stress axis : x y z
#
# Youngs Moduli (GPa) = 113.24230 98.66071 35.78670
#
# Poissons Ratio (x) = 0.34566 0.16871
# Poissons Ratio (y) = 0.39674 -0.12491
# Poissons Ratio (z) = 0.53386 -0.34436
#
# Static dielectric constant tensor:
#      x y z
#    x 1.713250 0.000000 -0.007330 
#    y 0.000000 1.772410 0.000000 
#    z -0.007330 0.000000 1.758000 
# 
# From -- ./inp_files/94901.got.cif
#   From: 2010.05.17/outbox.cif.g08.bks.cpg/sg12_48_cif.got.tgz:94901.got - 2010.06.03 13:09:07.
