data_PCOD9208072
_publ_section_title
;
Structure prediction by ZEFSAII (Michael W. Deem and Ramdas Pophale) SiO2 
 PCOD9208072
Probable space group: C 2/M
;
_chemical_formula_sum "Si O2"
_cell_formula_units_Z 46
_cell_length_a 27.711768
_cell_length_b 16.016190
_cell_length_c 6.892896
_cell_angle_alpha 90.000000
_cell_angle_beta 131.147895
_cell_angle_gamma 90.000000
_cell_volume 2303.711019
_symmetry_space_group_name_H-M "C 2/M"
_symmetry_group_IT_number 12
_symmetry_cell_setting 'monoclinic'
loop_
_space_group_symop_operation_xyz
x,y,z
-x,y,-z
-x,-y,-z
x,-y,z
1/2+x,1/2+y,z
1/2-x,1/2+y,-z
1/2-x,1/2-y,-z
1/2+x,1/2-y,z
loop_
_atom_site_type_symbol
_atom_site_label
_atom_site_fract_x
_atom_site_fract_y
_atom_site_fract_z
Si Si1 0.410601 0.643783 0.093162
Si Si2 0.769381 0.899439 0.575895
Si Si3 0.321075 0.907285 0.321101
Si Si4 0.905673 0.253304 0.429106
Si Si5 0.779629 0.168313 0.184384
Si Si6 0.500000 0.699299 0.000000
Si Si7 0.000000 0.000000 0.500000
O O1 0.419152 0.728348 0.242764
O O2 0.447650 0.647908 0.985203
O O3 0.446519 0.572604 0.308339
O O4 0.335854 0.625497 0.857296
O O5 0.707436 0.882262 0.545249
O O6 0.765224 0.845006 0.370866
O O7 0.771423 0.000000 0.543991
O O8 0.370032 0.840927 0.363538
O O9 0.347950 0.000000 0.400458
O O10 0.256824 0.905570 0.020529
O O11 0.854908 0.180725 0.356566
O O12 0.962704 0.249086 0.734004
O O13 0.750000 0.250000 0.000000
#
# Coordination Sequence:
#
# PCOD9208072 Si02
#       7
#     8   8   8   8   8   4   2
#     4  12  24  41  62  95 134 176 218 265 316 393
#     4  11  22  38  63  97 131 171 213 266 329 392
#     4  10  23  42  66  96 131 168 216 278 328 387
#     4  11  23  41  64  94 129 174 219 268 324 393
#     4  10  21  37  61  92 125 168 206 263 324 392
#     4  12  24  43  63  90 128 178 216 266 323 387
#     4  12  24  42  60 100 140 172 220 264 312 388
#
# _framework density 19.967780999999999
#
# number of rings (size 3 to 8) (size 9 to 14) (size 15 to 20)
#    0.000    1.043    6.087    0.522    0.000    5.913 
#    4.696    0.435    0.000    2.087    0.000    0.000 
#    0.000    0.000    0.000    0.000    0.000    0.000 
#
# Total GULP energy -128038.872344 kJ/mol
# GULP energy per Si atom -5566.907493 kJ/mol
# Density = 1.992233 g / cm^3
# Si number density = 19.967781 Si / 1000 Ang^3
#
#
#
# Elastic Constant Matrix: (Units=GPa)
#
#
# Indices 1 2 3 4 5 6 
#
# 1 83.7294 44.6845 20.1397 0.0000 -13.9958 0.0000
# 2 44.6845 92.8032 27.5584 0.0000 -11.7266 0.0000
# 3 20.1397 27.5584 97.7071 0.0000 -5.4067 0.0000
# 4 0.0000 0.0000 0.0000 13.9852 0.0000 10.1371
# 5 -13.9958 -11.7266 -5.4067 0.0000 30.1533 0.0000
# 6 0.0000 0.0000 0.0000 10.1371 0.0000 2.4459
#
#
#
# Elastic Compliance Matrix: (Units=1/GPa)
#
#
# Indices 1 2 3 4 5 6 
#
# 1 0.016853 -0.007151 -0.001190 0.000000 0.004828 0.000000
# 2 -0.007151 0.015298 -0.002722 0.000000 0.002142 0.000000
# 3 -0.001190 -0.002722 0.011270 0.000000 0.000410 0.000000
# 4 0.000000 0.000000 0.000000 -0.035679 0.000000 0.147871
# 5 0.004828 0.002142 0.000410 0.000000 0.036311 0.000000
# 6 0.000000 0.000000 0.000000 0.147871 0.000000 -0.204004
#
#
# Mechanical properties :
#
#
# Convention : Reuss Voigt Hill
#
# Bulk Modulus (GPa) = 46.95959 51.00055 48.98007
# Shear Modulus (GPa) = -38.24797 21.44070 -8.40363
#
# Velocity S-wave (km/s) = -4.38137 3.28039 -2.05371
# Velocity P-wave (km/s) = 1.42355 6.32019 4.35421
#
# Compressibility (1/GPa) = 0.02129490
#
# Stress axis : x y z
#
# Youngs Moduli (GPa) = 59.33709 65.36871 88.72831
#
# Poissons Ratio (x) = 0.46747 0.10555
# Poissons Ratio (y) = 0.42434 0.24154
# Poissons Ratio (z) = 0.07059 0.17795
#
# Static dielectric constant tensor:
#      x y z
#    x 1.753950 0.000000 -0.023180 
#    y 0.000000 1.711280 0.000000 
#    z -0.023180 0.000000 1.738680 
# 
# From -- ./inp_files/28645.got.cif
#   From: 2010.05.17/outbox.cif.g08.bks.cpg/sg12_15_cif.got.tgz:28645.got - 2010.06.03 13:09:07.
