data_PCOD9208861
_publ_section_title
;
Structure prediction by ZEFSAII (Michael W. Deem and Ramdas Pophale) SiO2 
 PCOD9208861
Probable space group: C 2/M
;
_chemical_formula_sum "Si O2"
_cell_formula_units_Z 40
_cell_length_a 8.057424
_cell_length_b 29.937923
_cell_length_c 12.788826
_cell_angle_alpha 90.000000
_cell_angle_beta 34.339743
_cell_angle_gamma 90.000000
_cell_volume 1740.218743
_symmetry_space_group_name_H-M "C 2/M"
_symmetry_group_IT_number 12
_symmetry_cell_setting 'monoclinic'
loop_
_space_group_symop_operation_xyz
x,y,z
-x,y,-z
-x,-y,-z
x,-y,z
1/2+x,1/2+y,z
1/2-x,1/2+y,-z
1/2-x,1/2-y,-z
1/2+x,1/2-y,z
loop_
_atom_site_type_symbol
_atom_site_label
_atom_site_fract_x
_atom_site_fract_y
_atom_site_fract_z
Si Si1 0.852326 0.697875 0.691320
Si Si2 0.650072 0.373541 0.307574
Si Si3 0.345177 0.892865 0.823819
Si Si4 0.224166 0.551091 0.479674
Si Si5 0.349158 0.715867 0.817527
O O1 0.889489 0.650281 0.725964
O O2 0.507870 0.707019 0.844904
O O3 0.957878 0.737728 0.710916
O O4 0.000000 0.699608 0.500000
O O5 0.500000 0.372307 0.500000
O O6 0.493265 0.414443 0.330530
O O7 0.579862 0.326978 0.290181
O O8 0.997337 0.380620 0.148519
O O9 0.532210 0.933614 0.679263
O O10 0.000000 0.902469 0.000000
O O11 0.322312 0.500000 0.437310
O O12 0.000000 0.555473 0.500000
O O13 0.000000 0.717117 0.000000
#
# Coordination Sequence:
#
# PCOD9208861 Si02
#       5
#     8   8   8   8   8
#     4  12  23  38  58  83 120 159 199 236 283 343
#     4  10  21  38  60  85 115 154 197 237 287 347
#     4  11  22  38  60  89 121 152 193 242 291 339
#     4  10  22  42  65  87 114 151 193 237 291 353
#     4  12  23  37  57  84 119 156 197 242 289 336
#
# _framework density 22.985617999999999
#
# number of rings (size 3 to 8) (size 9 to 14) (size 15 to 20)
#    0.000    1.000    0.000    9.000    0.000    4.000 
#    0.000    0.000    0.000    3.000    0.000    0.000 
#    0.000    0.000    0.000    0.000    0.000    0.000 
#
# Total GULP energy -112012.954874 kJ/mol
# GULP energy per Si atom -5600.647744 kJ/mol
# Density = 2.293330 g / cm^3
# Si number density = 22.985618 Si / 1000 Ang^3
#
#
#
# Elastic Constant Matrix: (Units=GPa)
#
#
# Indices 1 2 3 4 5 6 
#
# 1 83.3223 22.7471 -2.1097 0.0000 -19.7788 0.0000
# 2 22.7471 108.9248 11.8849 0.0000 13.7361 0.0000
# 3 -2.1097 11.8849 62.5528 0.0000 -24.2782 0.0000
# 4 0.0000 0.0000 0.0000 22.0515 0.0000 -7.8964
# 5 -19.7788 13.7361 -24.2782 0.0000 35.1570 0.0000
# 6 0.0000 0.0000 0.0000 -7.8964 0.0000 30.0502
#
#
#
# Elastic Compliance Matrix: (Units=1/GPa)
#
#
# Indices 1 2 3 4 5 6 
#
# 1 0.019429 -0.007855 0.010357 0.000000 0.021152 0.000000
# 2 -0.007855 0.013861 -0.009175 0.000000 -0.016171 0.000000
# 3 0.010357 -0.009175 0.029689 0.000000 0.029914 0.000000
# 4 0.000000 0.000000 0.000000 0.050059 0.000000 0.013154
# 5 0.021152 -0.016171 0.029914 0.000000 0.067319 0.000000
# 6 0.000000 0.000000 0.000000 0.013154 0.000000 0.036734
#
#
# Mechanical properties :
#
#
# Convention : Reuss Voigt Hill
#
# Bulk Modulus (GPa) = 20.14700 35.53828 27.84264
# Shear Modulus (GPa) = 20.24435 32.27021 26.25728
#
# Velocity S-wave (km/s) = 2.97095 3.75097 3.38351
# Velocity P-wave (km/s) = 4.53352 5.85272 5.23484
#
# Compressibility (1/GPa) = 0.04963517
#
# Stress axis : x y z
#
# Youngs Moduli (GPa) = 51.46866 72.14313 33.68208
#
# Poissons Ratio (x) = 0.56669 -0.34886
# Poissons Ratio (y) = 0.40429 0.30903
# Poissons Ratio (z) = -0.53308 0.66190
#
# Static dielectric constant tensor:
#      x y z
#    x 1.901440 0.000000 -0.042120 
#    y 0.000000 1.804070 0.000000 
#    z -0.042120 0.000000 1.974130 
# 
# From -- ./inp_files/41444.got.cif
#   From: 2010.05.17/outbox.cif.g08.bks.cpg/sg12_21_cif.got.tgz:41444.got - 2010.06.03 13:09:07.
