data_PCOD9208718
_publ_section_title
;
Structure prediction by ZEFSAII (Michael W. Deem and Ramdas Pophale) SiO2 
 PCOD9208718
Probable space group: C 2/M
;
_chemical_formula_sum "Si O2"
_cell_formula_units_Z 56
_cell_length_a 16.882730
_cell_length_b 8.988958
_cell_length_c 18.626185
_cell_angle_alpha 90.000000
_cell_angle_beta 67.543312
_cell_angle_gamma 90.000000
_cell_volume 2612.324509
_symmetry_space_group_name_H-M "C 2/M"
_symmetry_group_IT_number 12
_symmetry_cell_setting 'monoclinic'
loop_
_space_group_symop_operation_xyz
x,y,z
-x,y,-z
-x,-y,-z
x,-y,z
1/2+x,1/2+y,z
1/2-x,1/2+y,-z
1/2-x,1/2-y,-z
1/2+x,1/2-y,z
loop_
_atom_site_type_symbol
_atom_site_label
_atom_site_fract_x
_atom_site_fract_y
_atom_site_fract_z
Si Si1 0.746244 0.823491 0.894597
Si Si2 0.127644 0.324374 0.392603
Si Si3 0.042868 0.177380 0.820451
Si Si4 0.225829 0.675690 0.740372
Si Si5 0.886134 0.821271 0.964823
Si Si6 0.657134 0.675921 0.526934
Si Si7 0.002617 0.825934 0.324258
O O1 0.767063 0.796983 0.804640
O O2 0.821897 0.776672 0.922034
O O3 0.734724 0.000000 0.907363
O O4 0.658682 0.744952 0.949701
O O5 0.125024 0.500000 0.403425
O O6 0.221615 0.270020 0.335119
O O7 0.109993 0.242933 0.473681
O O8 0.063565 0.272478 0.352396
O O9 0.128835 0.270664 0.783063
O O10 0.992235 0.195964 0.762656
O O11 0.980962 0.222825 0.907273
O O12 0.062158 0.000000 0.820300
O O13 0.230758 0.500000 0.722316
O O14 0.886148 0.000000 0.970221
O O15 0.667982 0.500000 0.514491
O O16 0.750000 0.750000 0.500000
O O17 0.595175 0.701390 0.616251
O O18 0.022573 0.000000 0.332247
#
# Coordination Sequence:
#
# PCOD9208718 Si02
#       7
#     8   8   8   8   8   8   8
#     4   9  19  36  57  81 110 147 191 238 288 343
#     4  12  25  40  61  88 118 153 195 242 289 344
#     4  10  21  38  59  85 118 152 191 239 292 347
#     4  11  23  39  59  83 115 153 194 242 294 346
#     4   9  18  34  57  82 111 149 189 234 288 346
#     4  11  23  40  64  92 123 158 195 237 287 340
#     4  10  22  41  63  86 116 154 193 237 288 340
#
# _framework density 21.436845999999999
#
# number of rings (size 3 to 8) (size 9 to 14) (size 15 to 20)
#    0.000    1.714    0.000    4.286    0.000    9.143 
#    0.000    5.714    0.000    0.000    0.000    0.000 
#    0.000    0.000    0.000    0.000    0.000    0.000 
#
# Total GULP energy -156602.234149 kJ/mol
# GULP energy per Si atom -5592.936934 kJ/mol
# Density = 2.138805 g / cm^3
# Si number density = 21.436846 Si / 1000 Ang^3
#
#
#
# Elastic Constant Matrix: (Units=GPa)
#
#
# Indices 1 2 3 4 5 6 
#
# 1 61.0886 19.2932 -7.0644 0.0000 -10.6553 0.0000
# 2 19.2932 43.1183 21.3694 0.0000 -8.3350 0.0000
# 3 -7.0644 21.3694 60.4817 0.0000 -19.3252 0.0000
# 4 0.0000 0.0000 0.0000 26.7133 0.0000 -1.0359
# 5 -10.6553 -8.3350 -19.3252 0.0000 31.2227 0.0000
# 6 0.0000 0.0000 0.0000 -1.0359 0.0000 35.5050
#
#
#
# Elastic Compliance Matrix: (Units=1/GPa)
#
#
# Indices 1 2 3 4 5 6 
#
# 1 0.024294 -0.014389 0.011647 0.000000 0.011658 0.000000
# 2 -0.014389 0.036709 -0.016315 0.000000 -0.005209 0.000000
# 3 0.011647 -0.016315 0.029339 0.000000 0.017779 0.000000
# 4 0.000000 0.000000 0.000000 0.037477 0.000000 0.001093
# 5 0.011658 -0.005209 0.017779 0.000000 0.045620 0.000000
# 6 0.000000 0.000000 0.000000 0.001093 0.000000 0.028197
#
#
# Mechanical properties :
#
#
# Convention : Reuss Voigt Hill
#
# Bulk Modulus (GPa) = 19.14678 25.76501 22.45589
# Shear Modulus (GPa) = 19.44306 27.42755 23.43531
#
# Velocity S-wave (km/s) = 3.01490 3.58083 3.30998
# Velocity P-wave (km/s) = 4.59027 5.39830 5.01060
#
# Compressibility (1/GPa) = 0.05222812
#
# Stress axis : x y z
#
# Youngs Moduli (GPa) = 41.16188 27.24121 34.08380
#
# Poissons Ratio (x) = 0.39197 -0.39696
# Poissons Ratio (y) = 0.59227 0.55608
# Poissons Ratio (z) = -0.47940 0.44444
#
# Static dielectric constant tensor:
#      x y z
#    x 1.811460 0.000000 0.011430 
#    y 0.000000 1.711930 0.000000 
#    z 0.011430 0.000000 1.779620 
# 
# From -- ./inp_files/274996.got.cif
#   From: 2010.05.17/outbox.cif.g08.bks.cpg/sg12_138_cif.got.tgz:274996.got - 2010.06.03 13:09:07.
