data_PCOD9208649
_publ_section_title
;
Structure prediction by ZEFSAII (Michael W. Deem and Ramdas Pophale) SiO2 
 PCOD9208649
Probable space group: C 2/M
;
_chemical_formula_sum "Si O2"
_cell_formula_units_Z 64
_cell_length_a 14.652900
_cell_length_b 9.017471
_cell_length_c 23.859155
_cell_angle_alpha 90.000000
_cell_angle_beta 99.569761
_cell_angle_gamma 90.000000
_cell_volume 3108.688978
_symmetry_space_group_name_H-M "C 2/M"
_symmetry_group_IT_number 12
_symmetry_cell_setting 'monoclinic'
loop_
_space_group_symop_operation_xyz
x,y,z
-x,y,-z
-x,-y,-z
x,-y,z
1/2+x,1/2+y,z
1/2-x,1/2+y,-z
1/2-x,1/2-y,-z
1/2+x,1/2-y,z
loop_
_atom_site_type_symbol
_atom_site_label
_atom_site_fract_x
_atom_site_fract_y
_atom_site_fract_z
Si Si1 0.552622 0.176187 0.248007
Si Si2 0.036862 0.172190 0.588258
Si Si3 0.307797 0.828276 0.457496
Si Si4 0.600857 0.321726 0.988838
Si Si5 0.210927 0.177154 0.203769
Si Si6 0.361594 0.325622 0.636290
Si Si7 0.774539 0.677327 0.086112
Si Si8 0.875668 0.174718 0.278748
O O1 0.613344 0.242953 0.204032
O O2 0.609957 0.221442 0.309845
O O3 0.454942 0.257135 0.246901
O O4 0.541473 0.000000 0.242736
O O5 0.093472 0.262224 0.548542
O O6 0.086837 0.189839 0.654052
O O7 0.931035 0.210228 0.591854
O O8 0.041154 0.000000 0.572915
O O9 0.250000 0.750000 0.500000
O O10 0.241971 0.812726 0.395980
O O11 0.316199 0.000000 0.472224
O O12 0.597795 0.500000 0.983283
O O13 0.638304 0.253818 0.934706
O O14 0.500000 0.271882 0.000000
O O15 0.681263 0.283880 0.041946
O O16 0.255506 0.215853 0.148464
O O17 0.282852 0.235141 0.257418
O O18 0.199406 0.000000 0.206247
O O19 0.379773 0.500000 0.653328
O O20 0.786535 0.500000 0.083711
O O21 0.861659 0.000000 0.266556
#
# Coordination Sequence:
#
# PCOD9208649 Si02
#       8
#     8   8   8   8   8   8   8   8
#     4  11  22  36  57  85 114 147 186 226 274 333
#     4   9  19  37  58  78 103 136 176 221 269 323
#     4  11  23  37  55  79 107 139 177 222 273 326
#     4   9  18  35  58  80 104 140 185 228 272 325
#     4  11  22  36  54  80 118 154 185 228 277 327
#     4   9  20  39  59  78 106 146 183 220 271 328
#     4   9  20  36  53  79 111 142 180 227 276 322
#     4  10  21  38  59  83 111 146 187 229 275 329
#
# _framework density 20.587456
#
# number of rings (size 3 to 8) (size 9 to 14) (size 15 to 20)
#    0.000    2.125    0.000    3.750    0.000    8.250 
#    0.000    3.750    0.000    0.000    0.000    0.000 
#    0.000    0.000    0.000    0.000    0.000    0.000 
#
# Total GULP energy -178799.664931 kJ/mol
# GULP energy per Si atom -5587.489529 kJ/mol
# Density = 2.054060 g / cm^3
# Si number density = 20.587456 Si / 1000 Ang^3
#
#
#
# Elastic Constant Matrix: (Units=GPa)
#
#
# Indices 1 2 3 4 5 6 
#
# 1 113.7214 30.7476 19.1561 0.0000 -36.3046 0.0000
# 2 30.7476 58.4464 23.8992 0.0000 -20.5377 0.0000
# 3 19.1561 23.8992 53.0011 0.0000 -23.8805 0.0000
# 4 0.0000 0.0000 0.0000 28.6945 0.0000 -9.8106
# 5 -36.3046 -20.5377 -23.8805 0.0000 32.8152 0.0000
# 6 0.0000 0.0000 0.0000 -9.8106 0.0000 29.7471
#
#
#
# Elastic Compliance Matrix: (Units=1/GPa)
#
#
# Indices 1 2 3 4 5 6 
#
# 1 0.014319 -0.003255 0.003738 0.000000 0.016525 0.000000
# 2 -0.003255 0.023812 -0.006649 0.000000 0.006464 0.000000
# 3 0.003738 -0.006649 0.030505 0.000000 0.022174 0.000000
# 4 0.000000 0.000000 0.000000 0.039279 0.000000 0.012954
# 5 0.016525 0.006464 0.022174 0.000000 0.068938 0.000000
# 6 0.000000 0.000000 0.000000 0.012954 0.000000 0.037889
#
#
# Mechanical properties :
#
#
# Convention : Reuss Voigt Hill
#
# Bulk Modulus (GPa) = 17.76023 41.41941 29.58982
# Shear Modulus (GPa) = 20.33830 28.34242 24.34036
#
# Velocity S-wave (km/s) = 3.14649 3.71439 3.44218
# Velocity P-wave (km/s) = 4.67397 6.20951 5.49564
#
# Compressibility (1/GPa) = 0.05630558
#
# Stress axis : x y z
#
# Youngs Moduli (GPa) = 69.83605 41.99579 32.78121
#
# Poissons Ratio (x) = 0.13669 -0.12253
# Poissons Ratio (y) = 0.22730 0.21795
# Poissons Ratio (z) = -0.26104 0.27921
#
# Static dielectric constant tensor:
#      x y z
#    x 1.751330 0.000000 0.005850 
#    y 0.000000 1.689670 0.000000 
#    z 0.005850 0.000000 1.767640 
# 
# From -- ./inp_files/338936.got.cif
#   From: 2010.05.17/outbox.cif.g08.bks.cpg/sg12_170_cif.got.tgz:338936.got - 2010.06.03 13:09:07.
