data_PCOD9208324
_publ_section_title
;
Structure prediction by ZEFSAII (Michael W. Deem and Ramdas Pophale) SiO2 
 PCOD9208324
Probable space group: C 2/M
;
_chemical_formula_sum "Si O2"
_cell_formula_units_Z 56
_cell_length_a 13.722544
_cell_length_b 20.870033
_cell_length_c 9.436019
_cell_angle_alpha 90.000000
_cell_angle_beta 73.119221
_cell_angle_gamma 90.000000
_cell_volume 2585.938220
_symmetry_space_group_name_H-M "C 2/M"
_symmetry_group_IT_number 12
_symmetry_cell_setting 'monoclinic'
loop_
_space_group_symop_operation_xyz
x,y,z
-x,y,-z
-x,-y,-z
x,-y,z
1/2+x,1/2+y,z
1/2-x,1/2+y,-z
1/2-x,1/2-y,-z
1/2+x,1/2-y,z
loop_
_atom_site_type_symbol
_atom_site_label
_atom_site_fract_x
_atom_site_fract_y
_atom_site_fract_z
Si Si1 0.501600 0.346939 0.329925
Si Si2 0.620530 0.818702 0.459561
Si Si3 0.391152 0.123450 0.028082
Si Si4 0.693999 0.569931 0.248176
Si Si5 0.392615 0.245000 0.233887
Si Si6 0.786855 0.707646 0.850834
Si Si7 0.791101 0.074640 0.420669
O O1 0.500000 0.332291 0.500000
O O2 0.607296 0.379912 0.249384
O O3 0.489562 0.285981 0.234304
O O4 0.402555 0.393170 0.347965
O O5 0.500000 0.834488 0.500000
O O6 0.643385 0.783457 0.599095
O O7 0.351481 0.772723 0.684229
O O8 0.695873 0.880336 0.414475
O O9 0.297821 0.082619 0.123809
O O10 0.404019 0.184777 0.127110
O O11 0.500000 0.089920 0.000000
O O12 0.353304 0.151058 0.893226
O O13 0.652276 0.500000 0.233390
O O14 0.716168 0.573481 0.405507
O O15 0.320651 0.295847 0.185338
O O16 0.750000 0.750000 0.000000
O O17 0.786446 0.000000 0.373258
#
# Coordination Sequence:
#
# PCOD9208324 Si02
#       7
#     8   8   8   8   8   8   8
#     4  10  21  37  66 101 128 167 219 283 341 385
#     4  12  23  39  67 102 133 176 228 274 334 411
#     4  11  24  42  62  97 138 178 217 272 347 410
#     4  10  22  43  68  93 126 178 236 279 323 403
#     4  11  22  40  66  99 135 170 220 276 341 401
#     4  10  24  40  63  92 143 180 212 268 340 414
#     4  10  21  40  66  96 131 170 226 291 332 381
#
# _framework density 21.655583
#
# number of rings (size 3 to 8) (size 9 to 14) (size 15 to 20)
#    0.000    1.429    2.857    2.143    0.000    9.143 
#    0.000    0.714    0.000    0.857    0.000    0.000 
#    0.000    0.000    0.000    0.000    0.000    0.000 
#
# Total GULP energy -156104.663834 kJ/mol
# GULP energy per Si atom -5575.166565 kJ/mol
# Density = 2.160629 g / cm^3
# Si number density = 21.655583 Si / 1000 Ang^3
#
#
#
# Elastic Constant Matrix: (Units=GPa)
#
#
# Indices 1 2 3 4 5 6 
#
# 1 134.1471 24.5956 17.0989 0.0000 8.4872 0.0000
# 2 24.5956 56.8137 3.7761 0.0000 20.0568 0.0000
# 3 17.0989 3.7761 83.7237 0.0000 8.5557 0.0000
# 4 0.0000 0.0000 0.0000 -3.8497 0.0000 8.1847
# 5 8.4872 20.0568 8.5557 0.0000 32.8657 0.0000
# 6 0.0000 0.0000 0.0000 8.1847 0.0000 28.9582
#
#
#
# Elastic Compliance Matrix: (Units=1/GPa)
#
#
# Indices 1 2 3 4 5 6 
#
# 1 0.008296 -0.003665 -0.001581 0.000000 0.000506 0.000000
# 2 -0.003665 0.024067 0.001096 0.000000 -0.014026 0.000000
# 3 -0.001581 0.001096 0.012579 0.000000 -0.003535 0.000000
# 4 0.000000 0.000000 0.000000 -0.162259 0.000000 0.045861
# 5 0.000506 -0.014026 -0.003535 0.000000 0.039776 0.000000
# 6 0.000000 0.000000 0.000000 0.045861 0.000000 0.021570
#
#
# Mechanical properties :
#
#
# Convention : Reuss Voigt Hill
#
# Bulk Modulus (GPa) = 27.29039 40.62508 33.95774
# Shear Modulus (GPa) = -141.01327 26.87577 -57.06875
#
# Velocity S-wave (km/s) = -8.07823 3.52668 -5.13908
# Velocity P-wave (km/s) = 8.62444 5.94842 4.41572
#
# Compressibility (1/GPa) = 0.03664293
#
# Stress axis : x y z
#
# Youngs Moduli (GPa) = 120.54088 41.55105 79.49944
#
# Poissons Ratio (x) = 0.15228 0.12566
# Poissons Ratio (y) = 0.44178 -0.08716
# Poissons Ratio (z) = 0.19053 -0.04556
#
# Static dielectric constant tensor:
#      x y z
#    x 1.831430 0.000000 -0.026780 
#    y 0.000000 1.815720 0.000000 
#    z -0.026780 0.000000 1.803670 
# 
# From -- ./inp_files/133853.got.cif
#   From: 2010.05.17/outbox.cif.g08.bks.cpg/sg12_67_cif.got.tgz:133853.got - 2010.06.03 13:09:07.
