data_PCOD9208025
_publ_section_title
;
Structure prediction by ZEFSAII (Michael W. Deem and Ramdas Pophale) SiO2 
 PCOD9208025
Probable space group: C 2/M
;
_chemical_formula_sum "Si O2"
_cell_formula_units_Z 36
_cell_length_a 14.488712
_cell_length_b 10.576840
_cell_length_c 18.065831
_cell_angle_alpha 90.000000
_cell_angle_beta 41.256029
_cell_angle_gamma 90.000000
_cell_volume 1825.614246
_symmetry_space_group_name_H-M "C 2/M"
_symmetry_group_IT_number 12
_symmetry_cell_setting 'monoclinic'
loop_
_space_group_symop_operation_xyz
x,y,z
-x,y,-z
-x,-y,-z
x,-y,z
1/2+x,1/2+y,z
1/2-x,1/2+y,-z
1/2-x,1/2-y,-z
1/2+x,1/2-y,z
loop_
_atom_site_type_symbol
_atom_site_label
_atom_site_fract_x
_atom_site_fract_y
_atom_site_fract_z
Si Si1 0.312375 0.639948 0.831767
Si Si2 0.545889 0.852043 0.353592
Si Si3 0.013548 0.851716 0.836359
Si Si4 0.000000 0.712183 0.000000
Si Si5 0.718595 0.146289 0.403667
O O1 0.365152 0.500000 0.776438
O O2 0.377415 0.754897 0.746253
O O3 0.366373 0.657761 0.883014
O O4 0.145963 0.640933 0.923435
O O5 0.389670 0.804569 0.469593
O O6 0.633281 0.852956 0.377653
O O7 0.541861 0.000000 0.330991
O O8 0.131847 0.796841 0.708940
O O9 0.046325 0.000000 0.826055
O O10 0.017394 0.791423 0.914228
O O11 0.741877 0.000000 0.411219
#
# Coordination Sequence:
#
# PCOD9208025 Si02
#       5
#     8   8   8   4   8
#     4  11  24  39  57  86 123 152 185 240 299 337
#     4   9  17  34  62  88 113 150 191 230 281 347
#     4  10  21  37  61  90 113 147 197 243 282 337
#     4  12  22  40  60  76 113 162 201 234 281 342
#     4   8  15  32  59  88 115 144 187 239 283 329
#
# _framework density 19.719390000000001
#
# number of rings (size 3 to 8) (size 9 to 14) (size 15 to 20)
#    0.000    2.222    2.222    2.667    0.000    1.778 
#    0.000    4.444    0.000    0.000    0.000    0.000 
#    0.000    0.000    0.000    0.000    0.000    0.000 
#
# Total GULP energy -100259.900822 kJ/mol
# GULP energy per Si atom -5569.994490 kJ/mol
# Density = 1.967451 g / cm^3
# Si number density = 19.719390 Si / 1000 Ang^3
#
#
#
# Elastic Constant Matrix: (Units=GPa)
#
#
# Indices 1 2 3 4 5 6 
#
# 1 97.4007 24.0114 38.7205 0.0000 -19.3400 0.0000
# 2 24.0114 76.5214 50.0113 0.0000 -4.0511 0.0000
# 3 38.7205 50.0113 109.4498 0.0000 -13.6761 0.0000
# 4 0.0000 0.0000 0.0000 27.7317 0.0000 -0.0808
# 5 -19.3400 -4.0511 -13.6761 0.0000 18.4360 0.0000
# 6 0.0000 0.0000 0.0000 -0.0808 0.0000 17.5540
#
#
#
# Elastic Compliance Matrix: (Units=1/GPa)
#
#
# Indices 1 2 3 4 5 6 
#
# 1 0.014314 -0.002205 -0.002469 0.000000 0.012699 0.000000
# 2 -0.002205 0.019073 -0.008487 0.000000 -0.004418 0.000000
# 3 -0.002469 -0.008487 0.014693 0.000000 0.006444 0.000000
# 4 0.000000 0.000000 0.000000 0.036060 0.000000 0.000166
# 5 0.012699 -0.004418 0.006444 0.000000 0.071373 0.000000
# 6 0.000000 0.000000 0.000000 0.000166 0.000000 0.056968
#
#
# Mechanical properties :
#
#
# Convention : Reuss Voigt Hill
#
# Bulk Modulus (GPa) = 45.96228 56.53982 51.25105
# Shear Modulus (GPa) = 20.32045 24.11959 22.22002
#
# Velocity S-wave (km/s) = 3.21359 3.50114 3.36044
# Velocity P-wave (km/s) = 6.09330 6.71404 6.41119
#
# Compressibility (1/GPa) = 0.02175697
#
# Stress axis : x y z
#
# Youngs Moduli (GPa) = 69.86286 52.42981 68.05744
#
# Poissons Ratio (x) = 0.11562 0.16806
# Poissons Ratio (y) = 0.15407 0.57761
# Poissons Ratio (z) = 0.17252 0.44497
#
# Static dielectric constant tensor:
#      x y z
#    x 1.705330 0.000000 -0.058550 
#    y 0.000000 1.667070 0.000000 
#    z -0.058550 0.000000 1.747280 
# 
# From -- ./inp_files/140588.got.cif
#   From: 2010.05.17/outbox.cif.g08.bks.cpg/sg12_71_cif.got.tgz:140588.got - 2010.06.03 13:09:07.
