data_PCOD9208328
_publ_section_title
;
Structure prediction by ZEFSAII (Michael W. Deem and Ramdas Pophale) SiO2 
 PCOD9208328
Probable space group: C 2/M
;
_chemical_formula_sum "Si O2"
_cell_formula_units_Z 64
_cell_length_a 9.474384
_cell_length_b 18.617247
_cell_length_c 30.303367
_cell_angle_alpha 90.000000
_cell_angle_beta 37.094396
_cell_angle_gamma 90.000000
_cell_volume 3223.801120
_symmetry_space_group_name_H-M "C 2/M"
_symmetry_group_IT_number 12
_symmetry_cell_setting 'monoclinic'
loop_
_space_group_symop_operation_xyz
x,y,z
-x,y,-z
-x,-y,-z
x,-y,z
1/2+x,1/2+y,z
1/2-x,1/2+y,-z
1/2-x,1/2-y,-z
1/2+x,1/2-y,z
loop_
_atom_site_type_symbol
_atom_site_label
_atom_site_fract_x
_atom_site_fract_y
_atom_site_fract_z
Si Si1 0.464628 0.917438 0.208983
Si Si2 0.180703 0.789941 0.714750
Si Si3 0.257108 0.299934 0.955960
Si Si4 0.789353 0.415494 0.520779
Si Si5 0.781584 0.850236 0.644578
Si Si6 0.521679 0.915599 0.625796
Si Si7 0.005090 0.917769 0.049090
Si Si8 0.684720 0.218927 0.804397
O O1 0.380593 0.885911 0.276794
O O2 0.372983 0.862433 0.194941
O O3 0.743711 0.915866 0.133689
O O4 0.386013 0.000000 0.223774
O O5 0.267283 0.735354 0.655251
O O6 0.283681 0.869121 0.684034
O O7 0.269652 0.758024 0.738700
O O8 0.899587 0.783459 0.784524
O O9 0.336977 0.375709 0.955851
O O10 0.459547 0.263545 0.876040
O O11 0.250000 0.250000 0.000000
O O12 0.000000 0.303125 0.000000
O O13 0.749254 0.500000 0.540832
O O14 0.546366 0.374738 0.587303
O O15 0.000000 0.390541 0.500000
O O16 0.865904 0.410177 0.450716
O O17 0.688709 0.879921 0.621128
O O18 0.486669 0.000000 0.644646
O O19 0.084274 0.000000 0.025093
O O20 0.000000 0.887342 0.000000
#
# Coordination Sequence:
#
# PCOD9208328 Si02
#       8
#     8   8   8   8   8   8   8   8
#     4  10  21  37  66  94 122 169 215 261 324 386
#     4  11  24  41  62  92 130 169 210 275 325 380
#     4  12  23  39  64  92 124 171 218 258 318 391
#     4  10  23  40  64  97 132 167 209 268 324 384
#     4  11  22  42  66  91 129 169 219 260 323 390
#     4  11  24  42  66  96 128 169 216 266 325 391
#     4  10  22  41  64  95 132 167 214 269 323 385
#     4  11  23  41  61  91 130 163 215 269 321 376
#
# _framework density 19.852343000000001
#
# number of rings (size 3 to 8) (size 9 to 14) (size 15 to 20)
#    0.000    1.250    1.250    5.625    3.500    2.250 
#    0.000    0.000    0.000    3.000    0.000    0.000 
#    0.000    0.000    0.000    0.000    0.000    0.000 
#
# Total GULP energy -178758.061560 kJ/mol
# GULP energy per Si atom -5586.189424 kJ/mol
# Density = 1.980716 g / cm^3
# Si number density = 19.852343 Si / 1000 Ang^3
#
#
#
# Elastic Constant Matrix: (Units=GPa)
#
#
# Indices 1 2 3 4 5 6 
#
# 1 134.0744 37.6752 43.5287 -0.0002 -9.4281 0.0002
# 2 37.6752 92.8502 17.8931 0.0104 -0.4546 0.0003
# 3 43.5287 17.8931 69.6656 0.0133 -8.5545 -0.0055
# 4 -0.0002 0.0104 0.0133 17.9815 -0.0039 2.4455
# 5 -9.4281 -0.4546 -8.5545 -0.0039 31.7273 -0.0013
# 6 0.0002 0.0003 -0.0055 2.4455 -0.0013 29.0808
#
#
#
# Elastic Compliance Matrix: (Units=1/GPa)
#
#
# Indices 1 2 3 4 5 6 
#
# 1 0.010180 -0.003086 -0.005380 0.000006 0.001530 -0.000002
# 2 -0.003086 0.012279 -0.001361 -0.000006 -0.001108 0.000000
# 3 -0.005380 -0.001361 0.018479 -0.000013 0.003364 0.000005
# 4 0.000006 -0.000006 -0.000013 0.056256 0.000005 -0.004731
# 5 0.001530 -0.001108 0.003364 0.000005 0.032865 0.000002
# 6 -0.000002 0.000000 0.000005 -0.004731 0.000002 0.034785
#
#
# Mechanical properties :
#
#
# Convention : Reuss Voigt Hill
#
# Bulk Modulus (GPa) = 46.98793 54.97603 50.98198
# Shear Modulus (GPa) = 26.09685 28.92412 27.51048
#
# Velocity S-wave (km/s) = 3.62960 3.82116 3.72661
# Velocity P-wave (km/s) = 6.42537 6.87175 6.65231
#
# Compressibility (1/GPa) = 0.02128206
#
# Stress axis : x y z
#
# Youngs Moduli (GPa) = 98.23002 81.43757 54.11630
#
# Poissons Ratio (x) = 0.25135 0.29116
# Poissons Ratio (y) = 0.30318 0.07368
# Poissons Ratio (z) = 0.52850 0.11087
#
# Static dielectric constant tensor:
#      x y z
#    x 1.882610 0.000040 -0.012800 
#    y 0.000040 1.747450 -0.000020 
#    z -0.012800 -0.000020 1.672390 
# 
# From -- ./inp_files/372939.got.cif
#   From: 2010.05.17/outbox.cif.g08.bks.cpg/sg12_187_cif.got.tgz:372939.got - 2010.06.03 13:09:07.
