data_PCOD9208600
_publ_section_title
;
Structure prediction by ZEFSAII (Michael W. Deem and Ramdas Pophale) SiO2 
 PCOD9208600
Probable space group: C 2/M
;
_chemical_formula_sum "Si O2"
_cell_formula_units_Z 42
_cell_length_a 8.702522
_cell_length_b 17.988260
_cell_length_c 11.756768
_cell_angle_alpha 90.000000
_cell_angle_beta 60.213416
_cell_angle_gamma 90.000000
_cell_volume 1597.286474
_symmetry_space_group_name_H-M "C 2/M"
_symmetry_group_IT_number 12
_symmetry_cell_setting 'monoclinic'
loop_
_space_group_symop_operation_xyz
x,y,z
-x,y,-z
-x,-y,-z
x,-y,z
1/2+x,1/2+y,z
1/2-x,1/2+y,-z
1/2-x,1/2-y,-z
1/2+x,1/2-y,z
loop_
_atom_site_type_symbol
_atom_site_label
_atom_site_fract_x
_atom_site_fract_y
_atom_site_fract_z
Si Si1 0.784815 0.581641 0.595946
Si Si2 0.500000 0.500000 0.000000
Si Si3 0.246543 0.851372 0.384193
Si Si4 0.820966 0.845968 0.027751
Si Si5 0.191885 0.580847 0.870593
Si Si6 0.387451 0.785498 0.703812
O O1 0.726288 0.500000 0.658522
O O2 0.685114 0.600167 0.514197
O O3 0.767313 0.651685 0.685114
O O4 0.000000 0.576402 0.500000
O O5 0.348963 0.431779 0.059357
O O6 0.319829 0.904492 0.258108
O O7 0.408081 0.805821 0.379604
O O8 0.138196 0.791003 0.352728
O O9 0.665334 0.801552 0.146144
O O10 0.798941 0.858200 0.901923
O O11 0.000000 0.805752 0.000000
O O12 0.277737 0.500000 0.856162
O O13 0.000000 0.580538 0.000000
#
# Coordination Sequence:
#
# PCOD9208600 Si02
#       6
#     8   2   8   8   8   8
#     4   9  20  40  66  91 115 152 203 252 296 353
#     4   8  20  36  58  84 124 152 198 236 304 346
#     4  11  24  40  60  92 122 160 199 245 305 353
#     4  10  21  38  58  90 119 161 196 240 300 352
#     4  11  21  37  62  88 121 156 202 253 293 349
#     4  11  24  39  64  88 123 161 199 247 298 362
#
# _framework density 26.294595000000001
#
# number of rings (size 3 to 8) (size 9 to 14) (size 15 to 20)
#    0.571    1.143    2.857    1.143    4.000    2.286 
#    0.000    0.000    0.000    1.143    0.000    0.000 
#    0.000    0.000    0.000    0.000    0.000    0.000 
#
# Total GULP energy -117147.961339 kJ/mol
# GULP energy per Si atom -5578.474349 kJ/mol
# Density = 2.623475 g / cm^3
# Si number density = 26.294595 Si / 1000 Ang^3
#
#
#
# Elastic Constant Matrix: (Units=GPa)
#
#
# Indices 1 2 3 4 5 6 
#
# 1 56.2990 13.9886 15.7118 0.0000 16.4989 0.0000
# 2 13.9886 141.3233 27.6145 0.0000 13.9734 0.0000
# 3 15.7118 27.6145 74.4703 0.0000 40.5779 0.0000
# 4 0.0000 0.0000 0.0000 23.3867 0.0000 14.2380
# 5 16.4989 13.9734 40.5779 0.0000 43.8914 0.0000
# 6 0.0000 0.0000 0.0000 14.2380 0.0000 31.4640
#
#
#
# Elastic Compliance Matrix: (Units=1/GPa)
#
#
# Indices 1 2 3 4 5 6 
#
# 1 0.020189 -0.001318 0.000274 0.000000 -0.007422 0.000000
# 2 -0.001318 0.007718 -0.003053 0.000000 0.000861 0.000000
# 3 0.000274 -0.003053 0.028270 0.000000 -0.025267 0.000000
# 4 0.000000 0.000000 0.000000 0.059019 0.000000 -0.026707
# 5 -0.007422 0.000861 -0.025267 0.000000 0.048659 0.000000
# 6 0.000000 0.000000 0.000000 -0.026707 0.000000 0.043868
#
#
# Mechanical properties :
#
#
# Convention : Reuss Voigt Hill
#
# Bulk Modulus (GPa) = 20.84104 42.96915 31.90510
# Shear Modulus (GPa) = 21.56011 34.06695 27.81353
#
# Velocity S-wave (km/s) = 2.86657 3.60333 3.25586
# Velocity P-wave (km/s) = 4.34736 5.80422 5.12779
#
# Compressibility (1/GPa) = 0.04798225
#
# Stress axis : x y z
#
# Youngs Moduli (GPa) = 49.53292 129.56995 35.37334
#
# Poissons Ratio (x) = 0.17076 -0.00968
# Poissons Ratio (y) = 0.06528 0.10799
# Poissons Ratio (z) = -0.01355 0.39555
#
# Static dielectric constant tensor:
#      x y z
#    x 2.122830 0.000000 -0.040150 
#    y 0.000000 2.035750 0.000000 
#    z -0.040150 0.000000 2.160610 
# 
# From -- ./inp_files/120638.got.cif
#   From: 2010.05.17/outbox.cif.g08.bks.cpg/sg12_61_cif.got.tgz:120638.got - 2010.06.03 13:09:07.
