data_PCOD9208767
_publ_section_title
;
Structure prediction by ZEFSAII (Michael W. Deem and Ramdas Pophale) SiO2 
 PCOD9208767
Probable space group: C 2/M
;
_chemical_formula_sum "Si O2"
_cell_formula_units_Z 56
_cell_length_a 19.989424
_cell_length_b 11.868971
_cell_length_c 15.132973
_cell_angle_alpha 90.000000
_cell_angle_beta 121.154630
_cell_angle_gamma 90.000000
_cell_volume 3072.534672
_symmetry_space_group_name_H-M "C 2/M"
_symmetry_group_IT_number 12
_symmetry_cell_setting 'monoclinic'
loop_
_space_group_symop_operation_xyz
x,y,z
-x,y,-z
-x,-y,-z
x,-y,z
1/2+x,1/2+y,z
1/2-x,1/2+y,-z
1/2-x,1/2-y,-z
1/2+x,1/2-y,z
loop_
_atom_site_type_symbol
_atom_site_label
_atom_site_fract_x
_atom_site_fract_y
_atom_site_fract_z
Si Si1 0.577402 0.500000 0.679067
Si Si2 0.151515 0.229072 0.789544
Si Si3 0.096403 0.368339 0.911405
Si Si4 0.605477 0.500000 0.492320
Si Si5 0.910989 0.365551 0.415703
Si Si6 0.414948 0.866660 0.741358
Si Si7 0.338363 0.258422 0.528454
Si Si8 0.183309 0.366793 0.151445
O O1 0.605352 0.611384 0.748656
O O2 0.612751 0.500000 0.603763
O O3 0.485060 0.500000 0.598228
O O4 0.143769 0.285170 0.879934
O O5 0.111893 0.314934 0.693850
O O6 0.239668 0.203251 0.819165
O O7 0.113092 0.500000 0.900906
O O8 0.004271 0.350033 0.832666
O O9 0.121441 0.351813 0.029807
O O10 0.643158 0.387255 0.480751
O O11 0.906336 0.500000 0.412461
O O12 0.855503 0.312558 0.451979
O O13 0.000000 0.331830 0.500000
O O14 0.393563 0.792412 0.642415
O O15 0.356701 0.839807 0.782530
O O16 0.405677 0.000000 0.713518
O O17 0.250000 0.250000 0.500000
O O18 0.204358 0.500000 0.167620
#
# Coordination Sequence:
#
# PCOD9208767 Si02
#       8
#     4   8   8   4   8   8   8   8
#     4  11  22  38  62  83 117 158 199 235 279 353
#     4  12  21  36  59  89 118 151 193 241 290 345
#     4  10  21  38  61  87 114 148 193 244 295 348
#     4  11  24  40  58  85 117 161 200 232 283 351
#     4  11  23  39  60  85 118 155 194 239 291 348
#     4  10  21  38  62  85 115 152 193 239 294 346
#     4  12  25  38  59  87 123 153 195 242 286 346
#     4  10  21  38  59  88 115 147 192 245 297 342
#
# _framework density 18.225994
#
# number of rings (size 3 to 8) (size 9 to 14) (size 15 to 20)
#    0.000    1.143    2.143    5.143    2.000    4.000 
#    0.000    0.000    0.000    0.000    0.000    3.000 
#    0.000    0.000    0.000    0.000    0.000    0.000 
#
# Total GULP energy -156581.783400 kJ/mol
# GULP energy per Si atom -5592.206550 kJ/mol
# Density = 1.818451 g / cm^3
# Si number density = 18.225994 Si / 1000 Ang^3
#
#
#
# Elastic Constant Matrix: (Units=GPa)
#
#
# Indices 1 2 3 4 5 6 
#
# 1 62.0201 22.2247 -18.3543 0.0000 -2.5710 0.0000
# 2 22.2247 72.1602 11.9280 0.0000 -5.7730 0.0000
# 3 -18.3543 11.9280 40.1302 0.0000 -4.7389 0.0000
# 4 0.0000 0.0000 0.0000 28.7070 0.0000 -2.7022
# 5 -2.5710 -5.7730 -4.7389 0.0000 33.6971 0.0000
# 6 0.0000 0.0000 0.0000 -2.7022 0.0000 25.8014
#
#
#
# Elastic Compliance Matrix: (Units=1/GPa)
#
#
# Indices 1 2 3 4 5 6 
#
# 1 0.023703 -0.009425 0.013896 0.000000 0.002148 0.000000
# 2 -0.009425 0.018445 -0.009666 0.000000 0.001082 0.000000
# 3 0.013896 -0.009666 0.034653 0.000000 0.004278 0.000000
# 4 0.000000 0.000000 0.000000 0.035182 0.000000 0.003685
# 5 0.002148 0.001082 0.004278 0.000000 0.030627 0.000000
# 6 0.000000 0.000000 0.000000 0.003685 0.000000 0.039143
#
#
# Mechanical properties :
#
#
# Convention : Reuss Voigt Hill
#
# Bulk Modulus (GPa) = 15.05778 22.87858 18.96818
# Shear Modulus (GPa) = 23.33398 28.20858 25.77128
#
# Velocity S-wave (km/s) = 3.58195 3.93836 3.76438
# Velocity P-wave (km/s) = 5.03853 5.76723 5.41515
#
# Compressibility (1/GPa) = 0.06641086
#
# Stress axis : x y z
#
# Youngs Moduli (GPa) = 42.18891 54.21437 28.85778
#
# Poissons Ratio (x) = 0.51100 -0.40101
# Poissons Ratio (y) = 0.39765 0.27893
# Poissons Ratio (z) = -0.58627 0.52402
#
# Static dielectric constant tensor:
#      x y z
#    x 1.605770 0.000000 0.021020 
#    y 0.000000 1.597530 0.000000 
#    z 0.021020 0.000000 1.606200 
# 
# From -- ./inp_files/223946.got.cif
#   From: 2010.05.17/outbox.cif.g08.bks.cpg/sg12_112_cif.got.tgz:223946.got - 2010.06.03 13:09:07.
