data_PCOD9208424
_publ_section_title
;
Structure prediction by ZEFSAII (Michael W. Deem and Ramdas Pophale) SiO2 
 PCOD9208424
Probable space group: C 2/M
;
_chemical_formula_sum "Si O2"
_cell_formula_units_Z 56
_cell_length_a 19.830920
_cell_length_b 8.740451
_cell_length_c 21.874520
_cell_angle_alpha 90.000000
_cell_angle_beta 54.287909
_cell_angle_gamma 90.000000
_cell_volume 3078.577332
_symmetry_space_group_name_H-M "C 2/M"
_symmetry_group_IT_number 12
_symmetry_cell_setting 'monoclinic'
loop_
_space_group_symop_operation_xyz
x,y,z
-x,y,-z
-x,-y,-z
x,-y,z
1/2+x,1/2+y,z
1/2-x,1/2+y,-z
1/2-x,1/2-y,-z
1/2+x,1/2-y,z
loop_
_atom_site_type_symbol
_atom_site_label
_atom_site_fract_x
_atom_site_fract_y
_atom_site_fract_z
Si Si1 0.398529 0.318989 0.792296
Si Si2 0.508826 0.314401 0.375282
Si Si3 0.902571 0.322677 0.040984
Si Si4 0.837088 0.318390 0.632805
Si Si5 0.763079 0.680329 0.205011
Si Si6 0.841853 0.182056 0.950040
Si Si7 0.680379 0.316270 0.491425
O O1 0.416818 0.500000 0.787519
O O2 0.461778 0.258842 0.707543
O O3 0.307756 0.303195 0.809582
O O4 0.392144 0.256603 0.864189
O O5 0.516850 0.500000 0.373356
O O6 0.575035 0.248658 0.388853
O O7 0.413598 0.274626 0.438155
O O8 0.876928 0.500000 0.043177
O O9 0.849100 0.272467 0.128094
O O10 0.882583 0.225565 0.992182
O O11 0.000000 0.318850 0.000000
O O12 0.843894 0.500000 0.623899
O O13 0.769156 0.272957 0.719879
O O14 0.812168 0.246638 0.581261
O O15 0.766235 0.500000 0.219807
O O16 0.835560 0.000000 0.946810
O O17 0.750000 0.250000 0.000000
O O18 0.686369 0.500000 0.488073
O O19 0.750000 0.250000 0.500000
#
# Coordination Sequence:
#
# PCOD9208424 Si02
#       7
#     8   8   8   8   8   8   8
#     4   8  15  31  55  81 107 140 181 229 278 323
#     4   9  19  38  62  84 111 149 189 227 278 337
#     4  10  21  38  57  79 113 153 192 234 283 335
#     4  11  22  36  59  89 115 144 188 237 278 328
#     4   9  17  35  58  79 110 149 189 231 282 336
#     4  11  20  33  56  83 114 148 188 233 279 331
#     4  11  23  40  61  84 116 153 186 226 281 339
#
# _framework density 18.190221000000001
#
# number of rings (size 3 to 8) (size 9 to 14) (size 15 to 20)
#    0.000    2.143    1.429    3.429    0.000    3.714 
#    2.571    0.714    0.000    0.000    0.000    0.000 
#    0.000    0.000    0.000    0.000    0.000    0.000 
#
# Total GULP energy -156198.405085 kJ/mol
# GULP energy per Si atom -5578.514467 kJ/mol
# Density = 1.814882 g / cm^3
# Si number density = 18.190221 Si / 1000 Ang^3
#
#
#
# Elastic Constant Matrix: (Units=GPa)
#
#
# Indices 1 2 3 4 5 6 
#
# 1 89.7877 38.3096 74.0561 0.0000 8.6891 0.0004
# 2 38.3096 50.4348 42.1477 0.0000 5.8003 0.0008
# 3 74.0561 42.1477 141.1634 0.0000 6.5032 0.0000
# 4 0.0000 0.0000 0.0000 22.7629 0.0000 6.1861
# 5 8.6891 5.8003 6.5032 0.0000 23.0297 0.0000
# 6 0.0004 0.0008 0.0000 6.1861 0.0000 26.4808
#
#
#
# Elastic Compliance Matrix: (Units=1/GPa)
#
#
# Indices 1 2 3 4 5 6 
#
# 1 0.023033 -0.009476 -0.009082 0.000000 -0.003739 0.000000
# 2 -0.009476 0.030783 -0.004081 0.000000 -0.003026 -0.000001
# 3 -0.009082 -0.004081 0.013031 0.000000 0.000775 0.000000
# 4 0.000000 0.000000 0.000000 0.046909 0.000000 -0.010958
# 5 -0.003739 -0.003026 0.000775 0.000000 0.045376 0.000000
# 6 0.000000 -0.000001 0.000000 -0.010958 0.000000 0.040323
#
#
# Mechanical properties :
#
#
# Convention : Reuss Voigt Hill
#
# Bulk Modulus (GPa) = 46.35896 65.60140 55.98018
# Shear Modulus (GPa) = 19.84734 22.91285 21.38010
#
# Velocity S-wave (km/s) = 3.30676 3.55297 3.43207
# Velocity P-wave (km/s) = 6.33408 7.27831 6.82255
#
# Compressibility (1/GPa) = 0.02157080
#
# Stress axis : x y z
#
# Youngs Moduli (GPa) = 43.41607 32.48510 76.73949
#
# Poissons Ratio (x) = 0.30783 0.69694
# Poissons Ratio (y) = 0.41141 0.31314
# Poissons Ratio (z) = 0.39430 0.13256
#
# Static dielectric constant tensor:
#      x y z
#    x 1.590260 0.000000 -0.004160 
#    y 0.000000 1.631000 0.000000 
#    z -0.004160 0.000000 1.653220 
# 
# From -- ./inp_files/313700.got.cif
#   From: 2010.05.17/outbox.cif.g08.bks.cpg/sg12_157_cif.got.tgz:313700.got - 2010.06.03 13:09:07.
