data_PCOD9208927
_publ_section_title
;
Structure prediction by ZEFSAII (Michael W. Deem and Ramdas Pophale) SiO2 
 PCOD9208927
Probable space group: C 2/M
;
_chemical_formula_sum "Si O2"
_cell_formula_units_Z 48
_cell_length_a 11.631647
_cell_length_b 23.354641
_cell_length_c 20.198378
_cell_angle_alpha 90.000000
_cell_angle_beta 157.140904
_cell_angle_gamma 90.000000
_cell_volume 2131.494181
_symmetry_space_group_name_H-M "C 2/M"
_symmetry_group_IT_number 12
_symmetry_cell_setting 'monoclinic'
loop_
_space_group_symop_operation_xyz
x,y,z
-x,y,-z
-x,-y,-z
x,-y,z
1/2+x,1/2+y,z
1/2-x,1/2+y,-z
1/2-x,1/2-y,-z
1/2+x,1/2-y,z
loop_
_atom_site_type_symbol
_atom_site_label
_atom_site_fract_x
_atom_site_fract_y
_atom_site_fract_z
Si Si1 0.984749 0.068351 0.837059
Si Si2 0.636168 0.936495 0.248196
Si Si3 0.523261 0.326984 0.608048
Si Si4 0.795707 0.396877 0.181858
Si Si5 0.523271 0.784458 0.240872
Si Si6 0.155379 0.164107 0.336555
O O1 0.750762 0.097929 0.764590
O O2 0.947698 0.104588 0.750374
O O3 0.927283 0.000000 0.801041
O O4 0.322032 0.074796 0.043471
O O5 0.879379 0.890560 0.359326
O O6 0.558221 0.929236 0.284447
O O7 0.730685 0.000000 0.282592
O O8 0.281831 0.297342 0.432680
O O9 0.831221 0.295358 0.753827
O O10 0.391444 0.330788 0.610288
O O11 0.805198 0.334225 0.150796
O O12 0.500000 0.427708 0.000000
O O13 0.456434 0.717709 0.206009
O O14 0.500000 0.173406 0.500000
#
# Coordination Sequence:
#
# PCOD9208927 Si02
#       6
#     8   8   8   8   8   8
#     4  10  22  39  61  92 126 162 201 243 304 363
#     4   9  19  39  64  89 121 158 201 253 296 351
#     4  10  21  38  60  87 114 157 205 241 305 357
#     4   9  18  37  63  94 121 156 201 253 297 353
#     4  10  21  39  61  85 120 155 203 253 297 355
#     4  12  24  38  61  85 122 165 195 248 307 360
#
# _framework density 22.519414000000001
#
# number of rings (size 3 to 8) (size 9 to 14) (size 15 to 20)
#    0.000    2.000    1.667    2.000    2.333    3.667 
#    3.000   13.333    0.000    0.000    0.000    0.000 
#    0.000    0.000    0.000    0.000    0.000    0.000 
#
# Total GULP energy -133732.767915 kJ/mol
# GULP energy per Si atom -5572.198663 kJ/mol
# Density = 2.246816 g / cm^3
# Si number density = 22.519414 Si / 1000 Ang^3
#
#
#
# Elastic Constant Matrix: (Units=GPa)
#
#
# Indices 1 2 3 4 5 6 
#
# 1 154.3025 20.4592 21.0390 0.0036 -1.8262 0.0209
# 2 20.4592 110.1289 13.6349 0.0411 13.0791 0.0233
# 3 21.0390 13.6349 36.1085 -0.1341 2.3544 -0.0598
# 4 0.0036 0.0411 -0.1341 22.9195 -0.0589 -0.4504
# 5 -1.8262 13.0791 2.3544 -0.0589 16.7574 -0.0008
# 6 0.0209 0.0233 -0.0598 -0.4504 -0.0008 -10.6455
#
#
#
# Elastic Compliance Matrix: (Units=1/GPa)
#
#
# Indices 1 2 3 4 5 6 
#
# 1 0.007188 -0.001112 -0.003911 -0.000016 0.002201 0.000034
# 2 -0.001112 0.010586 -0.002828 -0.000055 -0.007986 0.000040
# 3 -0.003911 -0.002828 0.031211 0.000178 -0.002603 -0.000197
# 4 -0.000016 -0.000055 0.000178 0.043596 0.000169 -0.001846
# 5 0.002201 -0.007986 -0.002603 0.000169 0.066514 -0.000011
# 6 0.000034 0.000040 -0.000197 -0.001846 -0.000011 -0.093857
#
#
# Mechanical properties :
#
#
# Convention : Reuss Voigt Hill
#
# Bulk Modulus (GPa) = 30.04801 45.64512 37.84656
# Shear Modulus (GPa) = 54.32654 22.16673 38.24664
#
# Velocity S-wave (km/s) = 4.91698 3.14082 4.12562
# Velocity P-wave (km/s) = 6.75335 5.78500 6.28784
#
# Compressibility (1/GPa) = 0.03328007
#
# Stress axis : x y z
#
# Youngs Moduli (GPa) = 139.12778 94.46827 32.03950
#
# Poissons Ratio (x) = 0.10509 0.12532
# Poissons Ratio (y) = 0.15477 0.09062
# Poissons Ratio (z) = 0.54419 0.26720
#
# Static dielectric constant tensor:
#      x y z
#    x 1.889970 -0.000010 -0.040670 
#    y -0.000010 1.864520 0.000000 
#    z -0.040670 0.000000 1.907220 
# 
# From -- ./inp_files/135523.got.cif
#   From: 2010.05.17/outbox.cif.g08.bks.cpg/sg12_68_cif.got.tgz:135523.got - 2010.06.03 13:09:07.
