data_PCOD9208816
_publ_section_title
;
Structure prediction by ZEFSAII (Michael W. Deem and Ramdas Pophale) SiO2 
 PCOD9208816
Probable space group: C 2/M
;
_chemical_formula_sum "Si O2"
_cell_formula_units_Z 32
_cell_length_a 13.885425
_cell_length_b 10.824356
_cell_length_c 18.023089
_cell_angle_alpha 90.000000
_cell_angle_beta 147.462597
_cell_angle_gamma 90.000000
_cell_volume 1456.973647
_symmetry_space_group_name_H-M "C 2/M"
_symmetry_group_IT_number 12
_symmetry_cell_setting 'monoclinic'
loop_
_space_group_symop_operation_xyz
x,y,z
-x,y,-z
-x,-y,-z
x,-y,z
1/2+x,1/2+y,z
1/2-x,1/2+y,-z
1/2-x,1/2-y,-z
1/2+x,1/2-y,z
loop_
_atom_site_type_symbol
_atom_site_label
_atom_site_fract_x
_atom_site_fract_y
_atom_site_fract_z
Si Si1 0.693706 0.633388 0.540931
Si Si2 0.057334 0.717858 0.709084
Si Si3 0.242842 0.858549 0.309950
Si Si4 0.881989 0.140491 0.998595
O O1 0.678165 0.500000 0.567507
O O2 0.533013 0.655967 0.378445
O O3 0.691590 0.750896 0.593742
O O4 0.885248 0.642226 0.624785
O O5 0.153150 0.654942 0.700542
O O6 0.210785 0.724850 0.871277
O O7 0.265158 0.000000 0.351077
O O8 0.032013 0.834511 0.157551
O O9 0.815164 0.000000 0.965247
O O10 0.000000 0.142877 0.000000
#
# Coordination Sequence:
#
# PCOD9208816 Si02
#       4
#     8   8   8   8
#     4  11  24  38  56  86 120 151 185 230 284 336
#     4  10  21  38  60  80 113 154 191 229 277 334
#     4  10  21  38  62  87 110 145 193 236 278 334
#     4   8  15  32  58  84 107 139 188 238 276 321
#
# _framework density 21.963336000000002
#
# number of rings (size 3 to 8) (size 9 to 14) (size 15 to 20)
#    0.000    2.250    0.000    4.500    0.000   10.000 
#    0.000    1.250    0.000    4.500    0.000    0.000 
#    0.000    0.000    0.000    0.000    0.000    0.000 
#
# Total GULP energy -89287.326402 kJ/mol
# GULP energy per Si atom -5580.457900 kJ/mol
# Density = 2.191335 g / cm^3
# Si number density = 21.963336 Si / 1000 Ang^3
#
#
#
# Elastic Constant Matrix: (Units=GPa)
#
#
# Indices 1 2 3 4 5 6 
#
# 1 71.7408 34.1959 20.8586 0.0001 26.4284 0.0001
# 2 34.1959 132.0943 54.4945 -0.0002 -3.3280 0.0000
# 3 20.8586 54.4945 179.7387 -0.0006 6.4074 0.0001
# 4 0.0001 -0.0002 -0.0006 14.5841 -0.0002 -17.8959
# 5 26.4284 -3.3280 6.4074 -0.0002 25.3216 -0.0001
# 6 0.0001 0.0000 0.0001 -17.8959 -0.0001 -10.1819
#
#
#
# Elastic Compliance Matrix: (Units=1/GPa)
#
#
# Indices 1 2 3 4 5 6 
#
# 1 0.029975 -0.008711 0.000322 0.000000 -0.032511 0.000001
# 2 -0.008711 0.011268 -0.002808 0.000000 0.011284 0.000000
# 3 0.000322 -0.002808 0.006461 0.000000 -0.002340 0.000000
# 4 0.000000 0.000000 0.000000 0.021721 0.000000 -0.038177
# 5 -0.032511 0.011284 -0.002340 0.000000 0.075499 -0.000001
# 6 0.000001 0.000000 0.000000 -0.038177 -0.000001 -0.031112
#
#
# Mechanical properties :
#
#
# Convention : Reuss Voigt Hill
#
# Bulk Modulus (GPa) = 39.51194 66.96353 53.23773
# Shear Modulus (GPa) = 34.56782 24.21307 29.39045
#
# Velocity S-wave (km/s) = 3.97153 3.32389 3.66205
# Velocity P-wave (km/s) = 6.24978 6.72948 6.49406
#
# Compressibility (1/GPa) = 0.02530881
#
# Stress axis : x y z
#
# Youngs Moduli (GPa) = 33.36145 88.74621 154.77608
#
# Poissons Ratio (x) = 0.77311 -0.04978
# Poissons Ratio (y) = 0.29063 0.43455
# Poissons Ratio (z) = -0.01073 0.24917
#
# Static dielectric constant tensor:
#      x y z
#    x 1.868450 0.000000 -0.036530 
#    y 0.000000 1.769920 0.000000 
#    z -0.036530 0.000000 1.861030 
# 
# From -- ./inp_files/338357.got.cif
#   From: 2010.05.17/outbox.cif.g08.bks.cpg/sg12_170_cif.got.tgz:338357.got - 2010.06.03 13:09:07.
