data_PCOD9208431
_publ_section_title
;
Structure prediction by ZEFSAII (Michael W. Deem and Ramdas Pophale) SiO2 
 PCOD9208431
Probable space group: C 2/M
;
_chemical_formula_sum "Si O2"
_cell_formula_units_Z 56
_cell_length_a 12.575770
_cell_length_b 28.847379
_cell_length_c 8.474498
_cell_angle_alpha 90.000000
_cell_angle_beta 116.596689
_cell_angle_gamma 90.000000
_cell_volume 2749.032874
_symmetry_space_group_name_H-M "C 2/M"
_symmetry_group_IT_number 12
_symmetry_cell_setting 'monoclinic'
loop_
_space_group_symop_operation_xyz
x,y,z
-x,y,-z
-x,-y,-z
x,-y,z
1/2+x,1/2+y,z
1/2-x,1/2+y,-z
1/2-x,1/2-y,-z
1/2+x,1/2-y,z
loop_
_atom_site_type_symbol
_atom_site_label
_atom_site_fract_x
_atom_site_fract_y
_atom_site_fract_z
Si Si1 0.295073 0.680794 0.206014
Si Si2 0.930893 0.645375 0.115352
Si Si3 0.475684 0.354863 0.795912
Si Si4 0.258346 0.304353 0.534853
Si Si5 0.101935 0.552891 0.705945
Si Si6 0.885023 0.949179 0.800188
Si Si7 0.093715 0.277755 0.679539
O O1 0.410640 0.652020 0.236309
O O2 0.252647 0.672939 0.358054
O O3 0.326432 0.735481 0.206493
O O4 0.198697 0.663686 0.018525
O O5 0.925812 0.596965 0.203059
O O6 0.975668 0.690044 0.243681
O O7 0.000000 0.639242 0.000000
O O8 0.385487 0.314904 0.691879
O O9 0.412849 0.403729 0.719370
O O10 0.500000 0.352139 0.000000
O O11 0.250000 0.250000 0.500000
O O12 0.167011 0.313508 0.616919
O O13 0.088419 0.500000 0.762178
O O14 0.245895 0.556132 0.763502
O O15 0.000000 0.555608 0.500000
O O16 0.889825 0.000000 0.727055
O O17 0.000000 0.949444 0.000000
O O18 0.000000 0.254147 0.500000
#
# Coordination Sequence:
#
# PCOD9208431 Si02
#       7
#     8   8   8   8   8   8   8
#     4  11  23  39  57  86 122 164 206 256 318 371
#     4  12  25  39  60  92 124 158 206 260 316 380
#     4  11  21  36  61  89 120 158 200 254 320 378
#     4  10  21  38  57  80 113 159 209 254 301 363
#     4  10  22  43  68  93 125 167 212 259 316 379
#     4   9  18  35  63  95 121 153 200 248 299 366
#     4  11  22  40  60  82 118 163 211 258 309 371
#
# _framework density 20.370799000000002
#
# number of rings (size 3 to 8) (size 9 to 14) (size 15 to 20)
#    0.000    1.429    0.000    7.286    0.000    4.286 
#    0.000    0.000    0.000    2.571    0.000    0.000 
#    0.000    0.000    0.000    0.000    0.000    0.000 
#
# Total GULP energy -155993.985336 kJ/mol
# GULP energy per Si atom -5571.213762 kJ/mol
# Density = 2.032443 g / cm^3
# Si number density = 20.370799 Si / 1000 Ang^3
#
#
#
# Elastic Constant Matrix: (Units=GPa)
#
#
# Indices 1 2 3 4 5 6 
#
# 1 90.8541 43.0416 19.0129 0.0000 0.1279 0.0000
# 2 43.0416 155.5330 50.6636 0.0000 -10.8989 0.0000
# 3 19.0129 50.6636 83.0140 0.0000 7.4672 0.0000
# 4 0.0000 0.0000 0.0000 -81.2407 0.0000 -23.7098
# 5 0.1279 -10.8989 7.4672 0.0000 38.9642 0.0000
# 6 0.0000 0.0000 0.0000 -23.7098 0.0000 21.0265
#
#
#
# Elastic Compliance Matrix: (Units=1/GPa)
#
#
# Indices 1 2 3 4 5 6 
#
# 1 0.012752 -0.003318 -0.000823 0.000000 -0.000812 0.000000
# 2 -0.003318 0.009311 -0.005248 0.000000 0.003621 0.000000
# 3 -0.000823 -0.005248 0.015843 0.000000 -0.004501 0.000000
# 4 0.000000 0.000000 0.000000 -0.009261 0.000000 -0.010443
# 5 -0.000812 0.003621 -0.004501 0.000000 0.027543 0.000000
# 6 0.000000 0.000000 0.000000 -0.010443 0.000000 0.035783
#
#
# Mechanical properties :
#
#
# Convention : Reuss Voigt Hill
#
# Bulk Modulus (GPa) = 52.28019 61.64858 56.96439
# Shear Modulus (GPa) = 42.68993 10.19553 26.44273
#
# Velocity S-wave (km/s) = 4.58279 2.23961 3.60678
# Velocity P-wave (km/s) = 7.32957 6.08413 6.73570
#
# Compressibility (1/GPa) = 0.01912770
#
# Stress axis : x y z
#
# Youngs Moduli (GPa) = 78.42062 107.39944 63.12103
#
# Poissons Ratio (x) = 0.35633 0.05192
# Poissons Ratio (y) = 0.26019 0.33128
# Poissons Ratio (z) = 0.06451 0.56367
#
# Static dielectric constant tensor:
#      x y z
#    x 1.844130 0.000000 0.029160 
#    y 0.000000 1.728600 0.000000 
#    z 0.029160 0.000000 1.809420 
# 
# From -- ./inp_files/54825.got.cif
#   From: 2010.05.17/outbox.cif.g08.bks.cpg/sg12_28_cif.got.tgz:54825.got - 2010.06.03 13:09:07.
