data_PCOD9208410
_publ_section_title
;
Structure prediction by ZEFSAII (Michael W. Deem and Ramdas Pophale) SiO2 
 PCOD9208410
Probable space group: C 2/M
;
_chemical_formula_sum "Si O2"
_cell_formula_units_Z 64
_cell_length_a 14.920332
_cell_length_b 8.886874
_cell_length_c 27.163862
_cell_angle_alpha 90.000000
_cell_angle_beta 103.423252
_cell_angle_gamma 90.000000
_cell_volume 3503.400537
_symmetry_space_group_name_H-M "C 2/M"
_symmetry_group_IT_number 12
_symmetry_cell_setting 'monoclinic'
loop_
_space_group_symop_operation_xyz
x,y,z
-x,y,-z
-x,-y,-z
x,-y,z
1/2+x,1/2+y,z
1/2-x,1/2+y,-z
1/2-x,1/2-y,-z
1/2+x,1/2-y,z
loop_
_atom_site_type_symbol
_atom_site_label
_atom_site_fract_x
_atom_site_fract_y
_atom_site_fract_z
Si Si1 0.298686 0.681487 0.860754
Si Si2 0.563837 0.323372 0.406772
Si Si3 0.835131 0.319956 0.671764
Si Si4 0.090404 0.318212 0.214234
Si Si5 0.406935 0.181615 0.133511
Si Si6 0.516961 0.681272 0.058231
Si Si7 0.358728 0.323276 0.387960
Si Si8 0.344375 0.821372 0.492158
O O1 0.297098 0.500000 0.855795
O O2 0.335720 0.751758 0.814707
O O3 0.196012 0.730063 0.863888
O O4 0.379656 0.720251 0.910156
O O5 0.583514 0.500000 0.415105
O O6 0.627436 0.253259 0.373178
O O7 0.458408 0.302764 0.377309
O O8 0.579324 0.244229 0.461143
O O9 0.847433 0.500000 0.669642
O O10 0.885896 0.267718 0.727535
O O11 0.726094 0.287704 0.658328
O O12 0.096719 0.500000 0.213543
O O13 0.987643 0.276552 0.182783
O O14 0.443725 0.248197 0.086776
O O15 0.405833 0.000000 0.129748
O O16 0.508581 0.500000 0.059659
O O17 0.500000 0.728913 0.000000
O O18 0.350428 0.500000 0.401006
O O19 0.354830 0.228915 0.437412
O O20 0.250000 0.750000 0.500000
O O21 0.342073 0.000000 0.495754
#
# Coordination Sequence:
#
# PCOD9208410 Si02
#       8
#     8   8   8   8   8   8   8   8
#     4   9  18  33  52  74 102 138 175 216 268 313
#     4  11  23  38  57  82 109 139 175 215 261 314
#     4  10  21  38  57  77 106 141 173 214 266 315
#     4   9  19  35  54  76 102 135 176 218 262 309
#     4   9  18  33  52  75 104 137 176 219 262 312
#     4   9  18  32  49  73 106 140 176 217 261 314
#     4  10  22  39  57  79 109 141 173 213 262 314
#     4  12  23  37  59  83 108 140 176 214 260 314
#
# _framework density 18.267965
#
# number of rings (size 3 to 8) (size 9 to 14) (size 15 to 20)
#    0.000    2.125    1.250    1.875    0.000    5.250 
#    0.000    0.000    0.000    0.000    0.000    0.000 
#    0.000    0.000    0.000    0.000    0.000    0.000 
#
# Total GULP energy -178545.128515 kJ/mol
# GULP energy per Si atom -5579.535266 kJ/mol
# Density = 1.822639 g / cm^3
# Si number density = 18.267965 Si / 1000 Ang^3
#
#
#
# Elastic Constant Matrix: (Units=GPa)
#
#
# Indices 1 2 3 4 5 6 
#
# 1 110.2037 24.1269 24.1140 0.0000 0.1745 0.0000
# 2 24.1269 16.7083 9.4723 0.0000 5.9248 0.0000
# 3 24.1140 9.4723 78.8385 0.0000 14.8355 0.0000
# 4 0.0000 0.0000 0.0000 26.6563 0.0000 -6.8461
# 5 0.1745 5.9248 14.8355 0.0000 14.9286 0.0000
# 6 0.0000 0.0000 0.0000 -6.8461 0.0000 17.2515
#
#
#
# Elastic Compliance Matrix: (Units=1/GPa)
#
#
# Indices 1 2 3 4 5 6 
#
# 1 0.015432 -0.024766 -0.004379 0.000000 0.014001 0.000000
# 2 -0.024766 0.110385 0.003077 0.000000 -0.046578 0.000000
# 3 -0.004379 0.003077 0.017065 0.000000 -0.018129 0.000000
# 4 0.000000 0.000000 0.000000 0.041772 0.000000 0.016577
# 5 0.014001 -0.046578 -0.018129 0.000000 0.103323 0.000000
# 6 0.000000 0.000000 0.000000 0.016577 0.000000 0.064545
#
#
# Mechanical properties :
#
#
# Convention : Reuss Voigt Hill
#
# Bulk Modulus (GPa) = 11.01972 35.68631 23.35301
# Shear Modulus (GPa) = 11.49672 21.63643 16.56658
#
# Velocity S-wave (km/s) = 2.51138 3.44523 3.01469
# Velocity P-wave (km/s) = 3.80194 5.95008 4.99291
#
# Compressibility (1/GPa) = 0.09074640
#
# Stress axis : x y z
#
# Youngs Moduli (GPa) = 64.79960 9.05923 58.59855
#
# Poissons Ratio (x) = 0.22436 0.25661
# Poissons Ratio (y) = 1.60483 -0.18033
# Poissons Ratio (z) = 0.28377 -0.02788
#
# Static dielectric constant tensor:
#      x y z
#    x 1.652180 0.000000 0.030390 
#    y 0.000000 1.616070 0.000000 
#    z 0.030390 0.000000 1.605870 
# 
# From -- ./inp_files/338875.got.cif
#   From: 2010.05.17/outbox.cif.g08.bks.cpg/sg12_170_cif.got.tgz:338875.got - 2010.06.03 13:09:07.
