data_PCOD9208539
_publ_section_title
;
Structure prediction by ZEFSAII (Michael W. Deem and Ramdas Pophale) SiO2 
 PCOD9208539
Probable space group: C 2/M
;
_chemical_formula_sum "Si O2"
_cell_formula_units_Z 56
_cell_length_a 20.790872
_cell_length_b 15.684005
_cell_length_c 14.960188
_cell_angle_alpha 90.000000
_cell_angle_beta 147.395849
_cell_angle_gamma 90.000000
_cell_volume 2628.572505
_symmetry_space_group_name_H-M "C 2/M"
_symmetry_group_IT_number 12
_symmetry_cell_setting 'monoclinic'
loop_
_space_group_symop_operation_xyz
x,y,z
-x,y,-z
-x,-y,-z
x,-y,z
1/2+x,1/2+y,z
1/2-x,1/2+y,-z
1/2-x,1/2-y,-z
1/2+x,1/2-y,z
loop_
_atom_site_type_symbol
_atom_site_label
_atom_site_fract_x
_atom_site_fract_y
_atom_site_fract_z
Si Si1 0.738043 0.163437 0.640449
Si Si2 0.936937 0.646349 0.718900
Si Si3 0.301850 0.898674 0.022887
Si Si4 0.228180 0.132740 0.603487
Si Si5 0.448358 0.351213 0.757712
Si Si6 0.221191 0.101109 0.115861
Si Si7 0.626706 0.401668 0.672155
O O1 0.630103 0.128493 0.453420
O O2 0.733312 0.265026 0.620791
O O3 0.860175 0.130463 0.737448
O O4 0.738743 0.143134 0.745036
O O5 0.850128 0.610450 0.694532
O O6 0.946581 0.748608 0.743560
O O7 0.070202 0.613449 0.871466
O O8 0.199573 0.861670 0.838814
O O9 0.281248 0.000000 0.005494
O O10 0.292000 0.865400 0.112024
O O11 0.117324 0.112419 0.407587
O O12 0.205941 0.097455 0.675498
O O13 0.581342 0.382305 0.931302
O O14 0.239407 0.000000 0.147153
O O15 0.500000 0.359949 0.500000
O O16 0.601336 0.500000 0.667955
#
# Coordination Sequence:
#
# PCOD9208539 Si02
#       7
#     8   8   8   8   8   8   8
#     4   9  20  38  57  85 116 147 191 236 285 350
#     4   9  20  39  59  81 117 153 187 237 287 343
#     4  10  23  39  55  82 117 153 193 234 283 347
#     4   9  19  38  60  84 114 150 189 236 292 343
#     4   9  19  37  60  84 113 147 190 240 289 341
#     4  11  23  38  57  84 119 156 195 242 291 340
#     4  10  21  38  58  83 115 148 189 241 290 340
#
# _framework density 21.304338999999999
#
# number of rings (size 3 to 8) (size 9 to 14) (size 15 to 20)
#    0.000    2.429    0.000    3.000    2.000    5.714 
#    5.143    5.714    0.000    0.000    0.000    0.000 
#    0.000    0.000    0.000    0.000    0.000    0.000 
#
# Total GULP energy -156353.807013 kJ/mol
# GULP energy per Si atom -5584.064536 kJ/mol
# Density = 2.125585 g / cm^3
# Si number density = 21.304339 Si / 1000 Ang^3
#
#
#
# Elastic Constant Matrix: (Units=GPa)
#
#
# Indices 1 2 3 4 5 6 
#
# 1 113.9498 4.8531 67.0432 0.0000 -25.8660 0.0000
# 2 4.8531 23.4959 5.0786 0.0000 -7.3616 0.0000
# 3 67.0432 5.0786 99.9829 0.0000 -7.6709 0.0000
# 4 0.0000 0.0000 0.0000 11.0022 0.0000 -1.8553
# 5 -25.8660 -7.3616 -7.6709 0.0000 34.9343 0.0000
# 6 0.0000 0.0000 0.0000 -1.8553 0.0000 25.4333
#
#
#
# Elastic Compliance Matrix: (Units=1/GPa)
#
#
# Indices 1 2 3 4 5 6 
#
# 1 0.017812 0.002252 -0.011198 0.000000 0.011204 0.000000
# 2 0.002252 0.046109 -0.003030 0.000000 0.010718 0.000000
# 3 -0.011198 -0.003030 0.017271 0.000000 -0.005138 0.000000
# 4 0.000000 0.000000 0.000000 0.092023 0.000000 0.006713
# 5 0.011204 0.010718 -0.005138 0.000000 0.038051 0.000000
# 6 0.000000 0.000000 0.000000 0.006713 0.000000 0.039808
#
#
# Mechanical properties :
#
#
# Convention : Reuss Voigt Hill
#
# Bulk Modulus (GPa) = 17.47084 43.48649 30.47866
# Shear Modulus (GPa) = 17.00071 24.97085 20.98578
#
# Velocity S-wave (km/s) = 2.82794 3.42731 3.14195
# Velocity P-wave (km/s) = 4.34527 6.00985 5.24403
#
# Compressibility (1/GPa) = 0.05723824
#
# Stress axis : x y z
#
# Youngs Moduli (GPa) = 56.14265 21.68794 57.90219
#
# Poissons Ratio (x) = -0.04884 0.64841
# Poissons Ratio (y) = -0.12642 0.17543
# Poissons Ratio (z) = 0.62871 0.06571
#
# Static dielectric constant tensor:
#      x y z
#    x 1.774090 0.000000 -0.013350 
#    y 0.000000 1.789940 0.000000 
#    z -0.013350 0.000000 1.759940 
# 
# From -- ./inp_files/217728.got.cif
#   From: 2010.05.17/outbox.cif.g08.bks.cpg/sg12_109_cif.got.tgz:217728.got - 2010.06.03 13:09:07.
