data_PCOD9208610
_publ_section_title
;
Structure prediction by ZEFSAII (Michael W. Deem and Ramdas Pophale) SiO2 
 PCOD9208610
Probable space group: C 2/M
;
_chemical_formula_sum "Si O2"
_cell_formula_units_Z 40
_cell_length_a 23.468423
_cell_length_b 13.590217
_cell_length_c 7.584140
_cell_angle_alpha 90.000000
_cell_angle_beta 55.799308
_cell_angle_gamma 90.000000
_cell_volume 2000.602909
_symmetry_space_group_name_H-M "C 2/M"
_symmetry_group_IT_number 12
_symmetry_cell_setting 'monoclinic'
loop_
_space_group_symop_operation_xyz
x,y,z
-x,y,-z
-x,-y,-z
x,-y,z
1/2+x,1/2+y,z
1/2-x,1/2+y,-z
1/2-x,1/2-y,-z
1/2+x,1/2-y,z
loop_
_atom_site_type_symbol
_atom_site_label
_atom_site_fract_x
_atom_site_fract_y
_atom_site_fract_z
Si Si1 0.813247 0.116622 0.625717
Si Si2 0.191768 0.616523 0.120064
Si Si3 0.074442 0.260609 0.424087
Si Si4 0.282841 0.880730 0.514092
Si Si5 0.434855 0.882282 0.219707
O O1 0.880367 0.176236 0.563413
O O2 0.779912 0.152093 0.499358
O O3 0.827393 0.000000 0.591080
O O4 0.754067 0.130541 0.876757
O O5 0.173359 0.500000 0.148821
O O6 0.125756 0.685293 0.197361
O O7 0.215680 0.642305 0.279667
O O8 0.058817 0.346351 0.591872
O O9 0.000000 0.222298 0.500000
O O10 0.357127 0.852892 0.302427
O O11 0.280294 0.000000 0.511244
O O12 0.436908 0.000000 0.207787
O O13 0.500000 0.842299 0.000000
#
# Coordination Sequence:
#
# PCOD9208610 Si02
#       5
#     8   8   8   8   8
#     4  10  21  38  59  79 108 152 193 231 271 319
#     4   9  19  36  58  84 110 138 180 234 285 332
#     4  11  23  36  52  84 116 145 186 228 276 333
#     4   8  16  33  56  81 104 138 186 226 272 326
#     4   9  19  35  55  83 116 145 174 221 286 342
#
# _framework density 19.993973
#
# number of rings (size 3 to 8) (size 9 to 14) (size 15 to 20)
#    0.000    2.600    0.000    2.400    2.800    5.200 
#    3.600    0.000    0.000    0.600    0.000    0.000 
#    0.000    0.000    0.000    0.000    0.000    0.000 
#
# Total GULP energy -111572.879927 kJ/mol
# GULP energy per Si atom -5578.643996 kJ/mol
# Density = 1.994847 g / cm^3
# Si number density = 19.993973 Si / 1000 Ang^3
#
#
#
# Elastic Constant Matrix: (Units=GPa)
#
#
# Indices 1 2 3 4 5 6 
#
# 1 98.6604 46.7656 28.4963 0.0000 -26.1008 0.0000
# 2 46.7656 71.2295 20.0443 0.0000 -19.7623 0.0000
# 3 28.4963 20.0443 46.7857 0.0000 -9.9159 0.0000
# 4 0.0000 0.0000 0.0000 18.7842 0.0000 -4.6070
# 5 -26.1008 -19.7623 -9.9159 0.0000 24.3435 0.0000
# 6 0.0000 0.0000 0.0000 -4.6070 0.0000 24.4897
#
#
#
# Elastic Compliance Matrix: (Units=1/GPa)
#
#
# Indices 1 2 3 4 5 6 
#
# 1 0.018166 -0.007209 -0.005569 0.000000 0.011356 0.000000
# 2 -0.007209 0.022158 -0.003205 0.000000 0.008954 0.000000
# 3 -0.005569 -0.003205 0.026620 0.000000 0.002271 0.000000
# 4 0.000000 0.000000 0.000000 0.055811 0.000000 0.010499
# 5 0.011356 0.008954 0.002271 0.000000 0.061448 0.000000
# 6 0.000000 0.000000 0.000000 0.010499 0.000000 0.042809
#
#
# Mechanical properties :
#
#
# Convention : Reuss Voigt Hill
#
# Bulk Modulus (GPa) = 28.58861 45.25421 36.92141
# Shear Modulus (GPa) = 18.47496 21.61476 20.04486
#
# Velocity S-wave (km/s) = 3.04308 3.29152 3.16973
# Velocity P-wave (km/s) = 5.16495 6.09332 5.64824
#
# Compressibility (1/GPa) = 0.03497897
#
# Stress axis : x y z
#
# Youngs Moduli (GPa) = 55.04908 45.13057 37.56528
#
# Poissons Ratio (x) = 0.32533 0.20920
# Poissons Ratio (y) = 0.39683 0.12039
# Poissons Ratio (z) = 0.30657 0.14463
#
# Static dielectric constant tensor:
#      x y z
#    x 1.759530 0.000000 0.006260 
#    y 0.000000 1.753180 0.000000 
#    z 0.006260 0.000000 1.712500 
# 
# From -- ./inp_files/72409.got.cif
#   From: 2010.05.17/outbox.cif.g08.bks.cpg/sg12_37_cif.got.tgz:72409.got - 2010.06.03 13:09:07.
