data_PCOD9208992
_publ_section_title
;
Structure prediction by ZEFSAII (Michael W. Deem and Ramdas Pophale) SiO2 
 PCOD9208992
Probable space group: C 2/M
;
_chemical_formula_sum "Si O2"
_cell_formula_units_Z 56
_cell_length_a 25.032539
_cell_length_b 8.712489
_cell_length_c 12.616373
_cell_angle_alpha 90.000000
_cell_angle_beta 67.584236
_cell_angle_gamma 90.000000
_cell_volume 2543.670980
_symmetry_space_group_name_H-M "C 2/M"
_symmetry_group_IT_number 12
_symmetry_cell_setting 'monoclinic'
loop_
_space_group_symop_operation_xyz
x,y,z
-x,y,-z
-x,-y,-z
x,-y,z
1/2+x,1/2+y,z
1/2-x,1/2+y,-z
1/2-x,1/2-y,-z
1/2+x,1/2-y,z
loop_
_atom_site_type_symbol
_atom_site_label
_atom_site_fract_x
_atom_site_fract_y
_atom_site_fract_z
Si Si1 0.565439 0.681152 0.748316
Si Si2 0.353180 0.820029 0.144467
Si Si3 0.921034 0.314060 0.483443
Si Si4 0.548200 0.819453 0.106167
Si Si5 0.732874 0.173015 0.197188
Si Si6 0.605720 0.683968 0.272475
Si Si7 0.294665 0.168799 0.538339
O O1 0.570793 0.500000 0.730320
O O2 0.622746 0.744520 0.764702
O O3 0.549357 0.757942 0.646630
O O4 0.510640 0.725175 0.862052
O O5 0.295028 0.751420 0.135200
O O6 0.343306 0.000000 0.171966
O O7 0.404903 0.801081 0.021527
O O8 0.924135 0.500000 0.489566
O O9 0.927656 0.246887 0.596645
O O10 0.856300 0.255446 0.505030
O O11 0.577758 0.760115 0.191078
O O12 0.533329 0.000000 0.124225
O O13 0.769756 0.500000 0.847062
O O14 0.673547 0.263991 0.218349
O O15 0.730558 0.157955 0.325784
O O16 0.601854 0.500000 0.273729
O O17 0.250000 0.250000 0.500000
O O18 0.305934 0.000000 0.486128
#
# Coordination Sequence:
#
# PCOD9208992 Si02
#       7
#     8   8   8   8   8   8   8
#     4  12  25  41  64  95 127 161 206 258 313 370
#     4  11  24  42  65  93 124 163 210 258 311 368
#     4  10  21  39  61  87 123 164 204 249 305 368
#     4  11  25  45  66  88 121 166 213 260 309 366
#     4  10  21  38  60  88 124 164 204 250 307 368
#     4  11  23  41  65  95 128 162 206 256 310 370
#     4   9  18  30  49  79 114 153 194 238 291 354
#
# _framework density 22.015426000000001
#
# number of rings (size 3 to 8) (size 9 to 14) (size 15 to 20)
#    0.000    1.429    0.000    6.429    0.000   10.857 
#    0.000    2.857    0.000    0.000    0.000    0.000 
#    0.000    0.000    0.000    0.000    0.000    0.000 
#
# Total GULP energy -156365.391682 kJ/mol
# GULP energy per Si atom -5584.478274 kJ/mol
# Density = 2.196532 g / cm^3
# Si number density = 22.015426 Si / 1000 Ang^3
#
#
#
# Elastic Constant Matrix: (Units=GPa)
#
#
# Indices 1 2 3 4 5 6 
#
# 1 49.3375 2.7790 9.4598 0.0000 0.6873 0.0000
# 2 2.7790 74.4949 25.8873 0.0000 0.3685 0.0000
# 3 9.4598 25.8873 59.8704 0.0000 11.6844 0.0000
# 4 0.0000 0.0000 0.0000 23.5047 0.0000 -5.4716
# 5 0.6873 0.3685 11.6844 0.0000 35.6802 0.0000
# 6 0.0000 0.0000 0.0000 -5.4716 0.0000 30.1658
#
#
#
# Elastic Compliance Matrix: (Units=1/GPa)
#
#
# Indices 1 2 3 4 5 6 
#
# 1 0.020935 0.000493 -0.003676 0.000000 0.000795 0.000000
# 2 0.000493 0.015975 -0.007426 0.000000 0.002257 0.000000
# 3 -0.003676 -0.007426 0.021863 0.000000 -0.007012 0.000000
# 4 0.000000 0.000000 0.000000 0.044420 0.000000 0.008057
# 5 0.000795 0.002257 -0.007012 0.000000 0.030284 0.000000
# 6 0.000000 0.000000 0.000000 0.008057 0.000000 0.034612
#
#
# Mechanical properties :
#
#
# Convention : Reuss Voigt Hill
#
# Bulk Modulus (GPa) = 26.62838 28.88388 27.75613
# Shear Modulus (GPa) = 24.77404 27.57527 26.17465
#
# Velocity S-wave (km/s) = 3.35819 3.54297 3.45182
# Velocity P-wave (km/s) = 5.21135 5.46673 5.34057
#
# Compressibility (1/GPa) = 0.03755391
#
# Stress axis : x y z
#
# Youngs Moduli (GPa) = 47.76793 62.59935 45.73983
#
# Poissons Ratio (x) = -0.03083 0.16814
# Poissons Ratio (y) = -0.02353 0.33964
# Poissons Ratio (z) = 0.17559 0.46484
#
# Static dielectric constant tensor:
#      x y z
#    x 1.948830 0.000000 -0.023640 
#    y 0.000000 1.801430 0.000000 
#    z -0.023640 0.000000 1.932850 
# 
# From -- ./inp_files/180807.got.cif
#   From: 2010.05.17/outbox.cif.g08.bks.cpg/sg12_91_cif.got.tgz:180807.got - 2010.06.03 13:09:07.
