data_PCOD9208103
_publ_section_title
;
Structure prediction by ZEFSAII (Michael W. Deem and Ramdas Pophale) SiO2 
 PCOD9208103
Probable space group: C 2/M
;
_chemical_formula_sum "Si O2"
_cell_formula_units_Z 52
_cell_length_a 14.597841
_cell_length_b 18.804778
_cell_length_c 21.825063
_cell_angle_alpha 90.000000
_cell_angle_beta 150.996442
_cell_angle_gamma 90.000000
_cell_volume 2904.906945
_symmetry_space_group_name_H-M "C 2/M"
_symmetry_group_IT_number 12
_symmetry_cell_setting 'monoclinic'
loop_
_space_group_symop_operation_xyz
x,y,z
-x,y,-z
-x,-y,-z
x,-y,z
1/2+x,1/2+y,z
1/2-x,1/2+y,-z
1/2-x,1/2-y,-z
1/2+x,1/2-y,z
loop_
_atom_site_type_symbol
_atom_site_label
_atom_site_fract_x
_atom_site_fract_y
_atom_site_fract_z
Si Si1 0.438418 0.690901 0.307121
Si Si2 0.071907 0.742751 0.162268
Si Si3 0.966583 0.308082 0.723506
Si Si4 0.729164 0.500000 0.984541
Si Si5 0.838082 0.623253 0.952799
Si Si6 0.372048 0.372634 0.982977
Si Si7 0.629375 0.584787 0.514430
O O1 0.278973 0.727240 0.256466
O O2 0.563494 0.752947 0.349647
O O3 0.328643 0.655079 0.186010
O O4 0.536496 0.629729 0.404804
O O5 0.069016 0.731031 0.232895
O O6 0.933828 0.685007 0.049688
O O7 0.993335 0.818324 0.095349
O O8 0.829999 0.376589 0.642296
O O9 0.184106 0.332422 0.849815
O O10 0.771401 0.561698 0.957707
O O11 0.690193 0.438333 0.013213
O O12 0.000000 0.598727 0.000000
O O13 0.500000 0.392534 0.000000
O O14 0.500000 0.592524 0.500000
O O15 0.645673 0.500000 0.511802
#
# Coordination Sequence:
#
# PCOD9208103 Si02
#       7
#     8   8   8   4   8   8   8
#     4  11  22  42  68  90 123 168 215 261 307 372
#     4  11  20  41  67  95 125 162 209 267 311 371
#     4  12  22  40  70  91 127 168 212 258 317 370
#     4  12  24  34  54  92 139 168 198 248 329 379
#     4  10  21  37  61  95 126 162 210 263 320 375
#     4  12  23  40  61  96 132 170 207 254 313 387
#     4  11  26  45  64  93 127 165 213 267 318 370
#
# _framework density 17.900745000000001
#
# number of rings (size 3 to 8) (size 9 to 14) (size 15 to 20)
#    0.000    0.769    6.154    2.769    2.154    0.000 
#    4.154    0.000    0.000    0.000    0.000    2.154 
#    0.000    0.000    0.000    0.000    0.000    0.000 
#
# Total GULP energy -144739.777310 kJ/mol
# GULP energy per Si atom -5566.914512 kJ/mol
# Density = 1.786000 g / cm^3
# Si number density = 17.900745 Si / 1000 Ang^3
#
#
#
# Elastic Constant Matrix: (Units=GPa)
#
#
# Indices 1 2 3 4 5 6 
#
# 1 112.2328 55.0641 31.2662 0.0002 -17.7438 0.0002
# 2 55.0641 109.5801 29.5248 0.0037 -13.5221 0.0012
# 3 31.2662 29.5248 63.8531 0.0045 -5.4858 0.0011
# 4 0.0002 0.0037 0.0045 -11.8756 0.0018 -24.4100
# 5 -17.7438 -13.5221 -5.4858 0.0018 15.0675 0.0000
# 6 0.0002 0.0012 0.0011 -24.4100 0.0000 40.3553
#
#
#
# Elastic Compliance Matrix: (Units=1/GPa)
#
#
# Indices 1 2 3 4 5 6 
#
# 1 0.013964 -0.004663 -0.003745 -0.000001 0.010896 0.000000
# 2 -0.004663 0.012965 -0.003286 0.000002 0.004947 0.000001
# 3 -0.003745 -0.003286 0.018976 0.000003 -0.000451 0.000001
# 4 -0.000001 0.000002 0.000003 -0.037537 0.000007 -0.022705
# 5 0.010896 0.004947 -0.000451 0.000007 0.083475 0.000004
# 6 0.000000 0.000001 0.000001 -0.022705 0.000004 0.011046
#
#
# Mechanical properties :
#
#
# Convention : Reuss Voigt Hill
#
# Bulk Modulus (GPa) = 44.41532 57.48623 50.95078
# Shear Modulus (GPa) = 37.37381 20.03017 28.70199
#
# Velocity S-wave (km/s) = 4.57424 3.34871 4.00859
# Velocity P-wave (km/s) = 7.26389 6.86552 7.06751
#
# Compressibility (1/GPa) = 0.02251475
#
# Stress axis : x y z
#
# Youngs Moduli (GPa) = 71.61317 77.13080 52.69913
#
# Poissons Ratio (x) = 0.35968 0.19737
# Poissons Ratio (y) = 0.33395 0.17319
# Poissons Ratio (z) = 0.26821 0.25348
#
# Static dielectric constant tensor:
#      x y z
#    x 1.606710 0.000000 0.012160 
#    y 0.000000 1.589120 0.000000 
#    z 0.012160 0.000000 1.616950 
# 
# From -- ./inp_files/311525.got.cif
#   From: 2010.05.17/outbox.cif.g08.bks.cpg/sg12_156_cif.got.tgz:311525.got - 2010.06.03 13:09:07.
