data_PCOD9208773
_publ_section_title
;
Structure prediction by ZEFSAII (Michael W. Deem and Ramdas Pophale) SiO2 
 PCOD9208773
Probable space group: C 2/M
;
_chemical_formula_sum "Si O2"
_cell_formula_units_Z 48
_cell_length_a 13.698388
_cell_length_b 13.377731
_cell_length_c 27.623873
_cell_angle_alpha 90.000000
_cell_angle_beta 154.537805
_cell_angle_gamma 90.000000
_cell_volume 2176.303956
_symmetry_space_group_name_H-M "C 2/M"
_symmetry_group_IT_number 12
_symmetry_cell_setting 'monoclinic'
loop_
_space_group_symop_operation_xyz
x,y,z
-x,y,-z
-x,-y,-z
x,-y,z
1/2+x,1/2+y,z
1/2-x,1/2+y,-z
1/2-x,1/2-y,-z
1/2+x,1/2-y,z
loop_
_atom_site_type_symbol
_atom_site_label
_atom_site_fract_x
_atom_site_fract_y
_atom_site_fract_z
Si Si1 0.390188 0.883960 0.900699
Si Si2 0.686593 0.885014 0.937897
Si Si3 0.602980 0.385998 0.491566
Si Si4 0.961882 0.254101 0.695674
Si Si5 0.698803 0.616090 0.186487
Si Si6 0.211356 0.261071 0.280973
O O1 0.581838 0.881771 0.945132
O O2 0.165268 0.826029 0.781792
O O3 0.327085 0.000000 0.880679
O O4 0.500000 0.845564 0.000000
O O5 0.529209 0.811344 0.838011
O O6 0.669228 0.000000 0.913243
O O7 0.948762 0.855583 0.056451
O O8 0.500000 0.392042 0.500000
O O9 0.680042 0.500000 0.513907
O O10 0.402564 0.346928 0.367354
O O11 0.786385 0.295952 0.576967
O O12 0.113332 0.355122 0.768865
O O13 0.815115 0.222343 0.676196
O O14 0.697261 0.500000 0.196254
O O15 0.750988 0.677496 0.258594
#
# Coordination Sequence:
#
# PCOD9208773 Si02
#       6
#     8   8   8   8   8   8
#     4  10  21  38  61  89 123 162 203 246 301 371
#     4  10  21  38  59  88 122 158 201 251 306 366
#     4   9  20  40  62  88 122 162 206 254 308 365
#     4  11  23  38  64  90 122 161 206 252 309 365
#     4  11  24  40  59  92 134 161 197 259 320 366
#     4  11  22  39  65  87 119 165 211 251 303 372
#
# _framework density 22.055741999999999
#
# number of rings (size 3 to 8) (size 9 to 14) (size 15 to 20)
#    0.000    1.667    1.667    2.500    2.333    4.667 
#    0.000    2.500    0.000    3.000    0.000    0.000 
#    0.000    0.000    0.000    0.000    0.000    0.000 
#
# Total GULP energy -133941.360430 kJ/mol
# GULP energy per Si atom -5580.890018 kJ/mol
# Density = 2.200554 g / cm^3
# Si number density = 22.055742 Si / 1000 Ang^3
#
#
#
# Elastic Constant Matrix: (Units=GPa)
#
#
# Indices 1 2 3 4 5 6 
#
# 1 47.2207 -0.0588 8.6004 -0.0005 -3.6753 0.0004
# 2 -0.0588 86.8095 32.5905 -0.0004 -17.9663 0.0002
# 3 8.6004 32.5905 84.4183 -0.0020 -3.8809 0.0016
# 4 -0.0005 -0.0004 -0.0020 32.6207 0.0015 -0.5309
# 5 -3.6753 -17.9663 -3.8809 0.0015 25.2932 -0.0002
# 6 0.0004 0.0002 0.0016 -0.5309 -0.0002 13.2923
#
#
#
# Elastic Compliance Matrix: (Units=1/GPa)
#
#
# Indices 1 2 3 4 5 6 
#
# 1 0.022010 0.001919 -0.002793 0.000000 0.004133 0.000000
# 2 0.001919 0.015933 -0.005855 -0.000001 0.010698 0.000001
# 3 -0.002793 -0.005855 0.014281 0.000001 -0.002373 -0.000002
# 4 0.000000 -0.000001 0.000001 0.030675 -0.000002 0.001225
# 5 0.004133 0.010698 -0.002373 -0.000002 0.047372 0.000001
# 6 0.000000 0.000001 -0.000002 0.001225 0.000001 0.075281
#
#
# Mechanical properties :
#
#
# Convention : Reuss Voigt Hill
#
# Bulk Modulus (GPa) = 25.79562 33.41251 29.60407
# Shear Modulus (GPa) = 21.55803 26.06233 23.81018
#
# Velocity S-wave (km/s) = 3.12979 3.44125 3.28921
# Velocity P-wave (km/s) = 4.97813 5.56522 5.27984
#
# Compressibility (1/GPa) = 0.03876627
#
# Stress axis : x y z
#
# Youngs Moduli (GPa) = 45.43403 62.76328 70.02068
#
# Poissons Ratio (x) = -0.12043 0.19558
# Poissons Ratio (y) = -0.08718 0.40995
# Poissons Ratio (z) = 0.12690 0.36746
#
# Static dielectric constant tensor:
#      x y z
#    x 1.860940 0.000000 -0.019790 
#    y 0.000000 1.809210 0.000000 
#    z -0.019790 0.000000 1.827630 
# 
# From -- ./inp_files/142726.got.cif
#   From: 2010.05.17/outbox.cif.g08.bks.cpg/sg12_72_cif.got.tgz:142726.got - 2010.06.03 13:09:07.
