data_PCOD9208695
_publ_section_title
;
Structure prediction by ZEFSAII (Michael W. Deem and Ramdas Pophale) SiO2 
 PCOD9208695
Probable space group: C 2/M
;
_chemical_formula_sum "Si O2"
_cell_formula_units_Z 56
_cell_length_a 18.297291
_cell_length_b 8.645806
_cell_length_c 19.054536
_cell_angle_alpha 90.000000
_cell_angle_beta 76.086189
_cell_angle_gamma 90.000000
_cell_volume 2925.884257
_symmetry_space_group_name_H-M "C 2/M"
_symmetry_group_IT_number 12
_symmetry_cell_setting 'monoclinic'
loop_
_space_group_symop_operation_xyz
x,y,z
-x,y,-z
-x,-y,-z
x,-y,z
1/2+x,1/2+y,z
1/2-x,1/2+y,-z
1/2-x,1/2-y,-z
1/2+x,1/2-y,z
loop_
_atom_site_type_symbol
_atom_site_label
_atom_site_fract_x
_atom_site_fract_y
_atom_site_fract_z
Si Si1 0.775827 0.185724 0.068963
Si Si2 0.296949 0.314208 0.646473
Si Si3 0.653060 0.814426 0.214804
Si Si4 0.584163 0.311519 0.499928
Si Si5 0.366197 0.687106 0.355905
Si Si6 0.561363 0.814340 0.926912
Si Si7 0.509764 0.314296 0.788976
O O1 0.714978 0.230469 0.142246
O O2 0.857346 0.249995 0.070645
O O3 0.778864 0.000000 0.065331
O O4 0.750000 0.250000 0.000000
O O5 0.297767 0.500000 0.649170
O O6 0.322437 0.248925 0.715387
O O7 0.355718 0.263566 0.572622
O O8 0.213913 0.256452 0.646431
O O9 0.571936 0.749716 0.212012
O O10 0.649940 0.000000 0.217861
O O11 0.500000 0.259513 0.500000
O O12 0.583012 0.500000 0.500443
O O13 0.609017 0.262831 0.571909
O O14 0.360182 0.500000 0.357090
O O15 0.429652 0.730247 0.284576
O O16 0.536156 0.749431 0.857727
O O17 0.564532 0.000000 0.922922
O O18 0.500000 0.770575 0.000000
O O19 0.506743 0.500000 0.792294
#
# Coordination Sequence:
#
# PCOD9208695 Si02
#       7
#     8   8   8   8   8   8   8
#     4  11  24  41  62  88 117 153 195 238 289 345
#     4  11  22  36  59  88 115 151 198 239 282 341
#     4  11  24  41  60  85 119 154 189 236 293 345
#     4   9  18  35  58  83 114 152 193 238 287 340
#     4  10  21  38  59  84 118 155 190 236 292 343
#     4  11  24  41  61  87 120 156 192 235 289 343
#     4  11  23  39  62  89 115 151 197 239 286 344
#
# _framework density 19.139513000000001
#
# number of rings (size 3 to 8) (size 9 to 14) (size 15 to 20)
#    0.000    1.429    0.000    5.143    0.000   13.714 
#    0.000    0.714    0.000    3.000    0.000    0.000 
#    0.000    0.000    0.000    0.000    0.000    0.000 
#
# Total GULP energy -156622.206941 kJ/mol
# GULP energy per Si atom -5593.650248 kJ/mol
# Density = 1.909595 g / cm^3
# Si number density = 19.139513 Si / 1000 Ang^3
#
#
#
# Elastic Constant Matrix: (Units=GPa)
#
#
# Indices 1 2 3 4 5 6 
#
# 1 244.3934 56.1888 150.1512 0.0000 0.9542 0.0000
# 2 56.1888 40.7905 63.5899 0.0000 -5.9742 0.0000
# 3 150.1512 63.5899 242.6317 0.0000 1.5297 0.0000
# 4 0.0000 0.0000 0.0000 19.8504 0.0000 0.1285
# 5 0.9542 -5.9742 1.5297 0.0000 46.3945 0.0000
# 6 0.0000 0.0000 0.0000 0.1285 0.0000 39.2128
#
#
#
# Elastic Compliance Matrix: (Units=1/GPa)
#
#
# Indices 1 2 3 4 5 6 
#
# 1 0.007180 -0.005200 -0.003076 0.000000 -0.000716 0.000000
# 2 -0.005200 0.046780 -0.009083 0.000000 0.006430 0.000000
# 3 -0.003076 -0.009083 0.008414 0.000000 -0.001384 0.000000
# 4 0.000000 0.000000 0.000000 0.050378 0.000000 -0.000165
# 5 -0.000716 0.006430 -0.001384 0.000000 0.022443 0.000000
# 6 0.000000 0.000000 0.000000 -0.000165 0.000000 0.025502
#
#
# Mechanical properties :
#
#
# Convention : Reuss Voigt Hill
#
# Bulk Modulus (GPa) = 36.15797 118.63060 77.39428
# Shear Modulus (GPa) = 24.43403 38.28393 31.35898
#
# Velocity S-wave (km/s) = 3.57687 4.47727 4.05216
# Velocity P-wave (km/s) = 5.99929 9.42574 7.90051
#
# Compressibility (1/GPa) = 0.02765642
#
# Stress axis : x y z
#
# Youngs Moduli (GPa) = 139.27856 21.37681 118.84794
#
# Poissons Ratio (x) = 0.11116 0.36556
# Poissons Ratio (y) = 0.72425 1.07947
# Poissons Ratio (z) = 0.42840 0.19416
#
# Static dielectric constant tensor:
#      x y z
#    x 1.615510 0.000000 -0.012260 
#    y 0.000000 1.654000 0.000000 
#    z -0.012260 0.000000 1.642470 
# 
# From -- ./inp_files/275283.got.cif
#   From: 2010.05.17/outbox.cif.g08.bks.cpg/sg12_138_cif.got.tgz:275283.got - 2010.06.03 13:09:07.
