data_PCOD9208881
_publ_section_title
;
Structure prediction by ZEFSAII (Michael W. Deem and Ramdas Pophale) SiO2 
 PCOD9208881
Probable space group: C 2/M
;
_chemical_formula_sum "Si O2"
_cell_formula_units_Z 56
_cell_length_a 17.507210
_cell_length_b 15.617072
_cell_length_c 14.148253
_cell_angle_alpha 90.000000
_cell_angle_beta 35.735345
_cell_angle_gamma 90.000000
_cell_volume 2259.245875
_symmetry_space_group_name_H-M "C 2/M"
_symmetry_group_IT_number 12
_symmetry_cell_setting 'monoclinic'
loop_
_space_group_symop_operation_xyz
x,y,z
-x,y,-z
-x,-y,-z
x,-y,z
1/2+x,1/2+y,z
1/2-x,1/2+y,-z
1/2-x,1/2-y,-z
1/2+x,1/2-y,z
loop_
_atom_site_type_symbol
_atom_site_label
_atom_site_fract_x
_atom_site_fract_y
_atom_site_fract_z
Si Si1 0.242739 0.198040 0.907203
Si Si2 0.796062 0.130808 0.755573
Si Si3 0.003042 0.400513 0.299625
Si Si4 0.276394 0.799452 0.573577
Si Si5 0.534414 0.399747 0.813928
Si Si6 0.976638 0.595086 0.922240
Si Si7 0.916943 0.131219 0.452500
O O1 0.258894 0.269628 0.810048
O O2 0.372099 0.140215 0.776711
O O3 0.250000 0.250000 0.000000
O O4 0.109816 0.142759 0.036900
O O5 0.679100 0.087125 0.927812
O O6 0.808751 0.097987 0.635201
O O7 0.937153 0.114122 0.658322
O O8 0.029001 0.500000 0.260467
O O9 0.863366 0.384868 0.485173
O O10 0.983311 0.359938 0.213998
O O11 0.250000 0.750000 0.500000
O O12 0.139080 0.832701 0.753717
O O13 0.384609 0.731362 0.500983
O O14 0.534673 0.500000 0.844599
O O15 0.583626 0.398357 0.654436
O O16 0.035971 0.500000 0.867656
O O17 0.000000 0.638077 0.000000
#
# Coordination Sequence:
#
# PCOD9208881 Si02
#       7
#     8   8   8   8   8   8   8
#     4  12  20  39  62  88 120 161 211 250 288 354
#     4  11  22  37  62  85 121 161 204 248 298 357
#     4  11  21  37  61  85 116 160 202 246 296 354
#     4  10  21  38  60  85 119 157 200 250 299 360
#     4  11  23  38  63  95 126 157 197 253 312 362
#     4  10  23  36  53  86 126 160 192 236 302 371
#     4  10  22  39  60  90 118 159 204 245 302 365
#
# _framework density 24.787030999999999
#
# number of rings (size 3 to 8) (size 9 to 14) (size 15 to 20)
#    0.000    1.286    4.286    1.714    4.000    2.286 
#    0.000    1.429    0.000    5.143    0.000    0.000 
#    0.000    0.000    0.000    0.000    0.000    0.000 
#
# Total GULP energy -156184.830219 kJ/mol
# GULP energy per Si atom -5578.029651 kJ/mol
# Density = 2.473061 g / cm^3
# Si number density = 24.787031 Si / 1000 Ang^3
#
#
#
# Elastic Constant Matrix: (Units=GPa)
#
#
# Indices 1 2 3 4 5 6 
#
# 1 43.5314 20.8921 23.1625 0.0000 -16.0660 0.0000
# 2 20.8921 117.4460 32.9659 0.0000 -21.7021 0.0000
# 3 23.1625 32.9659 106.8683 -0.0001 -32.1603 0.0000
# 4 0.0000 0.0000 -0.0001 21.6622 0.0000 -17.9432
# 5 -16.0660 -21.7021 -32.1603 0.0000 44.6135 0.0000
# 6 0.0000 0.0000 0.0000 -17.9432 0.0000 13.8322
#
#
#
# Elastic Compliance Matrix: (Units=1/GPa)
#
#
# Indices 1 2 3 4 5 6 
#
# 1 0.028540 -0.002950 -0.003339 0.000000 0.006435 0.000000
# 2 -0.002950 0.009985 -0.001658 0.000000 0.002599 0.000000
# 3 -0.003339 -0.001658 0.012755 0.000000 0.007185 0.000000
# 4 0.000000 0.000000 0.000000 -0.619634 0.000000 -0.803793
# 5 0.006435 0.002599 0.007185 0.000000 0.031176 0.000000
# 6 0.000000 0.000000 0.000000 -0.803793 0.000000 -0.970390
#
#
# Mechanical properties :
#
#
# Convention : Reuss Voigt Hill
#
# Bulk Modulus (GPa) = 28.26128 46.87629 37.56879
# Shear Modulus (GPa) = -3.37866 28.74325 12.68230
#
# Velocity S-wave (km/s) = -1.16877 3.40900 2.26442
# Velocity P-wave (km/s) = 3.09920 5.86922 4.69322
#
# Compressibility (1/GPa) = 0.03538410
#
# Stress axis : x y z
#
# Youngs Moduli (GPa) = 35.03900 100.14804 78.40117
#
# Poissons Ratio (x) = 0.29548 0.26177
# Poissons Ratio (y) = 0.10338 0.13003
# Poissons Ratio (z) = 0.11699 0.16609
#
# Static dielectric constant tensor:
#      x y z
#    x 2.110950 0.000000 0.095470 
#    y 0.000000 2.112200 0.000000 
#    z 0.095470 0.000000 1.935900 
# 
# From -- ./inp_files/284489.got.cif
#   From: 2010.05.17/outbox.cif.g08.bks.cpg/sg12_143_cif.got.tgz:284489.got - 2010.06.03 13:09:07.
