data_PCOD9208708
_publ_section_title
;
Structure prediction by ZEFSAII (Michael W. Deem and Ramdas Pophale) SiO2 
 PCOD9208708
Probable space group: C 2/M
;
_chemical_formula_sum "Si O2"
_cell_formula_units_Z 44
_cell_length_a 9.260008
_cell_length_b 28.814581
_cell_length_c 10.848782
_cell_angle_alpha 90.000000
_cell_angle_beta 141.229966
_cell_angle_gamma 90.000000
_cell_volume 1812.654488
_symmetry_space_group_name_H-M "C 2/M"
_symmetry_group_IT_number 12
_symmetry_cell_setting 'monoclinic'
loop_
_space_group_symop_operation_xyz
x,y,z
-x,y,-z
-x,-y,-z
x,-y,z
1/2+x,1/2+y,z
1/2-x,1/2+y,-z
1/2-x,1/2-y,-z
1/2+x,1/2-y,z
loop_
_atom_site_type_symbol
_atom_site_label
_atom_site_fract_x
_atom_site_fract_y
_atom_site_fract_z
Si Si1 0.741098 0.866861 0.330494
Si Si2 0.962835 0.448205 0.687877
Si Si3 0.000000 0.130137 0.000000
Si Si4 0.094151 0.306624 0.761618
Si Si5 0.875909 0.052401 0.760617
Si Si6 0.745922 0.786632 0.136470
O O1 0.565617 0.909407 0.227229
O O2 0.646088 0.832982 0.376870
O O3 0.744211 0.832150 0.217385
O O4 0.000000 0.885093 0.500000
O O5 0.959592 0.500000 0.736945
O O6 0.742358 0.441775 0.450026
O O7 0.172674 0.445850 0.729268
O O8 0.776801 0.160639 0.814988
O O9 0.033955 0.095143 0.906362
O O10 0.071820 0.253112 0.707459
O O11 0.224799 0.301264 0.981106
O O12 0.975583 0.000000 0.833239
O O13 0.500000 0.762393 0.000000
#
# Coordination Sequence:
#
# PCOD9208708 Si02
#       6
#     8   8   4   8   8   8
#     4  11  23  38  59  86 116 157 194 242 282 349
#     4   9  19  39  59  83 119 157 192 233 295 352
#     4  12  19  32  64  90 108 146 195 248 284 338
#     4  10  21  38  59  85 111 155 192 237 289 346
#     4   9  19  35  59  88 117 148 190 246 292 338
#     4   9  20  40  60  80 117 152 193 231 294 349
#
# _framework density 24.273793000000001
#
# number of rings (size 3 to 8) (size 9 to 14) (size 15 to 20)
#    0.000    2.182    2.727    1.364    2.545    1.091 
#    0.000    1.818    0.000    4.909    0.000    0.000 
#    0.000    0.000    0.000    0.000    0.000    0.000 
#
# Total GULP energy -122674.355293 kJ/mol
# GULP energy per Si atom -5576.107059 kJ/mol
# Density = 2.421854 g / cm^3
# Si number density = 24.273793 Si / 1000 Ang^3
#
#
#
# Elastic Constant Matrix: (Units=GPa)
#
#
# Indices 1 2 3 4 5 6 
#
# 1 79.0778 48.4441 11.3174 0.0000 15.6089 0.0000
# 2 48.4441 165.4225 5.1781 0.0000 -1.5791 0.0000
# 3 11.3174 5.1781 26.9828 0.0000 11.7927 0.0000
# 4 0.0000 0.0000 0.0000 23.3223 0.0000 -1.0661
# 5 15.6089 -1.5791 11.7927 0.0000 28.8268 0.0000
# 6 0.0000 0.0000 0.0000 -1.0661 0.0000 38.1332
#
#
#
# Elastic Compliance Matrix: (Units=1/GPa)
#
#
# Indices 1 2 3 4 5 6 
#
# 1 0.018031 -0.005284 -0.002624 0.000000 -0.008979 0.000000
# 2 -0.005284 0.007653 -0.000836 0.000000 0.003622 0.000000
# 3 -0.002624 -0.000836 0.045933 0.000000 -0.017415 0.000000
# 4 0.000000 0.000000 0.000000 0.042932 0.000000 0.001200
# 5 -0.008979 0.003622 -0.017415 0.000000 0.046875 0.000000
# 6 0.000000 0.000000 0.000000 0.001200 0.000000 0.026257
#
#
# Mechanical properties :
#
#
# Convention : Reuss Voigt Hill
#
# Bulk Modulus (GPa) = 18.47423 44.59581 31.53502
# Shear Modulus (GPa) = 22.40023 31.82601 27.11312
#
# Velocity S-wave (km/s) = 3.04108 3.62488 3.34574
# Velocity P-wave (km/s) = 4.46746 5.99429 5.28629
#
# Compressibility (1/GPa) = 0.05412946
#
# Stress axis : x y z
#
# Youngs Moduli (GPa) = 55.46118 130.66377 21.77080
#
# Poissons Ratio (x) = 0.69041 0.05714
# Poissons Ratio (y) = 0.29305 0.01819
# Poissons Ratio (z) = 0.14555 0.10917
#
# Static dielectric constant tensor:
#      x y z
#    x 1.968910 0.000000 0.029380 
#    y 0.000000 1.995190 0.000000 
#    z 0.029380 0.000000 2.046380 
# 
# From -- ./inp_files/208469.got.cif
#   From: 2010.05.17/outbox.cif.g08.bks.cpg/sg12_105_cif.got.tgz:208469.got - 2010.06.03 13:09:07.
