data_PCOD9208507
_publ_section_title
;
Structure prediction by ZEFSAII (Michael W. Deem and Ramdas Pophale) SiO2 
 PCOD9208507
Probable space group: C 2/M
;
_chemical_formula_sum "Si O2"
_cell_formula_units_Z 40
_cell_length_a 5.154552
_cell_length_b 13.714418
_cell_length_c 26.371810
_cell_angle_alpha 90.000000
_cell_angle_beta 98.691663
_cell_angle_gamma 90.000000
_cell_volume 1842.858112
_symmetry_space_group_name_H-M "C 2/M"
_symmetry_group_IT_number 12
_symmetry_cell_setting 'monoclinic'
loop_
_space_group_symop_operation_xyz
x,y,z
-x,y,-z
-x,-y,-z
x,-y,z
1/2+x,1/2+y,z
1/2-x,1/2+y,-z
1/2-x,1/2-y,-z
1/2+x,1/2-y,z
loop_
_atom_site_type_symbol
_atom_site_label
_atom_site_fract_x
_atom_site_fract_y
_atom_site_fract_z
Si Si1 0.255401 0.790773 0.557424
Si Si2 0.098435 0.817304 0.054103
Si Si3 0.126744 0.000000 0.586385
Si Si4 0.271867 0.318229 0.725135
Si Si5 0.560629 0.315303 0.161652
Si Si6 0.820406 0.500000 0.348429
O O1 0.250000 0.750000 0.500000
O O2 0.549902 0.771514 0.583604
O O3 0.172065 0.901880 0.556518
O O4 0.387079 0.771966 0.054037
O O5 0.083544 0.869052 0.108302
O O6 0.000000 0.869289 0.000000
O O7 0.366670 0.000000 0.633533
O O8 0.843671 0.000000 0.604080
O O9 0.497846 0.239495 0.719859
O O10 0.342512 0.361241 0.783069
O O11 0.260617 0.404661 0.684950
O O12 0.265721 0.275440 0.160754
#
# Coordination Sequence:
#
# PCOD9208507 Si02
#       6
#     8   8   4   8   8   4
#     4  10  23  42  67  94 123 159 192 227 276 326
#     4   8  12  18  31  55  87 120 161 214 267 322
#     4  12  26  42  63  94 124 150 193 238 272 335
#     4  10  21  38  58  80 113 151 192 239 283 339
#     4   8  14  25  42  64  92 132 175 219 273 327
#     4  12  26  40  61  90 119 156 194 234 290 331
#
# _framework density 21.705413
#
# number of rings (size 3 to 8) (size 9 to 14) (size 15 to 20)
#    0.000    2.400    0.000    2.400    0.000    8.000 
#    0.000    0.000    0.000    0.000    0.000    0.700 
#    0.000    0.000    0.000   69.000    0.000    4.800 
#
# Total GULP energy -111574.045439 kJ/mol
# GULP energy per Si atom -5578.702272 kJ/mol
# Density = 2.165601 g / cm^3
# Si number density = 21.705413 Si / 1000 Ang^3
#
#
#
# Elastic Constant Matrix: (Units=GPa)
#
#
# Indices 1 2 3 4 5 6 
#
# 1 123.8324 0.0035 -5.3964 0.0000 -7.3409 0.0000
# 2 0.0035 75.0596 39.6752 0.0000 -13.3583 0.0000
# 3 -5.3964 39.6752 91.3860 0.0000 0.3186 0.0000
# 4 0.0000 0.0000 0.0000 -1.1106 0.0000 -1.0754
# 5 -7.3409 -13.3583 0.3186 0.0000 30.1837 0.0000
# 6 0.0000 0.0000 0.0000 -1.0754 0.0000 20.9703
#
#
#
# Elastic Compliance Matrix: (Units=1/GPa)
#
#
# Indices 1 2 3 4 5 6 
#
# 1 0.008216 0.000147 0.000414 0.000000 0.002059 0.000000
# 2 0.000147 0.019308 -0.008404 0.000000 0.008670 0.000000
# 3 0.000414 -0.008404 0.014629 0.000000 -0.003773 0.000000
# 4 0.000000 0.000000 0.000000 -0.857834 0.000000 -0.043993
# 5 0.002059 0.008670 -0.003773 0.000000 0.037508 0.000000
# 6 0.000000 0.000000 0.000000 -0.043993 0.000000 0.045430
#
#
# Mechanical properties :
#
#
# Convention : Reuss Voigt Hill
#
# Bulk Modulus (GPa) = 37.78351 39.87140 38.82746
# Shear Modulus (GPa) = -7.05979 27.07507 10.00764
#
# Velocity S-wave (km/s) = -1.80544 3.53567 2.14958
# Velocity P-wave (km/s) = 3.61926 5.92260 4.90796
#
# Compressibility (1/GPa) = 0.02646657
#
# Stress axis : x y z
#
# Youngs Moduli (GPa) = 121.72083 51.79231 68.35818
#
# Poissons Ratio (x) = -0.00762 -0.02830
# Poissons Ratio (y) = -0.01791 0.57449
# Poissons Ratio (z) = -0.05040 0.43527
#
# Static dielectric constant tensor:
#      x y z
#    x 1.795030 0.000000 -0.065740 
#    y 0.000000 1.739830 0.000000 
#    z -0.065740 0.000000 1.693370 
# 
# From -- ./inp_files/354681.got.cif
#   From: 2010.05.17/outbox.cif.g08.bks.cpg/sg12_178_cif.got.tgz:354681.got - 2010.06.03 13:09:07.
