data_PCOD9208588
_publ_section_title
;
Structure prediction by ZEFSAII (Michael W. Deem and Ramdas Pophale) SiO2 
 PCOD9208588
Probable space group: C 2/M
;
_chemical_formula_sum "Si O2"
_cell_formula_units_Z 44
_cell_length_a 24.476853
_cell_length_b 12.184008
_cell_length_c 15.002195
_cell_angle_alpha 90.000000
_cell_angle_beta 23.552538
_cell_angle_gamma 90.000000
_cell_volume 1787.783668
_symmetry_space_group_name_H-M "C 2/M"
_symmetry_group_IT_number 12
_symmetry_cell_setting 'monoclinic'
loop_
_space_group_symop_operation_xyz
x,y,z
-x,y,-z
-x,-y,-z
x,-y,z
1/2+x,1/2+y,z
1/2-x,1/2+y,-z
1/2-x,1/2-y,-z
1/2+x,1/2-y,z
loop_
_atom_site_type_symbol
_atom_site_label
_atom_site_fract_x
_atom_site_fract_y
_atom_site_fract_z
Si Si1 0.000000 0.284729 0.000000
Si Si2 0.315831 0.624779 0.896587
Si Si3 0.590170 0.615901 0.603178
Si Si4 0.742364 0.674303 0.201861
Si Si5 0.773013 0.877260 0.257154
Si Si6 0.940021 0.661170 0.271904
O O1 0.890603 0.201725 0.119894
O O2 0.932496 0.359326 0.178033
O O3 0.252778 0.500000 0.007931
O O4 0.447779 0.627797 0.762407
O O5 0.344773 0.626312 0.747660
O O6 0.250000 0.750000 0.000000
O O7 0.600082 0.500000 0.633846
O O8 0.700425 0.626072 0.359854
O O9 0.596834 0.710687 0.664276
O O10 0.722797 0.805553 0.247419
O O11 0.900110 0.646362 0.944297
O O12 0.656977 0.885848 0.506914
O O13 0.816819 0.000000 0.168056
#
# Coordination Sequence:
#
# PCOD9208588 Si02
#       6
#     4   8   8   8   8   8
#     4  10  21  40  61  84 116 162 205 254 311 386
#     4  11  22  39  63  93 127 168 214 257 307 371
#     4  10  21  38  61  86 118 163 210 250 296 368
#     4  10  21  38  58  87 121 161 201 252 305 363
#     4  10  22  38  61  89 122 157 203 259 314 374
#     4  10  21  39  60  86 123 153 203 255 319 367
#
# _framework density 24.611478000000002
#
# number of rings (size 3 to 8) (size 9 to 14) (size 15 to 20)
#    0.000    1.818    1.818    1.909    0.000    7.273 
#    0.000    0.455    0.000    4.364    0.000    0.000 
#    0.000    0.000    0.000    0.000    0.000    0.000 
#
# Total GULP energy -122749.614685 kJ/mol
# GULP energy per Si atom -5579.527940 kJ/mol
# Density = 2.455546 g / cm^3
# Si number density = 24.611478 Si / 1000 Ang^3
#
#
#
# Elastic Constant Matrix: (Units=GPa)
#
#
# Indices 1 2 3 4 5 6 
#
# 1 53.0099 7.8641 -4.1020 0.0000 23.6204 0.0000
# 2 7.8641 172.4515 18.2439 0.0000 -6.0949 0.0000
# 3 -4.1020 18.2439 123.6234 0.0000 21.2227 0.0000
# 4 0.0000 0.0000 0.0000 -0.4345 0.0000 -13.1767
# 5 23.6204 -6.0949 21.2227 0.0000 30.9883 0.0000
# 6 0.0000 0.0000 0.0000 -13.1767 0.0000 -41.6801
#
#
#
# Elastic Compliance Matrix: (Units=1/GPa)
#
#
# Indices 1 2 3 4 5 6 
#
# 1 0.033822 -0.003385 0.006983 0.000000 -0.031228 0.000000
# 2 -0.003385 0.006339 -0.001932 0.000000 0.005150 0.000000
# 3 0.006983 -0.001932 0.010862 0.000000 -0.013141 0.000000
# 4 0.000000 0.000000 0.000000 0.268012 0.000000 -0.084729
# 5 -0.031228 0.005150 -0.013141 0.000000 0.066086 0.000000
# 6 0.000000 0.000000 0.000000 -0.084729 0.000000 0.002794
#
#
# Mechanical properties :
#
#
# Convention : Reuss Voigt Hill
#
# Bulk Modulus (GPa) = 18.39757 43.67742 31.03750
# Shear Modulus (GPa) = 12.41614 19.58001 15.99807
#
# Velocity S-wave (km/s) = 2.24851 2.82363 2.55232
# Velocity P-wave (km/s) = 3.77260 5.33065 4.61781
#
# Compressibility (1/GPa) = 0.05435501
#
# Stress axis : x y z
#
# Youngs Moduli (GPa) = 29.56695 157.74174 92.06494
#
# Poissons Ratio (x) = 0.53391 -0.64286
# Poissons Ratio (y) = 0.10008 0.17787
# Poissons Ratio (z) = -0.20646 0.30475
#
# Static dielectric constant tensor:
#      x y z
#    x 1.953800 0.000000 -0.016490 
#    y 0.000000 2.017750 0.000000 
#    z -0.016490 0.000000 2.000410 
# 
# From -- ./inp_files/296395.got.cif
#   From: 2010.05.17/outbox.cif.g08.bks.cpg/sg12_149_cif.got.tgz:296395.got - 2010.06.03 13:09:07.
