data_PCOD9208956
_publ_section_title
;
Structure prediction by ZEFSAII (Michael W. Deem and Ramdas Pophale) SiO2 
 PCOD9208956
Probable space group: C 2/M
;
_chemical_formula_sum "Si O2"
_cell_formula_units_Z 56
_cell_length_a 16.337582
_cell_length_b 8.967260
_cell_length_c 23.211174
_cell_angle_alpha 90.000000
_cell_angle_beta 121.758490
_cell_angle_gamma 90.000000
_cell_volume 2891.370013
_symmetry_space_group_name_H-M "C 2/M"
_symmetry_group_IT_number 12
_symmetry_cell_setting 'monoclinic'
loop_
_space_group_symop_operation_xyz
x,y,z
-x,y,-z
-x,-y,-z
x,-y,z
1/2+x,1/2+y,z
1/2-x,1/2+y,-z
1/2-x,1/2-y,-z
1/2+x,1/2-y,z
loop_
_atom_site_type_symbol
_atom_site_label
_atom_site_fract_x
_atom_site_fract_y
_atom_site_fract_z
Si Si1 0.721958 0.320004 0.337997
Si Si2 0.183817 0.326195 0.203781
Si Si3 0.664003 0.176769 0.932020
Si Si4 0.372701 0.673401 0.201085
Si Si5 0.954642 0.179491 0.654043
Si Si6 0.053382 0.320171 0.578803
Si Si7 0.983241 0.176008 0.925869
O O1 0.718289 0.500000 0.331636
O O2 0.678845 0.248664 0.264225
O O3 0.653365 0.278751 0.366372
O O4 0.834061 0.275153 0.383134
O O5 0.155949 0.500000 0.195966
O O6 0.293020 0.317577 0.221526
O O7 0.117177 0.240607 0.133671
O O8 0.661622 0.229893 0.865211
O O9 0.565523 0.235425 0.923024
O O10 0.672002 0.000000 0.938502
O O11 0.750000 0.250000 0.000000
O O12 0.379135 0.500000 0.184797
O O13 0.473921 0.718589 0.266504
O O14 0.997478 0.252641 0.612635
O O15 0.959145 0.000000 0.649132
O O16 0.051303 0.500000 0.583183
O O17 0.000000 0.278135 0.500000
O O18 0.989353 0.000000 0.915413
O O19 0.000000 0.196216 0.000000
#
# Coordination Sequence:
#
# PCOD9208956 Si02
#       7
#     8   8   8   8   8   8   8
#     4  10  21  38  62  89 123 166 209 255 313 378
#     4  11  22  37  61  91 120 155 201 254 310 370
#     4  12  25  40  60  86 118 158 205 255 311 371
#     4  10  21  38  60  87 122 157 198 257 314 371
#     4  10  21  39  62  90 121 160 207 255 311 375
#     4  10  22  40  61  90 128 166 207 259 315 374
#     4  11  24  41  60  84 116 157 203 251 308 374
#
# _framework density 19.367982000000001
#
# number of rings (size 3 to 8) (size 9 to 14) (size 15 to 20)
#    0.000    1.429    1.429    3.857    0.000    7.714 
#    0.000    0.000    0.000    0.000    0.000    0.000 
#    0.000    0.000    0.000    0.000    0.000    0.000 
#
# Total GULP energy -156490.241263 kJ/mol
# GULP energy per Si atom -5588.937188 kJ/mol
# Density = 1.932390 g / cm^3
# Si number density = 19.367982 Si / 1000 Ang^3
#
#
#
# Elastic Constant Matrix: (Units=GPa)
#
#
# Indices 1 2 3 4 5 6 
#
# 1 129.3924 45.2135 55.7383 0.0000 -6.3922 0.0000
# 2 45.2135 65.2184 48.2629 0.0000 -3.8516 0.0000
# 3 55.7383 48.2629 113.9775 0.0000 -2.0756 0.0000
# 4 0.0000 0.0000 0.0000 31.2431 0.0000 -1.5046
# 5 -6.3922 -3.8516 -2.0756 0.0000 21.0527 0.0000
# 6 0.0000 0.0000 0.0000 -1.5046 0.0000 32.2996
#
#
#
# Elastic Compliance Matrix: (Units=1/GPa)
#
#
# Indices 1 2 3 4 5 6 
#
# 1 0.010994 -0.005167 -0.003150 0.000000 0.002082 0.000000
# 2 -0.005167 0.024971 -0.008007 0.000000 0.002210 0.000000
# 3 -0.003150 -0.008007 0.013685 0.000000 -0.001072 0.000000
# 4 0.000000 0.000000 0.000000 0.032079 0.000000 0.001494
# 5 0.002082 0.002210 -0.001072 0.000000 0.048431 0.000000
# 6 0.000000 0.000000 0.000000 0.001494 0.000000 0.031030
#
#
# Mechanical properties :
#
#
# Convention : Reuss Voigt Hill
#
# Bulk Modulus (GPa) = 58.81854 67.44642 63.13248
# Shear Modulus (GPa) = 25.06199 27.54399 26.30299
#
# Velocity S-wave (km/s) = 3.60111 3.77522 3.68919
# Velocity P-wave (km/s) = 6.90837 7.34182 7.12839
#
# Compressibility (1/GPa) = 0.01700144
#
# Stress axis : x y z
#
# Youngs Moduli (GPa) = 90.95845 40.04643 73.07241
#
# Poissons Ratio (x) = 0.20694 0.23020
# Poissons Ratio (y) = 0.47002 0.58505
# Poissons Ratio (z) = 0.28655 0.32063
#
# Static dielectric constant tensor:
#      x y z
#    x 1.697190 0.000000 0.033820 
#    y 0.000000 1.652950 0.000000 
#    z 0.033820 0.000000 1.703490 
# 
# From -- ./inp_files/338994.got.cif
#   From: 2010.05.17/outbox.cif.g08.bks.cpg/sg12_170_cif.got.tgz:338994.got - 2010.06.03 13:09:07.
