data_PCOD9208953
_publ_section_title
;
Structure prediction by ZEFSAII (Michael W. Deem and Ramdas Pophale) SiO2 
 PCOD9208953
Probable space group: C 2/M
;
_chemical_formula_sum "Si O2"
_cell_formula_units_Z 64
_cell_length_a 29.719463
_cell_length_b 15.910620
_cell_length_c 7.889364
_cell_angle_alpha 90.000000
_cell_angle_beta 50.018277
_cell_angle_gamma 90.000000
_cell_volume 2858.513390
_symmetry_space_group_name_H-M "C 2/M"
_symmetry_group_IT_number 12
_symmetry_cell_setting 'monoclinic'
loop_
_space_group_symop_operation_xyz
x,y,z
-x,y,-z
-x,-y,-z
x,-y,z
1/2+x,1/2+y,z
1/2-x,1/2+y,-z
1/2-x,1/2-y,-z
1/2+x,1/2-y,z
loop_
_atom_site_type_symbol
_atom_site_label
_atom_site_fract_x
_atom_site_fract_y
_atom_site_fract_z
Si Si1 0.408688 0.904710 0.055493
Si Si2 0.468460 0.355037 0.255083
Si Si3 0.914139 0.094761 0.878573
Si Si4 0.475613 0.171082 0.374899
Si Si5 0.714372 0.750775 0.315774
Si Si6 0.363250 0.906614 0.554826
Si Si7 0.149306 0.906599 0.331875
Si Si8 0.836534 0.244811 0.179486
O O1 0.391799 0.902568 0.295902
O O2 0.367695 0.833773 0.073891
O O3 0.399137 0.000000 0.019807
O O4 0.474799 0.876508 0.853466
O O5 0.516108 0.391672 0.272016
O O6 0.458221 0.257168 0.323741
O O7 0.405706 0.398996 0.407044
O O8 0.500000 0.363093 0.000000
O O9 0.885247 0.102987 0.762677
O O10 0.900747 0.000000 0.970751
O O11 0.883393 0.170470 0.052395
O O12 0.500000 0.193447 0.500000
O O13 0.418701 0.113756 0.537307
O O14 0.684469 0.833961 0.313285
O O15 0.694238 0.667945 0.264143
O O16 0.783383 0.763413 0.176237
O O17 0.688945 0.742496 0.568753
O O18 0.339555 0.000000 0.637408
O O19 0.175599 0.000000 0.275634
#
# Coordination Sequence:
#
# PCOD9208953 Si02
#       8
#     8   8   8   8   8   8   8   8
#     4  10  21  38  60  87 121 160 199 245 300 356
#     4  12  23  38  63  92 122 158 199 247 306 365
#     4  11  24  41  62  91 126 162 199 246 305 364
#     4  12  23  36  59  90 122 156 195 245 302 361
#     4  10  22  40  63  90 120 160 209 254 296 350
#     4  10  21  38  60  87 121 160 199 245 300 356
#     4  11  24  41  62  91 126 162 199 246 305 364
#     4  10  22  40  63  90 120 160 209 254 296 350
#
# _framework density 22.389261000000001
#
# number of rings (size 3 to 8) (size 9 to 14) (size 15 to 20)
#    0.000    1.250    2.500    3.750    0.000    7.000 
#    0.000    2.500    0.000    0.000    0.000    0.000 
#    0.000    0.000    0.000    0.000    0.000    0.000 
#
# Total GULP energy -179081.945802 kJ/mol
# GULP energy per Si atom -5596.310806 kJ/mol
# Density = 2.233830 g / cm^3
# Si number density = 22.389261 Si / 1000 Ang^3
#
#
#
# Elastic Constant Matrix: (Units=GPa)
#
#
# Indices 1 2 3 4 5 6 
#
# 1 83.3201 27.9777 1.9432 0.0000 -15.8546 0.0000
# 2 27.9777 150.4781 9.3448 0.0000 -7.7126 0.0000
# 3 1.9432 9.3448 32.6221 0.0000 5.6395 0.0000
# 4 0.0000 0.0000 0.0000 4.9818 0.0000 11.2327
# 5 -15.8546 -7.7126 5.6395 0.0000 30.9371 0.0000
# 6 0.0000 0.0000 0.0000 11.2327 0.0000 23.0435
#
#
#
# Elastic Compliance Matrix: (Units=1/GPa)
#
#
# Indices 1 2 3 4 5 6 
#
# 1 0.014085 -0.002176 -0.001414 0.000000 0.006934 0.000000
# 2 -0.002176 0.007237 -0.002130 0.000000 0.001078 0.000000
# 3 -0.001414 -0.002130 0.032593 0.000000 -0.007197 0.000000
# 4 0.000000 0.000000 0.000000 -2.025716 0.000000 0.987451
# 5 0.006934 0.001078 -0.007197 0.000000 0.037458 0.000000
# 6 0.000000 0.000000 0.000000 0.987451 0.000000 -0.437945
#
#
# Mechanical properties :
#
#
# Convention : Reuss Voigt Hill
#
# Bulk Modulus (GPa) = 23.54320 38.32799 30.93559
# Shear Modulus (GPa) = -2.13066 26.93611 12.40273
#
# Velocity S-wave (km/s) = -0.97658 3.47231 2.35619
# Velocity P-wave (km/s) = 3.04411 5.76472 4.60970
#
# Compressibility (1/GPa) = 0.04247512
#
# Stress axis : x y z
#
# Youngs Moduli (GPa) = 70.99871 138.16981 30.68177
#
# Poissons Ratio (x) = 0.30059 0.04340
# Poissons Ratio (y) = 0.15446 0.06535
# Poissons Ratio (z) = 0.10042 0.29429
#
# Static dielectric constant tensor:
#      x y z
#    x 1.823980 0.000000 0.041510 
#    y 0.000000 1.792930 0.000000 
#    z 0.041510 0.000000 1.839440 
# 
# From -- ./inp_files/111999.got.cif
#   From: 2010.05.17/outbox.cif.g08.bks.cpg/sg12_56_cif.got.tgz:111999.got - 2010.06.03 13:09:07.
