data_PCOD9208317
_publ_section_title
;
Structure prediction by ZEFSAII (Michael W. Deem and Ramdas Pophale) SiO2 
 PCOD9208317
Probable space group: C 2/M
;
_chemical_formula_sum "Si O2"
_cell_formula_units_Z 40
_cell_length_a 9.583186
_cell_length_b 24.919106
_cell_length_c 17.842170
_cell_angle_alpha 90.000000
_cell_angle_beta 29.295341
_cell_angle_gamma 90.000000
_cell_volume 2084.853315
_symmetry_space_group_name_H-M "C 2/M"
_symmetry_group_IT_number 12
_symmetry_cell_setting 'monoclinic'
loop_
_space_group_symop_operation_xyz
x,y,z
-x,y,-z
-x,-y,-z
x,-y,z
1/2+x,1/2+y,z
1/2-x,1/2+y,-z
1/2-x,1/2-y,-z
1/2+x,1/2-y,z
loop_
_atom_site_type_symbol
_atom_site_label
_atom_site_fract_x
_atom_site_fract_y
_atom_site_fract_z
Si Si1 0.248132 0.091724 0.678467
Si Si2 0.398706 0.795215 0.632697
Si Si3 0.786519 0.500000 0.775171
Si Si4 0.598907 0.000000 0.108774
Si Si5 0.289707 0.905964 0.162293
Si Si6 0.983674 0.821859 0.595009
O O1 0.500000 0.094742 0.500000
O O2 0.195550 0.152928 0.731512
O O3 0.971160 0.070317 0.764759
O O4 0.347500 0.052961 0.698053
O O5 0.500000 0.789955 0.500000
O O6 0.314513 0.734237 0.689929
O O7 0.685845 0.810382 0.541607
O O8 0.945162 0.500000 0.780593
O O9 0.442019 0.500000 0.943619
O O10 0.462850 0.050708 0.129860
O O11 0.147210 0.864936 0.287291
O O12 0.500000 0.882481 0.000000
O O13 0.000000 0.837451 0.500000
#
# Coordination Sequence:
#
# PCOD9208317 Si02
#       6
#     8   8   4   4   8   8
#     4  11  21  40  66  92 122 165 211 250 305 378
#     4   9  18  38  63  90 123 167 204 241 314 368
#     4  11  24  43  62  89 124 160 208 261 313 370
#     4  11  26  42  62  86 125 168 198 256 331 365
#     4  12  23  42  65  92 126 166 209 251 312 379
#     4  10  21  37  65  94 127 160 207 258 303 360
#
# _framework density 19.186002999999999
#
# number of rings (size 3 to 8) (size 9 to 14) (size 15 to 20)
#    0.000    1.400    6.000    1.200    2.800    0.000 
#    0.000    2.500    4.400    0.000    0.000    0.000 
#    0.000    0.000    0.000    0.000    0.000    0.000 
#
# Total GULP energy -111446.677753 kJ/mol
# GULP energy per Si atom -5572.333888 kJ/mol
# Density = 1.914234 g / cm^3
# Si number density = 19.186003 Si / 1000 Ang^3
#
#
#
# Elastic Constant Matrix: (Units=GPa)
#
#
# Indices 1 2 3 4 5 6 
#
# 1 134.9854 26.8885 20.1975 -0.0234 13.6947 -0.0010
# 2 26.8885 101.8245 9.0929 -0.0126 23.8965 0.0021
# 3 20.1975 9.0929 52.0121 0.0351 12.2379 -0.0035
# 4 -0.0234 -0.0126 0.0351 -12.2156 0.0067 -0.6670
# 5 13.6947 23.8965 12.2379 0.0067 33.3324 -0.0004
# 6 -0.0010 0.0021 -0.0035 -0.6670 -0.0004 27.9246
#
#
#
# Elastic Compliance Matrix: (Units=1/GPa)
#
#
# Indices 1 2 3 4 5 6 
#
# 1 0.008257 -0.001654 -0.002625 -0.000022 -0.001243 0.000000
# 2 -0.001654 0.012139 0.000447 -0.000012 -0.008187 -0.000001
# 3 -0.002625 0.000447 0.021879 0.000063 -0.007275 0.000004
# 4 -0.000022 -0.000012 0.000063 -0.081756 0.000011 -0.001953
# 5 -0.001243 -0.008187 -0.007275 0.000011 0.039052 0.000000
# 6 0.000000 -0.000001 0.000004 -0.001953 0.000000 0.035764
#
#
# Mechanical properties :
#
#
# Convention : Reuss Voigt Hill
#
# Bulk Modulus (GPa) = 28.89343 44.57555 36.73449
# Shear Modulus (GPa) = 91.68298 25.31784 58.50041
#
# Velocity S-wave (km/s) = 6.92027 3.63657 5.52787
# Velocity P-wave (km/s) = 8.88515 6.39661 7.74153
#
# Compressibility (1/GPa) = 0.03460995
#
# Stress axis : x y z
#
# Youngs Moduli (GPa) = 121.11655 82.37825 45.70582
#
# Poissons Ratio (x) = 0.13628 0.11996
# Poissons Ratio (y) = 0.20036 -0.02041
# Poissons Ratio (z) = 0.31788 -0.03678
#
# Static dielectric constant tensor:
#      x y z
#    x 1.626290 0.000010 -0.020100 
#    y 0.000010 1.748910 0.000010 
#    z -0.020100 0.000010 1.661470 
# 
# From -- ./inp_files/259652.got.cif
#   From: 2010.05.17/outbox.cif.g08.bks.cpg/sg12_130_cif.got.tgz:259652.got - 2010.06.03 13:09:07.
