data_PCOD9208300
_publ_section_title
;
Structure prediction by ZEFSAII (Michael W. Deem and Ramdas Pophale) SiO2 
 PCOD9208300
Probable space group: C 2/M
;
_chemical_formula_sum "Si O2"
_cell_formula_units_Z 36
_cell_length_a 11.415437
_cell_length_b 31.923357
_cell_length_c 5.127653
_cell_angle_alpha 90.000000
_cell_angle_beta 77.225500
_cell_angle_gamma 90.000000
_cell_volume 1822.362332
_symmetry_space_group_name_H-M "C 2/M"
_symmetry_group_IT_number 12
_symmetry_cell_setting 'monoclinic'
loop_
_space_group_symop_operation_xyz
x,y,z
-x,y,-z
-x,-y,-z
x,-y,z
1/2+x,1/2+y,z
1/2-x,1/2+y,-z
1/2-x,1/2-y,-z
1/2+x,1/2-y,z
loop_
_atom_site_type_symbol
_atom_site_label
_atom_site_fract_x
_atom_site_fract_y
_atom_site_fract_z
Si Si1 0.500000 0.323730 0.500000
Si Si2 0.214138 0.795670 0.105626
Si Si3 0.779673 0.130163 0.325713
Si Si4 0.584862 0.453020 0.707737
Si Si5 0.578744 0.831298 0.699916
O O1 0.575483 0.296862 0.257775
O O2 0.604282 0.351341 0.578482
O O3 0.308564 0.801990 0.292914
O O4 0.250000 0.750000 0.000000
O O5 0.233320 0.836413 0.907070
O O6 0.818414 0.082390 0.267767
O O7 0.654354 0.129870 0.545759
O O8 0.500000 0.442463 0.500000
O O9 0.633908 0.500000 0.636221
O O10 0.500000 0.454575 0.000000
O O11 0.500000 0.814843 0.500000
O O12 0.500000 0.837220 0.000000
#
# Coordination Sequence:
#
# PCOD9208300 Si02
#       5
#     4   8   8   8   8
#     4  10  22  38  63  96 122 166 209 266 322 378
#     4  11  25  41  63  92 128 171 218 271 318 381
#     4  11  22  41  65  92 133 167 210 265 325 380
#     4  10  21  37  64  99 132 163 204 261 330 397
#     4  11  24  44  63  89 121 171 220 260 310 381
#
# _framework density 19.754580000000001
#
# number of rings (size 3 to 8) (size 9 to 14) (size 15 to 20)
#    0.000    1.333    3.333    2.000    3.111    7.111 
#    2.000    0.000    0.000    1.333    0.000    0.000 
#    0.000    0.000    0.000    0.000    0.000    0.000 
#
# Total GULP energy -100267.923299 kJ/mol
# GULP energy per Si atom -5570.440183 kJ/mol
# Density = 1.970962 g / cm^3
# Si number density = 19.754580 Si / 1000 Ang^3
#
#
#
# Elastic Constant Matrix: (Units=GPa)
#
#
# Indices 1 2 3 4 5 6 
#
# 1 98.4061 17.8035 36.4793 0.0000 5.5859 0.0000
# 2 17.8035 118.3726 23.7269 0.0000 -3.0762 0.0000
# 3 36.4793 23.7269 110.0420 0.0000 -11.8276 0.0000
# 4 0.0000 0.0000 0.0000 28.6504 0.0000 -9.4931
# 5 5.5859 -3.0762 -11.8276 0.0000 53.2646 0.0000
# 6 0.0000 0.0000 0.0000 -9.4931 0.0000 21.3007
#
#
#
# Elastic Compliance Matrix: (Units=1/GPa)
#
#
# Indices 1 2 3 4 5 6 
#
# 1 0.011949 -0.001059 -0.003969 0.000000 -0.002196 0.000000
# 2 -0.001059 0.008924 -0.001543 0.000000 0.000284 0.000000
# 3 -0.003969 -0.001543 0.011034 0.000000 0.002777 0.000000
# 4 0.000000 0.000000 0.000000 0.040951 0.000000 0.018250
# 5 -0.002196 0.000284 0.002777 0.000000 0.019638 0.000000
# 6 0.000000 0.000000 0.000000 0.018250 0.000000 0.055081
#
#
# Mechanical properties :
#
#
# Convention : Reuss Voigt Hill
#
# Bulk Modulus (GPa) = 53.28561 53.64889 53.46725
# Shear Modulus (GPa) = 29.94504 37.23054 33.58779
#
# Velocity S-wave (km/s) = 3.89762 4.34597 4.12789
# Velocity P-wave (km/s) = 6.87660 7.23878 7.06001
#
# Compressibility (1/GPa) = 0.01876679
#
# Stress axis : x y z
#
# Youngs Moduli (GPa) = 83.68578 112.06092 90.62647
#
# Poissons Ratio (x) = 0.11864 0.35970
# Poissons Ratio (y) = 0.08860 0.13980
# Poissons Ratio (z) = 0.33215 0.17287
#
# Static dielectric constant tensor:
#      x y z
#    x 1.697400 0.000000 0.004140 
#    y 0.000000 1.798010 0.000000 
#    z 0.004140 0.000000 1.851750 
# 
# From -- ./inp_files/8093.got.cif
#   From: 2010.05.17/outbox.cif.g08.bks.cpg/sg12_5_cif.got.tgz:8093.got - 2010.06.03 13:09:07.
