data_PCOD9208735
_publ_section_title
;
Structure prediction by ZEFSAII (Michael W. Deem and Ramdas Pophale) SiO2 
 PCOD9208735
Probable space group: C 2/M
;
_chemical_formula_sum "Si O2"
_cell_formula_units_Z 40
_cell_length_a 24.404104
_cell_length_b 7.568091
_cell_length_c 9.768650
_cell_angle_alpha 90.000000
_cell_angle_beta 107.110337
_cell_angle_gamma 90.000000
_cell_volume 1724.342380
_symmetry_space_group_name_H-M "C 2/M"
_symmetry_group_IT_number 12
_symmetry_cell_setting 'monoclinic'
loop_
_space_group_symop_operation_xyz
x,y,z
-x,y,-z
-x,-y,-z
x,-y,z
1/2+x,1/2+y,z
1/2-x,1/2+y,-z
1/2-x,1/2-y,-z
1/2+x,1/2-y,z
loop_
_atom_site_type_symbol
_atom_site_label
_atom_site_fract_x
_atom_site_fract_y
_atom_site_fract_z
Si Si1 0.074086 0.290261 0.895702
Si Si2 0.474446 0.297666 0.620492
Si Si3 0.694759 0.788552 0.866682
Si Si4 0.609042 0.286310 0.219607
Si Si5 0.237812 0.788506 0.334464
O O1 0.069482 0.500000 0.867919
O O2 0.024054 0.203457 0.771286
O O3 0.135599 0.221183 0.886104
O O4 0.073779 0.261474 0.058105
O O5 0.500000 0.216047 0.500000
O O6 0.458684 0.500000 0.573190
O O7 0.420268 0.219040 0.662105
O O8 0.712862 0.720801 0.730420
O O9 0.687934 0.000000 0.856130
O O10 0.750000 0.750000 0.000000
O O11 0.609822 0.500000 0.227940
O O12 0.674230 0.221499 0.250850
O O13 0.250000 0.750000 0.500000
O O14 0.236062 0.000000 0.315001
#
# Coordination Sequence:
#
# PCOD9208735 Si02
#       5
#     8   8   8   8   8
#     4  11  23  38  60  89 117 150 189 235 289 342
#     4  10  23  41  61  85 113 151 196 238 283 338
#     4  10  21  38  59  86 117 149 189 232 282 341
#     4  10  21  40  62  84 113 153 197 236 279 337
#     4  10  22  38  58  86 118 150 188 236 285 338
#
# _framework density 23.19725
#
# number of rings (size 3 to 8) (size 9 to 14) (size 15 to 20)
#    0.000    1.800    2.000    1.200    2.800    6.000 
#    0.000    0.000    0.000    0.000    0.000    0.000 
#    0.000    0.000    0.000    0.000    0.000    0.000 
#
# Total GULP energy -111789.975990 kJ/mol
# GULP energy per Si atom -5589.498799 kJ/mol
# Density = 2.314445 g / cm^3
# Si number density = 23.197250 Si / 1000 Ang^3
#
#
#
# Elastic Constant Matrix: (Units=GPa)
#
#
# Indices 1 2 3 4 5 6 
#
# 1 70.2891 1.5145 4.3514 0.0000 -29.1177 0.0000
# 2 1.5145 64.0022 -9.4826 0.0000 -9.8363 0.0000
# 3 4.3514 -9.4826 111.6266 0.0000 -31.8583 0.0000
# 4 0.0000 0.0000 0.0000 21.1903 0.0000 -1.6368
# 5 -29.1177 -9.8363 -31.8583 0.0000 51.3622 0.0000
# 6 0.0000 0.0000 0.0000 -1.6368 0.0000 2.1682
#
#
#
# Elastic Compliance Matrix: (Units=1/GPa)
#
#
# Indices 1 2 3 4 5 6 
#
# 1 0.019589 0.002104 0.003280 0.000000 0.013542 0.000000
# 2 0.002104 0.017040 0.003204 0.000000 0.006444 0.000000
# 3 0.003280 0.003204 0.011919 0.000000 0.009866 0.000000
# 4 0.000000 0.000000 0.000000 0.050114 0.000000 0.037832
# 5 0.013542 0.006444 0.009866 0.000000 0.034500 0.000000
# 6 0.000000 0.000000 0.000000 0.037832 0.000000 0.489766
#
#
# Mechanical properties :
#
#
# Convention : Reuss Voigt Hill
#
# Bulk Modulus (GPa) = 15.21525 26.52051 20.86788
# Shear Modulus (GPa) = 7.96612 31.57980 19.77296
#
# Velocity S-wave (km/s) = 1.85514 3.69366 2.92273
# Velocity P-wave (km/s) = 3.34096 5.44502 4.51721
#
# Compressibility (1/GPa) = 0.06572353
#
# Stress axis : x y z
#
# Youngs Moduli (GPa) = 51.05016 58.68630 83.90306
#
# Poissons Ratio (x) = -0.12346 -0.27521
# Poissons Ratio (y) = -0.10740 -0.26887
# Poissons Ratio (z) = -0.16745 -0.18806
#
# Static dielectric constant tensor:
#      x y z
#    x 1.874860 0.000000 -0.048000 
#    y 0.000000 1.850930 0.000000 
#    z -0.048000 0.000000 1.838090 
# 
# From -- ./inp_files/92712.got.cif
#   From: 2010.05.17/outbox.cif.g08.bks.cpg/sg12_47_cif.got.tgz:92712.got - 2010.06.03 13:09:07.
