data_PCOD9208411
_publ_section_title
;
Structure prediction by ZEFSAII (Michael W. Deem and Ramdas Pophale) SiO2 
 PCOD9208411
Probable space group: C 2/M
;
_chemical_formula_sum "Si O2"
_cell_formula_units_Z 64
_cell_length_a 14.890885
_cell_length_b 7.766899
_cell_length_c 27.682437
_cell_angle_alpha 90.000000
_cell_angle_beta 112.815386
_cell_angle_gamma 90.000000
_cell_volume 2951.140599
_symmetry_space_group_name_H-M "C 2/M"
_symmetry_group_IT_number 12
_symmetry_cell_setting 'monoclinic'
loop_
_space_group_symop_operation_xyz
x,y,z
-x,y,-z
-x,-y,-z
x,-y,z
1/2+x,1/2+y,z
1/2-x,1/2+y,-z
1/2-x,1/2-y,-z
1/2+x,1/2-y,z
loop_
_atom_site_type_symbol
_atom_site_label
_atom_site_fract_x
_atom_site_fract_y
_atom_site_fract_z
Si Si1 0.237504 0.705751 0.143398
Si Si2 0.437759 0.706195 0.138278
Si Si3 0.529981 0.791929 0.059331
Si Si4 0.354093 0.291918 0.777849
Si Si5 0.490436 0.695563 0.368322
Si Si6 0.652309 0.295932 0.586395
Si Si7 0.137237 0.303269 0.477906
Si Si8 0.354288 0.709093 0.668939
O O1 0.238023 0.500000 0.136431
O O2 0.337769 0.773269 0.141051
O O3 0.137493 0.772043 0.097749
O O4 0.222760 0.738387 0.197316
O O5 0.437348 0.500000 0.144743
O O6 0.452992 0.742600 0.084770
O O7 0.538122 0.770438 0.183621
O O8 0.533888 0.000000 0.059157
O O9 0.500000 0.731107 0.000000
O O10 0.355600 0.500000 0.777820
O O11 0.335960 0.232298 0.719609
O O12 0.462774 0.500000 0.349550
O O13 0.399012 0.777662 0.376248
O O14 0.571065 0.694333 0.428047
O O15 0.544466 0.771961 0.333325
O O16 0.633726 0.500000 0.579541
O O17 0.612144 0.215428 0.529095
O O18 0.766394 0.266235 0.616614
O O19 0.126636 0.500000 0.460294
O O20 0.250000 0.250000 0.500000
O O21 0.357010 0.500000 0.668772
#
# Coordination Sequence:
#
# PCOD9208411 Si02
#       8
#     8   8   8   8   8   8   8   8
#     4   9  18  33  53  76 103 138 179 220 266 317
#     4   9  18  33  53  76 103 137 181 223 262 314
#     4   9  18  32  49  74 110 145 176 216 267 317
#     4   9  19  35  54  76 102 135 176 220 268 314
#     4  10  22  39  58  81 110 142 176 215 264 320
#     4  11  23  38  58  84 110 140 179 218 262 320
#     4  12  23  37  59  83 110 143 178 217 265 317
#     4  10  21  38  57  77 106 141 173 215 270 321
#
# _framework density 21.686529
#
# number of rings (size 3 to 8) (size 9 to 14) (size 15 to 20)
#    0.000    2.125    1.250    1.875    0.000    5.250 
#    0.000    2.500    0.000    0.000    0.000    0.000 
#    0.000    0.000    0.000    0.000    0.000    0.000 
#
# Total GULP energy -178654.386580 kJ/mol
# GULP energy per Si atom -5582.949581 kJ/mol
# Density = 2.163717 g / cm^3
# Si number density = 21.686529 Si / 1000 Ang^3
#
#
#
# Elastic Constant Matrix: (Units=GPa)
#
#
# Indices 1 2 3 4 5 6 
#
# 1 143.5008 0.3298 27.1330 0.0000 -32.0109 0.0000
# 2 0.3298 45.2508 -9.1962 0.0000 2.3800 0.0000
# 3 27.1330 -9.1962 88.8124 0.0000 -26.9226 0.0000
# 4 0.0000 0.0000 0.0000 19.1083 0.0000 -8.1310
# 5 -32.0109 2.3800 -26.9226 0.0000 23.6476 0.0000
# 6 0.0000 0.0000 0.0000 -8.1310 0.0000 9.8650
#
#
#
# Elastic Compliance Matrix: (Units=1/GPa)
#
#
# Indices 1 2 3 4 5 6 
#
# 1 0.010149 -0.000576 0.001561 0.000000 0.015572 0.000000
# 2 -0.000576 0.022612 0.002430 0.000000 -0.000289 0.000000
# 3 0.001561 0.002430 0.017714 0.000000 0.022036 0.000000
# 4 0.000000 0.000000 0.000000 0.080603 0.000000 0.066435
# 5 0.015572 -0.000289 0.022036 0.000000 0.088484 0.000000
# 6 0.000000 0.000000 0.000000 0.066435 0.000000 0.156126
#
#
# Mechanical properties :
#
#
# Convention : Reuss Voigt Hill
#
# Bulk Modulus (GPa) = 17.45078 34.89968 26.17523
# Shear Modulus (GPa) = 12.88790 27.81069 20.34929
#
# Velocity S-wave (km/s) = 2.44043 3.58494 3.06655
# Velocity P-wave (km/s) = 4.00066 5.76745 4.96330
#
# Compressibility (1/GPa) = 0.05730404
#
# Stress axis : x y z
#
# Youngs Moduli (GPa) = 98.53550 44.22383 56.45117
#
# Poissons Ratio (x) = 0.02547 -0.08809
# Poissons Ratio (y) = 0.05674 -0.13716
# Poissons Ratio (z) = -0.15377 -0.10745
#
# Static dielectric constant tensor:
#      x y z
#    x 1.823400 0.000000 -0.030760 
#    y 0.000000 1.795110 0.000000 
#    z -0.030760 0.000000 1.795660 
# 
# From -- ./inp_files/359964.got.cif
#   From: 2010.05.17/outbox.cif.g08.bks.cpg/sg12_180_cif.got.tgz:359964.got - 2010.06.03 13:09:07.
