data_PCOD9208497
_publ_section_title
;
Structure prediction by ZEFSAII (Michael W. Deem and Ramdas Pophale) SiO2 
 PCOD9208497
Probable space group: C 2/M
;
_chemical_formula_sum "Si O2"
_cell_formula_units_Z 40
_cell_length_a 27.763363
_cell_length_b 9.418354
_cell_length_c 18.856937
_cell_angle_alpha 90.000000
_cell_angle_beta 27.092847
_cell_angle_gamma 90.000000
_cell_volume 2245.657181
_symmetry_space_group_name_H-M "C 2/M"
_symmetry_group_IT_number 12
_symmetry_cell_setting 'monoclinic'
loop_
_space_group_symop_operation_xyz
x,y,z
-x,y,-z
-x,-y,-z
x,-y,z
1/2+x,1/2+y,z
1/2-x,1/2+y,-z
1/2-x,1/2-y,-z
1/2+x,1/2-y,z
loop_
_atom_site_type_symbol
_atom_site_label
_atom_site_fract_x
_atom_site_fract_y
_atom_site_fract_z
Si Si1 0.263348 0.167779 0.274867
Si Si2 0.019751 0.832798 0.557628
Si Si3 0.139839 0.669618 0.133014
Si Si4 0.564598 0.832365 0.071807
Si Si5 0.588826 0.336726 0.820961
O O1 0.141708 0.196861 0.416816
O O2 0.310922 0.256805 0.277343
O O3 0.274704 0.000000 0.275194
O O4 0.336089 0.197767 0.110485
O O5 0.000000 0.812894 0.500000
O O6 0.943382 0.733363 0.702610
O O7 0.998599 0.000000 0.601074
O O8 0.152832 0.500000 0.124102
O O9 0.097351 0.697075 0.109212
O O10 0.250000 0.750000 0.000000
O O11 0.465668 0.743001 0.173072
O O12 0.540962 0.000000 0.095795
O O13 0.611968 0.500000 0.774361
O O14 0.500000 0.332675 0.000000
#
# Coordination Sequence:
#
# PCOD9208497 Si02
#       5
#     8   8   8   8   8
#     4   9  17  32  55  78 104 141 179 216 261 315
#     4  10  21  38  58  80 108 142 181 223 269 322
#     4  11  23  38  57  81 109 141 179 223 270 322
#     4   9  18  34  55  78 105 140 180 217 259 315
#     4   9  17  29  49  79 110 137 171 218 265 310
#
# _framework density 17.812159000000001
#
# number of rings (size 3 to 8) (size 9 to 14) (size 15 to 20)
#    0.000    2.400    0.000    2.400    0.000    8.400 
#    0.000    5.000    0.000    0.000    0.000    0.000 
#    0.000    0.000    0.000    0.000    0.000    0.000 
#
# Total GULP energy -111627.096135 kJ/mol
# GULP energy per Si atom -5581.354807 kJ/mol
# Density = 1.777162 g / cm^3
# Si number density = 17.812159 Si / 1000 Ang^3
#
#
#
# Elastic Constant Matrix: (Units=GPa)
#
#
# Indices 1 2 3 4 5 6 
#
# 1 164.5690 111.2988 69.0765 0.0001 -20.2255 0.0000
# 2 111.2988 103.0378 67.8061 -0.0007 -11.3573 0.0000
# 3 69.0765 67.8061 73.3465 -0.0005 -13.0737 -0.0001
# 4 0.0001 -0.0007 -0.0005 28.1504 0.0001 -3.6044
# 5 -20.2255 -11.3573 -13.0737 0.0001 26.9702 0.0001
# 6 0.0000 0.0000 -0.0001 -3.6044 0.0001 27.5350
#
#
#
# Elastic Compliance Matrix: (Units=1/GPa)
#
#
# Indices 1 2 3 4 5 6 
#
# 1 0.024618 -0.029100 0.005279 -0.000001 0.008767 0.000000
# 2 -0.029100 0.059192 -0.029292 0.000001 -0.011096 0.000000
# 3 0.005279 -0.029292 0.037488 0.000000 0.009796 0.000000
# 4 -0.000001 0.000001 0.000000 0.036129 0.000000 0.004729
# 5 0.008767 -0.011096 0.009796 0.000000 0.043728 0.000000
# 6 0.000000 0.000000 0.000000 0.004729 0.000000 0.036936
#
#
# Mechanical properties :
#
#
# Convention : Reuss Voigt Hill
#
# Bulk Modulus (GPa) = 66.34988 93.03509 79.69249
# Shear Modulus (GPa) = 14.31264 22.71594 18.51429
#
# Velocity S-wave (km/s) = 2.83774 3.57502 3.22750
# Velocity P-wave (km/s) = 6.93308 8.32980 7.66333
#
# Compressibility (1/GPa) = 0.01507162
#
# Stress axis : x y z
#
# Youngs Moduli (GPa) = 40.61989 16.89427 26.67540
#
# Poissons Ratio (x) = 0.49162 -0.14083
# Poissons Ratio (y) = 1.18204 0.78139
# Poissons Ratio (z) = -0.21444 0.49487
#
# Static dielectric constant tensor:
#      x y z
#    x 1.583450 0.000000 0.002850 
#    y 0.000000 1.596500 0.000000 
#    z 0.002850 0.000000 1.593460 
# 
# From -- ./inp_files/162728.got.cif
#   From: 2010.05.17/outbox.cif.g08.bks.cpg/sg12_82_cif.got.tgz:162728.got - 2010.06.03 13:09:07.
