data_PCOD9208032
_publ_section_title
;
Structure prediction by ZEFSAII (Michael W. Deem and Ramdas Pophale) SiO2 
 PCOD9208032
Probable space group: C 2/M
;
_chemical_formula_sum "Si O2"
_cell_formula_units_Z 56
_cell_length_a 29.831836
_cell_length_b 8.810622
_cell_length_c 11.118247
_cell_angle_alpha 90.000000
_cell_angle_beta 69.066047
_cell_angle_gamma 90.000000
_cell_volume 2729.395365
_symmetry_space_group_name_H-M "C 2/M"
_symmetry_group_IT_number 12
_symmetry_cell_setting 'monoclinic'
loop_
_space_group_symop_operation_xyz
x,y,z
-x,y,-z
-x,-y,-z
x,-y,z
1/2+x,1/2+y,z
1/2-x,1/2+y,-z
1/2-x,1/2-y,-z
1/2+x,1/2-y,z
loop_
_atom_site_type_symbol
_atom_site_label
_atom_site_fract_x
_atom_site_fract_y
_atom_site_fract_z
Si Si1 0.045869 0.673593 0.389997
Si Si2 0.624686 0.322305 0.942027
Si Si3 0.528885 0.173008 0.123645
Si Si4 0.620666 0.681855 0.468475
Si Si5 0.072747 0.818089 0.760844
Si Si6 0.730808 0.684028 0.392153
Si Si7 0.277079 0.819016 0.090173
O O1 0.050950 0.500000 0.429097
O O2 0.034158 0.670920 0.262149
O O3 0.094462 0.758684 0.375529
O O4 0.000000 0.745729 0.500000
O O5 0.634361 0.500000 0.949776
O O6 0.617565 0.290417 0.806736
O O7 0.667096 0.228246 0.961324
O O8 0.572168 0.279129 0.040273
O O9 0.475520 0.234822 0.150420
O O10 0.535419 0.000000 0.073831
O O11 0.620645 0.500000 0.468158
O O12 0.588504 0.731536 0.613103
O O13 0.675258 0.731137 0.431025
O O14 0.063732 0.000000 0.770429
O O15 0.733469 0.500000 0.396764
O O16 0.750000 0.750000 0.500000
O O17 0.756883 0.730102 0.241729
O O18 0.272059 0.000000 0.088449
O O19 0.250000 0.750000 0.000000
#
# Coordination Sequence:
#
# PCOD9208032 Si02
#       7
#     8   8   8   8   8   8   8
#     4  10  21  38  56  83 121 159 199 246 302 361
#     4  11  24  42  64  88 121 162 207 256 311 372
#     4  11  23  38  59  88 123 160 204 252 303 368
#     4  10  21  37  61  90 120 155 200 249 301 363
#     4  10  21  38  60  89 123 161 201 246 305 369
#     4  10  23  43  67  97 128 163 212 265 318 379
#     4  11  25  45  67  95 130 169 217 268 323 382
#
# _framework density 20.517365999999999
#
# number of rings (size 3 to 8) (size 9 to 14) (size 15 to 20)
#    0.000    1.571    1.429    2.571    2.000    7.143 
#    0.000    0.000    0.000    0.000    0.000    0.000 
#    0.000    0.000    0.000    0.000    0.000    0.000 
#
# Total GULP energy -156385.806102 kJ/mol
# GULP energy per Si atom -5585.207361 kJ/mol
# Density = 2.047067 g / cm^3
# Si number density = 20.517366 Si / 1000 Ang^3
#
#
#
# Elastic Constant Matrix: (Units=GPa)
#
#
# Indices 1 2 3 4 5 6 
#
# 1 150.5390 28.5972 32.9832 0.0000 12.1096 0.0000
# 2 28.5972 31.7512 16.4906 0.0000 10.2006 0.0000
# 3 32.9832 16.4906 69.5495 0.0000 11.1650 0.0000
# 4 0.0000 0.0000 0.0000 23.2028 0.0000 4.1781
# 5 12.1096 10.2006 11.1650 0.0000 33.1054 0.0000
# 6 0.0000 0.0000 0.0000 4.1781 0.0000 33.5697
#
#
#
# Elastic Compliance Matrix: (Units=1/GPa)
#
#
# Indices 1 2 3 4 5 6 
#
# 1 0.008379 -0.006161 -0.002459 0.000000 -0.000337 0.000000
# 2 -0.006161 0.042964 -0.005817 0.000000 -0.009023 0.000000
# 3 -0.002459 -0.005817 0.017435 0.000000 -0.003189 0.000000
# 4 0.000000 0.000000 0.000000 0.044086 0.000000 -0.005487
# 5 -0.000337 -0.009023 -0.003189 0.000000 0.034185 0.000000
# 6 0.000000 0.000000 0.000000 -0.005487 0.000000 0.030472
#
#
# Mechanical properties :
#
#
# Convention : Reuss Voigt Hill
#
# Bulk Modulus (GPa) = 25.05951 45.33130 35.19541
# Shear Modulus (GPa) = 22.75866 29.56018 26.15942
#
# Velocity S-wave (km/s) = 3.33414 3.79983 3.57457
# Velocity P-wave (km/s) = 5.20214 6.43379 5.85047
#
# Compressibility (1/GPa) = 0.03990501
#
# Stress axis : x y z
#
# Youngs Moduli (GPa) = 119.34490 23.27531 57.35505
#
# Poissons Ratio (x) = 0.14341 0.14102
# Poissons Ratio (y) = 0.73534 0.33361
# Poissons Ratio (z) = 0.29343 0.13538
#
# Static dielectric constant tensor:
#      x y z
#    x 1.700480 0.000000 0.004970 
#    y 0.000000 1.711670 0.000000 
#    z 0.004970 0.000000 1.765410 
# 
# From -- ./inp_files/180747.got.cif
#   From: 2010.05.17/outbox.cif.g08.bks.cpg/sg12_91_cif.got.tgz:180747.got - 2010.06.03 13:09:07.
