data_PCOD9208075
_publ_section_title
;
Structure prediction by ZEFSAII (Michael W. Deem and Ramdas Pophale) SiO2 
 PCOD9208075
Probable space group: C 2/M
;
_chemical_formula_sum "Si O2"
_cell_formula_units_Z 58
_cell_length_a 28.102844
_cell_length_b 16.768419
_cell_length_c 19.196665
_cell_angle_alpha 90.000000
_cell_angle_beta 19.013159
_cell_angle_gamma 90.000000
_cell_volume 2947.132501
_symmetry_space_group_name_H-M "C 2/M"
_symmetry_group_IT_number 12
_symmetry_cell_setting 'monoclinic'
loop_
_space_group_symop_operation_xyz
x,y,z
-x,y,-z
-x,-y,-z
x,-y,z
1/2+x,1/2+y,z
1/2-x,1/2+y,-z
1/2-x,1/2-y,-z
1/2+x,1/2-y,z
loop_
_atom_site_type_symbol
_atom_site_label
_atom_site_fract_x
_atom_site_fract_y
_atom_site_fract_z
Si Si1 0.562389 0.701216 0.064252
Si Si2 0.500000 0.000000 0.000000
Si Si3 0.282681 0.591737 0.263530
Si Si4 0.014679 0.618368 0.109322
Si Si5 0.944411 0.412009 0.696107
Si Si6 0.799938 0.259364 0.850935
Si Si7 0.761840 0.087168 0.881767
Si Si8 0.311460 0.407785 0.385008
O O1 0.525098 0.787068 0.084652
O O2 0.415483 0.651766 0.282996
O O3 0.649736 0.649121 0.887195
O O4 0.662429 0.717330 0.993092
O O5 0.525305 0.931133 0.024678
O O6 0.326489 0.500000 0.189086
O O7 0.327526 0.610560 0.280578
O O8 0.107451 0.595316 0.500051
O O9 0.857394 0.600955 0.361337
O O10 0.143706 0.593802 0.983476
O O11 0.930745 0.500000 0.680782
O O12 0.908181 0.334711 0.700219
O O13 0.832360 0.412026 0.916244
O O14 0.750000 0.250000 0.000000
O O15 0.850895 0.170384 0.758238
O O16 0.836075 0.000000 0.775202
O O17 0.352586 0.500000 0.340173
#
# Coordination Sequence:
#
# PCOD9208075 Si02
#       8
#     8   2   8   8   8   8   8   8
#     4  11  24  37  59  93 124 158 197 253 308 359
#     4  12  24  36  60  88 116 150 214 258 276 340
#     4  10  21  37  61  92 127 161 197 241 305 377
#     4  11  22  39  58  86 119 159 207 245 294 353
#     4   9  17  32  60  85 115 159 200 240 292 364
#     4   9  20  36  55  86 118 155 207 251 293 354
#     4   9  15  33  58  82 110 155 204 242 293 355
#     4  11  21  40  62  86 125 164 196 240 305 377
#
# _framework density 19.680147000000002
#
# number of rings (size 3 to 8) (size 9 to 14) (size 15 to 20)
#    0.000    1.931    2.759    1.241    1.931    2.759 
#    0.000    1.379    0.000    0.000    1.793    1.931 
#    0.000    0.000    0.000    0.000    0.000    0.000 
#
# Total GULP energy -161574.658198 kJ/mol
# GULP energy per Si atom -5571.539938 kJ/mol
# Density = 1.963535 g / cm^3
# Si number density = 19.680147 Si / 1000 Ang^3
#
#
#
# Elastic Constant Matrix: (Units=GPa)
#
#
# Indices 1 2 3 4 5 6 
#
# 1 93.5675 61.9941 5.8705 -0.0002 -2.2901 0.0009
# 2 61.9941 171.5481 19.5973 -0.0006 -12.6794 0.0073
# 3 5.8705 19.5973 18.4317 -0.0008 -5.3114 0.0047
# 4 -0.0002 -0.0006 -0.0008 19.8044 0.0003 -9.9377
# 5 -2.2901 -12.6794 -5.3114 0.0003 12.4798 -0.0011
# 6 0.0009 0.0073 0.0047 -9.9377 -0.0011 234.5135
#
#
#
# Elastic Compliance Matrix: (Units=1/GPa)
#
#
# Indices 1 2 3 4 5 6 
#
# 1 0.014145 -0.005357 0.000422 0.000000 -0.002668 0.000000
# 2 -0.005357 0.008869 -0.006167 0.000000 0.005403 0.000000
# 3 0.000422 -0.006167 0.067126 0.000002 0.022381 -0.000001
# 4 0.000000 0.000000 0.000002 0.051591 0.000000 0.002186
# 5 -0.002668 0.005403 0.022381 0.000000 0.094655 0.000000
# 6 0.000000 0.000000 -0.000001 0.002186 0.000000 0.004357
#
#
# Mechanical properties :
#
#
# Convention : Reuss Voigt Hill
#
# Bulk Modulus (GPa) = 14.71958 50.94125 32.83041
# Shear Modulus (GPa) = 17.50747 66.43189 41.96968
#
# Velocity S-wave (km/s) = 2.98585 5.81628 4.62301
# Velocity P-wave (km/s) = 4.40258 8.42889 6.72417
#
# Compressibility (1/GPa) = 0.06793672
#
# Stress axis : x y z
#
# Youngs Moduli (GPa) = 70.69569 112.75145 14.89733
#
# Poissons Ratio (x) = 0.60403 -0.00629
# Poissons Ratio (y) = 0.37873 0.09187
# Poissons Ratio (z) = -0.02983 0.69530
#
# Static dielectric constant tensor:
#      x y z
#    x 1.642130 0.000000 -0.007180 
#    y 0.000000 1.735750 0.000000 
#    z -0.007180 0.000000 1.678970 
# 
# From -- ./inp_files/330258.got.cif
#   From: 2010.05.17/outbox.cif.g08.bks.cpg/sg12_166_cif.got.tgz:330258.got - 2010.06.03 13:09:07.
