data_PCOD9208197
_publ_section_title
;
Structure prediction by ZEFSAII (Michael W. Deem and Ramdas Pophale) SiO2 
 PCOD9208197
Probable space group: C 2/M
;
_chemical_formula_sum "Si O2"
_cell_formula_units_Z 64
_cell_length_a 23.249750
_cell_length_b 17.734354
_cell_length_c 21.375471
_cell_angle_alpha 90.000000
_cell_angle_beta 18.321876
_cell_angle_gamma 90.000000
_cell_volume 2770.573216
_symmetry_space_group_name_H-M "C 2/M"
_symmetry_group_IT_number 12
_symmetry_cell_setting 'monoclinic'
loop_
_space_group_symop_operation_xyz
x,y,z
-x,y,-z
-x,-y,-z
x,-y,z
1/2+x,1/2+y,z
1/2-x,1/2+y,-z
1/2-x,1/2-y,-z
1/2+x,1/2-y,z
loop_
_atom_site_type_symbol
_atom_site_label
_atom_site_fract_x
_atom_site_fract_y
_atom_site_fract_z
Si Si1 0.763274 0.083272 0.674517
Si Si2 0.500015 0.086011 0.568414
Si Si3 0.969587 0.761337 0.890444
Si Si4 0.863582 0.675686 0.823458
Si Si5 0.430479 0.415214 0.143652
Si Si6 0.654603 0.881616 0.922824
Si Si7 0.353666 0.693708 0.476597
Si Si8 0.666092 0.586758 0.128240
O O1 0.549257 0.083828 0.873919
O O2 0.851203 0.153645 0.547543
O O3 0.839346 0.000000 0.580329
O O4 0.762849 0.095772 0.749087
O O5 0.500000 0.122499 0.500000
O O6 0.380754 0.128337 0.741981
O O7 0.710531 0.084202 0.371210
O O8 0.432894 0.000000 0.631196
O O9 0.017147 0.843031 0.868974
O O10 0.143437 0.716610 0.682855
O O11 0.884815 0.707740 0.031605
O O12 0.812536 0.770995 0.001741
O O13 0.038158 0.728950 0.642103
O O14 0.823669 0.619600 0.920843
O O15 0.509526 0.500000 0.897892
O O16 0.500000 0.405725 0.000000
O O17 0.758245 0.904292 0.879055
O O18 0.476300 0.632533 0.313214
O O19 0.634426 0.500000 0.147172
#
# Coordination Sequence:
#
# PCOD9208197 Si02
#       8
#     8   8   8   8   8   8   8   8
#     4  10  21  42  70 104 144 181 234 296 364 427
#     4  10  21  40  67 100 137 180 233 293 354 417
#     4  11  24  42  70  98 142 185 234 295 348 427
#     4  12  25  46  71 100 139 187 235 290 357 422
#     4  10  21  37  62  98 142 184 230 289 352 418
#     4  10  22  41  72 105 139 189 234 294 361 424
#     4  11  25  44  69 103 135 180 233 289 356 424
#     4  12  26  48  73 101 142 188 243 297 360 433
#
# _framework density 23.099913999999998
#
# number of rings (size 3 to 8) (size 9 to 14) (size 15 to 20)
#    0.000    1.250    2.500    3.375    3.500    4.000 
#    2.250    1.250    0.000    0.000    0.000    0.000 
#    0.000    0.000    0.000    0.000    0.000    0.000 
#
# Total GULP energy -178952.015942 kJ/mol
# GULP energy per Si atom -5592.250498 kJ/mol
# Density = 2.304734 g / cm^3
# Si number density = 23.099914 Si / 1000 Ang^3
#
#
#
# Elastic Constant Matrix: (Units=GPa)
#
#
# Indices 1 2 3 4 5 6 
#
# 1 66.5322 20.2295 32.3936 0.0161 9.4978 0.0002
# 2 20.2295 124.0820 31.2913 0.0430 11.9993 0.0468
# 3 32.3936 31.2913 119.5150 0.0252 9.7698 0.0044
# 4 0.0161 0.0430 0.0252 81.3461 -0.0173 30.9384
# 5 9.4978 11.9993 9.7698 -0.0173 35.2302 -0.0123
# 6 0.0002 0.0468 0.0044 30.9384 -0.0123 41.4566
#
#
#
# Elastic Compliance Matrix: (Units=1/GPa)
#
#
# Indices 1 2 3 4 5 6 
#
# 1 0.018008 -0.001569 -0.004213 -0.000004 -0.003152 0.000004
# 2 -0.001569 0.008963 -0.001746 0.000000 -0.002146 -0.000010
# 3 -0.004213 -0.001746 0.010053 -0.000003 -0.001057 0.000002
# 4 -0.000004 0.000000 -0.000003 0.017165 0.000006 -0.012810
# 5 -0.003152 -0.002146 -0.001057 0.000006 0.030259 0.000007
# 6 0.000004 -0.000010 0.000002 -0.012810 0.000007 0.033682
#
#
# Mechanical properties :
#
#
# Convention : Reuss Voigt Hill
#
# Bulk Modulus (GPa) = 45.51897 53.10643 49.31270
# Shear Modulus (GPa) = 35.58544 46.68757 41.13651
#
# Velocity S-wave (km/s) = 3.92918 4.50056 4.22454
# Velocity P-wave (km/s) = 6.35080 7.07435 6.72232
#
# Compressibility (1/GPa) = 0.02196886
#
# Stress axis : x y z
#
# Youngs Moduli (GPa) = 55.52970 111.57286 99.47757
#
# Poissons Ratio (x) = 0.17503 0.41906
# Poissons Ratio (y) = 0.08711 0.17369
# Poissons Ratio (z) = 0.23392 0.19481
#
# Static dielectric constant tensor:
#      x y z
#    x 1.886270 0.000000 -0.005120 
#    y 0.000000 1.864400 0.000050 
#    z -0.005120 0.000050 1.900450 
# 
# From -- ./inp_files/326078.got.cif
#   From: 2010.05.17/outbox.cif.g08.bks.cpg/sg12_164_cif.got.tgz:326078.got - 2010.06.03 13:09:07.
