data_PCOD9208429
_publ_section_title
;
Structure prediction by ZEFSAII (Michael W. Deem and Ramdas Pophale) SiO2 
 PCOD9208429
Probable space group: C 2/M
;
_chemical_formula_sum "Si O2"
_cell_formula_units_Z 48
_cell_length_a 14.342822
_cell_length_b 10.632221
_cell_length_c 15.110506
_cell_angle_alpha 90.000000
_cell_angle_beta 76.640341
_cell_angle_gamma 90.000000
_cell_volume 2241.935623
_symmetry_space_group_name_H-M "C 2/M"
_symmetry_group_IT_number 12
_symmetry_cell_setting 'monoclinic'
loop_
_space_group_symop_operation_xyz
x,y,z
-x,y,-z
-x,-y,-z
x,-y,z
1/2+x,1/2+y,z
1/2-x,1/2+y,-z
1/2-x,1/2-y,-z
1/2+x,1/2-y,z
loop_
_atom_site_type_symbol
_atom_site_label
_atom_site_fract_x
_atom_site_fract_y
_atom_site_fract_z
Si Si1 0.449399 0.348967 0.421545
Si Si2 0.763154 0.853988 0.378823
Si Si3 0.715182 0.787721 0.105112
Si Si4 0.008222 0.631970 0.104336
Si Si5 0.890564 0.129608 0.177571
Si Si6 0.354811 0.649454 0.706688
O O1 0.500000 0.302667 0.500000
O O2 0.438616 0.500000 0.431316
O O3 0.340299 0.302709 0.433835
O O4 0.530524 0.328184 0.328496
O O5 0.838165 0.872000 0.282068
O O6 0.692813 0.748163 0.352976
O O7 0.726965 0.000000 0.405508
O O8 0.617435 0.862276 0.110916
O O9 0.804044 0.861129 0.127013
O O10 0.687074 0.684279 0.186931
O O11 0.750000 0.750000 0.000000
O O12 0.963573 0.500000 0.143303
O O13 0.954179 0.749915 0.153382
O O14 0.000000 0.638462 0.000000
O O15 0.946668 0.000000 0.152150
O O16 0.338253 0.500000 0.690983
#
# Coordination Sequence:
#
# PCOD9208429 Si02
#       6
#     8   8   8   8   8   8
#     4   9  18  36  62  90 121 157 195 239 295 358
#     4   9  19  37  59  85 119 155 192 239 297 354
#     4  11  22  39  56  82 115 156 194 244 290 345
#     4  11  23  38  54  79 110 145 191 243 293 338
#     4  10  21  38  57  80 110 151 197 238 287 347
#     4  10  22  38  61  90 117 153 202 248 291 348
#
# _framework density 21.410070999999999
#
# number of rings (size 3 to 8) (size 9 to 14) (size 15 to 20)
#    0.000    2.000    1.667    1.500    0.000    7.667 
#    0.000    0.833    0.000    1.000    0.000    0.000 
#    0.000    0.000    0.000    0.000    0.000    0.000 
#
# Total GULP energy -133716.377215 kJ/mol
# GULP energy per Si atom -5571.515717 kJ/mol
# Density = 2.136134 g / cm^3
# Si number density = 21.410071 Si / 1000 Ang^3
#
#
#
# Elastic Constant Matrix: (Units=GPa)
#
#
# Indices 1 2 3 4 5 6 
#
# 1 110.7042 51.8913 15.8945 0.0000 12.4130 0.0000
# 2 51.8913 139.1549 11.0110 0.0000 -8.1628 0.0000
# 3 15.8945 11.0110 76.0207 0.0000 4.1890 0.0000
# 4 0.0000 0.0000 0.0000 2.9631 0.0000 2.2831
# 5 12.4130 -8.1628 4.1890 0.0000 38.3322 0.0000
# 6 0.0000 0.0000 0.0000 2.2831 0.0000 41.0366
#
#
#
# Elastic Compliance Matrix: (Units=1/GPa)
#
#
# Indices 1 2 3 4 5 6 
#
# 1 0.011940 -0.004602 -0.001572 0.000000 -0.004675 0.000000
# 2 -0.004602 0.009152 -0.000556 0.000000 0.003500 0.000000
# 3 -0.001572 -0.000556 0.013624 0.000000 -0.001098 0.000000
# 4 0.000000 0.000000 0.000000 0.352602 0.000000 -0.019617
# 5 -0.004675 0.003500 -0.001098 0.000000 0.028467 0.000000
# 6 0.000000 0.000000 0.000000 -0.019617 0.000000 0.025460
#
#
# Mechanical properties :
#
#
# Convention : Reuss Voigt Hill
#
# Bulk Modulus (GPa) = 47.04870 53.71927 50.38399
# Shear Modulus (GPa) = 10.82738 32.93858 21.88298
#
# Velocity S-wave (km/s) = 2.25125 3.92658 3.20048
# Velocity P-wave (km/s) = 5.36472 6.76036 6.10257
#
# Compressibility (1/GPa) = 0.02125457
#
# Stress axis : x y z
#
# Youngs Moduli (GPa) = 83.74987 109.26812 73.39933
#
# Poissons Ratio (x) = 0.50290 0.11540
# Poissons Ratio (y) = 0.38545 0.04082
# Poissons Ratio (z) = 0.13168 0.06077
#
# Static dielectric constant tensor:
#      x y z
#    x 1.846220 0.000000 0.093910 
#    y 0.000000 1.815380 0.000000 
#    z 0.093910 0.000000 1.865940 
# 
# From -- ./inp_files/212672.got.cif
#   From: 2010.05.17/outbox.cif.g08.bks.cpg/sg12_107_cif.got.tgz:212672.got - 2010.06.03 13:09:07.
