data_PCOD9208254
_publ_section_title
;
Structure prediction by ZEFSAII (Michael W. Deem and Ramdas Pophale) SiO2 
 PCOD9208254
Probable space group: C 2/M
;
_chemical_formula_sum "Si O2"
_cell_formula_units_Z 64
_cell_length_a 10.542767
_cell_length_b 33.130748
_cell_length_c 8.390542
_cell_angle_alpha 90.000000
_cell_angle_beta 83.821334
_cell_angle_gamma 90.000000
_cell_volume 2913.706079
_symmetry_space_group_name_H-M "C 2/M"
_symmetry_group_IT_number 12
_symmetry_cell_setting 'monoclinic'
loop_
_space_group_symop_operation_xyz
x,y,z
-x,y,-z
-x,-y,-z
x,-y,z
1/2+x,1/2+y,z
1/2-x,1/2+y,-z
1/2-x,1/2-y,-z
1/2+x,1/2-y,z
loop_
_atom_site_type_symbol
_atom_site_label
_atom_site_fract_x
_atom_site_fract_y
_atom_site_fract_z
Si Si1 0.028790 0.454518 0.305941
Si Si2 0.990445 0.045953 0.694655
Si Si3 0.773577 0.324623 0.197640
Si Si4 0.479188 0.760521 0.185416
Si Si5 0.368609 0.324213 0.107991
Si Si6 0.726920 0.087742 0.702333
Si Si7 0.360598 0.267838 0.592258
Si Si8 0.766485 0.099672 0.314628
O O1 0.067448 0.500000 0.254444
O O2 0.139088 0.421522 0.262434
O O3 0.000000 0.455095 0.500000
O O4 0.892061 0.441808 0.256231
O O5 0.112663 0.070783 0.734634
O O6 0.000000 0.044463 0.500000
O O7 0.857952 0.068384 0.745489
O O8 0.990579 0.000000 0.752995
O O9 0.887559 0.296704 0.246326
O O10 0.802549 0.371125 0.203337
O O11 0.664473 0.312577 0.339934
O O12 0.724550 0.314315 0.027833
O O13 0.411588 0.716355 0.195356
O O14 0.614695 0.758833 0.253804
O O15 0.500000 0.768455 0.000000
O O16 0.304443 0.357321 0.232166
O O17 0.500000 0.338749 0.000000
O O18 0.744576 0.098917 0.510639
O O19 0.500000 0.264427 0.500000
O O20 0.250000 0.250000 0.500000
#
# Coordination Sequence:
#
# PCOD9208254 Si02
#       8
#     8   8   8   8   8   8   8   8
#     4   9  18  38  63  92 129 168 209 262 329 393
#     4   9  17  32  60  94 124 162 210 263 323 389
#     4  12  25  43  64  94 131 177 221 269 329 396
#     4  11  25  47  69  91 129 182 229 266 327 400
#     4  11  23  41  65  90 128 177 225 268 325 397
#     4  10  22  37  60  95 132 163 211 270 332 382
#     4  12  26  45  69 100 128 167 217 288 333 386
#     4  10  21  37  63  97 127 164 214 273 322 388
#
# _framework density 21.965153000000001
#
# number of rings (size 3 to 8) (size 9 to 14) (size 15 to 20)
#    0.000    1.500    3.750    1.875    1.750    4.500 
#    6.750    0.000    0.000    9.000    0.000    0.000 
#    0.000    0.000    0.000    0.000    0.000    0.000 
#
# Total GULP energy -178677.026601 kJ/mol
# GULP energy per Si atom -5583.657081 kJ/mol
# Density = 2.191516 g / cm^3
# Si number density = 21.965153 Si / 1000 Ang^3
#
#
#
# Elastic Constant Matrix: (Units=GPa)
#
#
# Indices 1 2 3 4 5 6 
#
# 1 119.0381 37.5212 14.4478 0.0000 7.9325 0.0000
# 2 37.5212 90.5731 2.2742 0.0000 -2.3172 0.0000
# 3 14.4478 2.2742 38.9352 0.0000 11.2378 0.0000
# 4 0.0000 0.0000 0.0000 15.1786 0.0000 -4.0754
# 5 7.9325 -2.3172 11.2378 0.0000 31.1785 0.0000
# 6 0.0000 0.0000 0.0000 -4.0754 0.0000 33.7673
#
#
#
# Elastic Compliance Matrix: (Units=1/GPa)
#
#
# Indices 1 2 3 4 5 6 
#
# 1 0.010213 -0.004202 -0.003018 0.000000 -0.001823 0.000000
# 2 -0.004202 0.012824 0.000253 0.000000 0.001931 0.000000
# 3 -0.003018 0.000253 0.029646 0.000000 -0.009899 0.000000
# 4 0.000000 0.000000 0.000000 0.068089 0.000000 0.008218
# 5 -0.001823 0.001931 -0.009899 0.000000 0.036248 0.000000
# 6 0.000000 0.000000 0.000000 0.008218 0.000000 0.030606
#
#
# Mechanical properties :
#
#
# Convention : Reuss Voigt Hill
#
# Bulk Modulus (GPa) = 25.80715 39.67031 32.73873
# Shear Modulus (GPa) = 23.31251 28.97844 26.14547
#
# Velocity S-wave (km/s) = 3.26136 3.63615 3.45384
# Velocity P-wave (km/s) = 5.09476 5.97733 5.55361
#
# Compressibility (1/GPa) = 0.03874895
#
# Stress axis : x y z
#
# Youngs Moduli (GPa) = 97.91603 77.97594 33.73143
#
# Poissons Ratio (x) = 0.32763 0.10181
# Poissons Ratio (y) = 0.41141 -0.00852
# Poissons Ratio (z) = 0.29553 -0.01970
#
# Static dielectric constant tensor:
#      x y z
#    x 1.856920 0.000000 -0.014660 
#    y 0.000000 1.760810 0.000000 
#    z -0.014660 0.000000 1.939750 
# 
# From -- ./inp_files/54706.got.cif
#   From: 2010.05.17/outbox.cif.g08.bks.cpg/sg12_28_cif.got.tgz:54706.got - 2010.06.03 13:09:07.
