data_PCOD9208420
_publ_section_title
;
Structure prediction by ZEFSAII (Michael W. Deem and Ramdas Pophale) SiO2 
 PCOD9208420
Probable space group: C 2/M
;
_chemical_formula_sum "Si O2"
_cell_formula_units_Z 56
_cell_length_a 14.790417
_cell_length_b 8.484072
_cell_length_c 26.189648
_cell_angle_alpha 90.000000
_cell_angle_beta 127.862387
_cell_angle_gamma 90.000000
_cell_volume 2594.534828
_symmetry_space_group_name_H-M "C 2/M"
_symmetry_group_IT_number 12
_symmetry_cell_setting 'monoclinic'
loop_
_space_group_symop_operation_xyz
x,y,z
-x,y,-z
-x,-y,-z
x,-y,z
1/2+x,1/2+y,z
1/2-x,1/2+y,-z
1/2-x,1/2-y,-z
1/2+x,1/2-y,z
loop_
_atom_site_type_symbol
_atom_site_label
_atom_site_fract_x
_atom_site_fract_y
_atom_site_fract_z
Si Si1 0.918344 0.689374 0.140477
Si Si2 0.778025 0.816606 0.295610
Si Si3 0.454620 0.685444 0.907440
Si Si4 0.828088 0.686940 0.955768
Si Si5 0.155176 0.311599 0.351713
Si Si6 0.909415 0.311642 0.253658
Si Si7 0.390189 0.812696 0.429872
O O1 0.926745 0.500000 0.142349
O O2 0.019482 0.758320 0.140824
O O3 0.795969 0.743299 0.075680
O O4 0.911258 0.747340 0.196443
O O5 0.670539 0.783775 0.295544
O O6 0.802475 0.728846 0.251902
O O7 0.878147 0.771037 0.370904
O O8 0.778234 0.000000 0.284482
O O9 0.429943 0.500000 0.900932
O O10 0.360223 0.777974 0.907643
O O11 0.573124 0.725186 0.978296
O O12 0.833305 0.500000 0.967337
O O13 0.165984 0.500000 0.363522
O O14 0.267564 0.228869 0.413348
O O15 0.028489 0.257264 0.321303
O O16 0.916282 0.500000 0.252758
O O17 0.500000 0.761617 0.500000
O O18 0.396814 0.000000 0.424212
#
# Coordination Sequence:
#
# PCOD9208420 Si02
#       7
#     8   8   8   8   8   8   8
#     4  11  23  38  57  84 115 149 189 233 280 335
#     4   9  19  34  55  80 109 143 181 224 273 325
#     4  11  22  39  61  86 114 146 187 235 285 338
#     4  11  22  39  61  85 114 149 186 232 286 337
#     4   8  18  35  54  78 108 143 178 223 275 322
#     4  10  21  38  57  79 110 147 186 227 273 326
#     4   9  17  32  56  83 109 141 182 226 273 325
#
# _framework density 21.583829999999999
#
# number of rings (size 3 to 8) (size 9 to 14) (size 15 to 20)
#    0.857    1.286    0.000    4.714    0.000    4.000 
#    0.000    2.143    0.000    0.000    0.000    0.000 
#    0.000    0.000    0.000    0.000    0.000    0.000 
#
# Total GULP energy -156177.931821 kJ/mol
# GULP energy per Si atom -5577.783279 kJ/mol
# Density = 2.153470 g / cm^3
# Si number density = 21.583830 Si / 1000 Ang^3
#
#
#
# Elastic Constant Matrix: (Units=GPa)
#
#
# Indices 1 2 3 4 5 6 
#
# 1 82.3388 1.7982 1.3703 0.0000 0.3740 0.0000
# 2 1.7982 33.8509 -14.2068 0.0000 1.5411 0.0000
# 3 1.3703 -14.2068 29.8115 0.0000 7.5852 0.0000
# 4 0.0000 0.0000 0.0000 19.8396 0.0000 -11.4122
# 5 0.3740 1.5411 7.5852 0.0000 28.6750 0.0000
# 6 0.0000 0.0000 0.0000 -11.4122 0.0000 20.0913
#
#
#
# Elastic Compliance Matrix: (Units=1/GPa)
#
#
# Indices 1 2 3 4 5 6 
#
# 1 0.012188 -0.001143 -0.001158 0.000000 0.000209 0.000000
# 2 -0.001143 0.038441 0.020257 0.000000 -0.007410 0.000000
# 3 -0.001158 0.020257 0.046665 0.000000 -0.013418 0.000000
# 4 0.000000 0.000000 0.000000 0.074866 0.000000 0.042525
# 5 0.000209 -0.007410 -0.013418 0.000000 0.038818 0.000000
# 6 0.000000 0.000000 0.000000 0.042525 0.000000 0.073928
#
#
# Mechanical properties :
#
#
# Convention : Reuss Voigt Hill
#
# Bulk Modulus (GPa) = 7.50716 13.76940 10.63828
# Shear Modulus (GPa) = 17.04177 24.19047 20.61612
#
# Velocity S-wave (km/s) = 2.81296 3.35142 3.09393
# Velocity P-wave (km/s) = 3.74647 4.62270 4.20746
#
# Compressibility (1/GPa) = 0.13320623
#
# Stress axis : x y z
#
# Youngs Moduli (GPa) = 82.04642 26.01386 21.42940
#
# Poissons Ratio (x) = 0.02973 0.02482
# Poissons Ratio (y) = 0.09378 -0.43410
# Poissons Ratio (z) = 0.09501 -0.52696
#
# Static dielectric constant tensor:
#      x y z
#    x 1.812480 0.000000 0.005570 
#    y 0.000000 1.716830 0.000000 
#    z 0.005570 0.000000 1.862460 
# 
# From -- ./inp_files/360042.got.cif
#   From: 2010.05.17/outbox.cif.g08.bks.cpg/sg12_181_cif.got.tgz:360042.got - 2010.06.03 13:09:07.
