data_PCOD9208400
_publ_section_title
;
Structure prediction by ZEFSAII (Michael W. Deem and Ramdas Pophale) SiO2 
 PCOD9208400
Probable space group: C 2/M
;
_chemical_formula_sum "Si O2"
_cell_formula_units_Z 56
_cell_length_a 8.158419
_cell_length_b 29.700944
_cell_length_c 11.500534
_cell_angle_alpha 90.000000
_cell_angle_beta 107.255260
_cell_angle_gamma 90.000000
_cell_volume 2661.303007
_symmetry_space_group_name_H-M "C 2/M"
_symmetry_group_IT_number 12
_symmetry_cell_setting 'monoclinic'
loop_
_space_group_symop_operation_xyz
x,y,z
-x,y,-z
-x,-y,-z
x,-y,z
1/2+x,1/2+y,z
1/2-x,1/2+y,-z
1/2-x,1/2-y,-z
1/2+x,1/2-y,z
loop_
_atom_site_type_symbol
_atom_site_label
_atom_site_fract_x
_atom_site_fract_y
_atom_site_fract_z
Si Si1 0.335522 0.118318 0.385116
Si Si2 0.822761 0.722656 0.123064
Si Si3 0.292655 0.196179 0.772480
Si Si4 0.352444 0.607577 0.141171
Si Si5 0.771114 0.123361 0.879282
Si Si6 0.301370 0.301910 0.496135
Si Si7 0.477960 0.552490 0.633767
O O1 0.500000 0.112138 0.500000
O O2 0.365482 0.116444 0.252681
O O3 0.248709 0.165940 0.407220
O O4 0.195544 0.080003 0.379384
O O5 0.811097 0.757216 0.228567
O O6 0.714859 0.677260 0.108203
O O7 0.016804 0.707054 0.145546
O O8 0.750000 0.750000 0.000000
O O9 0.202595 0.156072 0.821886
O O10 0.301216 0.182870 0.639806
O O11 0.545883 0.607875 0.131671
O O12 0.370465 0.574144 0.254758
O O13 0.240632 0.601507 0.999422
O O14 0.500000 0.306343 0.500000
O O15 0.250000 0.250000 0.500000
O O16 0.500000 0.556765 0.500000
O O17 0.462224 0.500000 0.660318
#
# Coordination Sequence:
#
# PCOD9208400 Si02
#       7
#     8   8   8   8   8   8   8
#     4  11  22  40  63  92 127 166 207 259 320 378
#     4  12  23  35  53  84 122 166 210 254 299 357
#     4  12  23  36  55  81 118 161 209 257 298 363
#     4  10  21  38  61  85 118 158 204 252 314 365
#     4  10  21  38  56  85 124 164 201 256 295 364
#     4  12  23  38  58  84 122 170 215 261 308 368
#     4  10  22  43  70  97 122 155 204 263 322 391
#
# _framework density 21.042323
#
# number of rings (size 3 to 8) (size 9 to 14) (size 15 to 20)
#    0.000    1.000    1.429    7.286    2.000    0.286 
#    0.000    5.714    0.000    0.000    0.000    4.000 
#    0.000    0.000    0.000    0.000    0.000    0.000 
#
# Total GULP energy -156404.117226 kJ/mol
# GULP energy per Si atom -5585.861329 kJ/mol
# Density = 2.099443 g / cm^3
# Si number density = 21.042323 Si / 1000 Ang^3
#
#
#
# Elastic Constant Matrix: (Units=GPa)
#
#
# Indices 1 2 3 4 5 6 
#
# 1 34.6384 16.6122 22.7466 0.0000 16.9010 0.0000
# 2 16.6122 105.4185 50.3014 0.0000 1.3311 0.0000
# 3 22.7466 50.3014 175.8581 0.0000 12.2377 0.0000
# 4 0.0000 0.0000 0.0000 27.2194 0.0000 -1.9341
# 5 16.9010 1.3311 12.2377 0.0000 28.9127 0.0000
# 6 0.0000 0.0000 0.0000 -1.9341 0.0000 19.4659
#
#
#
# Elastic Compliance Matrix: (Units=1/GPa)
#
#
# Indices 1 2 3 4 5 6 
#
# 1 0.045597 -0.005666 -0.002515 0.000000 -0.025328 0.000000
# 2 -0.005666 0.011710 -0.002895 0.000000 0.003998 0.000000
# 3 -0.002515 -0.002895 0.006932 0.000000 -0.001331 0.000000
# 4 0.000000 0.000000 0.000000 0.037000 0.000000 0.003676
# 5 -0.025328 0.003998 -0.001331 0.000000 0.049772 0.000000
# 6 0.000000 0.000000 0.000000 0.003676 0.000000 0.051737
#
#
# Mechanical properties :
#
#
# Convention : Reuss Voigt Hill
#
# Bulk Modulus (GPa) = 23.75940 55.02613 39.39276
# Shear Modulus (GPa) = 20.92693 30.20326 25.56510
#
# Velocity S-wave (km/s) = 3.15702 3.79272 3.48938
# Velocity P-wave (km/s) = 4.96032 6.73696 5.91572
#
# Compressibility (1/GPa) = 0.04208861
#
# Stress axis : x y z
#
# Youngs Moduli (GPa) = 21.93146 85.40032 144.25290
#
# Poissons Ratio (x) = 0.48384 0.36274
# Poissons Ratio (y) = 0.12425 0.41757
# Poissons Ratio (z) = 0.05515 0.24721
#
# Static dielectric constant tensor:
#      x y z
#    x 1.782830 0.000000 -0.007690 
#    y 0.000000 1.728750 0.000000 
#    z -0.007690 0.000000 1.874870 
# 
# From -- ./inp_files/124352.got.cif
#   From: 2010.05.17/outbox.cif.g08.bks.cpg/sg12_63_cif.got.tgz:124352.got - 2010.06.03 13:09:07.
