data_PCOD9208511
_publ_section_title
;
Structure prediction by ZEFSAII (Michael W. Deem and Ramdas Pophale) SiO2 
 PCOD9208511
Probable space group: C 2/M
;
_chemical_formula_sum "Si O2"
_cell_formula_units_Z 48
_cell_length_a 14.376583
_cell_length_b 8.612838
_cell_length_c 19.530921
_cell_angle_alpha 90.000000
_cell_angle_beta 93.345150
_cell_angle_gamma 90.000000
_cell_volume 2414.260184
_symmetry_space_group_name_H-M "C 2/M"
_symmetry_group_IT_number 12
_symmetry_cell_setting 'monoclinic'
loop_
_space_group_symop_operation_xyz
x,y,z
-x,y,-z
-x,-y,-z
x,-y,z
1/2+x,1/2+y,z
1/2-x,1/2+y,-z
1/2-x,1/2-y,-z
1/2+x,1/2-y,z
loop_
_atom_site_type_symbol
_atom_site_label
_atom_site_fract_x
_atom_site_fract_y
_atom_site_fract_z
Si Si1 0.112027 0.178197 0.490858
Si Si2 0.550581 0.685583 0.343907
Si Si3 0.895642 0.687206 0.010499
Si Si4 0.199820 0.315758 0.257586
Si Si5 0.151796 0.681608 0.633070
Si Si6 0.757202 0.812936 0.108526
O O1 0.115630 0.228867 0.412197
O O2 0.158046 0.277294 0.552661
O O3 0.000000 0.179568 0.500000
O O4 0.143536 0.000000 0.498454
O O5 0.534863 0.500000 0.347465
O O6 0.606340 0.731471 0.278829
O O7 0.452989 0.772692 0.348561
O O8 0.896144 0.500000 0.012730
O O9 0.826444 0.735229 0.946068
O O10 0.851004 0.747961 0.078792
O O11 0.000000 0.741358 0.000000
O O12 0.182847 0.500000 0.254368
O O13 0.278647 0.277626 0.316644
O O14 0.235142 0.263111 0.184638
O O15 0.169563 0.500000 0.643541
O O16 0.762121 0.000000 0.108189
#
# Coordination Sequence:
#
# PCOD9208511 Si02
#       6
#     8   8   8   8   8   8
#     4   8  16  33  55  77 105 141 183 234 284 332
#     4  10  21  38  58  81 110 145 187 233 284 339
#     4   9  18  35  60  86 111 141 176 216 265 321
#     4  11  23  38  55  79 115 153 189 229 272 326
#     4  11  22  36  56  81 109 145 190 236 285 336
#     4   9  20  37  55  81 114 144 178 220 265 318
#
# _framework density 19.881865999999999
#
# number of rings (size 3 to 8) (size 9 to 14) (size 15 to 20)
#    0.000    2.333    0.000    3.500    0.000    7.333 
#    0.000    1.667    0.000    0.000    0.000    0.000 
#    0.000    0.000    0.000    0.000    0.000    0.000 
#
# Total GULP energy -134041.123905 kJ/mol
# GULP energy per Si atom -5585.046829 kJ/mol
# Density = 1.983661 g / cm^3
# Si number density = 19.881866 Si / 1000 Ang^3
#
#
#
# Elastic Constant Matrix: (Units=GPa)
#
#
# Indices 1 2 3 4 5 6 
#
# 1 71.0413 0.4163 22.4743 0.0000 -22.4645 0.0000
# 2 0.4163 22.1523 12.1740 0.0000 -6.3584 0.0000
# 3 22.4743 12.1740 101.2429 0.0000 -32.2997 0.0000
# 4 0.0000 0.0000 0.0000 26.8948 0.0000 -5.5818
# 5 -22.4645 -6.3584 -32.2997 0.0000 28.5674 0.0000
# 6 0.0000 0.0000 0.0000 -5.5818 0.0000 25.9879
#
#
#
# Elastic Compliance Matrix: (Units=1/GPa)
#
#
# Indices 1 2 3 4 5 6 
#
# 1 0.019117 0.004094 0.000549 0.000000 0.016564 0.000000
# 2 0.004094 0.050009 -0.003667 0.000000 0.010204 0.000000
# 3 0.000549 -0.003667 0.015758 0.000000 0.017432 0.000000
# 4 0.000000 0.000000 0.000000 0.038917 0.000000 0.008359
# 5 0.016564 0.010204 0.017432 0.000000 0.070011 0.000000
# 6 0.000000 0.000000 0.000000 0.008359 0.000000 0.040275
#
#
# Mechanical properties :
#
#
# Convention : Reuss Voigt Hill
#
# Bulk Modulus (GPa) = 11.51608 29.39619 20.45614
# Shear Modulus (GPa) = 19.15128 26.91483 23.03306
#
# Velocity S-wave (km/s) = 3.10700 3.68331 3.40736
# Velocity P-wave (km/s) = 4.32158 5.73642 5.07852
#
# Compressibility (1/GPa) = 0.08683509
#
# Stress axis : x y z
#
# Youngs Moduli (GPa) = 52.31035 19.99637 63.46150
#
# Poissons Ratio (x) = -0.08186 -0.03482
# Poissons Ratio (y) = -0.21414 0.23268
# Poissons Ratio (z) = -0.02870 0.07332
#
# Static dielectric constant tensor:
#      x y z
#    x 1.718230 0.000000 -0.014930 
#    y 0.000000 1.663250 0.000000 
#    z -0.014930 0.000000 1.703480 
# 
# From -- ./inp_files/267642.got.cif
#   From: 2010.05.17/outbox.cif.g08.bks.cpg/sg12_134_cif.got.tgz:267642.got - 2010.06.03 13:09:07.
