data_PCOD9208196
_publ_section_title
;
Structure prediction by ZEFSAII (Michael W. Deem and Ramdas Pophale) SiO2 
 PCOD9208196
Probable space group: C 2/M
;
_chemical_formula_sum "Si O2"
_cell_formula_units_Z 48
_cell_length_a 11.672620
_cell_length_b 15.959577
_cell_length_c 24.517709
_cell_angle_alpha 90.000000
_cell_angle_beta 148.924447
_cell_angle_gamma 90.000000
_cell_volume 2357.548453
_symmetry_space_group_name_H-M "C 2/M"
_symmetry_group_IT_number 12
_symmetry_cell_setting 'monoclinic'
loop_
_space_group_symop_operation_xyz
x,y,z
-x,y,-z
-x,-y,-z
x,-y,z
1/2+x,1/2+y,z
1/2-x,1/2+y,-z
1/2-x,1/2-y,-z
1/2+x,1/2-y,z
loop_
_atom_site_type_symbol
_atom_site_label
_atom_site_fract_x
_atom_site_fract_y
_atom_site_fract_z
Si Si1 0.716580 0.406576 0.723042
Si Si2 0.390388 0.333898 0.767050
Si Si3 0.563712 0.599004 0.100962
Si Si4 0.809445 0.401900 0.881195
Si Si5 0.021203 0.766481 0.441927
Si Si6 0.151845 0.659980 0.880752
O O1 0.627100 0.500000 0.694179
O O2 0.776230 0.366515 0.806672
O O3 0.566404 0.350048 0.623733
O O4 0.957609 0.406952 0.794266
O O5 0.335341 0.381075 0.799911
O O6 0.566232 0.391522 0.807381
O O7 0.164227 0.304857 0.646314
O O8 0.533737 0.249302 0.836578
O O9 0.563843 0.500000 0.088824
O O10 0.697881 0.651635 0.111278
O O11 0.310690 0.632683 0.994976
O O12 0.867390 0.500000 0.897142
O O13 0.000000 0.367141 0.000000
O O14 0.000000 0.775925 0.500000
O O15 0.250000 0.750000 0.500000
#
# Coordination Sequence:
#
# PCOD9208196 Si02
#       6
#     8   8   8   8   8   8
#     4  10  21  39  65  91 125 165 210 260 323 393
#     4  11  24  37  66  89 124 166 220 262 318 392
#     4  11  22  38  59  92 133 168 202 250 314 385
#     4  10  21  37  62  98 140 174 203 251 319 404
#     4  11  26  46  68  91 123 166 225 292 340 381
#     4  10  22  35  60  91 130 167 203 248 305 388
#
# _framework density 20.360133000000001
#
# number of rings (size 3 to 8) (size 9 to 14) (size 15 to 20)
#    0.000    1.500    0.000    5.000   11.667    1.667 
#    0.000    1.667    0.000    4.500    0.000    0.000 
#    0.000    0.000    0.000    0.000    0.000    0.000 
#
# Total GULP energy -133733.213771 kJ/mol
# GULP energy per Si atom -5572.217240 kJ/mol
# Density = 2.031379 g / cm^3
# Si number density = 20.360133 Si / 1000 Ang^3
#
#
#
# Elastic Constant Matrix: (Units=GPa)
#
#
# Indices 1 2 3 4 5 6 
#
# 1 107.6877 11.6852 65.1673 -0.0002 -11.2348 0.0001
# 2 11.6852 41.3696 24.8077 -0.0007 -12.2912 0.0002
# 3 65.1673 24.8077 134.7585 -0.0002 -16.2548 0.0000
# 4 -0.0002 -0.0007 -0.0002 -16.8913 -0.0003 4.3109
# 5 -11.2348 -12.2912 -16.2548 -0.0003 32.1987 0.0000
# 6 0.0001 0.0002 0.0000 4.3109 0.0000 20.6834
#
#
#
# Elastic Compliance Matrix: (Units=1/GPa)
#
#
# Indices 1 2 3 4 5 6 
#
# 1 0.013202 0.000525 -0.006284 0.000000 0.001635 0.000000
# 2 0.000525 0.029482 -0.004580 -0.000001 0.009125 0.000000
# 3 -0.006284 -0.004580 0.011529 0.000000 0.001879 0.000000
# 4 0.000000 -0.000001 0.000000 -0.056212 -0.000001 0.011716
# 5 0.001635 0.009125 0.001879 -0.000001 0.036059 0.000000
# 6 0.000000 0.000000 0.000000 0.011716 0.000000 0.045906
#
#
# Mechanical properties :
#
#
# Convention : Reuss Voigt Hill
#
# Bulk Modulus (GPa) = 29.82008 54.12624 41.97316
# Shear Modulus (GPa) = 44.71286 19.34187 32.02737
#
# Velocity S-wave (km/s) = 4.69134 3.08553 3.97046
# Velocity P-wave (km/s) = 6.63498 6.27185 6.45597
#
# Compressibility (1/GPa) = 0.03353445
#
# Stress axis : x y z
#
# Youngs Moduli (GPa) = 75.74363 33.91919 86.73485
#
# Poissons Ratio (x) = -0.01780 0.54504
# Poissons Ratio (y) = -0.03975 0.39728
# Poissons Ratio (z) = 0.47597 0.15536
#
# Static dielectric constant tensor:
#      x y z
#    x 1.855190 0.000000 -0.019840 
#    y 0.000000 1.739120 0.000000 
#    z -0.019840 0.000000 1.741520 
# 
# From -- ./inp_files/336392.got.cif
#   From: 2010.05.17/outbox.cif.g08.bks.cpg/sg12_169_cif.got.tgz:336392.got - 2010.06.03 13:09:07.
