data_PCOD9208806
_publ_section_title
;
Structure prediction by ZEFSAII (Michael W. Deem and Ramdas Pophale) SiO2 
 PCOD9208806
Probable space group: C 2/M
;
_chemical_formula_sum "Si O2"
_cell_formula_units_Z 44
_cell_length_a 13.760929
_cell_length_b 10.408497
_cell_length_c 16.958316
_cell_angle_alpha 90.000000
_cell_angle_beta 108.980451
_cell_angle_gamma 90.000000
_cell_volume 2296.886622
_symmetry_space_group_name_H-M "C 2/M"
_symmetry_group_IT_number 12
_symmetry_cell_setting 'monoclinic'
loop_
_space_group_symop_operation_xyz
x,y,z
-x,y,-z
-x,-y,-z
x,-y,z
1/2+x,1/2+y,z
1/2-x,1/2+y,-z
1/2-x,1/2-y,-z
1/2+x,1/2-y,z
loop_
_atom_site_type_symbol
_atom_site_label
_atom_site_fract_x
_atom_site_fract_y
_atom_site_fract_z
Si Si1 0.385795 0.000000 0.067095
Si Si2 0.155697 0.253249 0.852448
Si Si3 0.788039 0.500000 0.884660
Si Si4 0.283228 0.854335 0.304492
Si Si5 0.434247 0.352703 0.403511
Si Si6 0.084476 0.500000 0.233457
Si Si7 0.054380 0.220846 0.277915
O O1 0.333529 0.867176 0.081885
O O2 0.489290 0.000000 0.146630
O O3 0.381689 0.000000 0.971629
O O4 0.188035 0.315775 0.777250
O O5 0.037231 0.208154 0.810253
O O6 0.223313 0.127971 0.883206
O O7 0.820078 0.500000 0.801348
O O8 0.342929 0.750317 0.373178
O O9 0.161104 0.845013 0.284149
O O10 0.317849 0.000000 0.328891
O O11 0.500000 0.337430 0.500000
O O12 0.396145 0.500000 0.389471
O O13 0.507839 0.328070 0.347611
O O14 0.077786 0.373061 0.283737
#
# Coordination Sequence:
#
# PCOD9208806 Si02
#       7
#     4   8   4   8   8   4   8
#     4  10  21  40  55  85 126 153 200 255 308 340
#     4  10  22  37  58  86 118 157 203 246 293 359
#     4  12  21  36  63  85 114 167 198 249 304 356
#     4  11  22  38  63  88 120 158 198 246 290 349
#     4  10  24  43  63  91 123 154 194 242 298 358
#     4  10  21  38  59  92 114 158 210 252 283 364
#     4  10  22  37  62  86 120 156 199 246 295 343
#
# _framework density 19.156366999999999
#
# number of rings (size 3 to 8) (size 9 to 14) (size 15 to 20)
#    0.000    1.636    2.727    1.364   11.455    1.091 
#    0.000    0.000    0.000    1.091    0.000    0.000 
#    0.000    0.000    0.000    0.000    0.000    0.000 
#
# Total GULP energy -122787.726302 kJ/mol
# GULP energy per Si atom -5581.260286 kJ/mol
# Density = 1.911277 g / cm^3
# Si number density = 19.156367 Si / 1000 Ang^3
#
#
#
# Elastic Constant Matrix: (Units=GPa)
#
#
# Indices 1 2 3 4 5 6 
#
# 1 83.9105 33.1314 9.1412 0.0000 16.7059 0.0000
# 2 33.1314 159.4486 41.9997 0.0000 15.2418 0.0000
# 3 9.1412 41.9997 60.0159 0.0000 8.4120 0.0000
# 4 0.0000 0.0000 0.0000 28.0359 0.0000 3.4116
# 5 16.7059 15.2418 8.4120 0.0000 15.0110 0.0000
# 6 0.0000 0.0000 0.0000 3.4116 0.0000 28.7800
#
#
#
# Elastic Compliance Matrix: (Units=1/GPa)
#
#
# Indices 1 2 3 4 5 6 
#
# 1 0.015830 -0.002086 0.001325 0.000000 -0.016243 0.000000
# 2 -0.002086 0.008357 -0.005064 0.000000 -0.003326 0.000000
# 3 0.001325 -0.005064 0.021152 0.000000 -0.008186 0.000000
# 4 0.000000 0.000000 0.000000 0.036191 0.000000 -0.004290
# 5 -0.016243 -0.003326 -0.008186 0.000000 0.092659 0.000000
# 6 0.000000 0.000000 0.000000 -0.004290 0.000000 0.035255
#
#
# Mechanical properties :
#
#
# Convention : Reuss Voigt Hill
#
# Bulk Modulus (GPa) = 29.68321 52.43551 41.05936
# Shear Modulus (GPa) = 21.52170 28.97223 25.24696
#
# Velocity S-wave (km/s) = 3.35546 3.89319 3.63428
# Velocity P-wave (km/s) = 5.52640 6.90225 6.25228
#
# Compressibility (1/GPa) = 0.03368908
#
# Stress axis : x y z
#
# Youngs Moduli (GPa) = 63.16951 119.66101 47.27720
#
# Poissons Ratio (x) = 0.24958 -0.06265
# Poissons Ratio (y) = 0.13176 0.23943
# Poissons Ratio (z) = -0.08370 0.60601
#
# Static dielectric constant tensor:
#      x y z
#    x 1.685590 0.000000 0.022490 
#    y 0.000000 1.671480 0.000000 
#    z 0.022490 0.000000 1.637350 
# 
# From -- ./inp_files/267184.got.cif
#   From: 2010.05.17/outbox.cif.g08.bks.cpg/sg12_134_cif.got.tgz:267184.got - 2010.06.03 13:09:07.
