data_PCOD9208791
_publ_section_title
;
Structure prediction by ZEFSAII (Michael W. Deem and Ramdas Pophale) SiO2 
 PCOD9208791
Probable space group: C 2/M
;
_chemical_formula_sum "Si O2"
_cell_formula_units_Z 48
_cell_length_a 26.794996
_cell_length_b 9.242398
_cell_length_c 11.009653
_cell_angle_alpha 90.000000
_cell_angle_beta 67.229346
_cell_angle_gamma 90.000000
_cell_volume 2514.038288
_symmetry_space_group_name_H-M "C 2/M"
_symmetry_group_IT_number 12
_symmetry_cell_setting 'monoclinic'
loop_
_space_group_symop_operation_xyz
x,y,z
-x,y,-z
-x,-y,-z
x,-y,z
1/2+x,1/2+y,z
1/2-x,1/2+y,-z
1/2-x,1/2-y,-z
1/2+x,1/2-y,z
loop_
_atom_site_type_symbol
_atom_site_label
_atom_site_fract_x
_atom_site_fract_y
_atom_site_fract_z
Si Si1 0.541896 0.825775 0.851346
Si Si2 0.350961 0.330338 0.155569
Si Si3 0.861186 0.164814 0.637830
Si Si4 0.244012 0.336803 0.627686
Si Si5 0.308396 0.328398 0.930991
Si Si6 0.959596 0.674081 0.427819
O O1 0.597363 0.746386 0.834723
O O2 0.525927 0.786237 0.726351
O O3 0.549275 0.000000 0.846122
O O4 0.500000 0.790338 0.000000
O O5 0.350613 0.500000 0.188096
O O6 0.297563 0.250933 0.252217
O O7 0.345000 0.317080 0.016330
O O8 0.803152 0.157128 0.629043
O O9 0.845060 0.226425 0.784935
O O10 0.902518 0.256975 0.519844
O O11 0.882347 0.000000 0.631160
O O12 0.224002 0.500000 0.627815
O O13 0.250000 0.250000 0.500000
O O14 0.297172 0.500000 0.919692
O O15 0.250000 0.250000 0.000000
O O16 0.956217 0.500000 0.433517
O O17 0.000000 0.717643 0.500000
#
# Coordination Sequence:
#
# PCOD9208791 Si02
#       6
#     8   8   8   8   8   8
#     4  10  23  43  65  89 120 159 203 252 309 367
#     4  11  23  38  60  90 123 157 200 250 303 364
#     4  10  22  39  59  86 120 157 197 244 300 359
#     4  11  22  37  59  86 120 158 199 246 301 365
#     4  10  21  38  59  89 124 158 201 247 297 358
#     4  10  23  42  63  90 119 153 201 253 302 359
#
# _framework density 19.092789
#
# number of rings (size 3 to 8) (size 9 to 14) (size 15 to 20)
#    0.000    1.667    1.667    2.000    2.333    6.667 
#    0.000    0.000    0.000    0.000    0.000    0.000 
#    0.000    0.000    0.000    0.000    0.000    0.000 
#
# Total GULP energy -133885.968614 kJ/mol
# GULP energy per Si atom -5578.582026 kJ/mol
# Density = 1.904933 g / cm^3
# Si number density = 19.092789 Si / 1000 Ang^3
#
#
#
# Elastic Constant Matrix: (Units=GPa)
#
#
# Indices 1 2 3 4 5 6 
#
# 1 90.4601 33.1250 43.7473 0.0000 5.6152 0.0000
# 2 33.1250 35.9005 43.9949 0.0000 7.9590 0.0000
# 3 43.7473 43.9949 151.3139 0.0000 11.4581 0.0000
# 4 0.0000 0.0000 0.0000 -153.6130 0.0000 -39.5852
# 5 5.6152 7.9590 11.4581 0.0000 29.3821 0.0000
# 6 0.0000 0.0000 0.0000 -39.5852 0.0000 24.2017
#
#
#
# Elastic Compliance Matrix: (Units=1/GPa)
#
#
# Indices 1 2 3 4 5 6 
#
# 1 0.016756 -0.015013 -0.000562 0.000000 0.001083 0.000000
# 2 -0.015013 0.058178 -0.011952 0.000000 -0.008229 0.000000
# 3 -0.000562 -0.011952 0.010297 0.000000 -0.000671 0.000000
# 4 0.000000 0.000000 0.000000 -0.004580 0.000000 -0.007491
# 5 0.001083 -0.008229 -0.000671 0.000000 0.036318 0.000000
# 6 0.000000 0.000000 0.000000 -0.007491 0.000000 0.029068
#
#
# Mechanical properties :
#
#
# Convention : Reuss Voigt Hill
#
# Bulk Modulus (GPa) = 33.13595 57.71212 45.42404
# Shear Modulus (GPa) = 23.67993 -9.55202 7.06395
#
# Velocity S-wave (km/s) = 3.52555 -2.23915 1.92557
# Velocity P-wave (km/s) = 5.82800 4.85878 5.36532
#
# Compressibility (1/GPa) = 0.03017870
#
# Stress axis : x y z
#
# Youngs Moduli (GPa) = 59.67857 17.18866 97.11659
#
# Poissons Ratio (x) = 0.25805 0.05453
# Poissons Ratio (y) = 0.89596 1.16071
# Poissons Ratio (z) = 0.03351 0.20543
#
# Static dielectric constant tensor:
#      x y z
#    x 1.643820 0.000000 0.051490 
#    y 0.000000 1.648460 0.000000 
#    z 0.051490 0.000000 1.692230 
# 
# From -- ./inp_files/179712.got.cif
#   From: 2010.05.17/outbox.cif.g08.bks.cpg/sg12_90_cif.got.tgz:179712.got - 2010.06.03 13:09:07.
