data_PCOD9208426
_publ_section_title
;
Structure prediction by ZEFSAII (Michael W. Deem and Ramdas Pophale) SiO2 
 PCOD9208426
Probable space group: C 2/M
;
_chemical_formula_sum "Si O2"
_cell_formula_units_Z 48
_cell_length_a 24.532723
_cell_length_b 7.418080
_cell_length_c 20.068701
_cell_angle_alpha 90.000000
_cell_angle_beta 145.838537
_cell_angle_gamma 90.000000
_cell_volume 2050.818099
_symmetry_space_group_name_H-M "C 2/M"
_symmetry_group_IT_number 12
_symmetry_cell_setting 'monoclinic'
loop_
_space_group_symop_operation_xyz
x,y,z
-x,y,-z
-x,-y,-z
x,-y,z
1/2+x,1/2+y,z
1/2-x,1/2+y,-z
1/2-x,1/2-y,-z
1/2+x,1/2-y,z
loop_
_atom_site_type_symbol
_atom_site_label
_atom_site_fract_x
_atom_site_fract_y
_atom_site_fract_z
Si Si1 0.306964 0.279561 0.357164
Si Si2 0.528368 0.705835 0.210962
Si Si3 0.128830 0.780462 0.718158
Si Si4 0.440107 0.279520 0.609669
Si Si5 0.804319 0.713820 0.985497
Si Si6 0.909055 0.295930 0.869532
O O1 0.304502 0.500000 0.356462
O O2 0.372944 0.228069 0.360842
O O3 0.352445 0.223141 0.473214
O O4 0.197861 0.215351 0.233650
O O5 0.562701 0.500000 0.240326
O O6 0.562223 0.781391 0.316406
O O7 0.564677 0.802056 0.181655
O O8 0.411253 0.705756 0.093165
O O9 0.230590 0.723160 0.853765
O O10 0.039224 0.721673 0.673030
O O11 0.127202 0.000000 0.718203
O O12 0.442183 0.500000 0.613999
O O13 0.817180 0.500000 0.990777
O O14 0.750000 0.750000 0.000000
O O15 0.900387 0.500000 0.888538
O O16 0.000000 0.210333 0.000000
#
# Coordination Sequence:
#
# PCOD9208426 Si02
#       6
#     8   8   8   8   8   8
#     4   9  17  30  52  78 106 143 183 225 273 320
#     4  11  22  36  54  81 113 145 180 225 274 328
#     4   9  16  29  51  79 109 139 176 225 273 317
#     4   9  17  30  49  79 112 139 178 226 271 324
#     4  11  20  33  54  82 113 144 179 223 272 322
#     4  10  21  38  57  80 108 141 185 233 274 322
#
# _framework density 23.405293
#
# number of rings (size 3 to 8) (size 9 to 14) (size 15 to 20)
#    0.000    2.167    1.667    2.500    0.000    5.667 
#    0.000    0.000    0.000    1.000    0.000    1.167 
#    0.000    0.000    0.000    0.000    0.000    0.000 
#
# Total GULP energy -134178.571371 kJ/mol
# GULP energy per Si atom -5590.773807 kJ/mol
# Density = 2.335202 g / cm^3
# Si number density = 23.405293 Si / 1000 Ang^3
#
#
#
# Elastic Constant Matrix: (Units=GPa)
#
#
# Indices 1 2 3 4 5 6 
#
# 1 101.9564 -4.5150 35.0293 0.0000 -20.1939 0.0000
# 2 -4.5150 81.3739 3.8714 0.0000 -3.6286 0.0000
# 3 35.0293 3.8714 143.6068 0.0000 -26.1545 0.0000
# 4 0.0000 0.0000 0.0000 -1.6126 0.0000 -0.8838
# 5 -20.1939 -3.6286 -26.1545 0.0000 31.6683 0.0000
# 6 0.0000 0.0000 0.0000 -0.8838 0.0000 12.3051
#
#
#
# Elastic Compliance Matrix: (Units=1/GPa)
#
#
# Indices 1 2 3 4 5 6 
#
# 1 0.011666 0.001003 -0.001762 0.000000 0.006099 0.000000
# 2 0.001003 0.012439 -0.000240 0.000000 0.001867 0.000000
# 3 -0.001762 -0.000240 0.008463 0.000000 0.005839 0.000000
# 4 0.000000 0.000000 0.000000 -0.596648 0.000000 -0.042851
# 5 0.006099 0.001867 0.005839 0.000000 0.040502 0.000000
# 6 0.000000 0.000000 0.000000 -0.042851 0.000000 0.078190
#
#
# Mechanical properties :
#
#
# Convention : Reuss Voigt Hill
#
# Bulk Modulus (GPa) = 32.71141 43.96761 38.33951
# Shear Modulus (GPa) = -11.54202 27.97558 8.21678
#
# Velocity S-wave (km/s) = -2.22308 3.46101 1.87571
# Velocity P-wave (km/s) = 2.72341 5.89895 4.59427
#
# Compressibility (1/GPa) = 0.03057038
#
# Stress axis : x y z
#
# Youngs Moduli (GPa) = 85.72058 80.39058 118.16086
#
# Poissons Ratio (x) = -0.08064 0.20819
# Poissons Ratio (y) = -0.08598 0.02836
# Poissons Ratio (z) = 0.15103 0.01930
#
# Static dielectric constant tensor:
#      x y z
#    x 1.775990 0.000000 -0.029410 
#    y 0.000000 1.963110 0.000000 
#    z -0.029410 0.000000 1.855320 
# 
# From -- ./inp_files/327157.got.cif
#   From: 2010.05.17/outbox.cif.g08.bks.cpg/sg12_164_cif.got.tgz:327157.got - 2010.06.03 13:09:07.
