data_PCOD9208825
_publ_section_title
;
Structure prediction by ZEFSAII (Michael W. Deem and Ramdas Pophale) SiO2 
 PCOD9208825
Probable space group: C 2/M
;
_chemical_formula_sum "Si O2"
_cell_formula_units_Z 64
_cell_length_a 30.384990
_cell_length_b 8.886802
_cell_length_c 16.038762
_cell_angle_alpha 90.000000
_cell_angle_beta 132.438764
_cell_angle_gamma 90.000000
_cell_volume 3196.179768
_symmetry_space_group_name_H-M "C 2/M"
_symmetry_group_IT_number 12
_symmetry_cell_setting 'monoclinic'
loop_
_space_group_symop_operation_xyz
x,y,z
-x,y,-z
-x,-y,-z
x,-y,z
1/2+x,1/2+y,z
1/2-x,1/2+y,-z
1/2-x,1/2-y,-z
1/2+x,1/2-y,z
loop_
_atom_site_type_symbol
_atom_site_label
_atom_site_fract_x
_atom_site_fract_y
_atom_site_fract_z
Si Si1 0.993128 0.324789 0.696265
Si Si2 0.106225 0.176151 0.527590
Si Si3 0.569601 0.318966 0.087278
Si Si4 0.314862 0.321122 0.073755
Si Si5 0.905262 0.324674 0.313140
Si Si6 0.401257 0.180394 0.048313
Si Si7 0.665355 0.321793 0.342191
Si Si8 0.207283 0.324594 0.565950
O O1 0.975644 0.500000 0.683034
O O2 0.037079 0.313093 0.672445
O O3 0.034938 0.279646 0.827126
O O4 0.936282 0.224389 0.603393
O O5 0.084958 0.265535 0.581791
O O6 0.173038 0.226557 0.590186
O O7 0.102198 0.000000 0.536859
O O8 0.574172 0.500000 0.083266
O O9 0.605342 0.280152 0.217009
O O10 0.500000 0.278080 0.000000
O O11 0.598948 0.239491 0.045457
O O12 0.311429 0.500000 0.062924
O O13 0.354155 0.272244 0.203545
O O14 0.350107 0.253984 0.039448
O O15 0.250000 0.250000 0.000000
O O16 0.887884 0.500000 0.292327
O O17 0.395951 0.000000 0.046265
O O18 0.663612 0.500000 0.362962
O O19 0.721797 0.302989 0.352011
O O20 0.680435 0.224491 0.442237
O O21 0.195324 0.500000 0.566415
#
# Coordination Sequence:
#
# PCOD9208825 Si02
#       8
#     8   8   8   8   8   8   8   8
#     4   9  20  38  58  81 115 155 192 239 295 350
#     4  12  24  35  55  86 117 151 196 242 289 351
#     4  10  22  39  61  90 123 158 198 249 308 366
#     4  11  22  39  63  89 120 158 200 244 297 356
#     4  10  21  39  59  83 117 153 193 241 292 347
#     4  10  22  40  60  87 121 157 201 248 299 361
#     4   9  20  40  61  84 115 150 192 242 296 356
#     4  10  21  38  60  83 113 154 196 242 297 351
#
# _framework density 20.023904999999999
#
# number of rings (size 3 to 8) (size 9 to 14) (size 15 to 20)
#    0.000    1.875    0.000    4.500    1.750    6.750 
#    0.000    3.750    0.000    0.000    0.000    0.000 
#    0.000    0.000    0.000    0.000    0.000    0.000 
#
# Total GULP energy -178865.345262 kJ/mol
# GULP energy per Si atom -5589.542039 kJ/mol
# Density = 1.997833 g / cm^3
# Si number density = 20.023905 Si / 1000 Ang^3
#
#
#
# Elastic Constant Matrix: (Units=GPa)
#
#
# Indices 1 2 3 4 5 6 
#
# 1 28.1031 15.3795 11.9881 0.0000 10.9464 0.0000
# 2 15.3795 59.0467 11.7699 0.0000 9.4656 0.0000
# 3 11.9881 11.7699 63.0337 0.0000 15.1292 0.0000
# 4 0.0000 0.0000 0.0000 28.2890 0.0000 -2.5899
# 5 10.9464 9.4656 15.1292 0.0000 29.2016 0.0000
# 6 0.0000 0.0000 0.0000 -2.5899 0.0000 27.8630
#
#
#
# Elastic Compliance Matrix: (Units=1/GPa)
#
#
# Indices 1 2 3 4 5 6 
#
# 1 0.047475 -0.009513 -0.004250 0.000000 -0.012511 0.000000
# 2 -0.009513 0.020047 -0.001405 0.000000 -0.002204 0.000000
# 3 -0.004250 -0.001405 0.018779 0.000000 -0.007681 0.000000
# 4 0.000000 0.000000 0.000000 0.035653 0.000000 0.003314
# 5 -0.012511 -0.002204 -0.007681 0.000000 0.043628 0.000000
# 6 0.000000 0.000000 0.000000 0.003314 0.000000 0.036198
#
#
# Mechanical properties :
#
#
# Convention : Reuss Voigt Hill
#
# Bulk Modulus (GPa) = 17.86827 25.38429 21.62628
# Shear Modulus (GPa) = 19.93857 24.47379 22.20618
#
# Velocity S-wave (km/s) = 3.15896 3.49983 3.33375
# Velocity P-wave (km/s) = 4.71680 5.38853 5.06382
#
# Compressibility (1/GPa) = 0.05596514
#
# Stress axis : x y z
#
# Youngs Moduli (GPa) = 21.06365 49.88305 53.25201
#
# Poissons Ratio (x) = 0.47453 0.22632
# Poissons Ratio (y) = 0.20037 0.07482
# Poissons Ratio (z) = 0.08952 0.07008
#
# Static dielectric constant tensor:
#      x y z
#    x 1.707720 0.000000 0.007830 
#    y 0.000000 1.664780 0.000000 
#    z 0.007830 0.000000 1.716970 
# 
# From -- ./inp_files/250103.got.cif
#   From: 2010.05.17/outbox.cif.g08.bks.cpg/sg12_126_cif.got.tgz:250103.got - 2010.06.03 13:09:07.
