data_PCOD9208347
_publ_section_title
;
Structure prediction by ZEFSAII (Michael W. Deem and Ramdas Pophale) SiO2 
 PCOD9208347
Probable space group: C 2/M
;
_chemical_formula_sum "Si O2"
_cell_formula_units_Z 64
_cell_length_a 12.145515
_cell_length_b 26.624276
_cell_length_c 10.603971
_cell_angle_alpha 90.000000
_cell_angle_beta 79.953141
_cell_angle_gamma 90.000000
_cell_volume 3376.377156
_symmetry_space_group_name_H-M "C 2/M"
_symmetry_group_IT_number 12
_symmetry_cell_setting 'monoclinic'
loop_
_space_group_symop_operation_xyz
x,y,z
-x,y,-z
-x,-y,-z
x,-y,z
1/2+x,1/2+y,z
1/2-x,1/2+y,-z
1/2-x,1/2-y,-z
1/2+x,1/2-y,z
loop_
_atom_site_type_symbol
_atom_site_label
_atom_site_fract_x
_atom_site_fract_y
_atom_site_fract_z
Si Si1 0.247834 0.670731 0.066896
Si Si2 0.819732 0.439836 0.573739
Si Si3 0.476570 0.059935 0.298163
Si Si4 0.403006 0.733605 0.873610
Si Si5 0.745143 0.696856 0.316510
Si Si6 0.890126 0.629884 0.095819
Si Si7 0.115121 0.125699 0.535441
Si Si8 0.629650 0.292151 0.726491
O O1 0.156000 0.715377 0.069676
O O2 0.284348 0.675875 0.204157
O O3 0.355958 0.688689 0.967865
O O4 0.197480 0.623107 0.003297
O O5 0.807111 0.500000 0.587167
O O6 0.890094 0.430266 0.430646
O O7 0.700048 0.413561 0.582620
O O8 0.901916 0.422933 0.671942
O O9 0.432413 0.085845 0.180108
O O10 0.481986 0.000000 0.280040
O O11 0.352011 0.722310 0.746434
O O12 0.534902 0.732242 0.833866
O O13 0.827811 0.668115 0.202924
O O14 0.691339 0.656883 0.421010
O O15 0.812889 0.745026 0.354329
O O16 0.000000 0.647017 0.000000
O O17 0.078041 0.167964 0.642382
O O18 0.000000 0.104439 0.500000
#
# Coordination Sequence:
#
# PCOD9208347 Si02
#       8
#     8   8   8   8   8   8   8   8
#     4   9  20  32  53  77 110 151 199 231 277 327
#     4   9  20  41  65  87 112 148 191 237 304 365
#     4   9  19  39  65  89 118 146 179 243 308 358
#     4   9  17  35  52  72 108 158 198 237 266 329
#     4  10  21  38  50  81 119 156 195 241 285 339
#     4  11  21  34  58  86 116 147 196 235 284 350
#     4  12  23  38  59  84 115 152 195 246 293 344
#     4  11  21  34  55  76 117 156 198 235 288 332
#
# _framework density 18.955228999999999
#
# number of rings (size 3 to 8) (size 9 to 14) (size 15 to 20)
#    0.000    2.000    2.500    3.000    1.750    0.500 
#    0.000    0.000    0.000    0.000    0.000    0.000 
#    0.000    7.250    0.000    0.000    0.000    0.000 
#
# Total GULP energy -178161.502814 kJ/mol
# GULP energy per Si atom -5567.546963 kJ/mol
# Density = 1.891209 g / cm^3
# Si number density = 18.955229 Si / 1000 Ang^3
#
#
#
# Elastic Constant Matrix: (Units=GPa)
#
#
# Indices 1 2 3 4 5 6 
#
# 1 111.7573 42.4092 22.3326 0.0000 -0.2827 0.0000
# 2 42.4092 45.0841 15.7032 0.0000 7.2774 0.0000
# 3 22.3326 15.7032 54.5286 0.0000 -4.5296 0.0000
# 4 0.0000 0.0000 0.0000 21.6752 0.0000 8.8751
# 5 -0.2827 7.2774 -4.5296 0.0000 25.2067 0.0000
# 6 0.0000 0.0000 0.0000 8.8751 0.0000 25.3880
#
#
#
# Elastic Compliance Matrix: (Units=1/GPa)
#
#
# Indices 1 2 3 4 5 6 
#
# 1 0.014469 -0.013637 -0.001683 0.000000 0.003797 0.000000
# 2 -0.013637 0.039452 -0.006837 0.000000 -0.012772 0.000000
# 3 -0.001683 -0.006837 0.021480 0.000000 0.005815 0.000000
# 4 0.000000 0.000000 0.000000 0.053843 0.000000 -0.018822
# 5 0.003797 -0.012772 0.005815 0.000000 0.044447 0.000000
# 6 0.000000 0.000000 0.000000 -0.018822 0.000000 0.045969
#
#
# Mechanical properties :
#
#
# Convention : Reuss Voigt Hill
#
# Bulk Modulus (GPa) = 32.16855 41.36221 36.76538
# Shear Modulus (GPa) = 18.22584 23.18229 20.70406
#
# Velocity S-wave (km/s) = 3.10420 3.50094 3.30852
# Velocity P-wave (km/s) = 5.46404 6.18146 5.83379
#
# Compressibility (1/GPa) = 0.03108626
#
# Stress axis : x y z
#
# Youngs Moduli (GPa) = 69.11403 25.34748 46.55410
#
# Poissons Ratio (x) = 0.34566 0.07836
# Poissons Ratio (y) = 0.94251 0.31829
# Poissons Ratio (z) = 0.11634 0.17330
#
# Static dielectric constant tensor:
#      x y z
#    x 1.703700 0.000000 0.029210 
#    y 0.000000 1.641100 0.000000 
#    z 0.029210 0.000000 1.699930 
# 
# From -- ./inp_files/136652.got.cif
#   From: 2010.05.17/outbox.cif.g08.bks.cpg/sg12_69_cif.got.tgz:136652.got - 2010.06.03 13:09:07.
