data_PCOD9208888
_publ_section_title
;
Structure prediction by ZEFSAII (Michael W. Deem and Ramdas Pophale) SiO2 
 PCOD9208888
Probable space group: C 2/M
;
_chemical_formula_sum "Si O2"
_cell_formula_units_Z 64
_cell_length_a 30.072245
_cell_length_b 7.999489
_cell_length_c 14.687485
_cell_angle_alpha 90.000000
_cell_angle_beta 48.360128
_cell_angle_gamma 90.000000
_cell_volume 2640.531598
_symmetry_space_group_name_H-M "C 2/M"
_symmetry_group_IT_number 12
_symmetry_cell_setting 'monoclinic'
loop_
_space_group_symop_operation_xyz
x,y,z
-x,y,-z
-x,-y,-z
x,-y,z
1/2+x,1/2+y,z
1/2-x,1/2+y,-z
1/2-x,1/2-y,-z
1/2+x,1/2-y,z
loop_
_atom_site_type_symbol
_atom_site_label
_atom_site_fract_x
_atom_site_fract_y
_atom_site_fract_z
Si Si1 0.632270 0.795287 0.210513
Si Si2 0.690278 0.806928 0.309196
Si Si3 0.886278 0.309335 0.200945
Si Si4 0.745405 0.700804 0.610608
Si Si5 0.999539 0.298722 0.605383
Si Si6 0.571249 0.692892 0.034499
Si Si7 0.052796 0.801978 0.711057
Si Si8 0.194286 0.304395 0.949418
O O1 0.646428 0.733816 0.292975
O O2 0.566090 0.746120 0.271203
O O3 0.633553 0.000000 0.210347
O O4 0.680729 0.743328 0.070512
O O5 0.703374 0.733838 0.390929
O O6 0.754572 0.797225 0.171194
O O7 0.672016 0.000000 0.346584
O O8 0.899952 0.500000 0.162764
O O9 0.818072 0.269947 0.271726
O O10 0.926636 0.202762 0.077955
O O11 0.897282 0.275735 0.292470
O O12 0.744524 0.500000 0.619029
O O13 0.750000 0.750000 0.500000
O O14 0.002877 0.500000 0.599860
O O15 0.048621 0.239015 0.610092
O O16 0.000000 0.242598 0.500000
O O17 0.577419 0.500000 0.053936
O O18 0.629772 0.787841 0.989750
O O19 0.509680 0.758967 0.159262
O O20 0.056590 0.000000 0.716858
O O21 0.211541 0.500000 0.926028
#
# Coordination Sequence:
#
# PCOD9208888 Si02
#       8
#     8   8   8   8   8   8   8   8
#     4   9  19  36  58  88 121 155 197 246 300 360
#     4  10  21  38  60  85 121 162 199 246 303 362
#     4  12  25  41  65  93 124 160 204 255 311 370
#     4  11  24  42  64  89 123 164 210 257 304 359
#     4  10  21  39  63  89 121 161 207 256 303 359
#     4  11  22  38  61  90 125 162 199 246 310 375
#     4  11  24  41  63  91 126 163 204 253 309 373
#     4  11  20  33  59  89 121 155 196 248 300 364
#
# _framework density 24.237542999999999
#
# number of rings (size 3 to 8) (size 9 to 14) (size 15 to 20)
#    0.000    1.375    2.500    3.375    0.000    4.750 
#    0.000    3.750    0.000    0.000    0.000    0.000 
#    0.000    0.000    0.000    0.000    0.000    0.000 
#
# Total GULP energy -179007.401264 kJ/mol
# GULP energy per Si atom -5593.981290 kJ/mol
# Density = 2.418238 g / cm^3
# Si number density = 24.237543 Si / 1000 Ang^3
#
#
#
# Elastic Constant Matrix: (Units=GPa)
#
#
# Indices 1 2 3 4 5 6 
#
# 1 141.1826 -0.3797 2.9045 0.0001 30.2868 -0.0005
# 2 -0.3797 45.1998 -7.9478 0.0001 0.3959 -0.0013
# 3 2.9045 -7.9478 59.5217 0.0000 25.2002 0.0000
# 4 0.0001 0.0001 0.0000 18.9220 0.0000 7.7000
# 5 30.2868 0.3959 25.2002 0.0000 45.5780 0.0000
# 6 -0.0005 -0.0013 0.0000 7.7000 0.0000 20.5564
#
#
#
# Elastic Compliance Matrix: (Units=1/GPa)
#
#
# Indices 1 2 3 4 5 6 
#
# 1 0.008574 0.000612 0.002713 0.000000 -0.007203 0.000000
# 2 0.000612 0.022910 0.004290 -0.000001 -0.002978 0.000002
# 3 0.002713 0.004290 0.023527 0.000000 -0.014848 0.000000
# 4 0.000000 -0.000001 0.000000 0.062353 0.000000 -0.023356
# 5 -0.007203 -0.002978 -0.014848 0.000000 0.034962 0.000000
# 6 0.000000 0.000002 0.000000 -0.023356 0.000000 0.057396
#
#
# Mechanical properties :
#
#
# Convention : Reuss Voigt Hill
#
# Bulk Modulus (GPa) = 14.23678 26.11757 20.17718
# Shear Modulus (GPa) = 22.94569 33.76641 28.35605
#
# Velocity S-wave (km/s) = 3.08019 3.73654 3.42412
# Velocity P-wave (km/s) = 4.30542 5.42353 4.89650
#
# Compressibility (1/GPa) = 0.07024058
#
# Stress axis : x y z
#
# Youngs Moduli (GPa) = 116.63163 43.64996 42.50350
#
# Poissons Ratio (x) = -0.02672 -0.11530
# Poissons Ratio (y) = -0.07139 -0.18233
# Poissons Ratio (z) = -0.31640 -0.18725
#
# Static dielectric constant tensor:
#      x y z
#    x 1.943690 0.000000 0.043920 
#    y 0.000000 1.863150 0.000000 
#    z 0.043920 0.000000 1.960020 
# 
# From -- ./inp_files/249664.got.cif
#   From: 2010.05.17/outbox.cif.g08.bks.cpg/sg12_125_cif.got.tgz:249664.got - 2010.06.03 13:09:07.
