data_PCOD9208704
_publ_section_title
;
Structure prediction by ZEFSAII (Michael W. Deem and Ramdas Pophale) SiO2 
 PCOD9208704
Probable space group: C 2/M
;
_chemical_formula_sum "Si O2"
_cell_formula_units_Z 42
_cell_length_a 10.454021
_cell_length_b 7.739353
_cell_length_c 30.977653
_cell_angle_alpha 90.000000
_cell_angle_beta 132.058098
_cell_angle_gamma 90.000000
_cell_volume 1860.857309
_symmetry_space_group_name_H-M "C 2/M"
_symmetry_group_IT_number 12
_symmetry_cell_setting 'monoclinic'
loop_
_space_group_symop_operation_xyz
x,y,z
-x,y,-z
-x,-y,-z
x,-y,z
1/2+x,1/2+y,z
1/2-x,1/2+y,-z
1/2-x,1/2-y,-z
1/2+x,1/2-y,z
loop_
_atom_site_type_symbol
_atom_site_label
_atom_site_fract_x
_atom_site_fract_y
_atom_site_fract_z
Si Si1 0.375923 0.203950 0.737189
Si Si2 0.192633 0.207833 0.535275
Si Si3 0.103119 0.801161 0.868756
Si Si4 0.500000 0.500000 0.000000
Si Si5 0.993878 0.697740 0.936699
Si Si6 0.985460 0.290317 0.667544
O O1 0.468397 0.283821 0.799463
O O2 0.450156 0.269492 0.708454
O O3 0.171824 0.233434 0.693318
O O4 0.410497 0.000000 0.747101
O O5 0.250000 0.250000 0.500000
O O6 0.333477 0.271044 0.601545
O O7 0.000000 0.274597 0.500000
O O8 0.187378 0.000000 0.538541
O O9 0.044977 0.703634 0.898266
O O10 0.291183 0.748595 0.894281
O O11 0.114274 0.000000 0.884115
O O12 0.577340 0.345167 0.985235
O O13 0.016248 0.500000 0.956521
O O14 0.983005 0.500000 0.667254
#
# Coordination Sequence:
#
# PCOD9208704 Si02
#       6
#     8   8   8   2   8   8
#     4  11  23  38  64  92 123 163 208 266 318 383
#     4  10  21  38  59  84 120 164 208 260 317 380
#     4  11  24  45  68  98 133 172 216 267 332 389
#     4  12  26  48  72 100 140 180 214 278 322 374
#     4  11  26  46  70 102 134 176 222 268 324 397
#     4  10  22  39  58  89 124 162 209 260 321 381
#
# _framework density 22.570242
#
# number of rings (size 3 to 8) (size 9 to 14) (size 15 to 20)
#    0.000    1.333    0.952    3.714    2.667    8.000 
#    0.000    0.000    0.000    0.000    0.000    0.000 
#    0.000    0.000    0.000    0.000    0.000    0.000 
#
# Total GULP energy -117304.966225 kJ/mol
# GULP energy per Si atom -5585.950773 kJ/mol
# Density = 2.251887 g / cm^3
# Si number density = 22.570242 Si / 1000 Ang^3
#
#
#
# Elastic Constant Matrix: (Units=GPa)
#
#
# Indices 1 2 3 4 5 6 
#
# 1 102.2275 6.5239 9.6807 0.0000 -9.6845 0.0000
# 2 6.5239 68.7163 3.4468 0.0000 -11.4994 0.0000
# 3 9.6807 3.4468 87.6208 0.0000 -7.7956 0.0000
# 4 0.0000 0.0000 0.0000 1.2442 0.0000 -18.6437
# 5 -9.6845 -11.4994 -7.7956 0.0000 48.2546 0.0000
# 6 0.0000 0.0000 0.0000 -18.6437 0.0000 19.9972
#
#
#
# Elastic Compliance Matrix: (Units=1/GPa)
#
#
# Indices 1 2 3 4 5 6 
#
# 1 0.010073 -0.000621 -0.000935 0.000000 0.001723 0.000000
# 2 -0.000621 0.015202 -0.000221 0.000000 0.003462 0.000000
# 3 -0.000935 -0.000221 0.011671 0.000000 0.001645 0.000000
# 4 0.000000 0.000000 0.000000 -0.061967 0.000000 -0.057773
# 5 0.001723 0.003462 0.001645 0.000000 0.022160 0.000000
# 6 0.000000 0.000000 0.000000 -0.057773 0.000000 -0.003855
#
#
# Mechanical properties :
#
#
# Convention : Reuss Voigt Hill
#
# Bulk Modulus (GPa) = 29.94806 33.09641 31.52224
# Shear Modulus (GPa) = 627.29221 29.82673 328.55947
#
# Velocity S-wave (km/s) = 16.68929 3.63920 12.07841
# Velocity P-wave (km/s) = 19.61311 5.68805 14.44001
#
# Compressibility (1/GPa) = 0.03339114
#
# Stress axis : x y z
#
# Youngs Moduli (GPa) = 99.27038 65.78055 85.68088
#
# Poissons Ratio (x) = 0.04086 0.08013
# Poissons Ratio (y) = 0.06167 0.01897
# Poissons Ratio (z) = 0.09284 0.01456
#
# Static dielectric constant tensor:
#      x y z
#    x 1.834190 0.000000 0.029440 
#    y 0.000000 1.844990 0.000000 
#    z 0.029440 0.000000 1.820050 
# 
# From -- ./inp_files/303691.got.cif
#   From: 2010.05.17/outbox.cif.g08.bks.cpg/sg12_152_cif.got.tgz:303691.got - 2010.06.03 13:09:07.
