data_PCOD9208663
_publ_section_title
;
Structure prediction by ZEFSAII (Michael W. Deem and Ramdas Pophale) SiO2 
 PCOD9208663
Probable space group: C 2/M
;
_chemical_formula_sum "Si O2"
_cell_formula_units_Z 56
_cell_length_a 20.846508
_cell_length_b 8.711508
_cell_length_c 20.674715
_cell_angle_alpha 90.000000
_cell_angle_beta 128.208141
_cell_angle_gamma 90.000000
_cell_volume 2950.265418
_symmetry_space_group_name_H-M "C 2/M"
_symmetry_group_IT_number 12
_symmetry_cell_setting 'monoclinic'
loop_
_space_group_symop_operation_xyz
x,y,z
-x,y,-z
-x,-y,-z
x,-y,z
1/2+x,1/2+y,z
1/2-x,1/2+y,-z
1/2-x,1/2-y,-z
1/2+x,1/2-y,z
loop_
_atom_site_type_symbol
_atom_site_label
_atom_site_fract_x
_atom_site_fract_y
_atom_site_fract_z
Si Si1 0.245706 0.185068 0.810263
Si Si2 0.442726 0.316081 0.279976
Si Si3 0.954639 0.685362 0.537594
Si Si4 0.983367 0.684117 0.164329
Si Si5 0.840482 0.815975 0.747343
Si Si6 0.316953 0.814838 0.992486
Si Si7 0.732065 0.815149 0.559314
O O1 0.150610 0.225893 0.760486
O O2 0.285517 0.260770 0.772626
O O3 0.293757 0.231580 0.905323
O O4 0.250633 0.000000 0.807171
O O5 0.447545 0.500000 0.277556
O O6 0.501784 0.257987 0.373299
O O7 0.466815 0.243898 0.226416
O O8 0.959942 0.500000 0.546056
O O9 0.859468 0.728438 0.476588
O O10 0.000000 0.732000 0.500000
O O11 0.986727 0.500000 0.167076
O O12 0.068895 0.748919 0.192817
O O13 0.906670 0.732411 0.072136
O O14 0.797324 0.764307 0.653614
O O15 0.844219 0.000000 0.749263
O O16 0.312827 0.000000 0.992424
O O17 0.250000 0.750000 0.000000
O O18 0.750000 0.750000 0.500000
O O19 0.735223 0.000000 0.558158
#
# Coordination Sequence:
#
# PCOD9208663 Si02
#       7
#     8   8   8   8   8   8   8
#     4  10  22  40  61  87 122 159 195 243 298 353
#     4  11  22  37  60  89 120 154 198 249 297 352
#     4  10  21  38  59  83 114 152 198 248 297 353
#     4  11  23  39  62  89 119 157 198 242 296 355
#     4  11  24  41  61  88 121 157 200 247 297 354
#     4  10  21  39  63  90 120 156 198 243 293 352
#     4  10  22  39  59  83 113 153 196 241 293 349
#
# _framework density 18.981342000000001
#
# number of rings (size 3 to 8) (size 9 to 14) (size 15 to 20)
#    0.000    1.571    1.429    3.000    0.000    8.286 
#    0.000    2.857    0.000    0.000    0.000    0.000 
#    0.000    0.000    0.000    0.000    0.000    0.000 
#
# Total GULP energy -156536.351695 kJ/mol
# GULP energy per Si atom -5590.583989 kJ/mol
# Density = 1.893814 g / cm^3
# Si number density = 18.981342 Si / 1000 Ang^3
#
#
#
# Elastic Constant Matrix: (Units=GPa)
#
#
# Indices 1 2 3 4 5 6 
#
# 1 71.3050 14.9869 -6.7458 0.0000 8.1809 0.0000
# 2 14.9869 19.5075 11.8404 0.0000 6.1279 0.0000
# 3 -6.7458 11.8404 84.4327 0.0000 10.1198 0.0000
# 4 0.0000 0.0000 0.0000 21.1644 0.0000 0.5724
# 5 8.1809 6.1279 10.1198 0.0000 36.0084 0.0000
# 6 0.0000 0.0000 0.0000 0.5724 0.0000 36.7979
#
#
#
# Elastic Compliance Matrix: (Units=1/GPa)
#
#
# Indices 1 2 3 4 5 6 
#
# 1 0.017902 -0.015308 0.003883 0.000000 -0.002553 0.000000
# 2 -0.015308 0.071197 -0.010527 0.000000 -0.005680 0.000000
# 3 0.003883 -0.010527 0.013993 0.000000 -0.003023 0.000000
# 4 0.000000 0.000000 0.000000 0.047269 0.000000 -0.000735
# 5 -0.002553 -0.005680 -0.003023 0.000000 0.030168 0.000000
# 6 0.000000 0.000000 0.000000 -0.000735 0.000000 0.027187
#
#
# Mechanical properties :
#
#
# Convention : Reuss Voigt Hill
#
# Bulk Modulus (GPa) = 16.89537 23.93425 20.41481
# Shear Modulus (GPa) = 18.42653 29.13838 23.78246
#
# Velocity S-wave (km/s) = 3.11910 3.92229 3.54353
# Velocity P-wave (km/s) = 4.67890 5.75754 5.24601
#
# Compressibility (1/GPa) = 0.05918780
#
# Stress axis : x y z
#
# Youngs Moduli (GPa) = 55.85943 14.04558 71.46670
#
# Poissons Ratio (x) = 0.21501 -0.27751
# Poissons Ratio (y) = 0.85511 0.75230
# Poissons Ratio (z) = -0.21691 0.14785
#
# Static dielectric constant tensor:
#      x y z
#    x 1.620570 0.000000 0.013200 
#    y 0.000000 1.641300 0.000000 
#    z 0.013200 0.000000 1.643550 
# 
# From -- ./inp_files/320220.got.cif
#   From: 2010.05.17/outbox.cif.g08.bks.cpg/sg12_161_cif.got.tgz:320220.got - 2010.06.03 13:09:07.
