data_PCOD9208385
_publ_section_title
;
Structure prediction by ZEFSAII (Michael W. Deem and Ramdas Pophale) SiO2 
 PCOD9208385
Probable space group: C 2/M
;
_chemical_formula_sum "Si O2"
_cell_formula_units_Z 64
_cell_length_a 20.951330
_cell_length_b 7.562738
_cell_length_c 19.379536
_cell_angle_alpha 90.000000
_cell_angle_beta 92.087890
_cell_angle_gamma 90.000000
_cell_volume 3068.637659
_symmetry_space_group_name_H-M "C 2/M"
_symmetry_group_IT_number 12
_symmetry_cell_setting 'monoclinic'
loop_
_space_group_symop_operation_xyz
x,y,z
-x,y,-z
-x,-y,-z
x,-y,z
1/2+x,1/2+y,z
1/2-x,1/2+y,-z
1/2-x,1/2-y,-z
1/2+x,1/2-y,z
loop_
_atom_site_type_symbol
_atom_site_label
_atom_site_fract_x
_atom_site_fract_y
_atom_site_fract_z
Si Si1 0.058798 0.203179 0.544550
Si Si2 0.984433 0.703531 0.307974
Si Si3 0.369655 0.293583 0.206980
Si Si4 0.299794 0.287786 0.441841
Si Si5 0.388548 0.783323 0.762847
Si Si6 0.250547 0.716217 0.291037
Si Si7 0.581070 0.213192 0.935266
Si Si8 0.933450 0.715470 0.913421
O O1 0.129291 0.283325 0.539676
O O2 0.000000 0.284858 0.500000
O O3 0.041525 0.203991 0.624715
O O4 0.064000 0.000000 0.519965
O O5 0.994942 0.500000 0.328306
O O6 0.050815 0.774662 0.280192
O O7 0.930922 0.708258 0.246234
O O8 0.374618 0.500000 0.224476
O O9 0.303935 0.227943 0.237778
O O10 0.374492 0.273026 0.125194
O O11 0.305851 0.500000 0.435219
O O12 0.250000 0.250000 0.500000
O O13 0.273569 0.223844 0.367216
O O14 0.320624 0.725619 0.730728
O O15 0.399362 0.726339 0.842352
O O16 0.389941 0.000000 0.762818
O O17 0.248903 0.500000 0.290929
O O18 0.508031 0.268764 0.915963
O O19 0.581531 0.000000 0.935024
O O20 0.595251 0.272039 0.014023
O O21 0.933085 0.500000 0.913318
#
# Coordination Sequence:
#
# PCOD9208385 Si02
#       8
#     8   8   8   8   8   8   8   8
#     4  10  22  40  58  78 111 146 173 209 266 326
#     4  11  21  34  58  84 105 132 180 233 260 296
#     4  11  20  34  54  77 108 145 176 211 264 322
#     4  10  21  38  56  77 106 142 177 212 257 313
#     4   9  17  31  53  80 103 133 177 223 264 305
#     4   9  19  35  53  73 105 141 174 210 259 321
#     4   9  16  29  51  78 104 135 177 221 260 305
#     4   8  14  27  49  76 106 134 170 220 268 308
#
# _framework density 20.856161
#
# number of rings (size 3 to 8) (size 9 to 14) (size 15 to 20)
#    0.000    2.375    2.500    1.500    1.750    0.750 
#    0.000    1.875    0.000    3.000    0.000    0.000 
#    0.000    0.000    0.000    0.000    0.000    0.000 
#
# Total GULP energy -178657.099452 kJ/mol
# GULP energy per Si atom -5583.034358 kJ/mol
# Density = 2.080869 g / cm^3
# Si number density = 20.856161 Si / 1000 Ang^3
#
#
#
# Elastic Constant Matrix: (Units=GPa)
#
#
# Indices 1 2 3 4 5 6 
#
# 1 187.1369 4.2075 85.2437 0.0000 -8.6120 0.0000
# 2 4.2075 48.2559 -3.8870 0.0000 4.1464 0.0000
# 3 85.2437 -3.8870 120.2212 0.0000 -18.7361 0.0000
# 4 0.0000 0.0000 0.0000 14.9362 0.0000 -2.5592
# 5 -8.6120 4.1464 -18.7361 0.0000 36.0568 0.0000
# 6 0.0000 0.0000 0.0000 -2.5592 0.0000 -9.1905
#
#
#
# Elastic Compliance Matrix: (Units=1/GPa)
#
#
# Indices 1 2 3 4 5 6 
#
# 1 0.007990 -0.001082 -0.005858 0.000000 -0.001011 0.000000
# 2 -0.001082 0.021088 0.001121 0.000000 -0.002101 0.000000
# 3 -0.005858 0.001121 0.013351 0.000000 0.005409 0.000000
# 4 0.000000 0.000000 0.000000 0.063903 0.000000 -0.017795
# 5 -0.001011 -0.002101 0.005409 0.000000 0.030545 0.000000
# 6 0.000000 0.000000 0.000000 -0.017795 0.000000 -0.103853
#
#
# Mechanical properties :
#
#
# Convention : Reuss Voigt Hill
#
# Bulk Modulus (GPa) = 32.47543 58.52695 45.50119
# Shear Modulus (GPa) = 91.03676 26.36382 58.70029
#
# Velocity S-wave (km/s) = 6.61397 3.55924 5.31097
# Velocity P-wave (km/s) = 8.59832 6.70925 7.71185
#
# Compressibility (1/GPa) = 0.03079251
#
# Stress axis : x y z
#
# Youngs Moduli (GPa) = 125.16009 47.42034 74.90203
#
# Poissons Ratio (x) = 0.05129 0.43876
# Poissons Ratio (y) = 0.13537 -0.08399
# Poissons Ratio (z) = 0.73316 -0.05317
#
# Static dielectric constant tensor:
#      x y z
#    x 1.725710 0.000000 0.000940 
#    y 0.000000 1.793910 0.000000 
#    z 0.000940 0.000000 1.722660 
# 
# From -- ./inp_files/314066.got.cif
#   From: 2010.05.17/outbox.cif.g08.bks.cpg/sg12_158_cif.got.tgz:314066.got - 2010.06.03 13:09:07.
