data_PCOD9208342
_publ_section_title
;
Structure prediction by ZEFSAII (Michael W. Deem and Ramdas Pophale) SiO2 
 PCOD9208342
Probable space group: C 2/M
;
_chemical_formula_sum "Si O2"
_cell_formula_units_Z 32
_cell_length_a 9.441296
_cell_length_b 17.129187
_cell_length_c 14.494448
_cell_angle_alpha 90.000000
_cell_angle_beta 146.646480
_cell_angle_gamma 90.000000
_cell_volume 1288.775858
_symmetry_space_group_name_H-M "C 2/M"
_symmetry_group_IT_number 12
_symmetry_cell_setting 'monoclinic'
loop_
_space_group_symop_operation_xyz
x,y,z
-x,y,-z
-x,-y,-z
x,-y,z
1/2+x,1/2+y,z
1/2-x,1/2+y,-z
1/2-x,1/2-y,-z
1/2+x,1/2-y,z
loop_
_atom_site_type_symbol
_atom_site_label
_atom_site_fract_x
_atom_site_fract_y
_atom_site_fract_z
Si Si1 0.179607 0.000000 0.006354
Si Si2 0.476820 0.909750 0.290386
Si Si3 0.247897 0.190150 0.308233
Si Si4 0.202474 0.000000 0.814720
Si Si5 0.506710 0.340021 0.645201
O O1 0.068532 0.000000 0.843635
O O2 0.367961 0.074356 0.128764
O O3 0.000000 0.000000 0.000000
O O4 0.246701 0.868761 0.222403
O O5 0.730133 0.856713 0.444704
O O6 0.532259 0.000000 0.353192
O O7 0.500000 0.160056 0.500000
O O8 0.324792 0.274951 0.312872
O O9 0.035470 0.187815 0.271650
O O10 0.129973 0.924107 0.719055
O O11 0.500000 0.000000 0.000000
#
# Coordination Sequence:
#
# PCOD9208342 Si02
#       5
#     4   8   8   4   8
#     4  10  21  40  63  96 132 170 218 260 313 388
#     4   9  19  37  68  98 124 167 221 265 323 371
#     4  10  21  37  69  99 131 158 217 272 325 376
#     4  12  27  44  65  96 132 174 216 266 321 390
#     4  11  23  44  66  98 130 169 215 271 324 384
#
# _framework density 24.829764999999998
#
# number of rings (size 3 to 8) (size 9 to 14) (size 15 to 20)
#    0.750    1.000    1.250    4.500    1.750    5.500 
#    0.000    8.125    0.000    0.000    0.000    0.000 
#    0.000    0.000    0.000    0.000    0.000    0.000 
#
# Total GULP energy -89356.504042 kJ/mol
# GULP energy per Si atom -5584.781503 kJ/mol
# Density = 2.477325 g / cm^3
# Si number density = 24.829765 Si / 1000 Ang^3
#
#
#
# Elastic Constant Matrix: (Units=GPa)
#
#
# Indices 1 2 3 4 5 6 
#
# 1 103.4380 44.1008 -3.2659 0.0008 7.9590 0.0001
# 2 44.1008 151.2144 8.8215 0.0032 0.6017 0.0005
# 3 -3.2659 8.8215 45.0271 0.0196 -2.8896 0.0049
# 4 0.0008 0.0032 0.0196 11.4966 0.0056 -20.9991
# 5 7.9590 0.6017 -2.8896 0.0056 30.7875 0.0009
# 6 0.0001 0.0005 0.0049 -20.9991 0.0009 32.7561
#
#
#
# Elastic Compliance Matrix: (Units=1/GPa)
#
#
# Indices 1 2 3 4 5 6 
#
# 1 0.011361 -0.003379 0.001310 0.000005 -0.002748 0.000003
# 2 -0.003379 0.007696 -0.001717 -0.000006 0.000562 -0.000003
# 3 0.001310 -0.001717 0.022758 0.000266 0.001831 0.000167
# 4 0.000005 -0.000006 0.000266 -0.508810 0.000125 -0.326184
# 5 -0.002748 0.000562 0.001831 0.000125 0.033352 0.000079
# 6 0.000003 -0.000003 0.000167 -0.326184 0.000079 -0.178580
#
#
# Mechanical properties :
#
#
# Convention : Reuss Voigt Hill
#
# Bulk Modulus (GPa) = 29.20314 44.33250 36.76782
# Shear Modulus (GPa) = -8.42835 31.67624 11.62395
#
# Velocity S-wave (km/s) = -1.84440 3.57562 2.16601
# Velocity P-wave (km/s) = 2.69279 5.91101 4.59299
#
# Compressibility (1/GPa) = 0.03424289
#
# Stress axis : x y z
#
# Youngs Moduli (GPa) = 88.02050 129.92967 43.94142
#
# Poissons Ratio (x) = 0.43901 -0.05755
# Poissons Ratio (y) = 0.29741 0.07544
# Poissons Ratio (z) = -0.11528 0.22307
#
# Static dielectric constant tensor:
#      x y z
#    x 2.115400 0.000000 0.028220 
#    y 0.000000 1.943560 0.000000 
#    z 0.028220 0.000000 2.021090 
# 
# From -- ./inp_files/263479.got.cif
#   From: 2010.05.17/outbox.cif.g08.bks.cpg/sg12_132_cif.got.tgz:263479.got - 2010.06.03 13:09:07.
