data_PCOD9208098
_publ_section_title
;
Structure prediction by ZEFSAII (Michael W. Deem and Ramdas Pophale) SiO2 
 PCOD9208098
Probable space group: C 2/M
;
_chemical_formula_sum "Si O2"
_cell_formula_units_Z 52
_cell_length_a 5.207377
_cell_length_b 25.204171
_cell_length_c 19.513126
_cell_angle_alpha 90.000000
_cell_angle_beta 82.451260
_cell_angle_gamma 90.000000
_cell_volume 2538.855919
_symmetry_space_group_name_H-M "C 2/M"
_symmetry_group_IT_number 12
_symmetry_cell_setting 'monoclinic'
loop_
_space_group_symop_operation_xyz
x,y,z
-x,y,-z
-x,-y,-z
x,-y,z
1/2+x,1/2+y,z
1/2-x,1/2+y,-z
1/2-x,1/2-y,-z
1/2+x,1/2-y,z
loop_
_atom_site_type_symbol
_atom_site_label
_atom_site_fract_x
_atom_site_fract_y
_atom_site_fract_z
Si Si1 0.346896 0.562733 0.770011
Si Si2 0.191806 0.402032 0.151946
Si Si3 0.409557 0.217170 0.682467
Si Si4 0.273400 0.000000 0.952632
Si Si5 0.465134 0.124929 0.426143
Si Si6 0.985271 0.061594 0.394141
Si Si7 0.141013 0.284201 0.152064
O O1 0.350009 0.500000 0.787900
O O2 0.554256 0.592709 0.809820
O O3 0.429934 0.567306 0.688334
O O4 0.062775 0.585477 0.793936
O O5 0.204447 0.447949 0.095124
O O6 0.172058 0.343179 0.121971
O O7 0.631254 0.261835 0.667577
O O8 0.493665 0.166910 0.635620
O O9 0.391478 0.206681 0.764466
O O10 0.500000 0.000000 0.000000
O O11 0.000000 0.000000 0.000000
O O12 0.500000 0.150213 0.500000
O O13 0.188334 0.097055 0.428543
O O14 0.692669 0.081496 0.411758
O O15 0.007545 0.000000 0.412235
O O16 0.391134 0.247249 0.134814
#
# Coordination Sequence:
#
# PCOD9208098 Si02
#       7
#     8   8   8   4   8   8   8
#     4  11  20  36  61  95 121 153 208 263 335 370
#     4  12  22  40  67  94 135 169 207 259 299 379
#     4  10  21  38  60  86 116 150 198 262 324 370
#     4  12  26  44  66 100 142 180 211 238 295 356
#     4  12  25  40  57  81 115 164 215 253 311 392
#     4  11  24  39  59  85 118 155 201 267 319 379
#     4  10  21  37  61  94 123 159 207 265 326 366
#
# _framework density 20.481667000000002
#
# number of rings (size 3 to 8) (size 9 to 14) (size 15 to 20)
#    0.000    0.923    1.538    6.462    0.000    7.385 
#    0.000    0.000    0.000    2.769    0.000    0.000 
#    0.000    0.000    0.000    0.000    0.000    0.000 
#
# Total GULP energy -145539.970301 kJ/mol
# GULP energy per Si atom -5597.691165 kJ/mol
# Density = 2.043505 g / cm^3
# Si number density = 20.481667 Si / 1000 Ang^3
#
#
#
# Elastic Constant Matrix: (Units=GPa)
#
#
# Indices 1 2 3 4 5 6 
#
# 1 83.2676 16.3804 10.7911 0.0000 -11.7490 0.0000
# 2 16.3804 118.5984 19.7378 0.0000 -7.8053 0.0000
# 3 10.7911 19.7378 40.8223 0.0000 -0.2403 0.0000
# 4 0.0000 0.0000 0.0000 14.0311 0.0000 -7.2953
# 5 -11.7490 -7.8053 -0.2403 0.0000 14.5595 0.0000
# 6 0.0000 0.0000 0.0000 -7.2953 0.0000 32.2000
#
#
#
# Elastic Compliance Matrix: (Units=1/GPa)
#
#
# Indices 1 2 3 4 5 6 
#
# 1 0.014125 -0.000671 -0.003344 0.000000 0.010983 0.000000
# 2 -0.000671 0.009556 -0.004416 0.000000 0.004508 0.000000
# 3 -0.003344 -0.004416 0.027489 0.000000 -0.004613 0.000000
# 4 0.000000 0.000000 0.000000 0.080787 0.000000 0.018303
# 5 0.010983 0.004508 -0.004613 0.000000 0.079888 0.000000
# 6 0.000000 0.000000 0.000000 0.018303 0.000000 0.035203
#
#
# Mechanical properties :
#
#
# Convention : Reuss Voigt Hill
#
# Bulk Modulus (GPa) = 29.15036 37.38968 33.27002
# Shear Modulus (GPa) = 18.15894 25.21005 21.68450
#
# Velocity S-wave (km/s) = 2.98080 3.51217 3.25734
# Velocity P-wave (km/s) = 5.10982 5.89423 5.51598
#
# Compressibility (1/GPa) = 0.03430489
#
# Stress axis : x y z
#
# Youngs Moduli (GPa) = 70.79816 104.64318 36.37853
#
# Poissons Ratio (x) = 0.07026 0.12167
# Poissons Ratio (y) = 0.04754 0.16067
# Poissons Ratio (z) = 0.23678 0.46216
#
# Static dielectric constant tensor:
#      x y z
#    x 1.687580 0.000000 -0.003730 
#    y 0.000000 1.720290 0.000000 
#    z -0.003730 0.000000 1.728820 
# 
# From -- ./inp_files/297825.got.cif
#   From: 2010.05.17/outbox.cif.g08.bks.cpg/sg12_149_cif.got.tgz:297825.got - 2010.06.03 13:09:07.
