data_PCOD9208199
_publ_section_title
;
Structure prediction by ZEFSAII (Michael W. Deem and Ramdas Pophale) SiO2 
 PCOD9208199
Probable space group: C 2/M
;
_chemical_formula_sum "Si O2"
_cell_formula_units_Z 54
_cell_length_a 11.745577
_cell_length_b 26.137260
_cell_length_c 8.297591
_cell_angle_alpha 90.000000
_cell_angle_beta 67.075576
_cell_angle_gamma 90.000000
_cell_volume 2346.147100
_symmetry_space_group_name_H-M "C 2/M"
_symmetry_group_IT_number 12
_symmetry_cell_setting 'monoclinic'
loop_
_space_group_symop_operation_xyz
x,y,z
-x,y,-z
-x,-y,-z
x,-y,z
1/2+x,1/2+y,z
1/2-x,1/2+y,-z
1/2-x,1/2-y,-z
1/2+x,1/2-y,z
loop_
_atom_site_type_symbol
_atom_site_label
_atom_site_fract_x
_atom_site_fract_y
_atom_site_fract_z
Si Si1 0.188373 0.613247 0.673451
Si Si2 0.455292 0.176843 0.861983
Si Si3 0.066810 0.901464 0.256306
Si Si4 0.142764 0.558102 0.401999
Si Si5 0.855350 0.816934 0.392699
Si Si6 0.708165 0.639463 0.893254
Si Si7 0.500000 0.500000 0.500000
Si Si8 0.500000 0.767149 0.500000
O O1 0.300583 0.605678 0.731701
O O2 0.190120 0.563725 0.558182
O O3 0.230704 0.660315 0.536959
O O4 0.052082 0.628972 0.806291
O O5 0.311483 0.163147 0.954037
O O6 0.460186 0.201805 0.681101
O O7 0.500000 0.206048 0.000000
O O8 0.964565 0.858696 0.352436
O O9 0.104116 0.889572 0.051803
O O10 0.015185 0.954749 0.351047
O O11 0.148525 0.500000 0.340696
O O12 0.219180 0.596271 0.249238
O O13 0.000000 0.574070 0.500000
O O14 0.837113 0.817570 0.209429
O O15 0.895026 0.769037 0.478099
#
# Coordination Sequence:
#
# PCOD9208199 Si02
#       8
#     8   8   8   8   8   8   2   4
#     4  11  21  43  67  91 143 186 230 293 362 440
#     4  12  26  45  71 109 140 187 243 304 375 442
#     4  12  24  45  69 100 143 189 242 294 358 424
#     4  10  21  37  63 101 137 184 238 288 360 436
#     4  11  24  48  68  97 140 195 237 295 376 420
#     4  11  25  44  70 100 150 190 238 307 363 434
#     4  12  26  44  74 110 140 202 254 286 352 434
#     4  12  25  48  74 109 141 192 254 301 368 458
#
# _framework density 23.016459999999999
#
# number of rings (size 3 to 8) (size 9 to 14) (size 15 to 20)
#    0.000    0.741    5.926    2.222    2.074    3.556 
#    0.000    2.963    0.000    3.556    0.000    0.000 
#    0.000    0.000    0.000    0.000    0.000    0.000 
#
# Total GULP energy -150418.819837 kJ/mol
# GULP energy per Si atom -5571.067401 kJ/mol
# Density = 2.296407 g / cm^3
# Si number density = 23.016460 Si / 1000 Ang^3
#
#
#
# Elastic Constant Matrix: (Units=GPa)
#
#
# Indices 1 2 3 4 5 6 
#
# 1 124.3433 17.5860 44.2057 0.0000 29.1228 0.0000
# 2 17.5860 72.4672 36.2103 0.0000 2.5272 0.0000
# 3 44.2057 36.2103 130.5503 0.0000 14.6260 0.0000
# 4 0.0000 0.0000 0.0000 6.3296 0.0000 -10.8053
# 5 29.1228 2.5272 14.6260 0.0000 41.1751 0.0000
# 6 0.0000 0.0000 0.0000 -10.8053 0.0000 -1.1858
#
#
#
# Elastic Compliance Matrix: (Units=1/GPa)
#
#
# Indices 1 2 3 4 5 6 
#
# 1 0.010642 -0.001068 -0.002574 0.000000 -0.006547 0.000000
# 2 -0.001068 0.016142 -0.004259 0.000000 0.001278 0.000000
# 3 -0.002574 -0.004259 0.009872 0.000000 -0.001425 0.000000
# 4 0.000000 0.000000 0.000000 0.009543 0.000000 -0.086957
# 5 -0.006547 0.001278 -0.001425 0.000000 0.029345 0.000000
# 6 0.000000 0.000000 0.000000 -0.086957 0.000000 -0.050938
#
#
# Mechanical properties :
#
#
# Convention : Reuss Voigt Hill
#
# Bulk Modulus (GPa) = 47.95029 58.15162 53.05096
# Shear Modulus (GPa) = 105.57870 24.55438 65.06654
#
# Velocity S-wave (km/s) = 6.78016 3.26976 5.32268
# Velocity P-wave (km/s) = 9.06489 6.29088 7.80216
#
# Compressibility (1/GPa) = 0.02085493
#
# Stress axis : x y z
#
# Youngs Moduli (GPa) = 93.97026 61.95026 101.29446
#
# Poissons Ratio (x) = 0.06617 0.26069
# Poissons Ratio (y) = 0.10038 0.43138
# Poissons Ratio (z) = 0.24184 0.26383
#
# Static dielectric constant tensor:
#      x y z
#    x 1.925790 0.000000 0.032540 
#    y 0.000000 1.847250 0.000000 
#    z 0.032540 0.000000 1.956090 
# 
# From -- ./inp_files/53229.got.cif
#   From: 2010.05.17/outbox.cif.g08.bks.cpg/sg12_27_cif.got.tgz:53229.got - 2010.06.03 13:09:07.
