data_PCOD9208272
_publ_section_title
;
Structure prediction by ZEFSAII (Michael W. Deem and Ramdas Pophale) SiO2 
 PCOD9208272
Probable space group: C 2/M
;
_chemical_formula_sum "Si O2"
_cell_formula_units_Z 42
_cell_length_a 5.438718
_cell_length_b 14.101069
_cell_length_c 24.561455
_cell_angle_alpha 90.000000
_cell_angle_beta 109.009205
_cell_angle_gamma 90.000000
_cell_volume 1780.937603
_symmetry_space_group_name_H-M "C 2/M"
_symmetry_group_IT_number 12
_symmetry_cell_setting 'monoclinic'
loop_
_space_group_symop_operation_xyz
x,y,z
-x,y,-z
-x,-y,-z
x,-y,z
1/2+x,1/2+y,z
1/2-x,1/2+y,-z
1/2-x,1/2-y,-z
1/2+x,1/2-y,z
loop_
_atom_site_type_symbol
_atom_site_label
_atom_site_fract_x
_atom_site_fract_y
_atom_site_fract_z
Si Si1 0.633729 0.366176 0.927921
Si Si2 0.627257 0.115878 0.247108
Si Si3 0.225507 0.887146 0.313116
Si Si4 0.145983 0.307991 0.559942
Si Si5 0.000000 0.500000 0.000000
Si Si6 0.067398 0.345637 0.882088
O O1 0.773980 0.415500 0.988245
O O2 0.341053 0.396963 0.898475
O O3 0.617790 0.252624 0.918600
O O4 0.834204 0.398266 0.895471
O O5 0.440417 0.141918 0.284024
O O6 0.527162 0.168893 0.186080
O O7 0.927810 0.140934 0.279394
O O8 0.610069 0.000000 0.237452
O O9 0.305913 0.857851 0.379416
O O10 0.223978 0.000000 0.310703
O O11 0.426626 0.271949 0.558582
O O12 0.000000 0.362350 0.500000
#
# Coordination Sequence:
#
# PCOD9208272 Si02
#       6
#     8   8   8   8   2   8
#     4  10  25  42  67  93 127 155 207 252 301 374
#     4  10  21  37  64  90 126 163 206 263 318 379
#     4  10  21  39  60  94 125 161 215 265 316 377
#     4  10  21  39  59  86 128 172 219 268 316 373
#     4  12  28  46  72 102 122 170 204 262 314 354
#     4  10  22  45  63  92 126 168 200 257 306 387
#
# _framework density 23.583085000000001
#
# number of rings (size 3 to 8) (size 9 to 14) (size 15 to 20)
#    0.000    1.905    0.000    2.286    2.667    4.952 
#   20.571    0.000    0.000    6.857    0.000    0.000 
#    0.000    0.000    0.000    0.000    0.000    0.000 
#
# Total GULP energy -117034.144313 kJ/mol
# GULP energy per Si atom -5573.054491 kJ/mol
# Density = 2.352941 g / cm^3
# Si number density = 23.583085 Si / 1000 Ang^3
#
#
#
# Elastic Constant Matrix: (Units=GPa)
#
#
# Indices 1 2 3 4 5 6 
#
# 1 218.6242 8.3287 60.3807 0.0000 15.5426 0.0000
# 2 8.3287 135.6225 19.6822 0.0000 9.2918 0.0000
# 3 60.3807 19.6822 136.5487 0.0000 13.3439 0.0000
# 4 0.0000 0.0000 0.0000 250.7509 0.0000 -75.6839
# 5 15.5426 9.2918 13.3439 0.0000 45.5546 0.0000
# 6 0.0000 0.0000 0.0000 -75.6839 0.0000 7.2248
#
#
#
# Elastic Compliance Matrix: (Units=1/GPa)
#
#
# Indices 1 2 3 4 5 6 
#
# 1 0.005269 0.000079 -0.002228 0.000000 -0.001161 0.000000
# 2 0.000079 0.007602 -0.001005 0.000000 -0.001283 0.000000
# 3 -0.002228 -0.001005 0.008605 0.000000 -0.001556 0.000000
# 4 0.000000 0.000000 0.000000 -0.001845 0.000000 -0.019325
# 5 -0.001161 -0.001283 -0.001556 0.000000 0.023065 0.000000
# 6 0.000000 0.000000 0.000000 -0.019325 0.000000 -0.064025
#
#
# Mechanical properties :
#
#
# Convention : Reuss Voigt Hill
#
# Bulk Modulus (GPa) = 65.92501 74.17540 70.05021
# Shear Modulus (GPa) = -501.80439 87.53297 -207.13571
#
# Velocity S-wave (km/s) = -14.60286 6.09897 -9.38206
# Velocity P-wave (km/s) = 16.00967 9.00653 9.35927
#
# Compressibility (1/GPa) = 0.01516875
#
# Stress axis : x y z
#
# Youngs Moduli (GPa) = 189.79364 131.53784 116.20547
#
# Poissons Ratio (x) = -0.01043 0.25888
# Poissons Ratio (y) = -0.01505 0.11684
# Poissons Ratio (z) = 0.42282 0.13226
#
# Static dielectric constant tensor:
#      x y z
#    x 1.926560 0.000000 -0.012170 
#    y 0.000000 1.476230 0.000000 
#    z -0.012170 0.000000 2.036910 
# 
# From -- ./inp_files/354829.got.cif
#   From: 2010.05.17/outbox.cif.g08.bks.cpg/sg12_178_cif.got.tgz:354829.got - 2010.06.03 13:09:07.
