data_PCOD9208101
_publ_section_title
;
Structure prediction by ZEFSAII (Michael W. Deem and Ramdas Pophale) SiO2 
 PCOD9208101
Probable space group: C 2/M
;
_chemical_formula_sum "Si O2"
_cell_formula_units_Z 40
_cell_length_a 14.867024
_cell_length_b 18.508031
_cell_length_c 10.081577
_cell_angle_alpha 90.000000
_cell_angle_beta 38.733266
_cell_angle_gamma 90.000000
_cell_volume 1735.704869
_symmetry_space_group_name_H-M "C 2/M"
_symmetry_group_IT_number 12
_symmetry_cell_setting 'monoclinic'
loop_
_space_group_symop_operation_xyz
x,y,z
-x,y,-z
-x,-y,-z
x,-y,z
1/2+x,1/2+y,z
1/2-x,1/2+y,-z
1/2-x,1/2-y,-z
1/2+x,1/2-y,z
loop_
_atom_site_type_symbol
_atom_site_label
_atom_site_fract_x
_atom_site_fract_y
_atom_site_fract_z
Si Si1 0.332475 0.228794 0.677439
Si Si2 0.484407 0.580681 0.362397
Si Si3 0.196545 0.419784 0.127521
Si Si4 0.905688 0.193189 0.242913
Si Si5 0.419032 0.831140 0.956445
O O1 0.500000 0.244476 0.500000
O O2 0.313687 0.150212 0.767978
O O3 0.247612 0.216019 0.637946
O O4 0.238988 0.294977 0.845160
O O5 0.500000 0.597113 0.500000
O O6 0.421089 0.500000 0.427301
O O7 0.398401 0.634991 0.367197
O O8 0.642744 0.578802 0.115819
O O9 0.166209 0.500000 0.217580
O O10 0.091475 0.398538 0.127715
O O11 0.993884 0.261718 0.195257
O O12 0.000000 0.171000 0.000000
O O13 0.500000 0.848967 0.000000
#
# Coordination Sequence:
#
# PCOD9208101 Si02
#       5
#     8   8   8   8   8
#     4  10  21  39  66  98 122 160 214 269 316 364
#     4  10  21  37  61  94 129 169 213 259 315 379
#     4  11  22  39  63  90 129 171 205 257 321 380
#     4   9  18  39  66  92 121 163 217 265 309 367
#     4   9  20  41  63  90 121 164 214 261 310 370
#
# _framework density 23.045393000000001
#
# number of rings (size 3 to 8) (size 9 to 14) (size 15 to 20)
#    0.000    2.600    4.000    0.600    0.000    2.800 
#    3.600    2.000    0.000    0.000    0.000    0.000 
#    0.000    0.000    0.000    0.000    0.000    0.000 
#
# Total GULP energy -111728.635497 kJ/mol
# GULP energy per Si atom -5586.431775 kJ/mol
# Density = 2.299294 g / cm^3
# Si number density = 23.045393 Si / 1000 Ang^3
#
#
#
# Elastic Constant Matrix: (Units=GPa)
#
#
# Indices 1 2 3 4 5 6 
#
# 1 99.0285 22.5160 33.4486 -0.0001 -24.8990 0.0000
# 2 22.5160 87.0862 5.3842 -0.0001 -6.4438 0.0001
# 3 33.4486 5.3842 95.8919 -0.0002 -23.5713 0.0001
# 4 -0.0001 -0.0001 -0.0002 2.2575 0.0001 -8.6401
# 5 -24.8990 -6.4438 -23.5713 0.0001 35.9354 0.0000
# 6 0.0000 0.0001 0.0001 -8.6401 0.0000 -8.4754
#
#
#
# Elastic Compliance Matrix: (Units=1/GPa)
#
#
# Indices 1 2 3 4 5 6 
#
# 1 0.013433 -0.002784 -0.002819 0.000000 0.006959 0.000000
# 2 -0.002784 0.012216 0.000417 0.000000 0.000535 0.000000
# 3 -0.002819 0.000417 0.013027 0.000000 0.006667 0.000000
# 4 0.000000 0.000000 0.000000 0.090371 0.000000 -0.092127
# 5 0.006959 0.000535 0.006667 0.000000 0.037119 0.000000
# 6 0.000000 0.000000 0.000000 -0.092127 0.000000 -0.024071
#
#
# Mechanical properties :
#
#
# Convention : Reuss Voigt Hill
#
# Bulk Modulus (GPa) = 35.32983 44.96710 40.14847
# Shear Modulus (GPa) = 30.88302 20.65402 25.76852
#
# Velocity S-wave (km/s) = 3.66470 2.99696 3.34752
# Velocity P-wave (km/s) = 5.76806 5.61520 5.69214
#
# Compressibility (1/GPa) = 0.02830469
#
# Stress axis : x y z
#
# Youngs Moduli (GPa) = 74.44391 81.85673 76.76419
#
# Poissons Ratio (x) = 0.22788 0.21637
# Poissons Ratio (y) = 0.20724 -0.03198
# Poissons Ratio (z) = 0.20983 -0.03410
#
# Static dielectric constant tensor:
#      x y z
#    x 1.857860 0.000000 0.053460 
#    y 0.000000 1.862680 0.000000 
#    z 0.053460 0.000000 1.988390 
# 
# From -- ./inp_files/146859.got.cif
#   From: 2010.05.17/outbox.cif.g08.bks.cpg/sg12_74_cif.got.tgz:146859.got - 2010.06.03 13:09:07.
