data_PCOD9208846
_publ_section_title
;
Structure prediction by ZEFSAII (Michael W. Deem and Ramdas Pophale) SiO2 
 PCOD9208846
Probable space group: C 2/M
;
_chemical_formula_sum "Si O2"
_cell_formula_units_Z 40
_cell_length_a 15.877530
_cell_length_b 10.958215
_cell_length_c 13.365467
_cell_angle_alpha 90.000000
_cell_angle_beta 75.810550
_cell_angle_gamma 90.000000
_cell_volume 2254.501123
_symmetry_space_group_name_H-M "C 2/M"
_symmetry_group_IT_number 12
_symmetry_cell_setting 'monoclinic'
loop_
_space_group_symop_operation_xyz
x,y,z
-x,y,-z
-x,-y,-z
x,-y,z
1/2+x,1/2+y,z
1/2-x,1/2+y,-z
1/2-x,1/2-y,-z
1/2+x,1/2-y,z
loop_
_atom_site_type_symbol
_atom_site_label
_atom_site_fract_x
_atom_site_fract_y
_atom_site_fract_z
Si Si1 0.695017 0.243183 0.750894
Si Si2 0.758244 0.364487 0.924030
Si Si3 0.611509 0.000000 0.859930
Si Si4 0.124743 0.146278 0.382130
Si Si5 0.916508 0.500000 0.892254
Si Si6 0.934724 0.145685 0.372242
O O1 0.707533 0.338378 0.837304
O O2 0.662608 0.118953 0.811551
O O3 0.788938 0.216581 0.675131
O O4 0.624385 0.286812 0.691257
O O5 0.732301 0.500000 0.972448
O O6 0.860611 0.384814 0.871379
O O7 0.750000 0.250000 0.000000
O O8 0.516348 0.000000 0.837957
O O9 0.595252 0.000000 0.983707
O O10 0.103140 0.167207 0.505315
O O11 0.036838 0.179641 0.347355
O O12 0.138157 0.000000 0.365532
O O13 0.930556 0.000000 0.355676
#
# Coordination Sequence:
#
# PCOD9208846 Si02
#       6
#     8   8   4   8   4   8
#     4  12  20  34  59  87 108 148 201 232 277 345
#     4  10  21  38  60  84 116 149 187 238 288 340
#     4  11  22  36  60  80 114 157 194 233 288 357
#     4   9  19  37  56  79 112 151 187 234 287 339
#     4   9  22  42  54  80 117 157 183 238 300 337
#     4   9  20  36  55  80 115 147 185 238 290 331
#
# _framework density 17.742284000000001
#
# number of rings (size 3 to 8) (size 9 to 14) (size 15 to 20)
#    0.600    1.400    3.000    2.400    2.800    0.000 
#    0.000    0.000    0.000    2.400    0.000    0.000 
#    0.000    0.000    0.000    0.000    0.000    0.000 
#
# Total GULP energy -111408.373342 kJ/mol
# GULP energy per Si atom -5570.418667 kJ/mol
# Density = 1.770190 g / cm^3
# Si number density = 17.742284 Si / 1000 Ang^3
#
#
#
# Elastic Constant Matrix: (Units=GPa)
#
#
# Indices 1 2 3 4 5 6 
#
# 1 119.2546 34.7824 36.3056 0.0000 18.5276 0.0000
# 2 34.7824 82.2574 27.1163 0.0000 7.9083 0.0000
# 3 36.3056 27.1163 47.4654 0.0000 12.8202 0.0000
# 4 0.0000 0.0000 0.0000 -14.8791 0.0000 -8.7054
# 5 18.5276 7.9083 12.8202 0.0000 33.9966 0.0000
# 6 0.0000 0.0000 0.0000 -8.7054 0.0000 32.1580
#
#
#
# Elastic Compliance Matrix: (Units=1/GPa)
#
#
# Indices 1 2 3 4 5 6 
#
# 1 0.011613 -0.002414 -0.006620 0.000000 -0.003271 0.000000
# 2 -0.002414 0.015482 -0.007105 0.000000 0.000393 0.000000
# 3 -0.006620 -0.007105 0.032032 0.000000 -0.006819 0.000000
# 4 0.000000 0.000000 0.000000 -0.058019 0.000000 -0.015706
# 5 -0.003271 0.000393 -0.006819 0.000000 0.033677 0.000000
# 6 0.000000 0.000000 0.000000 -0.015706 0.000000 0.026845
#
#
# Mechanical properties :
#
#
# Convention : Reuss Voigt Hill
#
# Bulk Modulus (GPa) = 37.24393 49.48734 43.36564
# Shear Modulus (GPa) = 48.61129 20.30665 34.45897
#
# Velocity S-wave (km/s) = 5.24004 3.38677 4.41181
# Velocity P-wave (km/s) = 7.59262 6.57620 7.10262
#
# Compressibility (1/GPa) = 0.02685001
#
# Stress axis : x y z
#
# Youngs Moduli (GPa) = 86.10996 64.59199 31.21865
#
# Poissons Ratio (x) = 0.15591 0.20668
# Poissons Ratio (y) = 0.20784 0.22179
# Poissons Ratio (z) = 0.57007 0.45889
#
# Static dielectric constant tensor:
#      x y z
#    x 1.621420 0.000000 0.005770 
#    y 0.000000 1.612430 0.000000 
#    z 0.005770 0.000000 1.595210 
# 
# From -- ./inp_files/140863.got.cif
#   From: 2010.05.17/outbox.cif.g08.bks.cpg/sg12_71_cif.got.tgz:140863.got - 2010.06.03 13:09:07.
