data_PCOD9208541
_publ_section_title
;
Structure prediction by ZEFSAII (Michael W. Deem and Ramdas Pophale) SiO2 
 PCOD9208541
Probable space group: C 2/M
;
_chemical_formula_sum "Si O2"
_cell_formula_units_Z 56
_cell_length_a 22.403273
_cell_length_b 8.863265
_cell_length_c 15.236976
_cell_angle_alpha 90.000000
_cell_angle_beta 112.941999
_cell_angle_gamma 90.000000
_cell_volume 2786.226543
_symmetry_space_group_name_H-M "C 2/M"
_symmetry_group_IT_number 12
_symmetry_cell_setting 'monoclinic'
loop_
_space_group_symop_operation_xyz
x,y,z
-x,y,-z
-x,-y,-z
x,-y,z
1/2+x,1/2+y,z
1/2-x,1/2+y,-z
1/2-x,1/2-y,-z
1/2+x,1/2-y,z
loop_
_atom_site_type_symbol
_atom_site_label
_atom_site_fract_x
_atom_site_fract_y
_atom_site_fract_z
Si Si1 0.664231 0.319518 0.762882
Si Si2 0.425361 0.316592 0.445286
Si Si3 0.340158 0.827424 0.049059
Si Si4 0.102780 0.819525 0.242075
Si Si5 0.704485 0.319407 0.154092
Si Si6 0.677336 0.683100 0.461302
Si Si7 0.509186 0.172135 0.909317
O O1 0.668365 0.500000 0.766502
O O2 0.604633 0.274800 0.666382
O O3 0.660526 0.255930 0.858704
O O4 0.731292 0.250213 0.766092
O O5 0.500000 0.264078 0.500000
O O6 0.427560 0.500000 0.450799
O O7 0.371461 0.270993 0.487296
O O8 0.415316 0.831190 0.065865
O O9 0.316282 0.000000 0.043540
O O10 0.304011 0.744034 0.948934
O O11 0.143783 0.774364 0.179568
O O12 0.140381 0.771986 0.350664
O O13 0.031400 0.755344 0.188186
O O14 0.099347 0.000000 0.242041
O O15 0.708678 0.500000 0.154653
O O16 0.682859 0.500000 0.467379
O O17 0.750000 0.750000 0.500000
O O18 0.484286 0.000000 0.899508
O O19 0.500000 0.244570 0.000000
#
# Coordination Sequence:
#
# PCOD9208541 Si02
#       7
#     8   8   8   8   8   8   8
#     4  11  23  38  61  87 113 153 198 241 291 343
#     4   9  20  39  62  88 118 156 201 247 296 354
#     4  11  23  39  59  84 118 155 194 238 289 349
#     4  10  22  36  59  90 118 152 193 241 292 343
#     4  11  22  38  58  86 122 155 190 236 290 348
#     4  10  21  39  63  91 121 155 199 249 300 354
#     4  10  21  38  58  83 116 154 192 237 290 349
#
# _framework density 20.098870000000002
#
# number of rings (size 3 to 8) (size 9 to 14) (size 15 to 20)
#    0.000    1.714    1.429    2.571    2.000    2.571 
#    0.000    0.714    0.000    2.143    0.000    0.000 
#    0.000    0.000    0.000    0.000    0.000    0.000 
#
# Total GULP energy -156341.079739 kJ/mol
# GULP energy per Si atom -5583.609991 kJ/mol
# Density = 2.005312 g / cm^3
# Si number density = 20.098870 Si / 1000 Ang^3
#
#
#
# Elastic Constant Matrix: (Units=GPa)
#
#
# Indices 1 2 3 4 5 6 
#
# 1 91.7778 23.9275 47.1290 0.0000 13.6172 0.0000
# 2 23.9275 40.3193 38.3989 0.0000 8.2240 0.0000
# 3 47.1290 38.3989 145.9611 0.0000 19.4829 0.0000
# 4 0.0000 0.0000 0.0000 18.4670 0.0000 9.5674
# 5 13.6172 8.2240 19.4829 0.0000 39.4433 0.0000
# 6 0.0000 0.0000 0.0000 9.5674 0.0000 26.5304
#
#
#
# Elastic Compliance Matrix: (Units=1/GPa)
#
#
# Indices 1 2 3 4 5 6 
#
# 1 0.014059 -0.005122 -0.002876 0.000000 -0.002365 0.000000
# 2 -0.005122 0.035247 -0.007359 0.000000 -0.001946 0.000000
# 3 -0.002876 -0.007359 0.010041 0.000000 -0.002432 0.000000
# 4 0.000000 0.000000 0.000000 0.066592 0.000000 -0.024014
# 5 -0.002365 -0.001946 -0.002432 0.000000 0.027776 0.000000
# 6 0.000000 0.000000 0.000000 -0.024014 0.000000 0.046353
#
#
# Mechanical properties :
#
#
# Convention : Reuss Voigt Hill
#
# Bulk Modulus (GPa) = 34.92566 55.21878 45.07222
# Shear Modulus (GPa) = 20.80503 28.12831 24.46667
#
# Velocity S-wave (km/s) = 3.22084 3.74504 3.49279
# Velocity P-wave (km/s) = 5.58985 6.79954 6.22415
#
# Compressibility (1/GPa) = 0.02863225
#
# Stress axis : x y z
#
# Youngs Moduli (GPa) = 71.12813 28.37119 99.59571
#
# Poissons Ratio (x) = 0.14530 0.28649
# Poissons Ratio (y) = 0.36428 0.73295
# Poissons Ratio (z) = 0.20460 0.20879
#
# Static dielectric constant tensor:
#      x y z
#    x 1.736290 0.000000 -0.014090 
#    y 0.000000 1.699390 0.000000 
#    z -0.014090 0.000000 1.700620 
# 
# From -- ./inp_files/238868.got.cif
#   From: 2010.05.17/outbox.cif.g08.bks.cpg/sg12_120_cif.got.tgz:238868.got - 2010.06.03 13:09:07.
