data_PCOD9208140
_publ_section_title
;
Structure prediction by ZEFSAII (Michael W. Deem and Ramdas Pophale) SiO2 
 PCOD9208140
Probable space group: C 2/M
;
_chemical_formula_sum "Si O2"
_cell_formula_units_Z 52
_cell_length_a 19.221875
_cell_length_b 20.511184
_cell_length_c 8.604164
_cell_angle_alpha 90.000000
_cell_angle_beta 45.380557
_cell_angle_gamma 90.000000
_cell_volume 2414.602568
_symmetry_space_group_name_H-M "C 2/M"
_symmetry_group_IT_number 12
_symmetry_cell_setting 'monoclinic'
loop_
_space_group_symop_operation_xyz
x,y,z
-x,y,-z
-x,-y,-z
x,-y,z
1/2+x,1/2+y,z
1/2-x,1/2+y,-z
1/2-x,1/2-y,-z
1/2+x,1/2-y,z
loop_
_atom_site_type_symbol
_atom_site_label
_atom_site_fract_x
_atom_site_fract_y
_atom_site_fract_z
Si Si1 0.314050 0.427688 0.183542
Si Si2 0.955748 0.124730 0.722083
Si Si3 0.862709 0.734850 0.850200
Si Si4 0.093196 0.573929 0.639180
Si Si5 0.132736 0.823132 0.647905
Si Si6 0.644173 0.812467 0.790282
Si Si7 0.500000 0.134976 0.500000
O O1 0.342030 0.500000 0.198474
O O2 0.197080 0.424331 0.382634
O O3 0.351555 0.367793 0.226546
O O4 0.368361 0.416036 0.936071
O O5 0.913803 0.195909 0.748035
O O6 0.000000 0.092482 0.500000
O O7 0.046402 0.142258 0.691290
O O8 0.907302 0.682868 0.661546
O O9 0.750000 0.750000 0.000000
O O10 0.881783 0.705804 0.992601
O O11 0.078712 0.500000 0.716064
O O12 0.102484 0.624132 0.767859
O O13 0.013858 0.593795 0.634654
O O14 0.237588 0.820090 0.397857
O O15 0.113393 0.749469 0.733193
#
# Coordination Sequence:
#
# PCOD9208140 Si02
#       7
#     8   8   8   8   8   8   4
#     4  10  22  41  64  89 128 175 216 266 330 400
#     4  12  23  36  57  91 130 167 211 269 323 391
#     4  12  25  40  63  98 136 168 218 280 341 391
#     4  10  23  45  68  96 131 176 226 277 338 407
#     4  10  21  37  62  90 121 163 219 266 328 395
#     4  10  22  40  64  91 126 169 215 278 336 388
#     4  12  25  40  68  98 133 182 224 276 343 396
#
# _framework density 21.535636
#
# number of rings (size 3 to 8) (size 9 to 14) (size 15 to 20)
#    0.000    1.231    2.308    3.462    4.308    3.385 
#    0.000    2.308    0.000    6.462    0.000    0.000 
#    0.000    0.000    0.000    0.000    0.000    0.000 
#
# Total GULP energy -145350.086625 kJ/mol
# GULP energy per Si atom -5590.387947 kJ/mol
# Density = 2.148662 g / cm^3
# Si number density = 21.535636 Si / 1000 Ang^3
#
#
#
# Elastic Constant Matrix: (Units=GPa)
#
#
# Indices 1 2 3 4 5 6 
#
# 1 57.4455 14.7453 -5.4774 0.0000 -15.2153 0.0000
# 2 14.7453 130.5616 7.5538 0.0000 -2.4451 0.0000
# 3 -5.4774 7.5538 93.9348 0.0000 -9.7164 0.0000
# 4 0.0000 0.0000 0.0000 12.0929 0.0000 8.1056
# 5 -15.2153 -2.4451 -9.7164 0.0000 24.3575 0.0000
# 6 0.0000 0.0000 0.0000 8.1056 0.0000 13.3237
#
#
#
# Elastic Compliance Matrix: (Units=1/GPa)
#
#
# Indices 1 2 3 4 5 6 
#
# 1 0.022253 -0.002410 0.003029 0.000000 0.014867 0.000000
# 2 -0.002410 0.007963 -0.000891 0.000000 -0.001061 0.000000
# 3 0.003029 -0.000891 0.011557 0.000000 0.006413 0.000000
# 4 0.000000 0.000000 0.000000 0.139630 0.000000 -0.084945
# 5 0.014867 -0.001061 0.006413 0.000000 0.052794 0.000000
# 6 0.000000 0.000000 0.000000 -0.084945 0.000000 0.126731
#
#
# Mechanical properties :
#
#
# Convention : Reuss Voigt Hill
#
# Bulk Modulus (GPa) = 24.25389 35.06501 29.65945
# Shear Modulus (GPa) = 13.32569 27.62951 20.47760
#
# Velocity S-wave (km/s) = 2.49022 3.58574 3.08696
# Velocity P-wave (km/s) = 4.42209 5.78455 5.14859
#
# Compressibility (1/GPa) = 0.04123050
#
# Stress axis : x y z
#
# Youngs Moduli (GPa) = 44.93765 125.58000 86.52533
#
# Poissons Ratio (x) = 0.30265 -0.26211
# Poissons Ratio (y) = 0.10830 0.07707
# Poissons Ratio (z) = -0.13613 0.11185
#
# Static dielectric constant tensor:
#      x y z
#    x 1.789460 0.000000 -0.027950 
#    y 0.000000 1.741340 0.000000 
#    z -0.027950 0.000000 1.842850 
# 
# From -- ./inp_files/77948.got.cif
#   From: 2010.05.17/outbox.cif.g08.bks.cpg/sg12_39_cif.got.tgz:77948.got - 2010.06.03 13:09:07.
