data_PCOD9208717
_publ_section_title
;
Structure prediction by ZEFSAII (Michael W. Deem and Ramdas Pophale) SiO2 
 PCOD9208717
Probable space group: C 2/M
;
_chemical_formula_sum "Si O2"
_cell_formula_units_Z 48
_cell_length_a 27.887499
_cell_length_b 13.093866
_cell_length_c 12.726288
_cell_angle_alpha 90.000000
_cell_angle_beta 147.317274
_cell_angle_gamma 90.000000
_cell_volume 2509.355442
_symmetry_space_group_name_H-M "C 2/M"
_symmetry_group_IT_number 12
_symmetry_cell_setting 'monoclinic'
loop_
_space_group_symop_operation_xyz
x,y,z
-x,y,-z
-x,-y,-z
x,-y,z
1/2+x,1/2+y,z
1/2-x,1/2+y,-z
1/2-x,1/2-y,-z
1/2+x,1/2-y,z
loop_
_atom_site_type_symbol
_atom_site_label
_atom_site_fract_x
_atom_site_fract_y
_atom_site_fract_z
Si Si1 0.987913 0.787683 0.254285
Si Si2 0.811807 0.121312 0.035614
Si Si3 0.241101 0.876590 0.626260
Si Si4 0.943595 0.382052 0.002365
Si Si5 0.167797 0.221716 0.703042
Si Si6 0.930550 0.882821 0.789559
O O1 0.895592 0.824707 0.133053
O O2 0.976290 0.690704 0.156066
O O3 0.064630 0.766392 0.481114
O O4 0.025205 0.873915 0.243442
O O5 0.821903 0.148991 0.177142
O O6 0.812777 0.000000 0.020447
O O7 0.721134 0.174708 0.828479
O O8 0.215283 0.828362 0.690010
O O9 0.167750 0.838712 0.407224
O O10 0.232128 0.000000 0.616178
O O11 0.342417 0.853240 0.788824
O O12 0.944008 0.500000 0.039878
O O13 0.000000 0.378678 0.000000
O O14 0.918337 0.000000 0.799666
O O15 0.000000 0.836845 0.000000
#
# Coordination Sequence:
#
# PCOD9208717 Si02
#       6
#     8   8   8   8   8   8
#     4  11  21  38  59  87 119 156 197 247 298 356
#     4  11  23  40  63  91 123 158 201 250 301 360
#     4   9  17  35  60  82 111 154 197 240 293 353
#     4  10  21  38  59  85 117 158 202 241 291 357
#     4  10  22  39  60  89 120 155 197 246 304 360
#     4   9  18  33  54  83 115 148 190 242 296 350
#
# _framework density 19.128419000000001
#
# number of rings (size 3 to 8) (size 9 to 14) (size 15 to 20)
#    0.000    2.000    1.667    2.000    0.000    3.333 
#    3.000    2.500    0.000    3.000    0.000    0.000 
#    0.000    0.000    0.000    0.000    0.000    0.000 
#
# Total GULP energy -133878.793266 kJ/mol
# GULP energy per Si atom -5578.283053 kJ/mol
# Density = 1.908488 g / cm^3
# Si number density = 19.128419 Si / 1000 Ang^3
#
#
#
# Elastic Constant Matrix: (Units=GPa)
#
#
# Indices 1 2 3 4 5 6 
#
# 1 59.4764 16.6633 29.5474 0.0000 2.9690 0.0000
# 2 16.6633 88.0986 34.8957 0.0000 -6.4453 0.0000
# 3 29.5474 34.8957 138.7486 0.0000 -12.7022 0.0000
# 4 0.0000 0.0000 0.0000 8.1049 0.0000 0.0450
# 5 2.9690 -6.4453 -12.7022 0.0000 26.9897 0.0000
# 6 0.0000 0.0000 0.0000 0.0450 0.0000 23.0294
#
#
#
# Elastic Compliance Matrix: (Units=1/GPa)
#
#
# Indices 1 2 3 4 5 6 
#
# 1 0.019730 -0.002487 -0.004002 0.000000 -0.004648 0.000000
# 2 -0.002487 0.012986 -0.002537 0.000000 0.002181 0.000000
# 3 -0.004002 -0.002537 0.009073 0.000000 0.004105 0.000000
# 4 0.000000 0.000000 0.000000 0.123383 0.000000 -0.000241
# 5 -0.004648 0.002181 0.004105 0.000000 0.040015 0.000000
# 6 0.000000 0.000000 0.000000 -0.000241 0.000000 0.043423
#
#
# Mechanical properties :
#
#
# Convention : Reuss Voigt Hill
#
# Bulk Modulus (GPa) = 42.12552 49.83739 45.98146
# Shear Modulus (GPa) = 18.21006 25.30596 21.75801
#
# Velocity S-wave (km/s) = 3.08878 3.64119 3.37630
# Velocity P-wave (km/s) = 5.89839 6.61727 6.26815
#
# Compressibility (1/GPa) = 0.02373858
#
# Stress axis : x y z
#
# Youngs Moduli (GPa) = 50.68397 77.00839 110.21450
#
# Poissons Ratio (x) = 0.19150 0.44104
# Poissons Ratio (y) = 0.12604 0.27958
# Poissons Ratio (z) = 0.20282 0.19535
#
# Static dielectric constant tensor:
#      x y z
#    x 1.646290 0.000000 0.014050 
#    y 0.000000 1.658160 0.000000 
#    z 0.014050 0.000000 1.690370 
# 
# From -- ./inp_files/183867.got.cif
#   From: 2010.05.17/outbox.cif.g08.bks.cpg/sg12_92_cif.got.tgz:183867.got - 2010.06.03 13:09:07.
