data_PCOD9208567
_publ_section_title
;
Structure prediction by ZEFSAII (Michael W. Deem and Ramdas Pophale) SiO2 
 PCOD9208567
Probable space group: C 2/M
;
_chemical_formula_sum "Si O2"
_cell_formula_units_Z 44
_cell_length_a 5.203859
_cell_length_b 28.947464
_cell_length_c 15.840568
_cell_angle_alpha 90.000000
_cell_angle_beta 120.728578
_cell_angle_gamma 90.000000
_cell_volume 2051.171366
_symmetry_space_group_name_H-M "C 2/M"
_symmetry_group_IT_number 12
_symmetry_cell_setting 'monoclinic'
loop_
_space_group_symop_operation_xyz
x,y,z
-x,y,-z
-x,-y,-z
x,-y,z
1/2+x,1/2+y,z
1/2-x,1/2+y,-z
1/2-x,1/2-y,-z
1/2+x,1/2-y,z
loop_
_atom_site_type_symbol
_atom_site_label
_atom_site_fract_x
_atom_site_fract_y
_atom_site_fract_z
Si Si1 0.687057 0.552634 0.648902
Si Si2 0.332411 0.053283 0.132424
Si Si3 0.865439 0.607880 0.395283
Si Si4 0.940456 0.134929 0.815411
Si Si5 0.000000 0.389285 0.000000
Si Si6 0.718992 0.279312 0.116593
O O1 0.716340 0.500000 0.623885
O O2 0.346572 0.567654 0.602965
O O3 0.844389 0.554728 0.767502
O O4 0.872702 0.586631 0.619110
O O5 0.135256 0.083833 0.162601
O O6 0.240723 0.000000 0.112053
O O7 0.347782 0.078027 0.044751
O O8 0.644332 0.636168 0.296571
O O9 0.000000 0.632548 0.500000
O O10 0.739884 0.172382 0.829482
O O11 0.273314 0.141842 0.907354
O O12 0.524237 0.244650 0.141048
O O13 0.500000 0.287888 0.000000
#
# Coordination Sequence:
#
# PCOD9208567 Si02
#       6
#     8   8   8   8   4   8
#     4  10  21  38  58  85 118 159 213 266 310 353
#     4  10  22  37  56  86 127 169 209 250 299 370
#     4  11  23  40  61  85 117 161 208 258 311 364
#     4  11  25  40  61  90 126 162 210 254 316 366
#     4  12  21  36  60  84 126 168 204 254 299 374
#     4  10  23  40  66  95 127 158 200 253 316 377
#
# _framework density 21.451156000000001
#
# number of rings (size 3 to 8) (size 9 to 14) (size 15 to 20)
#    0.000    1.455    1.818    3.000    6.364    5.091 
#    0.000    0.000    0.000    1.091    0.000    0.000 
#    0.000    0.000    0.000    0.000    0.000    0.000 
#
# Total GULP energy -122978.942504 kJ/mol
# GULP energy per Si atom -5589.951932 kJ/mol
# Density = 2.140233 g / cm^3
# Si number density = 21.451156 Si / 1000 Ang^3
#
#
#
# Elastic Constant Matrix: (Units=GPa)
#
#
# Indices 1 2 3 4 5 6 
#
# 1 66.1403 15.6230 23.5141 0.0000 -8.4786 0.0000
# 2 15.6230 56.6505 24.2399 0.0000 -8.5645 0.0000
# 3 23.5141 24.2399 169.3285 0.0000 -5.2632 0.0000
# 4 0.0000 0.0000 0.0000 3.6126 0.0000 -8.4575
# 5 -8.4786 -8.5645 -5.2632 0.0000 23.4859 0.0000
# 6 0.0000 0.0000 0.0000 -8.4575 0.0000 22.9588
#
#
#
# Elastic Compliance Matrix: (Units=1/GPa)
#
#
# Indices 1 2 3 4 5 6 
#
# 1 0.017107 -0.003269 -0.001765 0.000000 0.004588 0.000000
# 2 -0.003269 0.020401 -0.002288 0.000000 0.005747 0.000000
# 3 -0.001765 -0.002288 0.006478 0.000000 -0.000020 0.000000
# 4 0.000000 0.000000 0.000000 2.011937 0.000000 0.741149
# 5 0.004588 0.005747 -0.000020 0.000000 0.046326 0.000000
# 6 0.000000 0.000000 0.000000 0.741149 0.000000 0.316578
#
#
# Mechanical properties :
#
#
# Convention : Reuss Voigt Hill
#
# Bulk Modulus (GPa) = 34.08030 46.54148 40.31089
# Shear Modulus (GPa) = 2.04645 25.26094 13.65370
#
# Velocity S-wave (km/s) = 0.97779 3.43534 2.52564
# Velocity P-wave (km/s) = 4.14688 6.12201 5.22856
#
# Compressibility (1/GPa) = 0.02934247
#
# Stress axis : x y z
#
# Youngs Moduli (GPa) = 58.45496 49.01627 154.37588
#
# Poissons Ratio (x) = 0.16023 0.27248
# Poissons Ratio (y) = 0.19108 0.35320
# Poissons Ratio (z) = 0.10318 0.11215
#
# Static dielectric constant tensor:
#      x y z
#    x 1.839210 0.000000 0.043280 
#    y 0.000000 1.744650 0.000000 
#    z 0.043280 0.000000 1.853430 
# 
# From -- ./inp_files/192481.got.cif
#   From: 2010.05.17/outbox.cif.g08.bks.cpg/sg12_97_cif.got.tgz:192481.got - 2010.06.03 13:09:07.
