data_PCOD9208726
_publ_section_title
;
Structure prediction by ZEFSAII (Michael W. Deem and Ramdas Pophale) SiO2 
 PCOD9208726
Probable space group: C 2/M
;
_chemical_formula_sum "Si O2"
_cell_formula_units_Z 48
_cell_length_a 16.064605
_cell_length_b 8.975489
_cell_length_c 17.124001
_cell_angle_alpha 90.000000
_cell_angle_beta 92.015204
_cell_angle_gamma 90.000000
_cell_volume 2467.543027
_symmetry_space_group_name_H-M "C 2/M"
_symmetry_group_IT_number 12
_symmetry_cell_setting 'monoclinic'
loop_
_space_group_symop_operation_xyz
x,y,z
-x,y,-z
-x,-y,-z
x,-y,z
1/2+x,1/2+y,z
1/2-x,1/2+y,-z
1/2-x,1/2-y,-z
1/2+x,1/2-y,z
loop_
_atom_site_type_symbol
_atom_site_label
_atom_site_fract_x
_atom_site_fract_y
_atom_site_fract_z
Si Si1 0.103735 0.672396 0.659783
Si Si2 0.592515 0.172605 0.349569
Si Si3 0.826638 0.321170 0.169164
Si Si4 0.143750 0.179751 0.194194
Si Si5 0.340456 0.676922 0.495518
Si Si6 0.981813 0.820351 0.088464
O O1 0.125607 0.500000 0.641468
O O2 0.151215 0.715939 0.740084
O O3 0.123713 0.773310 0.586552
O O4 0.005399 0.677892 0.673006
O O5 0.640602 0.248708 0.279800
O O6 0.606908 0.257080 0.431056
O O7 0.617511 0.000000 0.359097
O O8 0.834279 0.500000 0.161511
O O9 0.730026 0.279417 0.153998
O O10 0.895744 0.245781 0.117543
O O11 0.060915 0.224704 0.144315
O O12 0.143261 0.000000 0.202226
O O13 0.336085 0.500000 0.501196
O O14 0.250000 0.750000 0.500000
O O15 0.976501 0.000000 0.091339
O O16 0.000000 0.776293 0.000000
#
# Coordination Sequence:
#
# PCOD9208726 Si02
#       6
#     8   8   8   8   8   8
#     4  10  21  38  59  85 120 157 199 253 308 360
#     4  11  22  38  61  88 119 157 202 251 305 362
#     4  10  21  39  62  89 119 158 203 250 303 363
#     4  10  21  38  62  89 122 163 206 250 304 367
#     4  12  25  39  57  84 119 160 207 253 301 356
#     4  10  22  40  61  89 125 160 198 250 307 365
#
# _framework density 19.452546999999999
#
# number of rings (size 3 to 8) (size 9 to 14) (size 15 to 20)
#    0.000    1.500    1.667    3.500    0.000    7.000 
#    0.000    0.000    0.000    0.000    0.000    0.000 
#    0.000    0.000    0.000    0.000    0.000    0.000 
#
# Total GULP energy -134138.013834 kJ/mol
# GULP energy per Si atom -5589.083910 kJ/mol
# Density = 1.940827 g / cm^3
# Si number density = 19.452547 Si / 1000 Ang^3
#
#
#
# Elastic Constant Matrix: (Units=GPa)
#
#
# Indices 1 2 3 4 5 6 
#
# 1 93.2585 31.2752 25.9345 0.0000 -33.2150 0.0000
# 2 31.2752 63.4022 38.9714 0.0000 -13.0981 0.0000
# 3 25.9345 38.9714 88.7357 0.0000 -29.3759 0.0000
# 4 0.0000 0.0000 0.0000 28.6217 0.0000 -9.3367
# 5 -33.2150 -13.0981 -29.3759 0.0000 22.9020 0.0000
# 6 0.0000 0.0000 0.0000 -9.3367 0.0000 31.4066
#
#
#
# Elastic Compliance Matrix: (Units=1/GPa)
#
#
# Indices 1 2 3 4 5 6 
#
# 1 0.031834 -0.013424 0.016223 0.000000 0.059300 0.000000
# 2 -0.013424 0.027267 -0.016223 0.000000 -0.024684 0.000000
# 3 0.016223 -0.016223 0.031928 0.000000 0.055203 0.000000
# 4 0.000000 0.000000 0.000000 0.038691 0.000000 0.011502
# 5 0.059300 -0.024684 0.055203 0.000000 0.186358 0.000000
# 6 0.000000 0.000000 0.000000 0.011502 0.000000 0.035260
#
#
# Mechanical properties :
#
#
# Convention : Reuss Voigt Hill
#
# Bulk Modulus (GPa) = 15.58135 48.63984 32.11060
# Shear Modulus (GPa) = 12.51315 26.53375 19.52345
#
# Velocity S-wave (km/s) = 2.53902 3.69728 3.17147
# Velocity P-wave (km/s) = 4.07711 6.57914 5.47302
#
# Compressibility (1/GPa) = 0.06417928
#
# Stress axis : x y z
#
# Youngs Moduli (GPa) = 31.41334 36.67458 31.32039
#
# Poissons Ratio (x) = 0.49232 -0.50811
# Poissons Ratio (y) = 0.42170 0.50813
# Poissons Ratio (z) = -0.50962 0.59499
#
# Static dielectric constant tensor:
#      x y z
#    x 1.694830 0.000000 0.018910 
#    y 0.000000 1.660380 0.000000 
#    z 0.018910 0.000000 1.667560 
# 
# From -- ./inp_files/267683.got.cif
#   From: 2010.05.17/outbox.cif.g08.bks.cpg/sg12_134_cif.got.tgz:267683.got - 2010.06.03 13:09:07.
