data_PCOD9208551
_publ_section_title
;
Structure prediction by ZEFSAII (Michael W. Deem and Ramdas Pophale) SiO2 
 PCOD9208551
Probable space group: C 2/M
;
_chemical_formula_sum "Si O2"
_cell_formula_units_Z 40
_cell_length_a 13.031859
_cell_length_b 26.494305
_cell_length_c 7.910825
_cell_angle_alpha 90.000000
_cell_angle_beta 128.935277
_cell_angle_gamma 90.000000
_cell_volume 2124.614253
_symmetry_space_group_name_H-M "C 2/M"
_symmetry_group_IT_number 12
_symmetry_cell_setting 'monoclinic'
loop_
_space_group_symop_operation_xyz
x,y,z
-x,y,-z
-x,-y,-z
x,-y,z
1/2+x,1/2+y,z
1/2-x,1/2+y,-z
1/2-x,1/2-y,-z
1/2+x,1/2-y,z
loop_
_atom_site_type_symbol
_atom_site_label
_atom_site_fract_x
_atom_site_fract_y
_atom_site_fract_z
Si Si1 0.641402 0.179670 0.576408
Si Si2 0.145012 0.941585 0.732656
Si Si3 0.149848 0.366660 0.212771
Si Si4 0.105601 0.857601 0.958966
Si Si5 0.179676 0.781986 0.782452
O O1 0.500000 0.163729 0.500000
O O2 0.654790 0.155087 0.406976
O O3 0.759066 0.159221 0.813144
O O4 0.643769 0.241038 0.601055
O O5 0.253365 0.913493 0.727752
O O6 0.000000 0.938983 0.500000
O O7 0.179880 0.000000 0.794182
O O8 0.130410 0.910263 0.890790
O O9 0.212630 0.321207 0.170920
O O10 0.000000 0.376820 0.000000
O O11 0.074012 0.816922 0.775253
O O12 0.000000 0.858819 0.000000
O O13 0.250000 0.750000 0.000000
#
# Coordination Sequence:
#
# PCOD9208551 Si02
#       5
#     8   8   8   8   8
#     4  11  22  36  56  84 118 155 193 233 280 335
#     4  10  22  41  63  86 112 146 189 239 296 349
#     4  11  22  39  60  84 116 153 194 239 285 338
#     4  10  21  38  58  84 116 151 192 237 284 338
#     4   9  20  34  52  81 116 152 188 226 274 330
#
# _framework density 18.826946
#
# number of rings (size 3 to 8) (size 9 to 14) (size 15 to 20)
#    0.000    1.800    0.000    5.400    0.000   12.000 
#    0.000    1.000    0.000    2.400    0.000    0.000 
#    0.000    0.000    0.000    0.000    0.000    0.000 
#
# Total GULP energy -111540.024604 kJ/mol
# GULP energy per Si atom -5577.001230 kJ/mol
# Density = 1.878410 g / cm^3
# Si number density = 18.826946 Si / 1000 Ang^3
#
#
#
# Elastic Constant Matrix: (Units=GPa)
#
#
# Indices 1 2 3 4 5 6 
#
# 1 164.9611 89.1964 49.0664 0.0000 -3.5059 0.0000
# 2 89.1964 171.2695 57.1810 0.0000 -6.6639 0.0000
# 3 49.0664 57.1810 86.0539 0.0000 3.3213 0.0000
# 4 0.0000 0.0000 0.0000 40.2492 0.0000 -0.8328
# 5 -3.5059 -6.6639 3.3213 0.0000 34.1080 0.0000
# 6 0.0000 0.0000 0.0000 -0.8328 0.0000 18.2849
#
#
#
# Elastic Compliance Matrix: (Units=1/GPa)
#
#
# Indices 1 2 3 4 5 6 
#
# 1 0.008860 -0.003733 -0.002588 0.000000 0.000433 0.000000
# 2 -0.003733 0.009209 -0.004061 0.000000 0.001811 0.000000
# 3 -0.002588 -0.004061 0.015895 0.000000 -0.002607 0.000000
# 4 0.000000 0.000000 0.000000 0.024869 0.000000 0.001133
# 5 0.000433 0.001811 -0.002607 0.000000 0.029971 0.000000
# 6 0.000000 0.000000 0.000000 0.001133 0.000000 0.054741
#
#
# Mechanical properties :
#
#
# Convention : Reuss Voigt Hill
#
# Bulk Modulus (GPa) = 75.75366 90.35245 83.05306
# Shear Modulus (GPa) = 29.63712 33.65113 31.64412
#
# Velocity S-wave (km/s) = 3.97191 4.23234 4.10419
# Velocity P-wave (km/s) = 7.83319 8.48403 8.16510
#
# Compressibility (1/GPa) = 0.01320068
#
# Stress axis : x y z
#
# Youngs Moduli (GPa) = 112.87316 108.58783 62.91362
#
# Poissons Ratio (x) = 0.40538 0.16280
# Poissons Ratio (y) = 0.42138 0.25546
# Poissons Ratio (z) = 0.29207 0.44093
#
# Static dielectric constant tensor:
#      x y z
#    x 1.671220 0.000000 -0.008830 
#    y 0.000000 1.656900 0.000000 
#    z -0.008830 0.000000 1.637450 
# 
# From -- ./inp_files/52340.got.cif
#   From: 2010.05.17/outbox.cif.g08.bks.cpg/sg12_27_cif.got.tgz:52340.got - 2010.06.03 13:09:07.
