data_PCOD9208810
_publ_section_title
;
Structure prediction by ZEFSAII (Michael W. Deem and Ramdas Pophale) SiO2 
 PCOD9208810
Probable space group: C 2/M
;
_chemical_formula_sum "Si O2"
_cell_formula_units_Z 56
_cell_length_a 13.048821
_cell_length_b 26.065524
_cell_length_c 11.520725
_cell_angle_alpha 90.000000
_cell_angle_beta 45.843676
_cell_angle_gamma 90.000000
_cell_volume 2811.280920
_symmetry_space_group_name_H-M "C 2/M"
_symmetry_group_IT_number 12
_symmetry_cell_setting 'monoclinic'
loop_
_space_group_symop_operation_xyz
x,y,z
-x,y,-z
-x,-y,-z
x,-y,z
1/2+x,1/2+y,z
1/2-x,1/2+y,-z
1/2-x,1/2-y,-z
1/2+x,1/2-y,z
loop_
_atom_site_type_symbol
_atom_site_label
_atom_site_fract_x
_atom_site_fract_y
_atom_site_fract_z
Si Si1 0.337237 0.345778 0.128733
Si Si2 0.831919 0.870242 0.661697
Si Si3 0.874641 0.373815 0.506826
Si Si4 0.181526 0.626944 0.009923
Si Si5 0.163137 0.712836 0.650183
Si Si6 0.597107 0.939861 0.723397
Si Si7 0.119930 0.740628 0.018238
O O1 0.264002 0.361683 0.306782
O O2 0.500000 0.364966 0.000000
O O3 0.247328 0.365152 0.086896
O O4 0.348299 0.284047 0.101553
O O5 0.807606 0.881259 0.817432
O O6 0.762917 0.816585 0.665991
O O7 0.731916 0.912790 0.679028
O O8 0.000000 0.871481 0.500000
O O9 0.894382 0.331757 0.389973
O O10 0.881746 0.426424 0.429612
O O11 0.000000 0.370310 0.500000
O O12 0.117380 0.679414 0.004829
O O13 0.052422 0.586302 0.117313
O O14 0.250000 0.750000 0.500000
O O15 0.030771 0.746209 0.799863
O O16 0.593170 0.000000 0.748304
O O17 0.250000 0.750000 0.000000
#
# Coordination Sequence:
#
# PCOD9208810 Si02
#       7
#     8   8   8   8   8   8   8
#     4  11  24  37  66  96 140 187 220 271 343 411
#     4  11  27  43  69  98 140 179 229 293 346 409
#     4  11  21  43  65  99 135 175 226 287 338 414
#     4  11  23  45  64  99 138 175 231 285 340 412
#     4  11  24  39  60  97 140 187 229 272 333 407
#     4  11  25  48  77  99 127 177 235 299 356 407
#     4  10  21  38  59  93 132 184 226 267 326 396
#
# _framework density 19.919746
#
# number of rings (size 3 to 8) (size 9 to 14) (size 15 to 20)
#    0.000    1.143    4.286    2.143   12.000    2.286 
#    0.000    0.000    0.000    0.857    0.000    0.000 
#    0.000    0.000    0.000    0.000    0.000    0.000 
#
# Total GULP energy -156118.169842 kJ/mol
# GULP energy per Si atom -5575.648923 kJ/mol
# Density = 1.987441 g / cm^3
# Si number density = 19.919746 Si / 1000 Ang^3
#
#
#
# Elastic Constant Matrix: (Units=GPa)
#
#
# Indices 1 2 3 4 5 6 
#
# 1 105.7719 18.7155 41.3320 0.0000 -6.9617 0.0000
# 2 18.7155 104.1074 39.2170 0.0000 -12.3759 0.0000
# 3 41.3320 39.2170 165.4547 0.0000 -15.3055 0.0000
# 4 0.0000 0.0000 0.0000 25.9111 0.0000 -3.5744
# 5 -6.9617 -12.3759 -15.3055 0.0000 41.0520 0.0000
# 6 0.0000 0.0000 0.0000 -3.5744 0.0000 13.5508
#
#
#
# Elastic Compliance Matrix: (Units=1/GPa)
#
#
# Indices 1 2 3 4 5 6 
#
# 1 0.010585 -0.000938 -0.002364 0.000000 0.000631 0.000000
# 2 -0.000938 0.010849 -0.002123 0.000000 0.002320 0.000000
# 3 -0.002364 -0.002123 0.007293 0.000000 0.001678 0.000000
# 4 0.000000 0.000000 0.000000 0.040051 0.000000 0.010565
# 5 0.000631 0.002320 0.001678 0.000000 0.025792 0.000000
# 6 0.000000 0.000000 0.000000 0.010565 0.000000 0.076583
#
#
# Mechanical properties :
#
#
# Convention : Reuss Voigt Hill
#
# Bulk Modulus (GPa) = 55.92926 63.76255 59.84591
# Shear Modulus (GPa) = 26.60122 34.50740 30.55431
#
# Velocity S-wave (km/s) = 3.65830 4.16663 3.92071
# Velocity P-wave (km/s) = 6.78104 7.43148 7.11370
#
# Compressibility (1/GPa) = 0.01787973
#
# Stress axis : x y z
#
# Youngs Moduli (GPa) = 94.46975 92.17031 137.12119
#
# Poissons Ratio (x) = 0.08641 0.32412
# Poissons Ratio (y) = 0.08857 0.29108
# Poissons Ratio (z) = 0.22330 0.19566
#
# Static dielectric constant tensor:
#      x y z
#    x 1.724680 0.000000 0.005630 
#    y 0.000000 1.730590 0.000000 
#    z 0.005630 0.000000 1.739520 
# 
# From -- ./inp_files/149456.got.cif
#   From: 2010.05.17/outbox.cif.g08.bks.cpg/sg12_75_cif.got.tgz:149456.got - 2010.06.03 13:09:07.
