data_PCOD9208491
_publ_section_title
;
Structure prediction by ZEFSAII (Michael W. Deem and Ramdas Pophale) SiO2 
 PCOD9208491
Probable space group: C 2/M
;
_chemical_formula_sum "Si O2"
_cell_formula_units_Z 40
_cell_length_a 5.050206
_cell_length_b 12.810627
_cell_length_c 30.066641
_cell_angle_alpha 90.000000
_cell_angle_beta 74.756506
_cell_angle_gamma 90.000000
_cell_volume 1876.762954
_symmetry_space_group_name_H-M "C 2/M"
_symmetry_group_IT_number 12
_symmetry_cell_setting 'monoclinic'
loop_
_space_group_symop_operation_xyz
x,y,z
-x,y,-z
-x,-y,-z
x,-y,z
1/2+x,1/2+y,z
1/2-x,1/2+y,-z
1/2-x,1/2-y,-z
1/2+x,1/2-y,z
loop_
_atom_site_type_symbol
_atom_site_label
_atom_site_fract_x
_atom_site_fract_y
_atom_site_fract_z
Si Si1 0.924807 0.322803 0.598187
Si Si2 0.500000 0.173456 0.500000
Si Si3 0.356113 0.678561 0.892352
Si Si4 0.197598 0.000000 0.033252
Si Si5 0.374830 0.678829 0.207300
Si Si6 0.351443 0.322354 0.304372
O O1 0.721695 0.223361 0.598172
O O2 0.940390 0.380203 0.549955
O O3 0.787095 0.376522 0.646987
O O4 0.750000 0.250000 0.500000
O O5 0.557735 0.774999 0.894845
O O6 0.347496 0.599699 0.933325
O O7 0.485751 0.628247 0.841867
O O8 0.500000 0.000000 0.000000
O O9 0.000000 0.000000 0.000000
O O10 0.574663 0.779026 0.207606
O O11 0.365429 0.623796 0.255628
O O12 0.647730 0.276837 0.304410
#
# Coordination Sequence:
#
# PCOD9208491 Si02
#       6
#     8   4   8   4   8   8
#     4   8  12  16  22  33  52  79 113 155 198 243
#     4   8  12  16  20  28  46  76 112 149 194 243
#     4  10  21  38  58  79 106 137 168 207 251 294
#     4  12  26  40  58  84 108 136 174 207 244 297
#     4   8  14  25  42  62  83 110 143 180 226 275
#     4   8  12  18  29  46  66  89 123 166 208 254
#
# _framework density 21.313293999999999
#
# number of rings (size 3 to 8) (size 9 to 14) (size 15 to 20)
#    0.000    3.200    0.000    1.200    0.000    2.400 
#    0.000    0.000    0.000    0.000    0.000    0.000 
#    0.000    0.000    0.000    0.000    0.000    1.000 
#
# Total GULP energy -111342.561483 kJ/mol
# GULP energy per Si atom -5567.128074 kJ/mol
# Density = 2.126478 g / cm^3
# Si number density = 21.313294 Si / 1000 Ang^3
#
#
#
# Elastic Constant Matrix: (Units=GPa)
#
#
# Indices 1 2 3 4 5 6 
#
# 1 112.0064 3.4748 12.3590 0.0000 4.3662 0.0000
# 2 3.4748 46.3070 33.7561 0.0000 2.2020 0.0000
# 3 12.3590 33.7561 257.7143 0.0000 10.3708 0.0000
# 4 0.0000 0.0000 0.0000 -40.2775 0.0000 -3.4208
# 5 4.3662 2.2020 10.3708 0.0000 38.8231 0.0000
# 6 0.0000 0.0000 0.0000 -3.4208 0.0000 -1.7964
#
#
#
# Elastic Compliance Matrix: (Units=1/GPa)
#
#
# Indices 1 2 3 4 5 6 
#
# 1 0.009013 -0.000381 -0.000346 0.000000 -0.000900 0.000000
# 2 -0.000381 0.023901 -0.003093 0.000000 -0.000487 0.000000
# 3 -0.000346 -0.003093 0.004340 0.000000 -0.000945 0.000000
# 4 0.000000 0.000000 0.000000 -0.029618 0.000000 0.056400
# 5 -0.000900 -0.000487 -0.000945 0.000000 0.026139 0.000000
# 6 0.000000 0.000000 0.000000 0.056400 0.000000 -0.664069
#
#
# Mechanical properties :
#
#
# Convention : Reuss Voigt Hill
#
# Bulk Modulus (GPa) = 33.76765 57.24527 45.50646
# Shear Modulus (GPa) = -8.15951 23.77903 7.80976
#
# Velocity S-wave (km/s) = -1.95874 3.34382 1.91630
# Velocity P-wave (km/s) = 3.28059 6.46726 5.12775
#
# Compressibility (1/GPa) = 0.02961414
#
# Stress axis : x y z
#
# Youngs Moduli (GPa) = 110.94903 41.83876 230.41514
#
# Poissons Ratio (x) = 0.01595 0.07975
# Poissons Ratio (y) = 0.04230 0.71263
# Poissons Ratio (z) = 0.03840 0.12940
#
# Static dielectric constant tensor:
#      x y z
#    x 1.707500 0.000000 -0.001550 
#    y 0.000000 1.352910 0.000000 
#    z -0.001550 0.000000 1.899110 
# 
# From -- ./inp_files/371345.got.cif
#   From: 2010.05.17/outbox.cif.g08.bks.cpg/sg12_186_cif.got.tgz:371345.got - 2010.06.03 13:09:07.
