data_PCOD9208889
_publ_section_title
;
Structure prediction by ZEFSAII (Michael W. Deem and Ramdas Pophale) SiO2 
 PCOD9208889
Probable space group: C 2/M
;
_chemical_formula_sum "Si O2"
_cell_formula_units_Z 44
_cell_length_a 8.987732
_cell_length_b 24.820159
_cell_length_c 9.580462
_cell_angle_alpha 90.000000
_cell_angle_beta 64.018041
_cell_angle_gamma 90.000000
_cell_volume 1921.179673
_symmetry_space_group_name_H-M "C 2/M"
_symmetry_group_IT_number 12
_symmetry_cell_setting 'monoclinic'
loop_
_space_group_symop_operation_xyz
x,y,z
-x,y,-z
-x,-y,-z
x,-y,z
1/2+x,1/2+y,z
1/2-x,1/2+y,-z
1/2-x,1/2-y,-z
1/2+x,1/2-y,z
loop_
_atom_site_type_symbol
_atom_site_label
_atom_site_fract_x
_atom_site_fract_y
_atom_site_fract_z
Si Si1 0.673300 0.836386 0.728644
Si Si2 0.673813 0.711701 0.748298
Si Si3 0.500000 0.399947 0.500000
Si Si4 0.387694 0.883711 0.662747
Si Si5 0.335579 0.336269 0.935438
Si Si6 0.044400 0.938706 0.792730
O O1 0.688019 0.772613 0.697204
O O2 0.835438 0.865620 0.600682
O O3 0.509737 0.864623 0.735015
O O4 0.684994 0.838701 0.892132
O O5 0.806971 0.670883 0.629911
O O6 0.485279 0.695015 0.796005
O O7 0.690497 0.695347 0.908136
O O8 0.533837 0.432268 0.628664
O O9 0.500000 0.911036 0.500000
O O10 0.228830 0.919802 0.760232
O O11 0.412819 0.396177 0.909257
O O12 0.010634 0.000000 0.842830
#
# Coordination Sequence:
#
# PCOD9208889 Si02
#       6
#     8   8   4   8   8   8
#     4  11  21  36  60  89 131 168 194 255 303 372
#     4  10  21  38  60  85 125 165 201 248 306 366
#     4  10  21  38  60  98 122 164 213 246 300 390
#     4  11  23  38  55  94 130 158 210 251 307 372
#     4   9  21  40  59  93 119 159 222 242 298 378
#     4  10  21  42  66  88 122 164 208 266 311 351
#
# _framework density 22.902595000000002
#
# number of rings (size 3 to 8) (size 9 to 14) (size 15 to 20)
#    0.000    1.818    1.818    1.909    1.273    3.273 
#    0.000   10.909    0.000    0.000    0.000   14.000 
#    0.000    0.000    0.000    0.000    0.000    0.000 
#
# Total GULP energy -122945.794012 kJ/mol
# GULP energy per Si atom -5588.445182 kJ/mol
# Density = 2.285047 g / cm^3
# Si number density = 22.902595 Si / 1000 Ang^3
#
#
#
# Elastic Constant Matrix: (Units=GPa)
#
#
# Indices 1 2 3 4 5 6 
#
# 1 137.6697 6.7676 23.6245 0.0000 15.7803 0.0000
# 2 6.7676 124.4896 -1.4497 0.0000 -2.5339 0.0000
# 3 23.6245 -1.4497 91.2190 0.0000 13.5315 0.0000
# 4 0.0000 0.0000 0.0000 -80.0209 0.0000 -12.1043
# 5 15.7803 -2.5339 13.5315 0.0000 46.9818 0.0000
# 6 0.0000 0.0000 0.0000 -12.1043 0.0000 1.3318
#
#
#
# Elastic Compliance Matrix: (Units=1/GPa)
#
#
# Indices 1 2 3 4 5 6 
#
# 1 0.007830 -0.000490 -0.001715 0.000000 -0.002162 0.000000
# 2 -0.000490 0.008073 0.000174 0.000000 0.000550 0.000000
# 3 -0.001715 0.000174 0.011828 0.000000 -0.002821 0.000000
# 4 0.000000 0.000000 0.000000 -0.005262 0.000000 -0.047827
# 5 -0.002162 0.000550 -0.002821 0.000000 0.022853 0.000000
# 6 0.000000 0.000000 0.000000 -0.047827 0.000000 0.316184
#
#
# Mechanical properties :
#
#
# Convention : Reuss Voigt Hill
#
# Bulk Modulus (GPa) = 42.24990 45.69590 43.97290
# Shear Modulus (GPa) = 13.38842 15.28760 14.33801
#
# Velocity S-wave (km/s) = 2.42043 2.58641 2.50480
# Velocity P-wave (km/s) = 5.12826 5.37727 5.25424
#
# Compressibility (1/GPa) = 0.02366870
#
# Stress axis : x y z
#
# Youngs Moduli (GPa) = 127.71432 123.87539 84.54499
#
# Poissons Ratio (x) = 0.06065 0.14498
# Poissons Ratio (y) = 0.06253 -0.01467
# Poissons Ratio (z) = 0.21901 -0.02150
#
# Static dielectric constant tensor:
#      x y z
#    x 1.868420 0.000000 0.063950 
#    y 0.000000 1.820460 0.000000 
#    z 0.063950 0.000000 1.982370 
# 
# From -- ./inp_files/121768.got.cif
#   From: 2010.05.17/outbox.cif.g08.bks.cpg/sg12_61_cif.got.tgz:121768.got - 2010.06.03 13:09:07.
