data_PCOD9208161
_publ_section_title
;
Structure prediction by ZEFSAII (Michael W. Deem and Ramdas Pophale) SiO2 
 PCOD9208161
Probable space group: C 2/M
;
_chemical_formula_sum "Si O2"
_cell_formula_units_Z 40
_cell_length_a 12.125231
_cell_length_b 17.233601
_cell_length_c 19.499292
_cell_angle_alpha 90.000000
_cell_angle_beta 151.455822
_cell_angle_gamma 90.000000
_cell_volume 1946.991137
_symmetry_space_group_name_H-M "C 2/M"
_symmetry_group_IT_number 12
_symmetry_cell_setting 'monoclinic'
loop_
_space_group_symop_operation_xyz
x,y,z
-x,y,-z
-x,-y,-z
x,-y,z
1/2+x,1/2+y,z
1/2-x,1/2+y,-z
1/2-x,1/2-y,-z
1/2+x,1/2-y,z
loop_
_atom_site_type_symbol
_atom_site_label
_atom_site_fract_x
_atom_site_fract_y
_atom_site_fract_z
Si Si1 0.246447 0.000000 0.946633
Si Si2 0.213897 0.747401 0.083244
Si Si3 0.490574 0.651230 0.841362
Si Si4 0.705595 0.500000 0.762127
Si Si5 0.950516 0.321672 0.333015
Si Si6 0.457208 0.648363 0.559337
O O1 0.138666 0.074441 0.923562
O O2 0.172436 0.000000 0.826157
O O3 0.520793 0.000000 0.100792
O O4 0.434193 0.694862 0.186978
O O5 0.304819 0.812737 0.183741
O O6 0.092923 0.789472 0.953513
O O7 0.000000 0.700475 0.000000
O O8 0.221559 0.637028 0.707487
O O9 0.597653 0.577505 0.669562
O O10 0.193193 0.357464 0.442889
O O11 0.972890 0.234198 0.375601
O O12 0.500000 0.646330 0.500000
#
# Coordination Sequence:
#
# PCOD9208161 Si02
#       6
#     4   8   8   4   8   8
#     4  11  26  41  63  92 124 161 209 260 310 364
#     4   9  19  35  63  91 123 160 204 253 306 362
#     4  10  21  37  62  93 124 161 201 261 307 358
#     4  11  27  43  62  91 126 165 210 253 309 371
#     4  10  22  40  64  94 122 160 211 253 305 367
#     4  11  24  42  65  92 126 169 205 250 306 375
#
# _framework density 20.544521
#
# number of rings (size 3 to 8) (size 9 to 14) (size 15 to 20)
#    0.000    1.800    0.000    2.700   14.000    2.400 
#    0.000    5.500    0.000    0.000    0.000    0.000 
#    0.000    0.000    0.000    0.000    0.000    0.000 
#
# Total GULP energy -111522.868670 kJ/mol
# GULP energy per Si atom -5576.143433 kJ/mol
# Density = 2.049776 g / cm^3
# Si number density = 20.544521 Si / 1000 Ang^3
#
#
#
# Elastic Constant Matrix: (Units=GPa)
#
#
# Indices 1 2 3 4 5 6 
#
# 1 123.4578 36.4189 58.5598 -0.0008 40.1069 0.0011
# 2 36.4189 51.1548 19.9129 -0.0012 20.9781 -0.0001
# 3 58.5598 19.9129 86.0546 0.0057 24.5296 -0.0050
# 4 -0.0008 -0.0012 0.0057 27.8291 -0.0002 9.4588
# 5 40.1069 20.9781 24.5296 -0.0002 39.7963 -0.0017
# 6 0.0011 -0.0001 -0.0050 9.4588 -0.0017 -34.5758
#
#
#
# Elastic Compliance Matrix: (Units=1/GPa)
#
#
# Indices 1 2 3 4 5 6 
#
# 1 0.015804 -0.004791 -0.007068 0.000001 -0.009046 0.000002
# 2 -0.004791 0.026827 -0.000355 0.000001 -0.009094 0.000000
# 3 -0.007068 -0.000355 0.017504 -0.000003 -0.003479 -0.000003
# 4 0.000001 0.000001 -0.000003 0.032877 0.000001 0.008994
# 5 -0.009046 -0.009094 -0.003479 0.000001 0.041183 -0.000002
# 6 0.000002 0.000000 -0.000003 0.008994 -0.000002 -0.026462
#
#
# Mechanical properties :
#
#
# Convention : Reuss Voigt Hill
#
# Bulk Modulus (GPa) = 28.00515 54.49449 41.24982
# Shear Modulus (GPa) = 34.70703 16.32830 25.51766
#
# Velocity S-wave (km/s) = 4.11464 2.82224 3.52812
# Velocity P-wave (km/s) = 6.01953 6.09940 6.05959
#
# Compressibility (1/GPa) = 0.03570772
#
# Stress axis : x y z
#
# Youngs Moduli (GPa) = 63.27430 37.27580 57.13010
#
# Poissons Ratio (x) = 0.17858 0.40377
# Poissons Ratio (y) = 0.30313 0.02030
# Poissons Ratio (z) = 0.44720 0.01325
#
# Static dielectric constant tensor:
#      x y z
#    x 1.863540 0.000000 0.022470 
#    y 0.000000 1.748690 0.000000 
#    z 0.022470 0.000000 1.745720 
# 
# From -- ./inp_files/306316.got.cif
#   From: 2010.05.17/outbox.cif.g08.bks.cpg/sg12_154_cif.got.tgz:306316.got - 2010.06.03 13:09:07.
