data_PCOD9208565
_publ_section_title
;
Structure prediction by ZEFSAII (Michael W. Deem and Ramdas Pophale) SiO2 
 PCOD9208565
Probable space group: C 2/M
;
_chemical_formula_sum "Si O2"
_cell_formula_units_Z 64
_cell_length_a 14.743481
_cell_length_b 8.508569
_cell_length_c 33.262596
_cell_angle_alpha 90.000000
_cell_angle_beta 129.796623
_cell_angle_gamma 90.000000
_cell_volume 3205.941147
_symmetry_space_group_name_H-M "C 2/M"
_symmetry_group_IT_number 12
_symmetry_cell_setting 'monoclinic'
loop_
_space_group_symop_operation_xyz
x,y,z
-x,y,-z
-x,-y,-z
x,-y,z
1/2+x,1/2+y,z
1/2-x,1/2+y,-z
1/2-x,1/2-y,-z
1/2+x,1/2-y,z
loop_
_atom_site_type_symbol
_atom_site_label
_atom_site_fract_x
_atom_site_fract_y
_atom_site_fract_z
Si Si1 0.880533 0.189096 0.916693
Si Si2 0.244675 0.811458 0.801263
Si Si3 0.903177 0.317700 0.381813
Si Si4 0.707525 0.187390 0.272530
Si Si5 0.867667 0.815866 0.455154
Si Si6 0.150122 0.189786 0.001493
Si Si7 0.623044 0.313816 0.403849
Si Si8 0.471560 0.689717 0.712271
O O1 0.802317 0.243884 0.857493
O O2 0.834457 0.240934 0.947591
O O3 0.881400 0.000000 0.917548
O O4 0.017404 0.240361 0.951556
O O5 0.313582 0.768403 0.779826
O O6 0.108146 0.764721 0.756054
O O7 0.246315 0.000000 0.804944
O O8 0.888683 0.500000 0.388271
O O9 0.824957 0.274431 0.321137
O O10 0.853137 0.211715 0.403496
O O11 0.037831 0.275168 0.410406
O O12 0.605142 0.234746 0.274124
O O13 0.728423 0.000000 0.279998
O O14 0.759955 0.730362 0.446183
O O15 0.000000 0.753860 0.500000
O O16 0.864720 0.000000 0.464566
O O17 0.152316 0.000000 0.001534
O O18 0.250000 0.250000 0.000000
O O19 0.606073 0.500000 0.404199
O O20 0.579745 0.269952 0.346359
O O21 0.462514 0.500000 0.712866
#
# Coordination Sequence:
#
# PCOD9208565 Si02
#       8
#     8   8   8   8   8   8   8   8
#     4   9  20  38  57  82 117 154 193 240 292 345
#     4  10  22  39  57  83 122 157 193 242 294 346
#     4  12  24  39  63  91 120 157 199 242 295 356
#     4  11  22  38  59  85 118 156 198 244 293 350
#     4  11  25  44  65  91 122 155 196 249 304 357
#     4   9  19  37  60  84 114 152 195 242 291 346
#     4  11  22  40  65  90 120 156 197 245 295 353
#     4  10  21  38  58  85 117 154 195 240 294 350
#
# _framework density 19.962937
#
# number of rings (size 3 to 8) (size 9 to 14) (size 15 to 20)
#    0.000    1.625    2.500    3.000    0.000    5.500 
#    0.000    6.250    0.000    0.000    0.000    0.000 
#    0.000    0.000    0.000    0.000    0.000    0.000 
#
# Total GULP energy -178801.563117 kJ/mol
# GULP energy per Si atom -5587.548847 kJ/mol
# Density = 1.991750 g / cm^3
# Si number density = 19.962937 Si / 1000 Ang^3
#
#
#
# Elastic Constant Matrix: (Units=GPa)
#
#
# Indices 1 2 3 4 5 6 
#
# 1 90.2741 4.7980 -6.5275 0.0000 -0.0412 0.0000
# 2 4.7980 14.0632 -2.2803 0.0000 4.1355 0.0000
# 3 -6.5275 -2.2803 47.6757 0.0000 3.9361 0.0000
# 4 0.0000 0.0000 0.0000 27.5478 0.0000 4.9906
# 5 -0.0412 4.1355 3.9361 0.0000 17.2042 0.0000
# 6 0.0000 0.0000 0.0000 4.9906 0.0000 28.1432
#
#
#
# Elastic Compliance Matrix: (Units=1/GPa)
#
#
# Indices 1 2 3 4 5 6 
#
# 1 0.011378 -0.003860 0.001319 0.000000 0.000653 0.000000
# 2 -0.003860 0.079151 0.004922 0.000000 -0.020161 0.000000
# 3 0.001319 0.004922 0.021902 0.000000 -0.006191 0.000000
# 4 0.000000 0.000000 0.000000 0.037505 0.000000 -0.006651
# 5 0.000653 -0.020161 -0.006191 0.000000 0.064389 0.000000
# 6 0.000000 0.000000 0.000000 -0.006651 0.000000 0.036712
#
#
# Mechanical properties :
#
#
# Convention : Reuss Voigt Hill
#
# Bulk Modulus (GPa) = 8.53289 15.99925 12.26607
# Shear Modulus (GPa) = 17.52287 24.98056 21.25172
#
# Velocity S-wave (km/s) = 2.96593 3.54128 3.26630
# Velocity P-wave (km/s) = 4.00158 4.97521 4.51472
#
# Compressibility (1/GPa) = 0.11719354
#
# Stress axis : x y z
#
# Youngs Moduli (GPa) = 87.88715 12.63401 45.65755
#
# Poissons Ratio (x) = 0.04877 -0.06024
# Poissons Ratio (y) = 0.33925 -0.22471
# Poissons Ratio (z) = -0.11595 -0.06218
#
# Static dielectric constant tensor:
#      x y z
#    x 1.699900 0.000000 0.002100 
#    y 0.000000 1.677650 0.000000 
#    z 0.002100 0.000000 1.722710 
# 
# From -- ./inp_files/375551.got.cif
#   From: 2010.05.17/outbox.cif.g08.bks.cpg/sg12_188_cif.got.tgz:375551.got - 2010.06.03 13:09:07.
