data_PCOD9208219
_publ_section_title
;
Structure prediction by ZEFSAII (Michael W. Deem and Ramdas Pophale) SiO2 
 PCOD9208219
Probable space group: C 2/M
;
_chemical_formula_sum "Si O2"
_cell_formula_units_Z 42
_cell_length_a 21.036612
_cell_length_b 13.013968
_cell_length_c 15.440138
_cell_angle_alpha 90.000000
_cell_angle_beta 25.512367
_cell_angle_gamma 90.000000
_cell_volume 1820.612563
_symmetry_space_group_name_H-M "C 2/M"
_symmetry_group_IT_number 12
_symmetry_cell_setting 'monoclinic'
loop_
_space_group_symop_operation_xyz
x,y,z
-x,y,-z
-x,-y,-z
x,-y,z
1/2+x,1/2+y,z
1/2-x,1/2+y,-z
1/2-x,1/2-y,-z
1/2+x,1/2-y,z
loop_
_atom_site_type_symbol
_atom_site_label
_atom_site_fract_x
_atom_site_fract_y
_atom_site_fract_z
Si Si1 0.059159 0.814205 0.744087
Si Si2 0.768723 0.614060 0.834288
Si Si3 0.900499 0.383679 0.865149
Si Si4 0.308462 0.843305 0.310233
Si Si5 0.167766 0.166084 0.300150
Si Si6 0.000000 0.500000 0.000000
O O1 0.184775 0.867813 0.533242
O O2 0.134392 0.770909 0.738808
O O3 0.010796 0.710061 0.750977
O O4 0.908965 0.874891 0.942801
O O5 0.808878 0.500000 0.754388
O O6 0.832732 0.629653 0.852377
O O7 0.825416 0.709721 0.709238
O O8 0.960253 0.500000 0.794666
O O9 0.766387 0.371938 0.098895
O O10 0.236785 0.867141 0.305845
O O11 0.452915 0.911899 0.128682
O O12 0.000000 0.131583 0.500000
#
# Coordination Sequence:
#
# PCOD9208219 Si02
#       6
#     8   8   8   8   8   2
#     4  10  22  43  60  87 129 167 205 252 322 383
#     4  10  21  38  62  86 121 170 214 251 302 381
#     4  10  21  37  63  92 121 167 212 257 309 379
#     4  11  25  39  64  91 125 162 203 260 326 370
#     4  11  22  39  61  91 128 160 203 270 317 364
#     4  12  24  40  66  96 126 154 212 274 308 362
#
# _framework density 23.069158999999999
#
# number of rings (size 3 to 8) (size 9 to 14) (size 15 to 20)
#    0.000    1.524    0.000    6.857    6.667    0.762 
#    0.000    2.857    0.000    0.000    0.000    0.000 
#    0.000    0.000    0.000    0.000    0.000    0.000 
#
# Total GULP energy -117186.476808 kJ/mol
# GULP energy per Si atom -5580.308419 kJ/mol
# Density = 2.301665 g / cm^3
# Si number density = 23.069159 Si / 1000 Ang^3
#
#
#
# Elastic Constant Matrix: (Units=GPa)
#
#
# Indices 1 2 3 4 5 6 
#
# 1 60.9936 -23.2018 -4.9031 -0.0098 -14.6763 0.0057
# 2 -23.2018 80.6055 -2.1528 -0.0090 2.8479 0.0052
# 3 -4.9031 -2.1528 97.4867 -0.0213 -13.0847 0.0124
# 4 -0.0098 -0.0090 -0.0213********** 0.007312063.2253
# 5 -14.6763 2.8479 -13.0847 0.0073 31.1151 -0.0042
# 6 0.0057 0.0052 0.012412063.2253 -0.0042-6996.1466
#
#
#
# Elastic Compliance Matrix: (Units=1/GPa)
#
#
# Indices 1 2 3 4 5 6 
#
# 1 0.021401 0.005854 0.002637 0.000000 0.010668 0.000000
# 2 0.005854 0.014049 0.000851 0.000000 0.001833 0.000000
# 3 0.002637 0.000851 0.011198 0.000000 0.005875 0.000000
# 4 0.000000 0.000000 0.000000 0.015460 0.000000 0.026657
# 5 0.010668 0.001833 0.005875 0.000000 0.039473 0.000000
# 6 0.000000 0.000000 0.000000 0.026657 0.000000 0.045822
#
#
# Mechanical properties :
#
#
# Convention : Reuss Voigt Hill
#
# Bulk Modulus (GPa) = 15.30670 19.84116 17.57393
# Shear Modulus (GPa) = 33.22346 -5522.15806 -2744.46730
#
# Velocity S-wave (km/s) = 3.79907 -48.97895 -34.52900
# Velocity P-wave (km/s) = 5.08856 56.47976 39.77480
#
# Compressibility (1/GPa) = 0.06533087
#
# Stress axis : x y z
#
# Youngs Moduli (GPa) = 46.72743 71.17951 89.30322
#
# Poissons Ratio (x) = -0.41666 -0.23553
# Poissons Ratio (y) = -0.27352 -0.07597
# Poissons Ratio (z) = -0.12324 -0.06055
#
# Static dielectric constant tensor:
#      x y z
#    x 1.910370 0.000000 -0.070240 
#    y 0.000000 1.617330 0.000000 
#    z -0.070240 0.000000 1.876130 
# 
# From -- ./inp_files/233618.got.cif
#   From: 2010.05.17/outbox.cif.g08.bks.cpg/sg12_117_cif.got.tgz:233618.got - 2010.06.03 13:09:07.
