data_PCOD9208259
_publ_section_title
;
Structure prediction by ZEFSAII (Michael W. Deem and Ramdas Pophale) SiO2 
 PCOD9208259
Probable space group: C 2/M
;
_chemical_formula_sum "Si O2"
_cell_formula_units_Z 48
_cell_length_a 19.329005
_cell_length_b 13.349073
_cell_length_c 22.756985
_cell_angle_alpha 90.000000
_cell_angle_beta 22.585335
_cell_angle_gamma 90.000000
_cell_volume 2255.138867
_symmetry_space_group_name_H-M "C 2/M"
_symmetry_group_IT_number 12
_symmetry_cell_setting 'monoclinic'
loop_
_space_group_symop_operation_xyz
x,y,z
-x,y,-z
-x,-y,-z
x,-y,z
1/2+x,1/2+y,z
1/2-x,1/2+y,-z
1/2-x,1/2-y,-z
1/2+x,1/2-y,z
loop_
_atom_site_type_symbol
_atom_site_label
_atom_site_fract_x
_atom_site_fract_y
_atom_site_fract_z
Si Si1 0.683657 0.886289 0.891391
Si Si2 0.780769 0.287633 0.909960
Si Si3 0.028271 0.796489 0.408168
Si Si4 0.432823 0.390321 0.203968
Si Si5 0.706434 0.615188 0.814245
Si Si6 0.170570 0.718562 0.623897
O O1 0.736185 0.805357 0.900852
O O2 0.833137 0.879015 0.723480
O O3 0.671707 0.000000 0.924420
O O4 0.500000 0.862695 0.000000
O O5 0.981544 0.331302 0.754253
O O6 0.750000 0.250000 0.000000
O O7 0.628834 0.370744 0.022328
O O8 0.130565 0.694661 0.302823
O O9 0.000000 0.789585 0.500000
O O10 0.837108 0.825200 0.529356
O O11 0.422480 0.500000 0.237961
O O12 0.306196 0.381696 0.246757
O O13 0.385394 0.311565 0.290911
O O14 0.745954 0.500000 0.800851
O O15 0.500000 0.637790 0.000000
O O16 0.250000 0.750000 0.500000
#
# Coordination Sequence:
#
# PCOD9208259 Si02
#       6
#     8   8   8   8   8   8
#     4  11  25  45  70  95 126 176 231 274 320 383
#     4  10  22  41  66  92 130 170 218 267 322 384
#     4  12  23  40  69  92 134 172 210 270 329 386
#     4  10  21  40  66  96 128 167 208 257 318 390
#     4  10  21  37  63  98 129 163 211 256 313 394
#     4  11  23  41  61  94 130 173 213 261 325 388
#
# _framework density 21.28472
#
# number of rings (size 3 to 8) (size 9 to 14) (size 15 to 20)
#    0.000    1.333    3.333    2.500    2.333    4.000 
#    0.000    1.667    0.000    1.000    0.000    0.000 
#    0.000    0.000    0.000    0.000    0.000    0.000 
#
# Total GULP energy -133658.494782 kJ/mol
# GULP energy per Si atom -5569.103949 kJ/mol
# Density = 2.123627 g / cm^3
# Si number density = 21.284720 Si / 1000 Ang^3
#
#
#
# Elastic Constant Matrix: (Units=GPa)
#
#
# Indices 1 2 3 4 5 6 
#
# 1 118.4741 12.5563 39.8704 0.0015 -2.5045 0.0008
# 2 12.5563 56.4856 -0.4948 -0.0091 -1.0501 -0.0017
# 3 39.8704 -0.4948 109.3391 -0.0029 -12.4433 -0.0004
# 4 0.0015 -0.0091 -0.0029 5.5971 -0.0005 8.6820
# 5 -2.5045 -1.0501 -12.4433 -0.0005 51.7378 0.0007
# 6 0.0008 -0.0017 -0.0004 8.6820 0.0007 14.1236
#
#
#
# Elastic Compliance Matrix: (Units=1/GPa)
#
#
# Indices 1 2 3 4 5 6 
#
# 1 0.009905 -0.002242 -0.003673 -0.000148 -0.000449 0.000090
# 2 -0.002242 0.018220 0.000956 0.000582 0.000491 -0.000355
# 3 -0.003673 0.000956 0.010766 0.000165 0.002431 -0.000101
# 4 -0.000148 0.000582 0.000165 3.844251 0.000112 -2.363127
# 5 -0.000449 0.000491 0.002431 0.000112 0.019901 -0.000070
# 6 0.000090 -0.000355 -0.000101 -2.363127 -0.000070 1.523458
#
#
# Mechanical properties :
#
#
# Convention : Reuss Voigt Hill
#
# Bulk Modulus (GPa) = 34.51613 43.12919 38.82266
# Shear Modulus (GPa) = 0.91809 29.78283 15.35046
#
# Velocity S-wave (km/s) = 0.65748 3.74473 2.68842
# Velocity P-wave (km/s) = 4.10219 6.24534 5.28357
#
# Compressibility (1/GPa) = 0.02897196
#
# Stress axis : x y z
#
# Youngs Moduli (GPa) = 100.95971 54.88577 92.88294
#
# Poissons Ratio (x) = 0.12307 0.34117
# Poissons Ratio (y) = 0.22639 -0.08880
# Poissons Ratio (z) = 0.37084 -0.05247
#
# Static dielectric constant tensor:
#      x y z
#    x 1.909350 0.000000 -0.155930 
#    y 0.000000 1.780880 0.000000 
#    z -0.155930 0.000000 1.913040 
# 
# From -- ./inp_files/347476.got.cif
#   From: 2010.05.17/outbox.cif.g08.bks.cpg/sg12_174_cif.got.tgz:347476.got - 2010.06.03 13:09:07.
