data_PCOD9208086
_publ_section_title
;
Structure prediction by ZEFSAII (Michael W. Deem and Ramdas Pophale) SiO2 
 PCOD9208086
Probable space group: C 2/M
;
_chemical_formula_sum "Si O2"
_cell_formula_units_Z 36
_cell_length_a 24.231731
_cell_length_b 9.836491
_cell_length_c 7.540913
_cell_angle_alpha 90.000000
_cell_angle_beta 110.586601
_cell_angle_gamma 90.000000
_cell_volume 1682.636098
_symmetry_space_group_name_H-M "C 2/M"
_symmetry_group_IT_number 12
_symmetry_cell_setting 'monoclinic'
loop_
_space_group_symop_operation_xyz
x,y,z
-x,y,-z
-x,-y,-z
x,-y,z
1/2+x,1/2+y,z
1/2-x,1/2+y,-z
1/2-x,1/2-y,-z
1/2+x,1/2-y,z
loop_
_atom_site_type_symbol
_atom_site_label
_atom_site_fract_x
_atom_site_fract_y
_atom_site_fract_z
Si Si1 0.000000 0.751664 0.000000
Si Si2 0.125430 0.651130 0.244329
Si Si3 0.272282 0.662644 0.694755
Si Si4 0.048866 0.154761 0.693944
Si Si5 0.850595 0.345521 0.305652
O O1 0.019655 0.837818 0.852955
O O2 0.942591 0.666193 0.881914
O O3 0.147449 0.500000 0.221899
O O4 0.165023 0.767853 0.198602
O O5 0.132088 0.664168 0.465283
O O6 0.277055 0.500000 0.664733
O O7 0.250000 0.750000 0.500000
O O8 0.219594 0.679689 0.776582
O O9 0.107360 0.243613 0.747997
O O10 0.000000 0.208084 0.500000
O O11 0.062715 0.000000 0.659618
O O12 0.861849 0.500000 0.260401
#
# Coordination Sequence:
#
# PCOD9208086 Si02
#       5
#     4   8   8   8   8
#     4  12  24  42  62  92 128 166 208 260 308 376
#     4  10  21  37  61  93 126 165 210 256 311 369
#     4   9  18  34  59  91 125 163 208 257 310 368
#     4  11  24  41  62  91 124 164 208 256 312 369
#     4   9  19  38  62  90 122 162 207 253 307 371
#
# _framework density 21.395001000000001
#
# number of rings (size 3 to 8) (size 9 to 14) (size 15 to 20)
#    0.000    2.000    2.222    2.667    0.000    8.444 
#    0.000    1.111    0.000    0.000    0.000    0.000 
#    0.000    0.000    0.000    0.000    0.000    0.000 
#
# Total GULP energy -100515.784641 kJ/mol
# GULP energy per Si atom -5584.210258 kJ/mol
# Density = 2.134630 g / cm^3
# Si number density = 21.395001 Si / 1000 Ang^3
#
#
#
# Elastic Constant Matrix: (Units=GPa)
#
#
# Indices 1 2 3 4 5 6 
#
# 1 153.8270 90.8813 28.6361 0.0000 11.5999 0.0000
# 2 90.8813 128.5781 14.4986 0.0000 5.1692 0.0000
# 3 28.6361 14.4986 70.8961 0.0000 5.1333 0.0000
# 4 0.0000 0.0000 0.0000 -26.7142 0.0000 -17.3729
# 5 11.5999 5.1692 5.1333 0.0000 31.3480 0.0000
# 6 0.0000 0.0000 0.0000 -17.3729 0.0000 27.2058
#
#
#
# Elastic Compliance Matrix: (Units=1/GPa)
#
#
# Indices 1 2 3 4 5 6 
#
# 1 0.012014 -0.008046 -0.003017 0.000000 -0.002625 0.000000
# 2 -0.008046 0.013384 0.000462 0.000000 0.000695 0.000000
# 3 -0.003017 0.000462 0.015336 0.000000 -0.001471 0.000000
# 4 0.000000 0.000000 0.000000 -0.026449 0.000000 -0.016890
# 5 -0.002625 0.000695 -0.001471 0.000000 0.032998 0.000000
# 6 0.000000 0.000000 0.000000 -0.016890 0.000000 0.025971
#
#
# Mechanical properties :
#
#
# Convention : Reuss Voigt Hill
#
# Bulk Modulus (GPa) = 51.19606 69.03702 60.11654
# Shear Modulus (GPa) = 49.52168 20.98694 35.25431
#
# Velocity S-wave (km/s) = 4.81629 3.13537 4.06369
# Velocity P-wave (km/s) = 7.41011 6.74131 7.08361
#
# Compressibility (1/GPa) = 0.01953275
#
# Stress axis : x y z
#
# Youngs Moduli (GPa) = 83.23653 74.71435 65.20698
#
# Poissons Ratio (x) = 0.60115 0.19674
# Poissons Ratio (y) = 0.66972 -0.03015
# Poissons Ratio (z) = 0.25114 -0.03455
#
# Static dielectric constant tensor:
#      x y z
#    x 1.771410 0.000000 0.022380 
#    y 0.000000 1.747580 0.000000 
#    z 0.022380 0.000000 1.829710 
# 
# From -- ./inp_files/92631.got.cif
#   From: 2010.05.17/outbox.cif.g08.bks.cpg/sg12_47_cif.got.tgz:92631.got - 2010.06.03 13:09:07.
