data_PCOD9208282
_publ_section_title
;
Structure prediction by ZEFSAII (Michael W. Deem and Ramdas Pophale) SiO2 
 PCOD9208282
Probable space group: C 2/M
;
_chemical_formula_sum "Si O2"
_cell_formula_units_Z 52
_cell_length_a 9.397083
_cell_length_b 30.060469
_cell_length_c 14.942907
_cell_angle_alpha 90.000000
_cell_angle_beta 140.132729
_cell_angle_gamma 90.000000
_cell_volume 2705.762005
_symmetry_space_group_name_H-M "C 2/M"
_symmetry_group_IT_number 12
_symmetry_cell_setting 'monoclinic'
loop_
_space_group_symop_operation_xyz
x,y,z
-x,y,-z
-x,-y,-z
x,-y,z
1/2+x,1/2+y,z
1/2-x,1/2+y,-z
1/2-x,1/2-y,-z
1/2+x,1/2-y,z
loop_
_atom_site_type_symbol
_atom_site_label
_atom_site_fract_x
_atom_site_fract_y
_atom_site_fract_z
Si Si1 0.052304 0.552481 0.420304
Si Si2 0.000000 0.711081 0.000000
Si Si3 0.931627 0.838921 0.196357
Si Si4 0.208855 0.245897 0.275701
Si Si5 0.312940 0.383847 0.836340
Si Si6 0.043936 0.309196 0.343479
Si Si7 0.908066 0.878392 0.555411
O O1 0.049718 0.500000 0.401983
O O2 0.866131 0.577924 0.271515
O O3 0.000000 0.560241 0.500000
O O4 0.291376 0.574476 0.516588
O O5 0.807751 0.679557 0.945359
O O6 0.904054 0.740972 0.873485
O O7 0.083340 0.794860 0.262502
O O8 0.049563 0.872891 0.186803
O O9 0.919483 0.861811 0.287273
O O10 0.451636 0.228606 0.365579
O O11 0.174191 0.287196 0.324337
O O12 0.168767 0.339149 0.788850
O O13 0.500000 0.393620 0.000000
O O14 0.207024 0.343339 0.469678
O O15 0.000000 0.876639 0.500000
#
# Coordination Sequence:
#
# PCOD9208282 Si02
#       7
#     8   4   8   8   8   8   8
#     4  10  21  43  72  95 122 154 193 244 307 380
#     4  12  22  36  52  80 115 166 219 248 298 346
#     4  11  23  37  58  81 122 162 207 257 299 349
#     4  11  22  37  55  78 114 164 211 258 291 347
#     4  10  21  37  64  93 125 157 200 250 304 358
#     4  10  23  38  56  82 120 162 210 250 300 343
#     4  11  24  43  61  90 121 155 202 251 310 363
#
# _framework density 19.218247000000002
#
# number of rings (size 3 to 8) (size 9 to 14) (size 15 to 20)
#    0.000    1.385    3.077    2.308    4.308    2.462 
#    2.769    0.000    0.000    0.000    0.000    2.154 
#    0.000    0.000    0.000    0.000    0.000    0.000 
#
# Total GULP energy -145258.084254 kJ/mol
# GULP energy per Si atom -5586.849394 kJ/mol
# Density = 1.917451 g / cm^3
# Si number density = 19.218247 Si / 1000 Ang^3
#
#
#
# Elastic Constant Matrix: (Units=GPa)
#
#
# Indices 1 2 3 4 5 6 
#
# 1 78.9693 33.8426 0.0417 0.0000 3.5394 0.0000
# 2 33.8426 87.1594 28.3231 0.0000 -3.3254 0.0000
# 3 0.0417 28.3231 53.5632 0.0000 0.3257 0.0000
# 4 0.0000 0.0000 0.0000 21.9742 0.0000 0.2344
# 5 3.5394 -3.3254 0.3257 0.0000 26.8716 0.0000
# 6 0.0000 0.0000 0.0000 0.2344 0.0000 25.1040
#
#
#
# Elastic Compliance Matrix: (Units=1/GPa)
#
#
# Indices 1 2 3 4 5 6 
#
# 1 0.016098 -0.007694 0.004075 0.000000 -0.003122 0.000000
# 2 -0.007694 0.017619 -0.009331 0.000000 0.003307 0.000000
# 3 0.004075 -0.009331 0.023612 0.000000 -0.001978 0.000000
# 4 0.000000 0.000000 0.000000 0.045512 0.000000 -0.000425
# 5 -0.003122 0.003307 -0.001978 0.000000 0.038058 0.000000
# 6 0.000000 0.000000 0.000000 -0.000425 0.000000 0.039838
#
#
# Mechanical properties :
#
#
# Convention : Reuss Voigt Hill
#
# Bulk Modulus (GPa) = 31.81687 38.23409 35.02548
# Shear Modulus (GPa) = 23.02933 25.28893 24.15913
#
# Velocity S-wave (km/s) = 3.46541 3.63144 3.54940
# Velocity P-wave (km/s) = 5.70996 6.12544 5.92134
#
# Compressibility (1/GPa) = 0.03142987
#
# Stress axis : x y z
#
# Youngs Moduli (GPa) = 62.11884 56.75731 42.35093
#
# Poissons Ratio (x) = 0.43669 -0.17257
# Poissons Ratio (y) = 0.47794 0.39516
# Poissons Ratio (z) = -0.25312 0.52958
#
# Static dielectric constant tensor:
#      x y z
#    x 1.686240 0.000000 0.003150 
#    y 0.000000 1.656100 0.000000 
#    z 0.003150 0.000000 1.691120 
# 
# From -- ./inp_files/201374.got.cif
#   From: 2010.05.17/outbox.cif.g08.bks.cpg/sg12_101_cif.got.tgz:201374.got - 2010.06.03 13:09:07.
