data_PCOD9208112
_publ_section_title
;
Structure prediction by ZEFSAII (Michael W. Deem and Ramdas Pophale) SiO2 
 PCOD9208112
Probable space group: C 2/M
;
_chemical_formula_sum "Si O2"
_cell_formula_units_Z 58
_cell_length_a 22.018901
_cell_length_b 9.488171
_cell_length_c 20.321170
_cell_angle_alpha 90.000000
_cell_angle_beta 40.909995
_cell_angle_gamma 90.000000
_cell_volume 2780.249108
_symmetry_space_group_name_H-M "C 2/M"
_symmetry_group_IT_number 12
_symmetry_cell_setting 'monoclinic'
loop_
_space_group_symop_operation_xyz
x,y,z
-x,y,-z
-x,-y,-z
x,-y,z
1/2+x,1/2+y,z
1/2-x,1/2+y,-z
1/2-x,1/2-y,-z
1/2+x,1/2-y,z
loop_
_atom_site_type_symbol
_atom_site_label
_atom_site_fract_x
_atom_site_fract_y
_atom_site_fract_z
Si Si1 0.162068 0.667575 0.043122
Si Si2 0.317881 0.663001 0.620158
Si Si3 0.986377 0.838591 0.218515
Si Si4 0.067458 0.165990 0.596643
Si Si5 0.000000 0.500000 0.000000
Si Si6 0.807406 0.154852 0.103463
Si Si7 0.612224 0.757463 0.830834
Si Si8 0.601720 0.164407 0.326913
O O1 0.169482 0.500000 0.042582
O O2 0.070770 0.728983 0.151945
O O3 0.250000 0.750000 0.000000
O O4 0.158428 0.718748 0.970314
O O5 0.341927 0.500000 0.614246
O O6 0.346704 0.696087 0.521771
O O7 0.209809 0.683310 0.723584
O O8 0.375516 0.761374 0.622467
O O9 0.921068 0.810755 0.334947
O O10 0.936998 0.819471 0.189192
O O11 0.020622 0.000000 0.196072
O O12 0.980646 0.255663 0.642027
O O13 0.045497 0.000000 0.606310
O O14 0.048019 0.378088 0.913569
O O15 0.858681 0.161617 0.131140
O O16 0.697928 0.172960 0.206944
O O17 0.822718 0.000000 0.060284
O O18 0.580127 0.000000 0.353582
#
# Coordination Sequence:
#
# PCOD9208112 Si02
#       8
#     8   8   8   8   2   8   8   8
#     4  12  26  42  65  93 128 167 212 264 325 389
#     4  10  21  40  64  93 128 170 216 272 322 384
#     4  11  25  44  65  91 129 172 216 268 320 390
#     4  10  22  40  63  90 126 174 222 264 324 382
#     4  12  24  40  62  96 122 156 204 268 320 384
#     4  10  22  40  64  93 130 171 212 264 325 386
#     4  11  24  40  68  93 130 163 217 262 326 383
#     4  10  21  37  61  97 133 167 216 270 326 385
#
# _framework density 20.861440999999999
#
# number of rings (size 3 to 8) (size 9 to 14) (size 15 to 20)
#    0.000    1.379    0.690    4.138    3.862    7.172 
#    0.000    2.069    0.000    0.000    0.000    0.000 
#    0.000    0.000    0.000    0.000    0.000    0.000 
#
# Total GULP energy -161872.139441 kJ/mol
# GULP energy per Si atom -5581.797912 kJ/mol
# Density = 2.081396 g / cm^3
# Si number density = 20.861441 Si / 1000 Ang^3
#
#
#
# Elastic Constant Matrix: (Units=GPa)
#
#
# Indices 1 2 3 4 5 6 
#
# 1 77.0808 28.7268 40.6572 0.0000 7.9597 0.0000
# 2 28.7268 121.0193 54.9231 0.0000 8.8176 0.0000
# 3 40.6572 54.9231 125.0746 0.0000 23.9824 0.0000
# 4 0.0000 0.0000 0.0000 22.3967 0.0000 8.4908
# 5 7.9597 8.8176 23.9824 0.0000 24.5406 0.0000
# 6 0.0000 0.0000 0.0000 8.4908 0.0000 8.5871
#
#
#
# Elastic Compliance Matrix: (Units=1/GPa)
#
#
# Indices 1 2 3 4 5 6 
#
# 1 0.015965 -0.001796 -0.004346 0.000000 -0.000286 0.000000
# 2 -0.001796 0.010538 -0.004220 0.000000 0.000920 0.000000
# 3 -0.004346 -0.004220 0.013167 0.000000 -0.009942 0.000000
# 4 0.000000 0.000000 0.000000 0.071423 0.000000 -0.070622
# 5 -0.000286 0.000920 -0.009942 0.000000 0.050227 0.000000
# 6 0.000000 0.000000 0.000000 -0.070622 0.000000 0.186283
#
#
# Mechanical properties :
#
#
# Convention : Reuss Voigt Hill
#
# Bulk Modulus (GPa) = 52.78370 63.53210 58.15790
# Shear Modulus (GPa) = 13.34609 24.36272 18.85440
#
# Velocity S-wave (km/s) = 2.53207 3.42107 3.00957
# Velocity P-wave (km/s) = 5.82284 6.79157 6.32577
#
# Compressibility (1/GPa) = 0.01894524
#
# Stress axis : x y z
#
# Youngs Moduli (GPa) = 62.63817 94.89801 75.94598
#
# Poissons Ratio (x) = 0.17048 0.33006
# Poissons Ratio (y) = 0.11253 0.32048
# Poissons Ratio (z) = 0.27222 0.40045
#
# Static dielectric constant tensor:
#      x y z
#    x 1.761550 0.000000 0.022510 
#    y 0.000000 1.716140 0.000000 
#    z 0.022510 0.000000 1.764520 
# 
# From -- ./inp_files/324542.got.cif
#   From: 2010.05.17/outbox.cif.g08.bks.cpg/sg12_163_cif.got.tgz:324542.got - 2010.06.03 13:09:07.
