data_PCOD9208298
_publ_section_title
;
Structure prediction by ZEFSAII (Michael W. Deem and Ramdas Pophale) SiO2 
 PCOD9208298
Probable space group: C 2/M
;
_chemical_formula_sum "Si O2"
_cell_formula_units_Z 40
_cell_length_a 9.380568
_cell_length_b 29.083322
_cell_length_c 10.022887
_cell_angle_alpha 90.000000
_cell_angle_beta 41.108216
_cell_angle_gamma 90.000000
_cell_volume 1797.838623
_symmetry_space_group_name_H-M "C 2/M"
_symmetry_group_IT_number 12
_symmetry_cell_setting 'monoclinic'
loop_
_space_group_symop_operation_xyz
x,y,z
-x,y,-z
-x,-y,-z
x,-y,z
1/2+x,1/2+y,z
1/2-x,1/2+y,-z
1/2-x,1/2-y,-z
1/2+x,1/2-y,z
loop_
_atom_site_type_symbol
_atom_site_label
_atom_site_fract_x
_atom_site_fract_y
_atom_site_fract_z
Si Si1 0.804982 0.682499 0.033683
Si Si2 0.503648 0.234656 0.652669
Si Si3 0.185346 0.555674 0.621891
Si Si4 0.162748 0.917959 0.197365
Si Si5 0.264736 0.551277 0.131624
O O1 0.641993 0.721392 0.202930
O O2 0.694125 0.633134 0.118983
O O3 0.908049 0.695734 0.818252
O O4 0.000000 0.681769 0.000000
O O5 0.500000 0.222071 0.500000
O O6 0.750000 0.250000 0.500000
O O7 0.182775 0.500000 0.628623
O O8 0.204702 0.574885 0.759292
O O9 0.411281 0.571791 0.400472
O O10 0.976850 0.571561 0.682500
O O11 0.235253 0.951309 0.028920
O O12 0.267050 0.500000 0.191972
O O13 0.500000 0.572862 0.000000
#
# Coordination Sequence:
#
# PCOD9208298 Si02
#       5
#     8   8   8   8   8
#     4  11  24  41  70 103 130 172 225 269 337 406
#     4  11  24  45  71  96 133 174 216 271 334 407
#     4  10  21  37  64  98 130 174 224 274 331 387
#     4  11  22  38  64  93 131 165 221 277 322 383
#     4  10  21  38  59  87 130 178 216 261 322 389
#
# _framework density 22.248937000000002
#
# number of rings (size 3 to 8) (size 9 to 14) (size 15 to 20)
#    0.000    1.400    2.000    4.200    2.800    4.000 
#    3.600    3.000    0.000    0.000    0.000    0.000 
#    0.000    0.000    0.000    0.000    0.000    0.000 
#
# Total GULP energy -111666.868551 kJ/mol
# GULP energy per Si atom -5583.343428 kJ/mol
# Density = 2.219830 g / cm^3
# Si number density = 22.248937 Si / 1000 Ang^3
#
#
#
# Elastic Constant Matrix: (Units=GPa)
#
#
# Indices 1 2 3 4 5 6 
#
# 1 112.1885 23.3436 61.6516 0.0000 -14.6996 0.0000
# 2 23.3436 118.2292 43.6262 0.0000 8.6391 0.0000
# 3 61.6516 43.6262 140.0532 0.0000 -7.4264 0.0000
# 4 0.0000 0.0000 0.0000 44.6604 0.0000 -11.9443
# 5 -14.6996 8.6391 -7.4264 0.0000 66.8562 0.0000
# 6 0.0000 0.0000 0.0000 -11.9443 0.0000 45.8937
#
#
#
# Elastic Compliance Matrix: (Units=1/GPa)
#
#
# Indices 1 2 3 4 5 6 
#
# 1 0.012087 -0.000708 -0.004984 0.000000 0.002196 0.000000
# 2 -0.000708 0.009766 -0.002822 0.000000 -0.001731 0.000000
# 3 -0.004984 -0.002822 0.010235 0.000000 0.000406 0.000000
# 4 0.000000 0.000000 0.000000 0.024066 0.000000 0.006264
# 5 0.002196 -0.001731 0.000406 0.000000 0.015709 0.000000
# 6 0.000000 0.000000 0.000000 0.006264 0.000000 0.023420
#
#
# Mechanical properties :
#
#
# Convention : Reuss Voigt Hill
#
# Bulk Modulus (GPa) = 66.40214 69.74598 68.07406
# Shear Modulus (GPa) = 42.61451 47.60534 45.10993
#
# Velocity S-wave (km/s) = 4.38122 4.63067 4.50767
# Velocity P-wave (km/s) = 7.45006 7.74641 7.59968
#
# Compressibility (1/GPa) = 0.01505975
#
# Stress axis : x y z
#
# Youngs Moduli (GPa) = 82.73075 102.39828 97.70681
#
# Poissons Ratio (x) = 0.07249 0.48697
# Poissons Ratio (y) = 0.05857 0.27575
# Poissons Ratio (z) = 0.41233 0.28899
#
# Static dielectric constant tensor:
#      x y z
#    x 1.867220 0.000000 -0.065260 
#    y 0.000000 1.846340 0.000000 
#    z -0.065260 0.000000 1.954220 
# 
# From -- ./inp_files/125020.got.cif
#   From: 2010.05.17/outbox.cif.g08.bks.cpg/sg12_63_cif.got.tgz:125020.got - 2010.06.03 13:09:07.
