data_PCOD9208788
_publ_section_title
;
Structure prediction by ZEFSAII (Michael W. Deem and Ramdas Pophale) SiO2 
 PCOD9208788
Probable space group: C 2/M
;
_chemical_formula_sum "Si O2"
_cell_formula_units_Z 44
_cell_length_a 9.364254
_cell_length_b 17.973642
_cell_length_c 10.525063
_cell_angle_alpha 90.000000
_cell_angle_beta 96.513523
_cell_angle_gamma 90.000000
_cell_volume 1760.036063
_symmetry_space_group_name_H-M "C 2/M"
_symmetry_group_IT_number 12
_symmetry_cell_setting 'monoclinic'
loop_
_space_group_symop_operation_xyz
x,y,z
-x,y,-z
-x,-y,-z
x,-y,z
1/2+x,1/2+y,z
1/2-x,1/2+y,-z
1/2-x,1/2-y,-z
1/2+x,1/2-y,z
loop_
_atom_site_type_symbol
_atom_site_label
_atom_site_fract_x
_atom_site_fract_y
_atom_site_fract_z
Si Si1 0.388804 0.196520 0.391106
Si Si2 0.829530 0.915127 0.493066
Si Si3 0.902078 0.586039 0.735279
Si Si4 0.762358 0.785207 0.860726
Si Si5 0.500000 0.356205 0.000000
Si Si6 0.798672 0.415099 0.995556
O O1 0.500000 0.235756 0.500000
O O2 0.258803 0.148049 0.439024
O O3 0.499090 0.137922 0.339624
O O4 0.308824 0.244460 0.273364
O O5 0.753554 0.914853 0.347973
O O6 0.000000 0.904858 0.500000
O O7 0.804729 0.000000 0.543272
O O8 0.951325 0.500000 0.739481
O O9 0.879413 0.611735 0.878104
O O10 0.069112 0.806031 0.119470
O O11 0.750000 0.750000 0.000000
O O12 0.684343 0.864452 0.879483
O O13 0.627878 0.405117 0.957536
O O14 0.834232 0.500000 0.019535
#
# Coordination Sequence:
#
# PCOD9208788 Si02
#       6
#     8   8   8   8   4   8
#     4  10  21  38  59  88 131 172 213 260 328 400
#     4   9  18  30  53  88 128 175 219 261 313 384
#     4   9  18  33  54  87 132 168 208 262 318 386
#     4  10  23  40  64  93 127 168 220 271 330 389
#     4   8  21  38  60  90 127 166 212 284 325 378
#     4   9  19  36  61  93 124 166 217 273 329 378
#
# _framework density 24.999486999999998
#
# number of rings (size 3 to 8) (size 9 to 14) (size 15 to 20)
#    1.091    1.636    0.000    0.818    2.545    5.818 
#    0.000    1.818    0.000   10.909    0.000    0.000 
#    0.000    0.000    0.000    0.000    0.000    0.000 
#
# Total GULP energy -122716.668885 kJ/mol
# GULP energy per Si atom -5578.030404 kJ/mol
# Density = 2.494259 g / cm^3
# Si number density = 24.999487 Si / 1000 Ang^3
#
#
#
# Elastic Constant Matrix: (Units=GPa)
#
#
# Indices 1 2 3 4 5 6 
#
# 1 148.9228 13.5892 39.4910 0.0000 25.8536 0.0000
# 2 13.5892 67.9386 17.8107 0.0000 0.9088 0.0000
# 3 39.4910 17.8107 115.7872 0.0000 44.1051 0.0000
# 4 0.0000 0.0000 0.0000 24.2997 0.0000 -9.2567
# 5 25.8536 0.9088 44.1051 0.0000 52.1602 0.0000
# 6 0.0000 0.0000 0.0000 -9.2567 0.0000 11.4772
#
#
#
# Elastic Compliance Matrix: (Units=1/GPa)
#
#
# Indices 1 2 3 4 5 6 
#
# 1 0.007645 -0.001108 -0.001477 0.000000 -0.002522 0.000000
# 2 -0.001108 0.015732 -0.003167 0.000000 0.002953 0.000000
# 3 -0.001477 -0.003167 0.013759 0.000000 -0.010847 0.000000
# 4 0.000000 0.000000 0.000000 0.059404 0.000000 0.047911
# 5 -0.002522 0.002953 -0.010847 0.000000 0.029542 0.000000
# 6 0.000000 0.000000 0.000000 0.047911 0.000000 0.125771
#
#
# Mechanical properties :
#
#
# Convention : Reuss Voigt Hill
#
# Bulk Modulus (GPa) = 39.01247 52.71448 45.86348
# Shear Modulus (GPa) = 18.38909 35.03794 26.71351
#
# Velocity S-wave (km/s) = 2.71510 3.74778 3.27243
# Velocity P-wave (km/s) = 5.04660 6.31347 5.71524
#
# Compressibility (1/GPa) = 0.02563283
#
# Stress axis : x y z
#
# Youngs Moduli (GPa) = 130.79865 63.56654 72.67903
#
# Poissons Ratio (x) = 0.07046 0.10731
# Poissons Ratio (y) = 0.14498 0.23015
# Poissons Ratio (z) = 0.19313 0.20129
#
# Static dielectric constant tensor:
#      x y z
#    x 2.010290 0.000000 0.051380 
#    y 0.000000 2.058110 0.000000 
#    z 0.051380 0.000000 2.032850 
# 
# From -- ./inp_files/120834.got.cif
#   From: 2010.05.17/outbox.cif.g08.bks.cpg/sg12_61_cif.got.tgz:120834.got - 2010.06.03 13:09:07.
