data_PCOD9208679
_publ_section_title
;
Structure prediction by ZEFSAII (Michael W. Deem and Ramdas Pophale) SiO2 
 PCOD9208679
Probable space group: C 2/M
;
_chemical_formula_sum "Si O2"
_cell_formula_units_Z 40
_cell_length_a 10.369856
_cell_length_b 8.037909
_cell_length_c 22.436233
_cell_angle_alpha 90.000000
_cell_angle_beta 95.754661
_cell_angle_gamma 90.000000
_cell_volume 1860.679328
_symmetry_space_group_name_H-M "C 2/M"
_symmetry_group_IT_number 12
_symmetry_cell_setting 'monoclinic'
loop_
_space_group_symop_operation_xyz
x,y,z
-x,y,-z
-x,-y,-z
x,-y,z
1/2+x,1/2+y,z
1/2-x,1/2+y,-z
1/2-x,1/2-y,-z
1/2+x,1/2-y,z
loop_
_atom_site_type_symbol
_atom_site_label
_atom_site_fract_x
_atom_site_fract_y
_atom_site_fract_z
Si Si1 0.441834 0.700838 0.172284
Si Si2 0.424891 0.697333 0.439067
Si Si3 0.883635 0.799221 0.036522
Si Si4 0.158218 0.696475 0.375381
Si Si5 0.207065 0.198709 0.243577
O O1 0.441701 0.500000 0.170795
O O2 0.400194 0.762279 0.104984
O O3 0.339910 0.756006 0.217279
O O4 0.586137 0.754703 0.197134
O O5 0.500000 0.768195 0.500000
O O6 0.408400 0.500000 0.447668
O O7 0.281610 0.764594 0.418607
O O8 0.523334 0.722629 0.388842
O O9 0.889958 0.000000 0.038842
O O10 0.750000 0.750000 0.000000
O O11 0.000000 0.739087 0.000000
O O12 0.145585 0.500000 0.385732
O O13 0.191109 0.724499 0.308004
O O14 0.200227 0.000000 0.249975
#
# Coordination Sequence:
#
# PCOD9208679 Si02
#       5
#     8   8   8   8   8
#     4  10  22  39  58  83 115 149 188 234 280 332
#     4  10  22  40  60  84 116 152 190 233 281 335
#     4  10  21  38  59  84 115 149 187 232 281 334
#     4  11  23  38  59  87 116 148 189 235 283 336
#     4  11  23  39  60  84 113 151 191 232 282 337
#
# _framework density 21.497523999999999
#
# number of rings (size 3 to 8) (size 9 to 14) (size 15 to 20)
#    0.000    1.600    0.000    4.200    0.000   11.200 
#    0.000    0.000    0.000    0.000    0.000    0.000 
#    0.000    0.000    0.000    0.000    0.000    0.000 
#
# Total GULP energy -111854.509187 kJ/mol
# GULP energy per Si atom -5592.725459 kJ/mol
# Density = 2.144859 g / cm^3
# Si number density = 21.497524 Si / 1000 Ang^3
#
#
#
# Elastic Constant Matrix: (Units=GPa)
#
#
# Indices 1 2 3 4 5 6 
#
# 1 76.3376 -2.4696 -25.3943 0.0000 4.2056 0.0000
# 2 -2.4696 14.9612 -2.9055 0.0000 9.0817 0.0000
# 3 -25.3943 -2.9055 54.7646 0.0000 1.9726 0.0000
# 4 0.0000 0.0000 0.0000 21.7113 0.0000 -0.9341
# 5 4.2056 9.0817 1.9726 0.0000 43.2106 0.0000
# 6 0.0000 0.0000 0.0000 -0.9341 0.0000 28.1521
#
#
#
# Elastic Compliance Matrix: (Units=1/GPa)
#
#
# Indices 1 2 3 4 5 6 
#
# 1 0.016108 0.006151 0.007912 0.000000 -0.003222 0.000000
# 2 0.006151 0.080165 0.007747 0.000000 -0.017801 0.000000
# 3 0.007912 0.007747 0.022463 0.000000 -0.003424 0.000000
# 4 0.000000 0.000000 0.000000 0.046125 0.000000 0.001530
# 5 -0.003222 -0.017801 -0.003424 0.000000 0.027354 0.000000
# 6 0.000000 0.000000 0.000000 0.001530 0.000000 0.035572
#
#
# Mechanical properties :
#
#
# Convention : Reuss Voigt Hill
#
# Bulk Modulus (GPa) = 6.15938 9.39162 7.77550
# Shear Modulus (GPa) = 20.98320 30.40364 25.69342
#
# Velocity S-wave (km/s) = 3.12761 3.76478 3.46089
# Velocity P-wave (km/s) = 3.98923 4.82455 4.42664
#
# Compressibility (1/GPa) = 0.16235407
#
# Stress axis : x y z
#
# Youngs Moduli (GPa) = 62.08068 12.47432 44.51778
#
# Poissons Ratio (x) = -0.07673 -0.35221
# Poissons Ratio (y) = -0.38186 -0.34486
# Poissons Ratio (z) = -0.49116 -0.09663
#
# Static dielectric constant tensor:
#      x y z
#    x 1.736620 0.000000 0.024660 
#    y 0.000000 1.772930 0.000000 
#    z 0.024660 0.000000 1.774770 
# 
# From -- ./inp_files/261025.got.cif
#   From: 2010.05.17/outbox.cif.g08.bks.cpg/sg12_131_cif.got.tgz:261025.got - 2010.06.03 13:09:07.
