data_PCOD9208487
_publ_section_title
;
Structure prediction by ZEFSAII (Michael W. Deem and Ramdas Pophale) SiO2 
 PCOD9208487
Probable space group: C 2/M
;
_chemical_formula_sum "Si O2"
_cell_formula_units_Z 44
_cell_length_a 14.337961
_cell_length_b 29.317921
_cell_length_c 11.407671
_cell_angle_alpha 90.000000
_cell_angle_beta 29.670244
_cell_angle_gamma 90.000000
_cell_volume 2373.719075
_symmetry_space_group_name_H-M "C 2/M"
_symmetry_group_IT_number 12
_symmetry_cell_setting 'monoclinic'
loop_
_space_group_symop_operation_xyz
x,y,z
-x,y,-z
-x,-y,-z
x,-y,z
1/2+x,1/2+y,z
1/2-x,1/2+y,-z
1/2-x,1/2-y,-z
1/2+x,1/2-y,z
loop_
_atom_site_type_symbol
_atom_site_label
_atom_site_fract_x
_atom_site_fract_y
_atom_site_fract_z
Si Si1 0.724453 0.634380 0.259820
Si Si2 0.000000 0.118675 0.000000
Si Si3 0.435238 0.884975 0.264064
Si Si4 0.336651 0.051824 0.582300
Si Si5 0.349766 0.311966 0.335604
Si Si6 0.337905 0.267600 0.590892
O O1 0.500000 0.626879 0.500000
O O2 0.811762 0.610606 0.279844
O O3 0.754222 0.688776 0.245427
O O4 0.849756 0.620300 0.012257
O O5 0.821673 0.085958 0.197885
O O6 0.987524 0.151583 0.126480
O O7 0.407773 0.926326 0.383108
O O8 0.343222 0.839801 0.424103
O O9 0.500000 0.051164 0.500000
O O10 0.268225 0.000000 0.640101
O O11 0.418039 0.289377 0.382013
O O12 0.300130 0.271997 0.299397
O O13 0.500000 0.250175 0.500000
#
# Coordination Sequence:
#
# PCOD9208487 Si02
#       6
#     8   4   8   8   8   8
#     4   9  18  35  57  79 106 144 183 222 267 311
#     4  10  21  38  58  78 108 144 180 222 265 318
#     4   9  19  35  55  78 107 137 175 227 271 318
#     4  10  22  39  59  83 109 138 173 217 272 331
#     4   9  19  33  50  76 108 143 182 223 261 304
#     4   9  18  32  49  75 108 145 185 222 259 301
#
# _framework density 18.536311999999999
#
# number of rings (size 3 to 8) (size 9 to 14) (size 15 to 20)
#    0.000    2.727    0.000    0.273    0.000   13.091 
#    0.000    6.364    0.000    1.091    0.000    0.000 
#    0.000    0.727    0.000    0.000    0.000    0.000 
#
# Total GULP energy -122650.989901 kJ/mol
# GULP energy per Si atom -5575.044995 kJ/mol
# Density = 1.849412 g / cm^3
# Si number density = 18.536312 Si / 1000 Ang^3
#
#
#
# Elastic Constant Matrix: (Units=GPa)
#
#
# Indices 1 2 3 4 5 6 
#
# 1 68.8574 45.1143 34.2661 0.0000 1.6134 -0.0002
# 2 45.1143 99.9253 54.7007 0.0000 12.6091 0.0001
# 3 34.2661 54.7007 133.8938 0.0001 7.1576 -0.0001
# 4 0.0000 0.0000 0.0001 16.3096 -0.0001 16.9352
# 5 1.6134 12.6091 7.1576 -0.0001 17.2946 0.0001
# 6 -0.0002 0.0001 -0.0001 16.9352 0.0001 34.4064
#
#
#
# Elastic Compliance Matrix: (Units=1/GPa)
#
#
# Indices 1 2 3 4 5 6 
#
# 1 0.021489 -0.009320 -0.001992 0.000000 0.005615 0.000000
# 2 -0.009320 0.017925 -0.004383 0.000000 -0.010385 0.000000
# 3 -0.001992 -0.004383 0.009805 0.000000 -0.000677 0.000000
# 4 0.000000 0.000000 0.000000 0.125409 0.000001 -0.061727
# 5 0.005615 -0.010385 -0.000677 0.000001 0.065150 0.000000
# 6 0.000000 0.000000 0.000000 -0.061727 0.000000 0.059447
#
#
# Mechanical properties :
#
#
# Convention : Reuss Voigt Hill
#
# Bulk Modulus (GPa) = 56.08644 63.42653 59.75648
# Shear Modulus (GPa) = 14.85635 24.84179 19.84907
#
# Velocity S-wave (km/s) = 2.83410 3.66480 3.27589
# Velocity P-wave (km/s) = 6.40568 7.22492 6.82760
#
# Compressibility (1/GPa) = 0.01782962
#
# Stress axis : x y z
#
# Youngs Moduli (GPa) = 46.53619 55.78873 101.98782
#
# Poissons Ratio (x) = 0.51993 0.20317
# Poissons Ratio (y) = 0.43370 0.44698
# Poissons Ratio (z) = 0.09270 0.24450
#
# Static dielectric constant tensor:
#      x y z
#    x 1.640870 0.000000 0.010780 
#    y 0.000000 1.624010 0.000000 
#    z 0.010780 0.000000 1.664400 
# 
# From -- ./inp_files/149401.got.cif
#   From: 2010.05.17/outbox.cif.g08.bks.cpg/sg12_75_cif.got.tgz:149401.got - 2010.06.03 13:09:07.
