data_PCOD9208676
_publ_section_title
;
Structure prediction by ZEFSAII (Michael W. Deem and Ramdas Pophale) SiO2 
 PCOD9208676
Probable space group: C 2/M
;
_chemical_formula_sum "Si O2"
_cell_formula_units_Z 48
_cell_length_a 9.946201
_cell_length_b 15.800706
_cell_length_c 17.166971
_cell_angle_alpha 90.000000
_cell_angle_beta 82.579065
_cell_angle_gamma 90.000000
_cell_volume 2675.312031
_symmetry_space_group_name_H-M "C 2/M"
_symmetry_group_IT_number 12
_symmetry_cell_setting 'monoclinic'
loop_
_space_group_symop_operation_xyz
x,y,z
-x,y,-z
-x,-y,-z
x,-y,z
1/2+x,1/2+y,z
1/2-x,1/2+y,-z
1/2-x,1/2-y,-z
1/2+x,1/2-y,z
loop_
_atom_site_type_symbol
_atom_site_label
_atom_site_fract_x
_atom_site_fract_y
_atom_site_fract_z
Si Si1 0.341967 0.833625 0.998406
Si Si2 0.252968 0.906141 0.336830
Si Si3 0.797628 0.663916 0.169413
Si Si4 0.384378 0.832545 0.827011
Si Si5 0.425231 0.095297 0.658110
Si Si6 0.136993 0.754564 0.442776
O O1 0.338534 0.874468 0.912707
O O2 0.500000 0.810749 0.000000
O O3 0.250000 0.750000 0.000000
O O4 0.296554 0.876495 0.082774
O O5 0.251927 0.894625 0.243680
O O6 0.410760 0.897904 0.350597
O O7 0.169487 0.831471 0.382479
O O8 0.205863 0.000000 0.361983
O O9 0.703725 0.747386 0.176201
O O10 0.955005 0.687642 0.175390
O O11 0.373359 0.887574 0.749929
O O12 0.371273 0.167945 0.605689
O O13 0.390398 0.000000 0.635949
O O14 0.250000 0.750000 0.500000
O O15 0.000000 0.768000 0.500000
#
# Coordination Sequence:
#
# PCOD9208676 Si02
#       6
#     8   8   8   8   8   8
#     4   8  14  24  43  77 106 138 179 218 257 307
#     4  10  21  38  59  84 114 146 181 224 276 330
#     4   9  16  29  52  76 109 145 180 218 265 315
#     4   9  16  29  52  77 109 143 180 221 263 313
#     4  10  21  38  60  84 112 148 182 220 275 336
#     4  12  24  40  63  84 108 141 181 232 283 329
#
# _framework density 17.941832999999999
#
# number of rings (size 3 to 8) (size 9 to 14) (size 15 to 20)
#    0.000    2.333    3.333    0.000    0.000    1.333 
#    0.000    0.833    0.000    5.000    0.000    0.000 
#    0.000   13.333    0.000    0.000    0.000    0.000 
#
# Total GULP energy -133648.629126 kJ/mol
# GULP energy per Si atom -5568.692880 kJ/mol
# Density = 1.790100 g / cm^3
# Si number density = 17.941833 Si / 1000 Ang^3
#
#
#
# Elastic Constant Matrix: (Units=GPa)
#
#
# Indices 1 2 3 4 5 6 
#
# 1 47.7611 30.4283 41.9008 0.0000 -5.6977 0.0000
# 2 30.4283 121.0628 70.7584 0.0000 -5.4993 0.0000
# 3 41.9008 70.7584 141.3174 0.0000 -8.6234 0.0000
# 4 0.0000 0.0000 0.0000 -3.4125 0.0000 3.7949
# 5 -5.6977 -5.4993 -8.6234 0.0000 26.9059 0.0000
# 6 0.0000 0.0000 0.0000 3.7949 0.0000 17.1915
#
#
#
# Elastic Compliance Matrix: (Units=1/GPa)
#
#
# Indices 1 2 3 4 5 6 
#
# 1 0.029454 -0.003203 -0.006924 0.000000 0.003363 0.000000
# 2 -0.003203 0.012033 -0.005066 0.000000 0.000158 0.000000
# 3 -0.006924 -0.005066 0.011743 0.000000 0.001262 0.000000
# 4 0.000000 0.000000 0.000000 -0.235284 0.000000 0.051938
# 5 0.003363 0.000158 0.001262 0.000000 0.038315 0.000000
# 6 0.000000 0.000000 0.000000 0.051938 0.000000 0.046703
#
#
# Mechanical properties :
#
#
# Convention : Reuss Voigt Hill
#
# Bulk Modulus (GPa) = 43.77547 66.25738 55.01642
# Shear Modulus (GPa) = -84.69591 19.27390 -32.71100
#
# Velocity S-wave (km/s) = -6.87810 3.28112 -4.27449
# Velocity P-wave (km/s) = 6.21500 7.16683 2.52362
#
# Compressibility (1/GPa) = 0.02284385
#
# Stress axis : x y z
#
# Youngs Moduli (GPa) = 33.95122 83.10289 85.15948
#
# Poissons Ratio (x) = 0.26621 0.58964
# Poissons Ratio (y) = 0.10876 0.43139
# Poissons Ratio (z) = 0.23508 0.42098
#
# Static dielectric constant tensor:
#      x y z
#    x 1.589020 0.000000 -0.001450 
#    y 0.000000 1.595410 0.000000 
#    z -0.001450 0.000000 1.667020 
# 
# From -- ./inp_files/255754.got.cif
#   From: 2010.05.17/outbox.cif.g08.bks.cpg/sg12_128_cif.got.tgz:255754.got - 2010.06.03 13:09:07.
