data_PCOD9208331
_publ_section_title
;
Structure prediction by ZEFSAII (Michael W. Deem and Ramdas Pophale) SiO2 
 PCOD9208331
Probable space group: C 2/M
;
_chemical_formula_sum "Si O2"
_cell_formula_units_Z 40
_cell_length_a 7.367395
_cell_length_b 23.037259
_cell_length_c 11.583349
_cell_angle_alpha 90.000000
_cell_angle_beta 121.984963
_cell_angle_gamma 90.000000
_cell_volume 1667.518212
_symmetry_space_group_name_H-M "C 2/M"
_symmetry_group_IT_number 12
_symmetry_cell_setting 'monoclinic'
loop_
_space_group_symop_operation_xyz
x,y,z
-x,y,-z
-x,-y,-z
x,-y,z
1/2+x,1/2+y,z
1/2-x,1/2+y,-z
1/2-x,1/2-y,-z
1/2+x,1/2-y,z
loop_
_atom_site_type_symbol
_atom_site_label
_atom_site_fract_x
_atom_site_fract_y
_atom_site_fract_z
Si Si1 0.702601 0.879741 0.835513
Si Si2 0.039098 0.289106 0.136248
Si Si3 0.491049 0.674217 0.737884
Si Si4 0.749358 0.000000 0.436327
Si Si5 0.668825 0.872974 0.466720
Si Si6 0.926939 0.500000 0.110912
O O1 0.670463 0.828404 0.914719
O O2 0.883425 0.867421 0.799999
O O3 0.469710 0.870774 0.695261
O O4 0.703591 0.941883 0.897738
O O5 0.255598 0.326035 0.192874
O O6 0.065370 0.239714 0.241438
O O7 0.000000 0.259635 0.000000
O O8 0.385653 0.657043 0.579762
O O9 0.699302 0.942032 0.490217
O O10 0.623607 0.000000 0.270942
O O11 0.000000 0.000000 0.500000
O O12 0.500000 0.847667 0.500000
O O13 0.000000 0.500000 0.000000
#
# Coordination Sequence:
#
# PCOD9208331 Si02
#       6
#     8   8   8   4   8   4
#     4  10  23  44  67 101 134 174 218 281 332 398
#     4  12  25  43  65  94 135 180 227 269 336 398
#     4  11  24  41  67  97 131 175 223 275 332 397
#     4  10  21  37  66  97 135 171 222 275 334 398
#     4   9  21  41  63  96 128 172 217 271 340 392
#     4  10  22  45  72  99 138 178 224 276 332 404
#
# _framework density 23.987745
#
# number of rings (size 3 to 8) (size 9 to 14) (size 15 to 20)
#    0.000    1.600    2.000    1.500    5.600    3.200 
#    3.600    1.000    0.000    2.400    0.000    0.000 
#    0.000    0.000    0.000    0.000    0.000    0.000 
#
# Total GULP energy -111592.496607 kJ/mol
# GULP energy per Si atom -5579.624830 kJ/mol
# Density = 2.393315 g / cm^3
# Si number density = 23.987745 Si / 1000 Ang^3
#
#
#
# Elastic Constant Matrix: (Units=GPa)
#
#
# Indices 1 2 3 4 5 6 
#
# 1 152.5030 41.7618 32.4749 0.0000 -9.2434 0.0000
# 2 41.7618 119.1731 26.0127 0.0000 -21.7343 0.0000
# 3 32.4749 26.0127 77.9883 0.0000 -0.6400 0.0000
# 4 0.0000 0.0000 0.0000 28.5486 0.0000 -12.7740
# 5 -9.2434 -21.7343 -0.6400 0.0000 39.8102 0.0000
# 6 0.0000 0.0000 0.0000 -12.7740 0.0000 5.6282
#
#
#
# Elastic Compliance Matrix: (Units=1/GPa)
#
#
# Indices 1 2 3 4 5 6 
#
# 1 0.007688 -0.002028 -0.002520 0.000000 0.000637 0.000000
# 2 -0.002028 0.010650 -0.002664 0.000000 0.005301 0.000000
# 3 -0.002520 -0.002664 0.014746 0.000000 -0.001803 0.000000
# 4 0.000000 0.000000 0.000000 -2.254580 0.000000 -5.117059
# 5 0.000637 0.005301 -0.001803 0.000000 0.028132 0.000000
# 6 0.000000 0.000000 0.000000 -5.117059 0.000000-11.436148
#
#
# Mechanical properties :
#
#
# Convention : Reuss Voigt Hill
#
# Bulk Modulus (GPa) = 53.59145 61.12923 57.36034
# Shear Modulus (GPa) = -0.36741 31.42506 15.52883
#
# Velocity S-wave (km/s) = -0.39179 3.62338 2.54710
# Velocity P-wave (km/s) = 4.71010 6.56080 5.71091
#
# Compressibility (1/GPa) = 0.01865969
#
# Stress axis : x y z
#
# Youngs Moduli (GPa) = 130.07758 93.89621 67.81710
#
# Poissons Ratio (x) = 0.19040 0.17087
# Poissons Ratio (y) = 0.26377 0.18069
# Poissons Ratio (z) = 0.32775 0.25018
#
# Static dielectric constant tensor:
#      x y z
#    x 1.938750 0.000000 0.003730 
#    y 0.000000 1.949750 0.000000 
#    z 0.003730 0.000000 2.178630 
# 
# From -- ./inp_files/122220.got.cif
#   From: 2010.05.17/outbox.cif.g08.bks.cpg/sg12_62_cif.got.tgz:122220.got - 2010.06.03 13:09:07.
