data_PCOD9208068
_publ_section_title
;
Structure prediction by ZEFSAII (Michael W. Deem and Ramdas Pophale) SiO2 
 PCOD9208068
Probable space group: C 2/M
;
_chemical_formula_sum "Si O2"
_cell_formula_units_Z 64
_cell_length_a 17.478399
_cell_length_b 18.618444
_cell_length_c 15.942779
_cell_angle_alpha 90.000000
_cell_angle_beta 40.223145
_cell_angle_gamma 90.000000
_cell_volume 3350.305046
_symmetry_space_group_name_H-M "C 2/M"
_symmetry_group_IT_number 12
_symmetry_cell_setting 'monoclinic'
loop_
_space_group_symop_operation_xyz
x,y,z
-x,y,-z
-x,-y,-z
x,-y,z
1/2+x,1/2+y,z
1/2-x,1/2+y,-z
1/2-x,1/2-y,-z
1/2+x,1/2-y,z
loop_
_atom_site_type_symbol
_atom_site_label
_atom_site_fract_x
_atom_site_fract_y
_atom_site_fract_z
Si Si1 0.982865 0.696453 0.915325
Si Si2 0.336798 0.194904 0.475243
Si Si3 0.122727 0.170059 0.765148
Si Si4 0.545199 0.416375 0.217172
Si Si5 0.222893 0.217937 0.854874
Si Si6 0.037472 0.801609 0.374931
Si Si7 0.273569 0.077978 0.916683
Si Si8 0.454518 0.920310 0.256134
O O1 0.060852 0.753381 0.797878
O O2 0.026017 0.620259 0.847334
O O3 0.851115 0.729315 0.021534
O O4 0.000000 0.696532 0.000000
O O5 0.250000 0.250000 0.500000
O O6 0.252705 0.163100 0.617903
O O7 0.445702 0.240106 0.421432
O O8 0.381481 0.130889 0.378925
O O9 0.036963 0.112832 0.791428
O O10 0.143042 0.181584 0.847692
O O11 0.516373 0.500000 0.259287
O O12 0.532398 0.364436 0.308705
O O13 0.680596 0.413956 0.070634
O O14 0.332481 0.264912 0.729635
O O15 0.263501 0.148613 0.870542
O O16 0.000000 0.825587 0.500000
O O17 0.410309 0.074772 0.826309
O O18 0.242865 0.000000 0.902214
O O19 0.403487 0.000000 0.292713
#
# Coordination Sequence:
#
# PCOD9208068 Si02
#       8
#     8   8   8   8   8   8   8   8
#     4  10  21  37  61  92 124 158 207 262 308 368
#     4  12  22  40  63  86 123 161 212 262 307 373
#     4  11  22  39  62  93 124 161 209 262 307 373
#     4  11  24  41  63  93 130 170 208 258 323 381
#     4  11  22  38  66  95 120 164 213 259 316 370
#     4  12  24  40  66  91 121 167 214 265 313 372
#     4  10  22  39  61  94 128 159 204 258 315 377
#     4  11  23  39  62  91 126 168 207 256 316 375
#
# _framework density 19.102739
#
# number of rings (size 3 to 8) (size 9 to 14) (size 15 to 20)
#    0.000    1.000    6.250    0.750    0.000    2.500 
#    0.000    1.250    0.000    3.000    0.000    0.000 
#    0.000    0.000    0.000    0.000    0.000    0.000 
#
# Total GULP energy -178269.003635 kJ/mol
# GULP energy per Si atom -5570.906364 kJ/mol
# Density = 1.905926 g / cm^3
# Si number density = 19.102739 Si / 1000 Ang^3
#
#
#
# Elastic Constant Matrix: (Units=GPa)
#
#
# Indices 1 2 3 4 5 6 
#
# 1 41.3285 26.5129 18.9214 0.0000 0.2421 0.0000
# 2 26.5129 128.9994 53.9678 0.0000 7.3243 0.0000
# 3 18.9214 53.9678 114.1801 0.0000 -3.1904 0.0000
# 4 0.0000 0.0000 0.0000 37.2920 0.0000 16.1249
# 5 0.2421 7.3243 -3.1904 0.0000 26.3006 0.0000
# 6 0.0000 0.0000 0.0000 16.1249 0.0000 24.7150
#
#
#
# Elastic Compliance Matrix: (Units=1/GPa)
#
#
# Indices 1 2 3 4 5 6 
#
# 1 0.028418 -0.004894 -0.002373 0.000000 0.000813 0.000000
# 2 -0.004894 0.010792 -0.004387 0.000000 -0.003492 0.000000
# 3 -0.002373 -0.004387 0.011298 0.000000 0.002614 0.000000
# 4 0.000000 0.000000 0.000000 0.037353 0.000000 -0.024370
# 5 0.000813 -0.003492 0.002614 0.000000 0.039304 0.000000
# 6 0.000000 0.000000 0.000000 -0.024370 0.000000 0.056361
#
#
# Mechanical properties :
#
#
# Convention : Reuss Voigt Hill
#
# Bulk Modulus (GPa) = 36.76703 53.70137 45.23420
# Shear Modulus (GPa) = 23.15877 30.00192 26.58035
#
# Velocity S-wave (km/s) = 3.48563 3.96732 3.73425
# Velocity P-wave (km/s) = 5.95720 7.01136 6.50566
#
# Compressibility (1/GPa) = 0.02719828
#
# Stress axis : x y z
#
# Youngs Moduli (GPa) = 35.18927 92.66518 88.51033
#
# Poissons Ratio (x) = 0.45349 0.21007
# Poissons Ratio (y) = 0.17221 0.38832
# Poissons Ratio (z) = 0.08352 0.40655
#
# Static dielectric constant tensor:
#      x y z
#    x 1.687070 0.000000 -0.000320 
#    y 0.000000 1.684570 0.000000 
#    z -0.000320 0.000000 1.694070 
# 
# From -- ./inp_files/226840.got.cif
#   From: 2010.05.17/outbox.cif.g08.bks.cpg/sg12_114_cif.got.tgz:226840.got - 2010.06.03 13:09:07.
