data_PCOD9208822
_publ_section_title
;
Structure prediction by ZEFSAII (Michael W. Deem and Ramdas Pophale) SiO2 
 PCOD9208822
Probable space group: C 2/M
;
_chemical_formula_sum "Si O2"
_cell_formula_units_Z 64
_cell_length_a 15.065285
_cell_length_b 8.264963
_cell_length_c 28.313329
_cell_angle_alpha 90.000000
_cell_angle_beta 130.405693
_cell_angle_gamma 90.000000
_cell_volume 2684.505057
_symmetry_space_group_name_H-M "C 2/M"
_symmetry_group_IT_number 12
_symmetry_cell_setting 'monoclinic'
loop_
_space_group_symop_operation_xyz
x,y,z
-x,y,-z
-x,-y,-z
x,-y,z
1/2+x,1/2+y,z
1/2-x,1/2+y,-z
1/2-x,1/2-y,-z
1/2+x,1/2-y,z
loop_
_atom_site_type_symbol
_atom_site_label
_atom_site_fract_x
_atom_site_fract_y
_atom_site_fract_z
Si Si1 0.629132 0.309977 0.044566
Si Si2 0.799326 0.308875 0.261815
Si Si3 0.177363 0.819147 0.361147
Si Si4 0.020627 0.313010 0.386382
Si Si5 0.129384 0.301899 0.901343
Si Si6 0.882806 0.824727 0.488971
Si Si7 0.104524 0.690419 0.134328
Si Si8 0.974491 0.307193 0.234354
O O1 0.618665 0.500000 0.029258
O O2 0.736877 0.242598 0.051281
O O3 0.660488 0.290397 0.110760
O O4 0.500000 0.233859 0.000000
O O5 0.772547 0.500000 0.253453
O O6 0.882321 0.272235 0.335590
O O7 0.681498 0.216645 0.207882
O O8 0.886219 0.274254 0.247334
O O9 0.283317 0.716575 0.417560
O O10 0.100983 0.762368 0.290677
O O11 0.086457 0.803694 0.373154
O O12 0.218762 0.000000 0.367742
O O13 0.029267 0.500000 0.372496
O O14 0.087555 0.297039 0.458670
O O15 0.132828 0.500000 0.903181
O O16 0.029060 0.253657 0.903431
O O17 0.078902 0.248776 0.833122
O O18 0.000000 0.833568 0.500000
O O19 0.856101 0.000000 0.501567
O O20 0.105419 0.500000 0.123321
O O21 0.985422 0.500000 0.234940
#
# Coordination Sequence:
#
# PCOD9208822 Si02
#       8
#     8   8   8   8   8   8   8   8
#     4  10  21  41  66  86 114 161 207 240 283 353
#     4   9  18  35  59  83 112 151 193 235 285 349
#     4  11  22  36  57  84 114 146 190 241 289 348
#     4  10  21  38  60  83 110 147 190 238 291 348
#     4   9  19  37  59  86 120 159 196 238 299 357
#     4  11  24  40  56  76 108 149 192 240 296 355
#     4  11  22  35  58  90 124 155 192 246 301 349
#     4   9  17  35  60  80 109 152 195 237 288 350
#
# _framework density 23.840520999999999
#
# number of rings (size 3 to 8) (size 9 to 14) (size 15 to 20)
#    0.000    2.000    1.250    3.375    0.000    5.250 
#    0.000    6.250    0.000    0.000    0.000    0.000 
#    0.000    0.000    0.000    0.000    0.000    0.000 
#
# Total GULP energy -178719.443138 kJ/mol
# GULP energy per Si atom -5584.982598 kJ/mol
# Density = 2.378626 g / cm^3
# Si number density = 23.840521 Si / 1000 Ang^3
#
#
#
# Elastic Constant Matrix: (Units=GPa)
#
#
# Indices 1 2 3 4 5 6 
#
# 1 75.5928 2.3826 21.5750 0.0000 20.6398 0.0000
# 2 2.3826 31.5003 2.1606 0.0000 7.9080 0.0000
# 3 21.5750 2.1606 99.6044 0.0000 30.1728 0.0000
# 4 0.0000 0.0000 0.0000 26.2621 0.0000 0.5464
# 5 20.6398 7.9080 30.1728 0.0000 49.2246 0.0000
# 6 0.0000 0.0000 0.0000 0.5464 0.0000 11.7110
#
#
#
# Elastic Compliance Matrix: (Units=1/GPa)
#
#
# Indices 1 2 3 4 5 6 
#
# 1 0.015165 0.000321 -0.001658 0.000000 -0.005394 0.000000
# 2 0.000321 0.033184 0.001064 0.000000 -0.006118 0.000000
# 3 -0.001658 0.001064 0.012547 0.000000 -0.007166 0.000000
# 4 0.000000 0.000000 0.000000 0.038115 0.000000 -0.001778
# 5 -0.005394 -0.006118 -0.007166 0.000000 0.027952 0.000000
# 6 0.000000 0.000000 0.000000 -0.001778 0.000000 0.085473
#
#
# Mechanical properties :
#
#
# Convention : Reuss Voigt Hill
#
# Bulk Modulus (GPa) = 16.57017 28.77044 22.67031
# Shear Modulus (GPa) = 21.45021 29.47816 25.46419
#
# Velocity S-wave (km/s) = 3.00282 3.52017 3.27173
# Velocity P-wave (km/s) = 4.35753 5.34941 4.87874
#
# Compressibility (1/GPa) = 0.06034940
#
# Stress axis : x y z
#
# Youngs Moduli (GPa) = 65.94330 30.13474 79.70277
#
# Poissons Ratio (x) = -0.00967 0.13213
# Poissons Ratio (y) = -0.02116 -0.08480
# Poissons Ratio (z) = 0.10932 -0.03206
#
# Static dielectric constant tensor:
#      x y z
#    x 1.932980 0.000000 0.003280 
#    y 0.000000 1.837820 0.000000 
#    z 0.003280 0.000000 2.006040 
# 
# From -- ./inp_files/375568.got.cif
#   From: 2010.05.17/outbox.cif.g08.bks.cpg/sg12_188_cif.got.tgz:375568.got - 2010.06.03 13:09:07.
