data_PCOD9208355
_publ_section_title
;
Structure prediction by ZEFSAII (Michael W. Deem and Ramdas Pophale) SiO2 
 PCOD9208355
Probable space group: C 2/M
;
_chemical_formula_sum "Si O2"
_cell_formula_units_Z 64
_cell_length_a 9.218838
_cell_length_b 24.046573
_cell_length_c 15.745825
_cell_angle_alpha 90.000000
_cell_angle_beta 89.042984
_cell_angle_gamma 90.000000
_cell_volume 3490.070581
_symmetry_space_group_name_H-M "C 2/M"
_symmetry_group_IT_number 12
_symmetry_cell_setting 'monoclinic'
loop_
_space_group_symop_operation_xyz
x,y,z
-x,y,-z
-x,-y,-z
x,-y,z
1/2+x,1/2+y,z
1/2-x,1/2+y,-z
1/2-x,1/2-y,-z
1/2+x,1/2-y,z
loop_
_atom_site_type_symbol
_atom_site_label
_atom_site_fract_x
_atom_site_fract_y
_atom_site_fract_z
Si Si1 0.222899 0.731490 0.094569
Si Si2 0.921363 0.566643 0.414584
Si Si3 0.580005 0.566252 0.409563
Si Si4 0.086648 0.435392 0.082445
Si Si5 0.581254 0.873078 0.260576
Si Si6 0.540596 0.759518 0.792896
Si Si7 0.112095 0.113895 0.921528
Si Si8 0.929257 0.865816 0.261124
O O1 0.298815 0.765085 0.170469
O O2 0.297012 0.670933 0.094699
O O3 0.056224 0.736448 0.120613
O O4 0.250000 0.750000 0.000000
O O5 0.935174 0.500000 0.410541
O O6 0.750469 0.579507 0.416507
O O7 0.000000 0.585819 0.500000
O O8 0.001781 0.592290 0.333383
O O9 0.500000 0.576216 0.500000
O O10 0.565327 0.500000 0.390757
O O11 0.509033 0.602777 0.336086
O O12 0.048652 0.500000 0.096197
O O13 0.054536 0.400837 0.168245
O O14 0.259320 0.429841 0.064246
O O15 0.000000 0.414820 0.000000
O O16 0.516325 0.810965 0.260518
O O17 0.754619 0.871277 0.273504
O O18 0.531698 0.699643 0.747870
O O19 0.035759 0.106237 0.831023
O O20 0.000000 0.117903 0.000000
#
# Coordination Sequence:
#
# PCOD9208355 Si02
#       8
#     8   8   8   8   8   8   8   8
#     4  11  21  34  56  82 113 156 207 258 301 347
#     4  10  22  40  65  95 119 148 196 247 297 359
#     4  10  22  41  68  97 121 154 196 243 299 359
#     4  10  22  38  55  81 116 158 206 251 301 361
#     4  11  22  39  60  84 120 165 198 248 307 359
#     4  11  21  37  54  88 118 157 204 253 304 361
#     4  10  21  38  53  83 118 158 205 248 295 360
#     4  10  22  39  57  89 123 157 200 250 303 354
#
# _framework density 18.337738000000002
#
# number of rings (size 3 to 8) (size 9 to 14) (size 15 to 20)
#    0.000    1.625    3.750    3.000    3.500    4.750 
#    0.000    1.875    0.000    3.000    0.000    0.000 
#    0.000    0.000    0.000    0.000    0.000    0.000 
#
# Total GULP energy -178498.652816 kJ/mol
# GULP energy per Si atom -5578.082900 kJ/mol
# Density = 1.829600 g / cm^3
# Si number density = 18.337738 Si / 1000 Ang^3
#
#
#
# Elastic Constant Matrix: (Units=GPa)
#
#
# Indices 1 2 3 4 5 6 
#
# 1 87.8289 49.2766 73.8430 0.0000 -2.0270 0.0000
# 2 49.2766 62.9284 62.1764 0.0000 11.9316 0.0000
# 3 73.8430 62.1764 150.7877 0.0000 7.2139 0.0000
# 4 0.0000 0.0000 0.0000 31.2250 0.0000 -3.0438
# 5 -2.0270 11.9316 7.2139 0.0000 40.0324 0.0000
# 6 0.0000 0.0000 0.0000 -3.0438 0.0000 26.6110
#
#
#
# Elastic Compliance Matrix: (Units=1/GPa)
#
#
# Indices 1 2 3 4 5 6 
#
# 1 0.025347 -0.014433 -0.006787 0.000000 0.006808 0.000000
# 2 -0.014433 0.036572 -0.007521 0.000000 -0.010276 0.000000
# 3 -0.006787 -0.007521 0.013079 0.000000 -0.000459 0.000000
# 4 0.000000 0.000000 0.000000 0.032387 0.000000 0.003704
# 5 0.006808 -0.010276 -0.000459 0.000000 0.028470 0.000000
# 6 0.000000 0.000000 0.000000 0.003704 0.000000 0.038002
#
#
# Mechanical properties :
#
#
# Convention : Reuss Voigt Hill
#
# Bulk Modulus (GPa) = 57.09010 74.68192 65.88601
# Shear Modulus (GPa) = 21.08134 27.32360 24.20247
#
# Velocity S-wave (km/s) = 3.39428 3.86427 3.63687
# Velocity P-wave (km/s) = 6.82361 7.79258 7.32414
#
# Compressibility (1/GPa) = 0.01751617
#
# Stress axis : x y z
#
# Youngs Moduli (GPa) = 39.45261 27.34327 76.46060
#
# Poissons Ratio (x) = 0.39464 0.51895
# Poissons Ratio (y) = 0.56942 0.57503
# Poissons Ratio (z) = 0.26777 0.20564
#
# Static dielectric constant tensor:
#      x y z
#    x 1.633740 0.000000 0.021260 
#    y 0.000000 1.652140 0.000000 
#    z 0.021260 0.000000 1.629030 
# 
# From -- ./inp_files/198884.got.cif
#   From: 2010.05.17/outbox.cif.g08.bks.cpg/sg12_100_cif.got.tgz:198884.got - 2010.06.03 13:09:07.
