data_PCOD9208044
_publ_section_title
;
Structure prediction by ZEFSAII (Michael W. Deem and Ramdas Pophale) SiO2 
 PCOD9208044
Probable space group: C 2/M
;
_chemical_formula_sum "Si O2"
_cell_formula_units_Z 42
_cell_length_a 13.985260
_cell_length_b 17.057036
_cell_length_c 8.312764
_cell_angle_alpha 90.000000
_cell_angle_beta 106.421085
_cell_angle_gamma 90.000000
_cell_volume 1902.099638
_symmetry_space_group_name_H-M "C 2/M"
_symmetry_group_IT_number 12
_symmetry_cell_setting 'monoclinic'
loop_
_space_group_symop_operation_xyz
x,y,z
-x,y,-z
-x,-y,-z
x,-y,z
1/2+x,1/2+y,z
1/2-x,1/2+y,-z
1/2-x,1/2-y,-z
1/2+x,1/2-y,z
loop_
_atom_site_type_symbol
_atom_site_label
_atom_site_fract_x
_atom_site_fract_y
_atom_site_fract_z
Si Si1 0.386645 0.684769 0.403786
Si Si2 0.500000 0.500000 0.000000
Si Si3 0.830822 0.661009 0.192263
Si Si4 0.241768 0.590376 0.527014
Si Si5 0.528013 0.090737 0.322653
Si Si6 0.173725 0.914604 0.915397
O O1 0.500000 0.704104 0.500000
O O2 0.336013 0.759148 0.295305
O O3 0.327740 0.651666 0.528722
O O4 0.378428 0.614580 0.271502
O O5 0.414981 0.432995 0.002507
O O6 0.793610 0.597314 0.306142
O O7 0.944127 0.641306 0.195481
O O8 0.752486 0.649073 0.013570
O O9 0.270298 0.500000 0.510347
O O10 0.144611 0.611530 0.372506
O O11 0.500000 0.096600 0.500000
O O12 0.518195 0.000000 0.271462
O O13 0.224031 0.000000 0.912762
#
# Coordination Sequence:
#
# PCOD9208044 Si02
#       6
#     8   2   8   8   8   8
#     4  12  26  39  60  94 137 163 201 266 327 372
#     4   8  24  44  66  96 116 172 226 250 310 376
#     4  11  21  39  65  90 121 164 213 260 316 376
#     4  10  21  37  61  90 125 168 214 258 309 376
#     4   8  15  32  56  85 111 150 206 253 294 359
#     4  10  23  43  65  91 122 164 219 254 306 375
#
# _framework density 22.080862
#
# number of rings (size 3 to 8) (size 9 to 14) (size 15 to 20)
#    0.571    1.333    0.000    6.286    2.667    1.524 
#    0.000    0.952    0.000    3.429    0.000    0.000 
#    0.000    0.000    0.000    0.000    0.000    0.000 
#
# Total GULP energy -116917.545226 kJ/mol
# GULP energy per Si atom -5567.502154 kJ/mol
# Density = 2.203060 g / cm^3
# Si number density = 22.080862 Si / 1000 Ang^3
#
#
#
# Elastic Constant Matrix: (Units=GPa)
#
#
# Indices 1 2 3 4 5 6 
#
# 1 48.9781 15.0668 4.5299 0.0000 7.7189 0.0000
# 2 15.0668 81.3398 8.1092 0.0000 2.2620 0.0000
# 3 4.5299 8.1092 55.0219 0.0000 19.5783 0.0000
# 4 0.0000 0.0000 0.0000 17.5981 0.0000 12.3164
# 5 7.7189 2.2620 19.5783 0.0000 11.6236 0.0000
# 6 0.0000 0.0000 0.0000 12.3164 0.0000 19.9483
#
#
#
# Elastic Compliance Matrix: (Units=1/GPa)
#
#
# Indices 1 2 3 4 5 6 
#
# 1 0.026522 -0.005041 0.011175 0.000000 -0.035454 0.000000
# 2 -0.005041 0.013449 -0.004560 0.000000 0.008411 0.000000
# 3 0.011175 -0.004560 0.050545 0.000000 -0.091670 0.000000
# 4 0.000000 0.000000 0.000000 0.100062 0.000000 -0.061780
# 5 -0.035454 0.008411 -0.091670 0.000000 0.262344 0.000000
# 6 0.000000 0.000000 0.000000 -0.061780 0.000000 0.088274
#
#
# Mechanical properties :
#
#
# Convention : Reuss Voigt Hill
#
# Bulk Modulus (GPa) = 10.67641 26.75016 18.71329
# Shear Modulus (GPa) = 8.78320 20.34292 14.56306
#
# Velocity S-wave (km/s) = 1.99659 3.03857 2.57092
# Velocity P-wave (km/s) = 3.18760 4.94485 4.16007
#
# Compressibility (1/GPa) = 0.09366445
#
# Stress axis : x y z
#
# Youngs Moduli (GPa) = 37.70457 74.35755 19.78424
#
# Poissons Ratio (x) = 0.37483 -0.22109
# Poissons Ratio (y) = 0.19006 0.09021
# Poissons Ratio (z) = -0.42135 0.33905
#
# Static dielectric constant tensor:
#      x y z
#    x 1.840040 0.000000 0.003160 
#    y 0.000000 1.813980 0.000000 
#    z 0.003160 0.000000 1.870890 
# 
# From -- ./inp_files/61316.got.cif
#   From: 2010.05.17/outbox.cif.g08.bks.cpg/sg12_31_cif.got.tgz:61316.got - 2010.06.03 13:09:07.
