data_PCOD9208191
_publ_section_title
;
Structure prediction by ZEFSAII (Michael W. Deem and Ramdas Pophale) SiO2 
 PCOD9208191
Probable space group: C 2/M
;
_chemical_formula_sum "Si O2"
_cell_formula_units_Z 64
_cell_length_a 9.737507
_cell_length_b 28.250412
_cell_length_c 14.571589
_cell_angle_alpha 90.000000
_cell_angle_beta 49.281867
_cell_angle_gamma 90.000000
_cell_volume 3038.137243
_symmetry_space_group_name_H-M "C 2/M"
_symmetry_group_IT_number 12
_symmetry_cell_setting 'monoclinic'
loop_
_space_group_symop_operation_xyz
x,y,z
-x,y,-z
-x,-y,-z
x,-y,z
1/2+x,1/2+y,z
1/2-x,1/2+y,-z
1/2-x,1/2-y,-z
1/2+x,1/2-y,z
loop_
_atom_site_type_symbol
_atom_site_label
_atom_site_fract_x
_atom_site_fract_y
_atom_site_fract_z
Si Si1 0.805795 0.945225 0.057520
Si Si2 0.596494 0.554627 0.557941
Si Si3 0.568388 0.151892 0.758603
Si Si4 0.598544 0.826482 0.359032
Si Si5 0.087553 0.783904 0.361924
Si Si6 0.927984 0.446723 0.294896
Si Si7 0.041919 0.143075 0.717012
Si Si8 0.178260 0.368643 0.983862
O O1 0.646215 0.942005 0.203067
O O2 0.833602 0.000000 0.025054
O O3 0.730054 0.919483 0.001624
O O4 0.000000 0.924274 0.000000
O O5 0.500000 0.562460 0.500000
O O6 0.555230 0.500000 0.603982
O O7 0.550419 0.595521 0.650920
O O8 0.810161 0.556795 0.438293
O O9 0.521153 0.154652 0.672266
O O10 0.726103 0.187044 0.716897
O O11 0.629358 0.097030 0.744817
O O12 0.388192 0.160054 0.897131
O O13 0.500000 0.830770 0.500000
O O14 0.621999 0.770822 0.326692
O O15 0.789028 0.852903 0.288358
O O16 0.000000 0.786945 0.500000
O O17 0.953436 0.810982 0.351354
O O18 0.892226 0.500000 0.273888
O O19 0.853561 0.147798 0.853221
O O20 0.000000 0.369300 0.000000
#
# Coordination Sequence:
#
# PCOD9208191 Si02
#       8
#     8   8   8   8   8   8   8   8
#     4   9  20  38  63  92 126 173 222 271 326 383
#     4  10  21  37  62  97 132 172 219 269 330 389
#     4  11  22  42  65  90 136 172 208 275 322 386
#     4  11  25  42  67 102 127 162 220 268 336 406
#     4  11  22  42  69  95 127 166 213 277 336 389
#     4   9  18  34  60  90 123 165 210 255 317 382
#     4  12  24  41  65  95 132 173 217 274 328 383
#     4  11  25  42  62  94 128 175 228 264 315 391
#
# _framework density 21.065539000000001
#
# number of rings (size 3 to 8) (size 9 to 14) (size 15 to 20)
#    0.000    1.500    1.250    4.125    5.250    2.750 
#    0.000    4.375    0.000    2.250    0.000    0.000 
#    0.000    0.000    0.000    0.000    0.000    0.000 
#
# Total GULP energy -178623.624787 kJ/mol
# GULP energy per Si atom -5581.988275 kJ/mol
# Density = 2.101759 g / cm^3
# Si number density = 21.065539 Si / 1000 Ang^3
#
#
#
# Elastic Constant Matrix: (Units=GPa)
#
#
# Indices 1 2 3 4 5 6 
#
# 1 69.8701 7.1208 3.0245 0.0000 -5.2301 0.0000
# 2 7.1208 95.6561 20.5741 0.0000 1.0152 0.0000
# 3 3.0245 20.5741 81.0864 0.0000 -12.2688 0.0000
# 4 0.0000 0.0000 0.0000 15.7587 0.0000 -4.8457
# 5 -5.2301 1.0152 -12.2688 0.0000 33.8357 0.0000
# 6 0.0000 0.0000 0.0000 -4.8457 0.0000 21.2538
#
#
#
# Elastic Compliance Matrix: (Units=1/GPa)
#
#
# Indices 1 2 3 4 5 6 
#
# 1 0.014598 -0.001132 0.000094 0.000000 0.002325 0.000000
# 2 -0.001132 0.011211 -0.003047 0.000000 -0.001616 0.000000
# 3 0.000094 -0.003047 0.013880 0.000000 0.005139 0.000000
# 4 0.000000 0.000000 0.000000 0.068241 0.000000 0.015558
# 5 0.002325 -0.001616 0.005139 0.000000 0.031826 0.000000
# 6 0.000000 0.000000 0.000000 0.015558 0.000000 0.050598
#
#
# Mechanical properties :
#
#
# Convention : Reuss Voigt Hill
#
# Bulk Modulus (GPa) = 31.72615 34.22793 32.97704
# Shear Modulus (GPa) = 23.92035 28.56252 26.24144
#
# Velocity S-wave (km/s) = 3.37340 3.68623 3.53328
# Velocity P-wave (km/s) = 5.50150 5.86527 5.68629
#
# Compressibility (1/GPa) = 0.03151974
#
# Stress axis : x y z
#
# Youngs Moduli (GPa) = 68.50472 89.19942 72.04828
#
# Poissons Ratio (x) = 0.10094 -0.00680
# Poissons Ratio (y) = 0.07752 0.21952
# Poissons Ratio (z) = -0.00646 0.27178
#
# Static dielectric constant tensor:
#      x y z
#    x 1.780930 0.000000 -0.020440 
#    y 0.000000 1.781360 0.000000 
#    z -0.020440 0.000000 1.802680 
# 
# From -- ./inp_files/201236.got.cif
#   From: 2010.05.17/outbox.cif.g08.bks.cpg/sg12_101_cif.got.tgz:201236.got - 2010.06.03 13:09:07.
