data_PCOD9208920
_publ_section_title
;
Structure prediction by ZEFSAII (Michael W. Deem and Ramdas Pophale) SiO2 
 PCOD9208920
Probable space group: C 2/M
;
_chemical_formula_sum "Si O2"
_cell_formula_units_Z 64
_cell_length_a 13.843597
_cell_length_b 11.999732
_cell_length_c 23.233267
_cell_angle_alpha 90.000000
_cell_angle_beta 44.556664
_cell_angle_gamma 90.000000
_cell_volume 2707.878753
_symmetry_space_group_name_H-M "C 2/M"
_symmetry_group_IT_number 12
_symmetry_cell_setting 'monoclinic'
loop_
_space_group_symop_operation_xyz
x,y,z
-x,y,-z
-x,-y,-z
x,-y,z
1/2+x,1/2+y,z
1/2-x,1/2+y,-z
1/2-x,1/2-y,-z
1/2+x,1/2-y,z
loop_
_atom_site_type_symbol
_atom_site_label
_atom_site_fract_x
_atom_site_fract_y
_atom_site_fract_z
Si Si1 0.565992 0.879420 0.408579
Si Si2 0.125300 0.123086 0.091668
Si Si3 0.261653 0.670123 0.081525
Si Si4 0.708527 0.376000 0.268610
Si Si5 0.460613 0.883010 0.250091
Si Si6 0.917142 0.825418 0.438612
Si Si7 0.219943 0.767313 0.609599
Si Si8 0.823739 0.864053 0.180876
O O1 0.500000 0.886540 0.500000
O O2 0.463922 0.803831 0.416486
O O3 0.709731 0.824144 0.365322
O O4 0.582145 0.000000 0.376897
O O5 0.226692 0.201157 0.084205
O O6 0.964916 0.157125 0.155818
O O7 0.130260 0.000000 0.113326
O O8 0.176324 0.125375 0.003839
O O9 0.347473 0.646102 0.102122
O O10 0.109429 0.623552 0.159020
O O11 0.708045 0.500000 0.237229
O O12 0.840554 0.382799 0.253841
O O13 0.566064 0.379001 0.366215
O O14 0.727023 0.248550 0.233473
O O15 0.421409 0.784273 0.308800
O O16 0.452139 0.000000 0.286423
O O17 0.820120 0.849340 0.425587
O O18 0.827018 0.823318 0.535736
O O19 0.790399 0.000000 0.203224
#
# Coordination Sequence:
#
# PCOD9208920 Si02
#       8
#     8   8   8   8   8   8   8   8
#     4   9  18  34  55  80 112 148 193 252 311 363
#     4  10  22  41  67  99 133 170 215 266 323 388
#     4  11  22  40  67  96 132 167 214 268 322 378
#     4  11  24  41  61  91 134 175 212 266 334 391
#     4  11  22  38  59  86 123 168 208 254 322 389
#     4  10  21  38  60  86 119 160 212 266 318 380
#     4  10  21  38  60  87 117 158 215 265 319 376
#     4  11  23  43  69  98 128 173 225 269 318 385
#
# _framework density 23.634737999999999
#
# number of rings (size 3 to 8) (size 9 to 14) (size 15 to 20)
#    0.000    1.625    2.500    2.250    0.000    3.500 
#    0.000    4.375    0.000    2.250    0.000    0.000 
#    0.000    0.000    0.000    0.000    0.000    0.000 
#
# Total GULP energy -178157.221800 kJ/mol
# GULP energy per Si atom -5567.413181 kJ/mol
# Density = 2.358094 g / cm^3
# Si number density = 23.634738 Si / 1000 Ang^3
#
#
#
# Elastic Constant Matrix: (Units=GPa)
#
#
# Indices 1 2 3 4 5 6 
#
# 1 59.1396 5.0005 -6.8703 0.0000 -6.6582 0.0000
# 2 5.0005 137.5660 20.3205 0.0000 -4.1210 0.0000
# 3 -6.8703 20.3205 96.6338 0.0000 -12.2797 0.0000
# 4 0.0000 0.0000 0.0000 -10.5778 0.0000 33.4548
# 5 -6.6582 -4.1210 -12.2797 0.0000 30.4066 0.0000
# 6 0.0000 0.0000 0.0000 33.4548 0.0000 -89.0948
#
#
#
# Elastic Compliance Matrix: (Units=1/GPa)
#
#
# Indices 1 2 3 4 5 6 
#
# 1 0.017727 -0.000804 0.002012 0.000000 0.004585 0.000000
# 2 -0.000804 0.007543 -0.001619 0.000000 0.000192 0.000000
# 3 0.002012 -0.001619 0.011447 0.000000 0.004844 0.000000
# 4 0.000000 0.000000 0.000000 0.503956 0.000000 0.189234
# 5 0.004585 0.000192 0.004844 0.000000 0.035874 0.000000
# 6 0.000000 0.000000 0.000000 0.189234 0.000000 0.059833
#
#
# Mechanical properties :
#
#
# Convention : Reuss Voigt Hill
#
# Bulk Modulus (GPa) = 27.85841 36.69341 32.27591
# Shear Modulus (GPa) = 7.70216 4.47271 6.08744
#
# Velocity S-wave (km/s) = 1.80718 1.37715 1.60662
# Velocity P-wave (km/s) = 4.02084 4.25295 4.13853
#
# Compressibility (1/GPa) = 0.03589581
#
# Stress axis : x y z
#
# Youngs Moduli (GPa) = 56.41069 132.56654 87.35588
#
# Poissons Ratio (x) = 0.10662 -0.17577
# Poissons Ratio (y) = 0.04537 0.14143
# Poissons Ratio (z) = -0.11351 0.21462
#
# Static dielectric constant tensor:
#      x y z
#    x 1.863430 0.000000 0.000330 
#    y 0.000000 2.002920 0.000000 
#    z 0.000330 0.000000 1.934250 
# 
# From -- ./inp_files/361046.got.cif
#   From: 2010.05.17/outbox.cif.g08.bks.cpg/sg12_181_cif.got.tgz:361046.got - 2010.06.03 13:09:07.
