data_PCOD9208612
_publ_section_title
;
Structure prediction by ZEFSAII (Michael W. Deem and Ramdas Pophale) SiO2 
 PCOD9208612
Probable space group: C 2/M
;
_chemical_formula_sum "Si O2"
_cell_formula_units_Z 56
_cell_length_a 21.786846
_cell_length_b 13.504913
_cell_length_c 22.742890
_cell_angle_alpha 90.000000
_cell_angle_beta 23.752631
_cell_angle_gamma 90.000000
_cell_volume 2695.312374
_symmetry_space_group_name_H-M "C 2/M"
_symmetry_group_IT_number 12
_symmetry_cell_setting 'monoclinic'
loop_
_space_group_symop_operation_xyz
x,y,z
-x,y,-z
-x,-y,-z
x,-y,z
1/2+x,1/2+y,z
1/2-x,1/2+y,-z
1/2-x,1/2-y,-z
1/2+x,1/2-y,z
loop_
_atom_site_type_symbol
_atom_site_label
_atom_site_fract_x
_atom_site_fract_y
_atom_site_fract_z
Si Si1 0.814702 0.614736 0.822370
Si Si2 0.910961 0.294043 0.981011
Si Si3 0.672207 0.388128 0.489724
Si Si4 0.755750 0.799130 0.691682
Si Si5 0.421075 0.891154 0.505789
Si Si6 0.499182 0.119464 0.222389
Si Si7 0.862237 0.884479 0.717118
O O1 0.764516 0.500000 0.864523
O O2 0.945776 0.625791 0.658199
O O3 0.895174 0.634300 0.814180
O O4 0.676558 0.690226 0.935192
O O5 0.078111 0.293857 0.862643
O O6 0.937973 0.324008 0.889524
O O7 0.796905 0.371973 0.110399
O O8 0.657795 0.500000 0.524448
O O9 0.717163 0.383220 0.381006
O O10 0.823788 0.345884 0.387175
O O11 0.500317 0.347616 0.637973
O O12 0.804529 0.698907 0.615240
O O13 0.850122 0.822894 0.667478
O O14 0.500000 0.896493 0.500000
O O15 0.351953 0.000000 0.553465
O O16 0.493093 0.000000 0.216174
O O17 0.889589 0.000000 0.679544
#
# Coordination Sequence:
#
# PCOD9208612 Si02
#       7
#     8   8   8   8   8   8   8
#     4  10  21  39  61  81 109 150 191 232 280 332
#     4  11  22  35  54  84 118 151 186 226 274 329
#     4   9  18  33  54  80 110 145 187 232 274 322
#     4  11  21  34  54  81 113 148 184 228 277 333
#     4  10  21  38  59  80 104 140 188 241 288 328
#     4   9  19  37  58  82 113 149 188 230 278 329
#     4  11  22  36  57  85 117 151 184 222 275 338
#
# _framework density 20.776812
#
# number of rings (size 3 to 8) (size 9 to 14) (size 15 to 20)
#    0.000    1.857    0.000    4.714    0.000    4.000 
#    0.000    7.857    0.000    7.714    0.000    0.000 
#    0.000    0.000    0.000    0.000    0.000    0.000 
#
# Total GULP energy -156273.714509 kJ/mol
# GULP energy per Si atom -5581.204090 kJ/mol
# Density = 2.072952 g / cm^3
# Si number density = 20.776812 Si / 1000 Ang^3
#
#
#
# Elastic Constant Matrix: (Units=GPa)
#
#
# Indices 1 2 3 4 5 6 
#
# 1 22.6304 7.9292 5.3119 -0.0041 2.2973 0.0001
# 2 7.9292 103.9711 30.5435 -0.0132 -4.1928 0.0046
# 3 5.3119 30.5435 113.4075 -0.0169 -12.1739 0.0063
# 4 -0.0041 -0.0132 -0.0169 35.5252 0.0035 3.2861
# 5 2.2973 -4.1928 -12.1739 0.0035 32.3253 -0.0001
# 6 0.0001 0.0046 0.0063 3.2861 -0.0001 18.9277
#
#
#
# Elastic Compliance Matrix: (Units=1/GPa)
#
#
# Indices 1 2 3 4 5 6 
#
# 1 0.046160 -0.003175 -0.001775 0.000004 -0.004361 0.000000
# 2 -0.003175 0.010666 -0.002659 0.000002 0.000608 -0.000002
# 3 -0.001775 -0.002659 0.009998 0.000004 0.003546 -0.000003
# 4 0.000004 0.000002 0.000004 0.028608 -0.000002 -0.004967
# 5 -0.004361 0.000608 0.003546 -0.000002 0.032660 -0.000001
# 6 0.000000 -0.000002 -0.000003 -0.004967 -0.000001 0.053695
#
#
# Mechanical properties :
#
#
# Convention : Reuss Voigt Hill
#
# Bulk Modulus (GPa) = 19.37741 36.39755 27.88748
# Shear Modulus (GPa) = 23.34207 30.43729 26.88968
#
# Velocity S-wave (km/s) = 3.35545 3.83164 3.60142
# Velocity P-wave (km/s) = 4.93546 6.09357 5.54484
#
# Compressibility (1/GPa) = 0.05160649
#
# Stress axis : x y z
#
# Youngs Moduli (GPa) = 21.66375 93.75854 100.02373
#
# Poissons Ratio (x) = 0.29765 0.17756
# Poissons Ratio (y) = 0.06878 0.26592
# Poissons Ratio (z) = 0.03846 0.24927
#
# Static dielectric constant tensor:
#      x y z
#    x 1.723630 0.000000 -0.023200 
#    y 0.000000 1.801370 0.000000 
#    z -0.023200 0.000000 1.746200 
# 
# From -- ./inp_files/349722.got.cif
#   From: 2010.05.17/outbox.cif.g08.bks.cpg/sg12_175_cif.got.tgz:349722.got - 2010.06.03 13:09:07.
