data_PCOD9208736
_publ_section_title
;
Structure prediction by ZEFSAII (Michael W. Deem and Ramdas Pophale) SiO2 
 PCOD9208736
Probable space group: C 2/M
;
_chemical_formula_sum "Si O2"
_cell_formula_units_Z 40
_cell_length_a 27.607126
_cell_length_b 8.797529
_cell_length_c 32.299656
_cell_angle_alpha 90.000000
_cell_angle_beta 16.360126
_cell_angle_gamma 90.000000
_cell_volume 2209.663842
_symmetry_space_group_name_H-M "C 2/M"
_symmetry_group_IT_number 12
_symmetry_cell_setting 'monoclinic'
loop_
_space_group_symop_operation_xyz
x,y,z
-x,y,-z
-x,-y,-z
x,-y,z
1/2+x,1/2+y,z
1/2-x,1/2+y,-z
1/2-x,1/2-y,-z
1/2+x,1/2-y,z
loop_
_atom_site_type_symbol
_atom_site_label
_atom_site_fract_x
_atom_site_fract_y
_atom_site_fract_z
Si Si1 0.165079 0.181450 0.836992
Si Si2 0.255394 0.681464 0.449934
Si Si3 0.027330 0.182098 0.566608
Si Si4 0.661150 0.818962 0.750174
Si Si5 0.064073 0.681775 0.144042
O O1 0.338213 0.261064 0.711022
O O2 0.140327 0.230462 0.809756
O O3 0.186026 0.000000 0.822512
O O4 0.000000 0.225090 0.000000
O O5 0.252669 0.500000 0.453552
O O6 0.250000 0.750000 0.500000
O O7 0.100784 0.742393 0.547956
O O8 0.427336 0.741167 0.286638
O O9 0.162211 0.220749 0.419043
O O10 0.031596 0.000000 0.567605
O O11 0.507841 0.789741 0.843300
O O12 0.666854 0.000000 0.754048
O O13 0.062802 0.500000 0.151272
O O14 0.250000 0.750000 0.000000
#
# Coordination Sequence:
#
# PCOD9208736 Si02
#       5
#     8   8   8   8   8
#     4  11  24  38  54  82 116 148 186 232 281 334
#     4  11  22  38  60  86 116 151 191 234 284 339
#     4  10  21  39  61  84 111 145 188 234 282 339
#     4   9  20  38  59  82 109 145 188 232 279 335
#     4  10  21  38  59  86 118 151 191 237 286 339
#
# _framework density 18.102301000000001
#
# number of rings (size 3 to 8) (size 9 to 14) (size 15 to 20)
#    0.000    1.800    0.000    5.400    0.000   10.400 
#    0.000    4.000    0.000    0.000    0.000    0.000 
#    0.000    0.000    0.000    0.000    0.000    0.000 
#
# Total GULP energy -111757.334927 kJ/mol
# GULP energy per Si atom -5587.866746 kJ/mol
# Density = 1.806110 g / cm^3
# Si number density = 18.102301 Si / 1000 Ang^3
#
#
#
# Elastic Constant Matrix: (Units=GPa)
#
#
# Indices 1 2 3 4 5 6 
#
# 1 153.3982 85.6096 87.1925 -0.0159 6.7922 0.0150
# 2 85.6096 113.3053 69.0877 -0.0402 -3.4915 0.0449
# 3 87.1925 69.0877 128.4573 -0.0117 -22.0881 0.0231
# 4 -0.0159 -0.0402 -0.0117 34.4484 0.0060 -2.0834
# 5 6.7922 -3.4915 -22.0881 0.0060 22.0189 0.0036
# 6 0.0150 0.0449 0.0231 -2.0834 0.0036 37.7666
#
#
#
# Elastic Compliance Matrix: (Units=1/GPa)
#
#
# Indices 1 2 3 4 5 6 
#
# 1 0.017610 -0.006989 -0.011262 0.000000 -0.017838 0.000010
# 2 -0.006989 0.016607 -0.004066 0.000014 0.000710 -0.000014
# 3 -0.011262 -0.004066 0.021875 -0.000007 0.024773 -0.000007
# 4 0.000000 0.000014 -0.000007 0.029126 -0.000013 0.001607
# 5 -0.017838 0.000710 0.024773 -0.000013 0.075882 -0.000017
# 6 0.000010 -0.000014 -0.000007 0.001607 -0.000017 0.026567
#
#
# Mechanical properties :
#
#
# Convention : Reuss Voigt Hill
#
# Bulk Modulus (GPa) = 87.25944 97.66003 92.45973
# Shear Modulus (GPa) = 21.17558 29.06484 25.12021
#
# Velocity S-wave (km/s) = 3.42390 4.01133 3.72920
# Velocity P-wave (km/s) = 7.99619 8.69025 8.35043
#
# Compressibility (1/GPa) = 0.01146008
#
# Stress axis : x y z
#
# Youngs Moduli (GPa) = 56.78490 60.21495 45.71330
#
# Poissons Ratio (x) = 0.42081 0.51482
# Poissons Ratio (y) = 0.39684 0.18587
# Poissons Ratio (z) = 0.63950 0.24484
#
# Static dielectric constant tensor:
#      x y z
#    x 1.598030 -0.000010 -0.012610 
#    y -0.000010 1.599950 0.000000 
#    z -0.012610 0.000000 1.580410 
# 
# From -- ./inp_files/92750.got.cif
#   From: 2010.05.17/outbox.cif.g08.bks.cpg/sg12_47_cif.got.tgz:92750.got - 2010.06.03 13:09:07.
