data_PCOD9208345
_publ_section_title
;
Structure prediction by ZEFSAII (Michael W. Deem and Ramdas Pophale) SiO2 
 PCOD9208345
Probable space group: C 2/M
;
_chemical_formula_sum "Si O2"
_cell_formula_units_Z 56
_cell_length_a 17.405912
_cell_length_b 29.067518
_cell_length_c 6.408104
_cell_angle_alpha 90.000000
_cell_angle_beta 125.047381
_cell_angle_gamma 90.000000
_cell_volume 2654.282290
_symmetry_space_group_name_H-M "C 2/M"
_symmetry_group_IT_number 12
_symmetry_cell_setting 'monoclinic'
loop_
_space_group_symop_operation_xyz
x,y,z
-x,y,-z
-x,-y,-z
x,-y,z
1/2+x,1/2+y,z
1/2-x,1/2+y,-z
1/2-x,1/2-y,-z
1/2+x,1/2-y,z
loop_
_atom_site_type_symbol
_atom_site_label
_atom_site_fract_x
_atom_site_fract_y
_atom_site_fract_z
Si Si1 0.689718 0.734163 0.111362
Si Si2 0.700771 0.449011 0.420463
Si Si3 0.037623 0.500000 0.308074
Si Si4 0.166330 0.318846 0.357862
Si Si5 0.417400 0.650170 0.209356
Si Si6 0.768965 0.607760 0.883312
Si Si7 0.500000 0.582124 0.000000
Si Si8 0.862265 0.403520 0.446327
O O1 0.758851 0.703827 0.366035
O O2 0.643494 0.775020 0.175938
O O3 0.750000 0.750000 0.000000
O O4 0.609273 0.699709 0.917443
O O5 0.727502 0.500000 0.395266
O O6 0.739486 0.437756 0.710912
O O7 0.754868 0.413273 0.356403
O O8 0.588664 0.444678 0.233235
O O9 0.085044 0.448937 0.391663
O O10 0.000000 0.500000 0.500000
O O11 0.000000 0.500000 0.000000
O O12 0.203064 0.354459 0.242512
O O13 0.105546 0.354487 0.405955
O O14 0.500000 0.655620 0.500000
O O15 0.324106 0.628542 0.160928
O O16 0.455148 0.614984 0.099933
O O17 0.850386 0.599621 0.178914
#
# Coordination Sequence:
#
# PCOD9208345 Si02
#       8
#     8   8   4   8   8   8   4   8
#     4  11  21  39  65  99 128 181 240 286 348 429
#     4  11  23  37  62  97 141 181 238 276 346 418
#     4  12  32  54  82 115 147 187 251 330 392 446
#     4  10  21  37  72  95 133 168 243 292 343 429
#     4  12  23  37  60  93 139 180 223 278 349 407
#     4  11  21  40  64  99 128 189 230 287 339 439
#     4  12  23  40  56  94 144 188 220 287 336 410
#     4  11  23  44  75 101 136 186 236 292 370 445
#
# _framework density 21.097981000000001
#
# number of rings (size 3 to 8) (size 9 to 14) (size 15 to 20)
#    0.000    0.857    6.429    1.071    5.000    0.000 
#    0.000    0.714    7.857    0.000    0.000    0.000 
#    0.000    0.000    0.000    0.000    0.000    0.000 
#
# Total GULP energy -155922.008066 kJ/mol
# GULP energy per Si atom -5568.643145 kJ/mol
# Density = 2.104996 g / cm^3
# Si number density = 21.097981 Si / 1000 Ang^3
#
#
#
# Elastic Constant Matrix: (Units=GPa)
#
#
# Indices 1 2 3 4 5 6 
#
# 1 12.8871 -0.8375 18.7213 0.0000 -11.0322 0.0000
# 2 -0.8375 104.6293 38.6105 0.0000 -3.2029 0.0000
# 3 18.7213 38.6105 123.8302 0.0000 -24.0809 0.0000
# 4 0.0000 0.0000 0.0000 74.3782 0.0000 -2.7246
# 5 -11.0322 -3.2029 -24.0809 0.0000 15.8405 0.0000
# 6 0.0000 0.0000 0.0000 -2.7246 0.0000 42.1603
#
#
#
# Elastic Compliance Matrix: (Units=1/GPa)
#
#
# Indices 1 2 3 4 5 6 
#
# 1 0.200024 0.008409 -0.007725 0.000000 0.129265 0.000000
# 2 0.008409 0.011351 -0.004579 0.000000 0.001190 0.000000
# 3 -0.007725 -0.004579 0.013409 0.000000 0.014079 0.000000
# 4 0.000000 0.000000 0.000000 0.013477 0.000000 0.000871
# 5 0.129265 0.001190 0.014079 0.000000 0.174800 0.000000
# 6 0.000000 0.000000 0.000000 0.000871 0.000000 0.023775
#
#
# Mechanical properties :
#
#
# Convention : Reuss Voigt Hill
#
# Bulk Modulus (GPa) = 4.60843 39.37059 21.98951
# Shear Modulus (GPa) = 9.67197 38.79928 24.23562
#
# Velocity S-wave (km/s) = 2.14342 4.29301 3.39295
# Velocity P-wave (km/s) = 2.88353 6.57835 5.07885
#
# Compressibility (1/GPa) = 0.21699387
#
# Stress axis : x y z
#
# Youngs Moduli (GPa) = 4.99940 88.09738 74.57636
#
# Poissons Ratio (x) = -0.74078 0.57609
# Poissons Ratio (y) = -0.04204 0.34149
# Poissons Ratio (z) = 0.03862 0.40341
#
# Static dielectric constant tensor:
#      x y z
#    x 1.831590 0.000000 0.003460 
#    y 0.000000 1.777190 0.000000 
#    z 0.003460 0.000000 1.845560 
# 
# From -- ./inp_files/18412.got.cif
#   From: 2010.05.17/outbox.cif.g08.bks.cpg/sg12_10_cif.got.tgz:18412.got - 2010.06.03 13:09:07.
