data_PCOD9208761
_publ_section_title
;
Structure prediction by ZEFSAII (Michael W. Deem and Ramdas Pophale) SiO2 
 PCOD9208761
Probable space group: C 2/M
;
_chemical_formula_sum "Si O2"
_cell_formula_units_Z 48
_cell_length_a 7.723882
_cell_length_b 27.327616
_cell_length_c 14.315834
_cell_angle_alpha 90.000000
_cell_angle_beta 139.695534
_cell_angle_gamma 90.000000
_cell_volume 1954.596392
_symmetry_space_group_name_H-M "C 2/M"
_symmetry_group_IT_number 12
_symmetry_cell_setting 'monoclinic'
loop_
_space_group_symop_operation_xyz
x,y,z
-x,y,-z
-x,-y,-z
x,-y,z
1/2+x,1/2+y,z
1/2-x,1/2+y,-z
1/2-x,1/2-y,-z
1/2+x,1/2-y,z
loop_
_atom_site_type_symbol
_atom_site_label
_atom_site_fract_x
_atom_site_fract_y
_atom_site_fract_z
Si Si1 0.463979 0.180679 0.215255
Si Si2 0.832847 0.053622 0.548096
Si Si3 0.247070 0.374129 0.035814
Si Si4 0.355631 0.284577 0.215187
Si Si5 0.726022 0.155583 0.519479
Si Si6 0.231620 0.052646 0.256227
O O1 0.292576 0.229229 0.163979
O O2 0.676965 0.200395 0.228811
O O3 0.593302 0.167855 0.366979
O O4 0.334143 0.136659 0.104055
O O5 0.934404 0.110234 0.586591
O O6 0.552377 0.057999 0.375480
O O7 0.789640 0.048757 0.640524
O O8 0.957159 0.000000 0.575590
O O9 0.310678 0.322074 0.111680
O O10 0.513310 0.406529 0.144130
O O11 0.000000 0.394028 0.000000
O O12 0.647271 0.297693 0.376488
O O13 0.000000 0.361794 0.500000
O O14 0.153911 0.000000 0.182457
#
# Coordination Sequence:
#
# PCOD9208761 Si02
#       6
#     8   8   8   8   8   8
#     4  11  25  39  60  87 121 157 204 254 303 361
#     4   9  17  33  62  91 116 154 204 251 297 351
#     4  10  21  38  59  87 122 162 199 245 304 364
#     4  11  22  42  60  84 119 162 206 249 300 361
#     4  12  21  37  63  90 119 157 205 253 299 353
#     4   9  16  33  60  90 120 157 201 245 297 360
#
# _framework density 24.557500000000001
#
# number of rings (size 3 to 8) (size 9 to 14) (size 15 to 20)
#    0.000    1.667    3.333    3.500    0.000    0.333 
#    0.000    7.500    0.000    5.000    0.000    0.000 
#    0.000    0.000    0.000    0.000    0.000    0.000 
#
# Total GULP energy -133896.418844 kJ/mol
# GULP energy per Si atom -5579.017452 kJ/mol
# Density = 2.450161 g / cm^3
# Si number density = 24.557500 Si / 1000 Ang^3
#
#
#
# Elastic Constant Matrix: (Units=GPa)
#
#
# Indices 1 2 3 4 5 6 
#
# 1 60.4553 0.3983 12.5275 0.0000 -15.4105 0.0000
# 2 0.3983 78.6359 8.0000 0.0000 2.2681 0.0000
# 3 12.5275 8.0000 111.9846 0.0000 -15.4110 0.0000
# 4 0.0000 0.0000 0.0000 -28.6613 0.0000 32.7567
# 5 -15.4105 2.2681 -15.4110 0.0000 26.1622 0.0000
# 6 0.0000 0.0000 0.0000 32.7567 0.0000 -47.9193
#
#
#
# Elastic Compliance Matrix: (Units=1/GPa)
#
#
# Indices 1 2 3 4 5 6 
#
# 1 0.019517 -0.000358 -0.000622 0.000000 0.011161 0.000000
# 2 -0.000358 0.012894 -0.001158 0.000000 -0.002011 0.000000
# 3 -0.000622 -0.001158 0.009843 0.000000 0.005532 0.000000
# 4 0.000000 0.000000 0.000000 -0.159502 0.000000 -0.109032
# 5 0.011161 -0.002011 0.005532 0.000000 0.048231 0.000000
# 6 0.000000 0.000000 0.000000 -0.109032 0.000000 -0.095401
#
#
# Mechanical properties :
#
#
# Convention : Reuss Voigt Hill
#
# Bulk Modulus (GPa) = 26.32907 32.54748 29.43828
# Shear Modulus (GPa) = -33.90245 5.25965 -14.32140
#
# Velocity S-wave (km/s) = -3.71958 1.46507 -2.41753
# Velocity P-wave (km/s) = 2.77532 4.01799 2.05449
#
# Compressibility (1/GPa) = 0.03798083
#
# Stress axis : x y z
#
# Youngs Moduli (GPa) = 51.23628 77.55281 101.59053
#
# Poissons Ratio (x) = 0.02773 0.06318
# Poissons Ratio (y) = 0.01832 0.11763
# Poissons Ratio (z) = 0.03186 0.08979
#
# Static dielectric constant tensor:
#      x y z
#    x 1.980220 0.000000 0.059160 
#    y 0.000000 2.154730 0.000000 
#    z 0.059160 0.000000 1.959670 
# 
# From -- ./inp_files/123894.got.cif
#   From: 2010.05.17/outbox.cif.g08.bks.cpg/sg12_62_cif.got.tgz:123894.got - 2010.06.03 13:09:07.
