data_PCOD9208326
_publ_section_title
;
Structure prediction by ZEFSAII (Michael W. Deem and Ramdas Pophale) SiO2 
 PCOD9208326
Probable space group: C 2/M
;
_chemical_formula_sum "Si O2"
_cell_formula_units_Z 48
_cell_length_a 28.139374
_cell_length_b 14.599878
_cell_length_c 8.294618
_cell_angle_alpha 90.000000
_cell_angle_beta 40.180866
_cell_angle_gamma 90.000000
_cell_volume 2198.650224
_symmetry_space_group_name_H-M "C 2/M"
_symmetry_group_IT_number 12
_symmetry_cell_setting 'monoclinic'
loop_
_space_group_symop_operation_xyz
x,y,z
-x,y,-z
-x,-y,-z
x,-y,z
1/2+x,1/2+y,z
1/2-x,1/2+y,-z
1/2-x,1/2-y,-z
1/2+x,1/2-y,z
loop_
_atom_site_type_symbol
_atom_site_label
_atom_site_fract_x
_atom_site_fract_y
_atom_site_fract_z
Si Si1 0.583630 0.395106 0.841305
Si Si2 0.335324 0.212477 0.449301
Si Si3 0.416467 0.601128 0.772055
Si Si4 0.960247 0.605858 0.280095
Si Si5 0.195777 0.250544 0.991574
Si Si6 0.613548 0.109895 0.006325
O O1 0.602349 0.500000 0.745894
O O2 0.636669 0.316617 0.638571
O O3 0.500000 0.376935 0.000000
O O4 0.585386 0.388825 0.030177
O O5 0.387305 0.165684 0.450804
O O6 0.249327 0.213460 0.710697
O O7 0.352628 0.155552 0.242584
O O8 0.500000 0.606590 0.500000
O O9 0.387709 0.500000 0.805099
O O10 0.368721 0.678784 0.815835
O O11 0.941371 0.500000 0.362058
O O12 0.000000 0.608903 0.000000
O O13 0.026232 0.634881 0.228368
O O14 0.158258 0.345257 0.035974
O O15 0.250000 0.250000 0.000000
O O16 0.618257 0.000000 0.987674
#
# Coordination Sequence:
#
# PCOD9208326 Si02
#       6
#     8   8   8   8   8   8
#     4  10  21  37  66 102 126 161 219 274 321 378
#     4  11  21  39  65  98 128 164 208 271 332 383
#     4  10  24  46  68  90 126 174 218 262 319 387
#     4   8  16  33  62  93 118 151 199 253 310 370
#     4  12  28  42  59  95 135 174 212 260 333 389
#     4  10  21  41  67  93 123 165 215 261 312 382
#
# _framework density 21.831576999999999
#
# number of rings (size 3 to 8) (size 9 to 14) (size 15 to 20)
#    0.000    1.833    1.667    3.500    2.333    2.667 
#    0.000    0.000    0.000    2.500    0.000    0.000 
#    0.000    0.000    0.000    0.000    0.000    0.000 
#
# Total GULP energy -134227.669152 kJ/mol
# GULP energy per Si atom -5592.819548 kJ/mol
# Density = 2.178189 g / cm^3
# Si number density = 21.831577 Si / 1000 Ang^3
#
#
#
# Elastic Constant Matrix: (Units=GPa)
#
#
# Indices 1 2 3 4 5 6 
#
# 1 123.7772 49.0291 -0.9215 0.0000 -13.2695 0.0000
# 2 49.0291 103.1519 21.0400 0.0000 -13.0763 0.0000
# 3 -0.9215 21.0400 26.8668 0.0000 -7.0893 0.0000
# 4 0.0000 0.0000 0.0000 -30.0043 0.0000 40.5742
# 5 -13.2695 -13.0763 -7.0893 0.0000 20.6643 0.0000
# 6 0.0000 0.0000 0.0000 40.5742 0.0000 -27.1656
#
#
#
# Elastic Compliance Matrix: (Units=1/GPa)
#
#
# Indices 1 2 3 4 5 6 
#
# 1 0.011046 -0.005854 0.006441 0.000000 0.005598 0.000000
# 2 -0.005854 0.015056 -0.011511 0.000000 0.001819 0.000000
# 3 0.006441 -0.011511 0.050167 0.000000 0.014062 0.000000
# 4 0.000000 0.000000 0.000000 0.032683 0.000000 0.048815
# 5 0.005598 0.001819 0.014062 0.000000 0.057963 0.000000
# 6 0.000000 0.000000 0.000000 0.048815 0.000000 0.036098
#
#
# Mechanical properties :
#
#
# Convention : Reuss Voigt Hill
#
# Bulk Modulus (GPa) = 18.37599 43.56569 30.97084
# Shear Modulus (GPa) = 20.57592 5.00874 12.79233
#
# Velocity S-wave (km/s) = 3.07332 1.51633 2.42328
# Velocity P-wave (km/s) = 4.58576 4.80253 4.69540
#
# Compressibility (1/GPa) = 0.05441884
#
# Stress axis : x y z
#
# Youngs Moduli (GPa) = 90.52955 66.42041 19.93342
#
# Poissons Ratio (x) = 0.38885 -0.12839
# Poissons Ratio (y) = 0.53000 0.22946
# Poissons Ratio (z) = -0.58308 0.76459
#
# Static dielectric constant tensor:
#      x y z
#    x 1.833020 0.000000 0.067440 
#    y 0.000000 1.765100 0.000000 
#    z 0.067440 0.000000 1.823950 
# 
# From -- ./inp_files/104963.got.cif
#   From: 2010.05.17/outbox.cif.g08.bks.cpg/sg12_53_cif.got.tgz:104963.got - 2010.06.03 13:09:07.
