data_PCOD9208379
_publ_section_title
;
Structure prediction by ZEFSAII (Michael W. Deem and Ramdas Pophale) SiO2 
 PCOD9208379
Probable space group: C 2/M
;
_chemical_formula_sum "Si O2"
_cell_formula_units_Z 40
_cell_length_a 22.696372
_cell_length_b 21.559176
_cell_length_c 7.693341
_cell_angle_alpha 90.000000
_cell_angle_beta 153.980452
_cell_angle_gamma 90.000000
_cell_volume 1651.388317
_symmetry_space_group_name_H-M "C 2/M"
_symmetry_group_IT_number 12
_symmetry_cell_setting 'monoclinic'
loop_
_space_group_symop_operation_xyz
x,y,z
-x,y,-z
-x,-y,-z
x,-y,z
1/2+x,1/2+y,z
1/2-x,1/2+y,-z
1/2-x,1/2-y,-z
1/2+x,1/2-y,z
loop_
_atom_site_type_symbol
_atom_site_label
_atom_site_fract_x
_atom_site_fract_y
_atom_site_fract_z
Si Si1 0.159455 0.342838 0.685185
Si Si2 0.791145 0.728631 0.835752
Si Si3 0.420825 0.682333 0.967832
Si Si4 0.065899 0.567012 0.983464
Si Si5 0.329367 0.429529 0.893280
O O1 0.193180 0.284549 0.646893
O O2 0.255162 0.396848 0.859175
O O3 0.012089 0.374290 0.300933
O O4 0.196128 0.318084 0.971475
O O5 0.728224 0.692969 0.505575
O O6 0.925403 0.763110 0.122378
O O7 0.441041 0.617998 0.120339
O O8 0.500000 0.686682 0.000000
O O9 0.038882 0.500000 0.824117
O O10 0.221726 0.569430 0.448255
O O11 0.000000 0.563999 0.000000
O O12 0.368136 0.500000 0.031643
#
# Coordination Sequence:
#
# PCOD9208379 Si02
#       5
#     8   8   8   8   8
#     4   9  16  32  56  83 115 144 181 235 294 335
#     4   9  20  35  54  83 110 145 191 239 285 335
#     4  10  21  38  56  75 110 154 196 232 277 338
#     4   8  14  27  53  86 115 144 177 222 286 347
#     4   9  18  34  57  85 116 151 190 229 278 341
#
# _framework density 24.222044
#
# number of rings (size 3 to 8) (size 9 to 14) (size 15 to 20)
#    0.000    3.000    0.000    1.800    0.000    6.000 
#    0.000   16.000    0.000    3.600    0.000    0.000 
#    0.000    4.800    0.000    0.000    0.000    0.000 
#
# Total GULP energy -111558.195016 kJ/mol
# GULP energy per Si atom -5577.909751 kJ/mol
# Density = 2.416691 g / cm^3
# Si number density = 24.222044 Si / 1000 Ang^3
#
#
#
# Elastic Constant Matrix: (Units=GPa)
#
#
# Indices 1 2 3 4 5 6 
#
# 1 123.1514 54.6092 12.0472 0.0000 -10.7369 0.0000
# 2 54.6092 207.7491 31.7798 0.0000 -16.2267 0.0000
# 3 12.0472 31.7798 57.2469 0.0000 -14.8631 0.0000
# 4 0.0000 0.0000 0.0000 23.6453 0.0000 -12.1627
# 5 -10.7369 -16.2267 -14.8631 0.0000 36.0411 0.0000
# 6 0.0000 0.0000 0.0000 -12.1627 0.0000 20.3815
#
#
#
# Elastic Compliance Matrix: (Units=1/GPa)
#
#
# Indices 1 2 3 4 5 6 
#
# 1 0.009298 -0.002275 -0.000269 0.000000 0.001634 0.000000
# 2 -0.002275 0.005872 -0.002543 0.000000 0.000917 0.000000
# 3 -0.000269 -0.002543 0.020851 0.000000 0.007374 0.000000
# 4 0.000000 0.000000 0.000000 0.061023 0.000000 0.036416
# 5 0.001634 0.000917 0.007374 0.000000 0.031687 0.000000
# 6 0.000000 0.000000 0.000000 0.036416 0.000000 0.070795
#
#
# Mechanical properties :
#
#
# Convention : Reuss Voigt Hill
#
# Bulk Modulus (GPa) = 38.69027 65.00221 51.84624
# Shear Modulus (GPa) = 22.90249 35.32764 29.11507
#
# Velocity S-wave (km/s) = 3.07827 3.82316 3.47076
# Velocity P-wave (km/s) = 5.35184 6.81051 6.12475
#
# Compressibility (1/GPa) = 0.02584629
#
# Stress axis : x y z
#
# Youngs Moduli (GPa) = 107.55208 170.29398 47.95944
#
# Poissons Ratio (x) = 0.38745 0.01291
# Poissons Ratio (y) = 0.24470 0.12196
# Poissons Ratio (z) = 0.02896 0.43304
#
# Static dielectric constant tensor:
#      x y z
#    x 1.919730 0.000000 0.081210 
#    y 0.000000 1.999600 0.000000 
#    z 0.081210 0.000000 2.072400 
# 
# From -- ./inp_files/106466.got.cif
#   From: 2010.05.17/outbox.cif.g08.bks.cpg/sg12_54_cif.got.tgz:106466.got - 2010.06.03 13:09:07.
