data_PCOD9208826
_publ_section_title
;
Structure prediction by ZEFSAII (Michael W. Deem and Ramdas Pophale) SiO2 
 PCOD9208826
Probable space group: C 2/M
;
_chemical_formula_sum "Si O2"
_cell_formula_units_Z 60
_cell_length_a 13.230700
_cell_length_b 26.209149
_cell_length_c 15.519475
_cell_angle_alpha 90.000000
_cell_angle_beta 35.007878
_cell_angle_gamma 90.000000
_cell_volume 3087.374673
_symmetry_space_group_name_H-M "C 2/M"
_symmetry_group_IT_number 12
_symmetry_cell_setting 'monoclinic'
loop_
_space_group_symop_operation_xyz
x,y,z
-x,y,-z
-x,-y,-z
x,-y,z
1/2+x,1/2+y,z
1/2-x,1/2+y,-z
1/2-x,1/2-y,-z
1/2+x,1/2-y,z
loop_
_atom_site_type_symbol
_atom_site_label
_atom_site_fract_x
_atom_site_fract_y
_atom_site_fract_z
Si Si1 0.594566 0.331508 0.111311
Si Si2 0.508731 0.166699 0.213301
Si Si3 0.500000 0.724053 0.000000
Si Si4 0.457024 0.256114 0.356449
Si Si5 0.770163 0.198665 0.731891
Si Si6 0.514157 0.945170 0.814162
Si Si7 0.614630 0.556058 0.155473
Si Si8 0.145494 0.916096 0.322437
O O1 0.514082 0.295092 0.240718
O O2 0.548813 0.391334 0.157862
O O3 0.807568 0.327266 0.965658
O O4 0.535291 0.310088 0.059789
O O5 0.528023 0.199829 0.285067
O O6 0.347018 0.190699 0.271888
O O7 0.475609 0.106648 0.248196
O O8 0.341863 0.762879 0.131323
O O9 0.250000 0.250000 0.500000
O O10 0.535943 0.278426 0.388748
O O11 0.792754 0.140596 0.747108
O O12 0.679858 0.942417 0.762456
O O13 0.519375 0.000000 0.764520
O O14 0.327657 0.942754 0.994216
O O15 0.556282 0.500000 0.163027
O O16 0.574718 0.559054 0.284952
O O17 0.000000 0.913476 0.500000
#
# Coordination Sequence:
#
# PCOD9208826 Si02
#       8
#     8   8   4   8   8   8   8   8
#     4  11  22  40  60  87 114 153 203 246 295 354
#     4  10  21  38  60  83 117 153 200 239 289 355
#     4  12  22  38  65  86 113 156 206 252 298 346
#     4  12  24  36  55  85 123 156 194 238 290 354
#     4  11  23  34  58  85 119 156 194 234 291 349
#     4   9  20  35  55  80 110 150 194 236 282 342
#     4  10  21  39  60  80 112 153 195 245 295 345
#     4  11  23  33  52  84 123 157 192 230 284 359
#
# _framework density 19.433987999999999
#
# number of rings (size 3 to 8) (size 9 to 14) (size 15 to 20)
#    0.000    1.333    4.000    2.000    7.467    2.133 
#    0.000    0.333    0.000    0.000    0.000    0.000 
#    0.000    1.067    0.000    0.000    0.000    0.000 
#
# Total GULP energy -167297.378592 kJ/mol
# GULP energy per Si atom -5576.579286 kJ/mol
# Density = 1.938976 g / cm^3
# Si number density = 19.433988 Si / 1000 Ang^3
#
#
#
# Elastic Constant Matrix: (Units=GPa)
#
#
# Indices 1 2 3 4 5 6 
#
# 1 80.9290 55.5413 27.7260 -0.0048 4.7832 0.0013
# 2 55.5413 188.9320 46.2311 -0.0014 11.6751 0.0000
# 3 27.7260 46.2311 59.1852 -0.0126 -5.8712 0.0031
# 4 -0.0048 -0.0014 -0.0126 -64.7742 0.0067 -5.3824
# 5 4.7832 11.6751 -5.8712 0.0067 29.3488 -0.0018
# 6 0.0013 0.0000 0.0031 -5.3824 -0.0018 24.0875
#
#
#
# Elastic Compliance Matrix: (Units=1/GPa)
#
#
# Indices 1 2 3 4 5 6 
#
# 1 0.016707 -0.003446 -0.005375 0.000000 -0.002427 0.000000
# 2 -0.003446 0.007673 -0.004720 0.000001 -0.003435 0.000001
# 3 -0.005375 -0.004720 0.023848 -0.000003 0.007525 -0.000003
# 4 0.000000 0.000001 -0.000003 -0.015157 0.000002 -0.003387
# 5 -0.002427 -0.003435 0.007525 0.000002 0.037340 0.000002
# 6 0.000000 0.000001 -0.000003 -0.003387 0.000002 0.040759
#
#
# Mechanical properties :
#
#
# Convention : Reuss Voigt Hill
#
# Bulk Modulus (GPa) = 47.29395 65.33812 56.31603
# Shear Modulus (GPa) = 34.41129 11.03558 22.72343
#
# Velocity S-wave (km/s) = 4.21250 2.38554 3.42316
# Velocity P-wave (km/s) = 6.93172 6.42505 6.68319
#
# Compressibility (1/GPa) = 0.02114435
#
# Stress axis : x y z
#
# Youngs Moduli (GPa) = 59.85680 130.32305 41.93252
#
# Poissons Ratio (x) = 0.44909 0.22541
# Poissons Ratio (y) = 0.20626 0.19793
# Poissons Ratio (z) = 0.32176 0.61516
#
# Static dielectric constant tensor:
#      x y z
#    x 1.692520 0.000000 -0.013940 
#    y 0.000000 1.713570 0.000000 
#    z -0.013940 0.000000 1.728010 
# 
# From -- ./inp_files/273032.got.cif
#   From: 2010.05.17/outbox.cif.g08.bks.cpg/sg12_137_cif.got.tgz:273032.got - 2010.06.03 13:09:07.
