data_PCOD9208845
_publ_section_title
;
Structure prediction by ZEFSAII (Michael W. Deem and Ramdas Pophale) SiO2 
 PCOD9208845
Probable space group: C 2/M
;
_chemical_formula_sum "Si O2"
_cell_formula_units_Z 56
_cell_length_a 16.239213
_cell_length_b 25.288644
_cell_length_c 9.089998
_cell_angle_alpha 90.000000
_cell_angle_beta 128.873786
_cell_angle_gamma 90.000000
_cell_volume 2906.229248
_symmetry_space_group_name_H-M "C 2/M"
_symmetry_group_IT_number 12
_symmetry_cell_setting 'monoclinic'
loop_
_space_group_symop_operation_xyz
x,y,z
-x,y,-z
-x,-y,-z
x,-y,z
1/2+x,1/2+y,z
1/2-x,1/2+y,-z
1/2-x,1/2-y,-z
1/2+x,1/2-y,z
loop_
_atom_site_type_symbol
_atom_site_label
_atom_site_fract_x
_atom_site_fract_y
_atom_site_fract_z
Si Si1 0.183437 0.938574 0.045073
Si Si2 0.504217 0.839871 0.180523
Si Si3 0.132934 0.252775 0.800660
Si Si4 0.800413 0.290720 0.440780
Si Si5 0.027906 0.862209 0.695855
Si Si6 0.066951 0.562182 0.722657
Si Si7 0.389299 0.365494 0.802711
O O1 0.308586 0.929345 0.168624
O O2 0.144762 0.920580 0.163217
O O3 0.162071 0.000000 0.994709
O O4 0.115571 0.901130 0.862403
O O5 0.427937 0.798573 0.179285
O O6 0.618900 0.826728 0.376623
O O7 0.470078 0.898419 0.191661
O O8 0.500000 0.832837 0.000000
O O9 0.142362 0.265242 0.636705
O O10 0.072919 0.197290 0.753942
O O11 0.250000 0.250000 0.000000
O O12 0.750000 0.250000 0.500000
O O13 0.703969 0.325194 0.270537
O O14 0.000000 0.876085 0.500000
O O15 0.920204 0.867255 0.668233
O O16 0.051084 0.500000 0.738684
O O17 0.000000 0.574465 0.500000
O O18 0.500000 0.348030 0.000000
#
# Coordination Sequence:
#
# PCOD9208845 Si02
#       7
#     8   8   8   8   8   8   8
#     4  10  22  41  64  87 113 152 202 251 302 366
#     4  12  25  39  60  91 127 166 207 248 304 373
#     4  12  23  39  62  88 124 164 205 252 310 374
#     4  12  24  39  61  90 125 162 204 252 305 371
#     4  11  23  38  58  87 123 157 194 246 306 362
#     4  10  21  41  67  91 118 155 203 260 319 374
#     4  10  21  38  60  84 115 152 199 245 294 359
#
# _framework density 19.268954999999998
#
# number of rings (size 3 to 8) (size 9 to 14) (size 15 to 20)
#    0.000    1.000    0.000    9.000    0.000    6.571 
#    0.000    0.000    0.000    3.429    0.000    0.000 
#    0.000    0.000    0.000    0.000    0.000    0.000 
#
# Total GULP energy -156553.810238 kJ/mol
# GULP energy per Si atom -5591.207508 kJ/mol
# Density = 1.922510 g / cm^3
# Si number density = 19.268955 Si / 1000 Ang^3
#
#
#
# Elastic Constant Matrix: (Units=GPa)
#
#
# Indices 1 2 3 4 5 6 
#
# 1 115.4149 61.9561 47.9418 0.0000 -18.1354 0.0000
# 2 61.9561 109.7906 42.8505 0.0000 -6.9845 0.0000
# 3 47.9418 42.8505 66.8982 0.0000 -15.6002 0.0000
# 4 0.0000 0.0000 0.0000 16.7334 0.0000 -3.6380
# 5 -18.1354 -6.9845 -15.6002 0.0000 49.7410 0.0000
# 6 0.0000 0.0000 0.0000 -3.6380 0.0000 38.4009
#
#
#
# Elastic Compliance Matrix: (Units=1/GPa)
#
#
# Indices 1 2 3 4 5 6 
#
# 1 0.014755 -0.005694 -0.006321 0.000000 0.002598 0.000000
# 2 -0.005694 0.014371 -0.005543 0.000000 -0.001797 0.000000
# 3 -0.006321 -0.005543 0.024070 0.000000 0.004466 0.000000
# 4 0.000000 0.000000 0.000000 0.061017 0.000000 0.005781
# 5 0.002598 -0.001797 0.004466 0.000000 0.022200 0.000000
# 6 0.000000 0.000000 0.000000 0.005781 0.000000 0.026589
#
#
# Mechanical properties :
#
#
# Convention : Reuss Voigt Hill
#
# Bulk Modulus (GPa) = 55.31273 66.40004 60.85638
# Shear Modulus (GPa) = 24.49252 30.26541 27.37896
#
# Velocity S-wave (km/s) = 3.56910 3.96748 3.77355
# Velocity P-wave (km/s) = 6.76406 7.45133 7.11600
#
# Compressibility (1/GPa) = 0.01807902
#
# Stress axis : x y z
#
# Youngs Moduli (GPa) = 67.77454 69.58611 41.54553
#
# Poissons Ratio (x) = 0.39623 0.26260
# Poissons Ratio (y) = 0.38591 0.23030
# Poissons Ratio (z) = 0.42839 0.38574
#
# Static dielectric constant tensor:
#      x y z
#    x 1.696820 0.000000 -0.007880 
#    y 0.000000 1.664570 0.000000 
#    z -0.007880 0.000000 1.682350 
# 
# From -- ./inp_files/65779.got.cif
#   From: 2010.05.17/outbox.cif.g08.bks.cpg/sg12_33_cif.got.tgz:65779.got - 2010.06.03 13:09:07.
