data_PCOD9208792
_publ_section_title
;
Structure prediction by ZEFSAII (Michael W. Deem and Ramdas Pophale) SiO2 
 PCOD9208792
Probable space group: C 2/M
;
_chemical_formula_sum "Si O2"
_cell_formula_units_Z 56
_cell_length_a 12.245129
_cell_length_b 15.348114
_cell_length_c 21.848136
_cell_angle_alpha 90.000000
_cell_angle_beta 37.798132
_cell_angle_gamma 90.000000
_cell_volume 2516.570703
_symmetry_space_group_name_H-M "C 2/M"
_symmetry_group_IT_number 12
_symmetry_cell_setting 'monoclinic'
loop_
_space_group_symop_operation_xyz
x,y,z
-x,y,-z
-x,-y,-z
x,-y,z
1/2+x,1/2+y,z
1/2-x,1/2+y,-z
1/2-x,1/2-y,-z
1/2+x,1/2-y,z
loop_
_atom_site_type_symbol
_atom_site_label
_atom_site_fract_x
_atom_site_fract_y
_atom_site_fract_z
Si Si1 0.124557 0.403751 0.497358
Si Si2 0.851820 0.217034 0.193867
Si Si3 0.430947 0.655183 0.291966
Si Si4 0.355341 0.400678 0.981557
Si Si5 0.951143 0.333333 0.337907
Si Si6 0.801373 0.601009 0.086179
Si Si7 0.973242 0.599155 0.198059
O O1 0.046252 0.500000 0.542667
O O2 0.318882 0.410987 0.381357
O O3 0.000000 0.361169 0.500000
O O4 0.124939 0.360912 0.563415
O O5 0.874942 0.161117 0.246284
O O6 0.658023 0.191289 0.256332
O O7 0.999491 0.175576 0.083155
O O8 0.889976 0.317962 0.197696
O O9 0.369275 0.744025 0.350533
O O10 0.643473 0.643269 0.195266
O O11 0.426881 0.500000 0.958119
O O12 0.264158 0.397196 0.954775
O O13 0.187266 0.387284 0.100001
O O14 0.925119 0.395775 0.291133
O O15 0.813044 0.500000 0.100044
O O16 0.000000 0.638787 0.000000
O O17 0.937109 0.500000 0.190769
#
# Coordination Sequence:
#
# PCOD9208792 Si02
#       7
#     8   8   8   8   8   8   8
#     4  11  22  39  65  90 116 156 205 261 318 370
#     4  10  21  38  59  89 124 165 212 260 315 378
#     4  10  21  39  59  88 121 158 202 255 309 370
#     4   9  19  35  57  86 126 168 210 266 315 369
#     4  11  23  39  61  89 122 162 207 257 316 377
#     4   9  18  33  56  88 122 158 201 248 304 370
#     4  10  22  40  59  88 129 171 213 260 318 382
#
# _framework density 22.252502
#
# number of rings (size 3 to 8) (size 9 to 14) (size 15 to 20)
#    0.000    2.000    1.429    1.714    2.000    2.286 
#    0.000    2.143    0.000    0.000    0.000    5.000 
#    0.000    0.000    0.000    0.000    0.000    0.000 
#
# Total GULP energy -156207.406150 kJ/mol
# GULP energy per Si atom -5578.835934 kJ/mol
# Density = 2.220185 g / cm^3
# Si number density = 22.252502 Si / 1000 Ang^3
#
#
#
# Elastic Constant Matrix: (Units=GPa)
#
#
# Indices 1 2 3 4 5 6 
#
# 1 51.6414 4.4644 14.3123 -0.0001 5.7940 -0.0002
# 2 4.4644 78.7636 23.0260 -0.0003 2.5885 -0.0004
# 3 14.3123 23.0260 108.1540 -0.0005 14.8371 -0.0012
# 4 -0.0001 -0.0003 -0.0005 23.7386 0.0001 -0.5642
# 5 5.7940 2.5885 14.8371 0.0001 35.8941 0.0003
# 6 -0.0002 -0.0004 -0.0012 -0.5642 0.0003 20.0922
#
#
#
# Elastic Compliance Matrix: (Units=1/GPa)
#
#
# Indices 1 2 3 4 5 6 
#
# 1 0.020290 -0.000407 -0.002283 0.000000 -0.002302 0.000000
# 2 -0.000407 0.013549 -0.002868 0.000000 0.000274 0.000000
# 3 -0.002283 -0.002868 0.010686 0.000000 -0.003842 0.000001
# 4 0.000000 0.000000 0.000000 0.042154 0.000000 0.001184
# 5 -0.002302 0.000274 -0.003842 0.000000 0.029800 -0.000001
# 6 0.000000 0.000000 0.000001 0.001184 -0.000001 0.049804
#
#
# Mechanical properties :
#
#
# Convention : Reuss Voigt Hill
#
# Bulk Modulus (GPa) = 29.93195 35.79605 32.86400
# Shear Modulus (GPa) = 26.52036 29.06207 27.79121
#
# Velocity S-wave (km/s) = 3.45598 3.61780 3.53782
# Velocity P-wave (km/s) = 5.42267 5.79418 5.61150
#
# Compressibility (1/GPa) = 0.03340912
#
# Stress axis : x y z
#
# Youngs Moduli (GPa) = 49.28432 73.80727 93.58196
#
# Poissons Ratio (x) = 0.03005 0.21361
# Poissons Ratio (y) = 0.02006 0.26842
# Poissons Ratio (z) = 0.11249 0.21170
#
# Static dielectric constant tensor:
#      x y z
#    x 1.825930 0.000000 -0.001770 
#    y 0.000000 1.976410 0.000000 
#    z -0.001770 0.000000 1.835860 
# 
# From -- ./inp_files/340281.got.cif
#   From: 2010.05.17/outbox.cif.g08.bks.cpg/sg12_171_cif.got.tgz:340281.got - 2010.06.03 13:09:07.
