data_PCOD9208516
_publ_section_title
;
Structure prediction by ZEFSAII (Michael W. Deem and Ramdas Pophale) SiO2 
 PCOD9208516
Probable space group: C 2/M
;
_chemical_formula_sum "Si O2"
_cell_formula_units_Z 64
_cell_length_a 10.262354
_cell_length_b 15.795317
_cell_length_c 33.636307
_cell_angle_alpha 90.000000
_cell_angle_beta 41.796054
_cell_angle_gamma 90.000000
_cell_volume 3633.887696
_symmetry_space_group_name_H-M "C 2/M"
_symmetry_group_IT_number 12
_symmetry_cell_setting 'monoclinic'
loop_
_space_group_symop_operation_xyz
x,y,z
-x,y,-z
-x,-y,-z
x,-y,z
1/2+x,1/2+y,z
1/2-x,1/2+y,-z
1/2-x,1/2-y,-z
1/2+x,1/2-y,z
loop_
_atom_site_type_symbol
_atom_site_label
_atom_site_fract_x
_atom_site_fract_y
_atom_site_fract_z
Si Si1 0.079198 0.255124 0.269212
Si Si2 0.870745 0.093787 0.190107
Si Si3 0.313760 0.330310 0.934983
Si Si4 0.543078 0.903327 0.423785
Si Si5 0.481686 0.172846 0.068422
Si Si6 0.871007 0.757916 0.648009
Si Si7 0.830114 0.095160 0.805009
Si Si8 0.326820 0.596864 0.434935
O O1 0.215843 0.331272 0.223249
O O2 0.102499 0.246364 0.310925
O O3 0.142050 0.168212 0.233473
O O4 0.854805 0.273247 0.310291
O O5 0.030704 0.105780 0.118993
O O6 0.992410 0.101605 0.203601
O O7 0.783662 0.000000 0.208165
O O8 0.430826 0.252622 0.927886
O O9 0.178218 0.300804 0.928657
O O10 0.163055 0.365291 0.002231
O O11 0.570183 0.831433 0.385106
O O12 0.336660 0.893740 0.493588
O O13 0.709000 0.893519 0.420113
O O14 0.556190 0.000000 0.405521
O O15 0.366552 0.112930 0.124937
O O16 0.007842 0.832603 0.600211
O O17 0.829212 0.000000 0.788792
O O18 0.400985 0.500000 0.419698
#
# Coordination Sequence:
#
# PCOD9208516 Si02
#       8
#     8   8   8   8   8   8   8   8
#     4  12  24  38  57  83 116 155 198 234 274 334
#     4  10  21  38  58  81 114 151 190 239 290 337
#     4   9  17  31  56  83 109 141 182 235 290 344
#     4   9  19  38  64  90 117 151 187 227 282 342
#     4   9  17  31  56  84 108 140 183 236 292 339
#     4  12  23  38  61  87 118 152 192 236 275 332
#     4  10  21  38  59  81 112 151 194 239 284 340
#     4   9  19  38  63  91 119 147 187 233 279 334
#
# _framework density 17.611992000000001
#
# number of rings (size 3 to 8) (size 9 to 14) (size 15 to 20)
#    0.000    2.000    3.750    1.125    0.000    2.500 
#    0.000    2.500    0.000    1.500    0.000    3.500 
#    0.000    0.000    0.000    0.000    0.000    0.000 
#
# Total GULP energy -178515.005124 kJ/mol
# GULP energy per Si atom -5578.593910 kJ/mol
# Density = 1.757191 g / cm^3
# Si number density = 17.611992 Si / 1000 Ang^3
#
#
#
# Elastic Constant Matrix: (Units=GPa)
#
#
# Indices 1 2 3 4 5 6 
#
# 1 73.0433 53.3116 47.9667 0.0002 -7.8019 0.0003
# 2 53.3116 158.5828 81.9519 -0.0002 -9.1173 0.0001
# 3 47.9667 81.9519 90.0332 -0.0003 -5.9895 0.0006
# 4 0.0002 -0.0002 -0.0003 -1.9353 -0.0001 8.4468
# 5 -7.8019 -9.1173 -5.9895 -0.0001 30.3382 -0.0003
# 6 0.0003 0.0001 0.0006 8.4468 -0.0003 22.1119
#
#
#
# Elastic Compliance Matrix: (Units=1/GPa)
#
#
# Indices 1 2 3 4 5 6 
#
# 1 0.021839 -0.002375 -0.009269 0.000001 0.003073 0.000000
# 2 -0.002375 0.012229 -0.009791 0.000001 0.001131 0.000000
# 3 -0.009269 -0.009791 0.024930 -0.000002 -0.000404 0.000000
# 4 0.000001 0.000001 -0.000002 -0.193724 0.000000 0.074003
# 5 0.003073 0.001131 -0.000404 0.000000 0.034012 0.000000
# 6 0.000000 0.000000 0.000000 0.074003 0.000000 0.016955
#
#
# Mechanical properties :
#
#
# Convention : Reuss Voigt Hill
#
# Bulk Modulus (GPa) = 62.00039 76.45774 69.22907
# Shear Modulus (GPa) = -140.78759 19.33158 -60.72800
#
# Velocity S-wave (km/s) = -8.95053 3.31666 -5.87843
# Velocity P-wave (km/s) = 8.45790 7.62716 2.58482
#
# Compressibility (1/GPa) = 0.01612893
#
# Stress axis : x y z
#
# Youngs Moduli (GPa) = 45.78994 81.77330 40.11252
#
# Poissons Ratio (x) = 0.19423 0.37178
# Poissons Ratio (y) = 0.10876 0.39272
# Poissons Ratio (z) = 0.42441 0.80061
#
# Static dielectric constant tensor:
#      x y z
#    x 1.574790 0.000000 -0.000330 
#    y 0.000000 1.581720 0.000000 
#    z -0.000330 0.000000 1.615010 
# 
# From -- ./inp_files/372543.got.cif
#   From: 2010.05.17/outbox.cif.g08.bks.cpg/sg12_187_cif.got.tgz:372543.got - 2010.06.03 13:09:07.
