data_PCOD9208144
_publ_section_title
;
Structure prediction by ZEFSAII (Michael W. Deem and Ramdas Pophale) SiO2 
 PCOD9208144
Probable space group: C 2/M
;
_chemical_formula_sum "Si O2"
_cell_formula_units_Z 56
_cell_length_a 18.291804
_cell_length_b 25.808453
_cell_length_c 9.913048
_cell_angle_alpha 90.000000
_cell_angle_beta 39.244670
_cell_angle_gamma 90.000000
_cell_volume 2960.586542
_symmetry_space_group_name_H-M "C 2/M"
_symmetry_group_IT_number 12
_symmetry_cell_setting 'monoclinic'
loop_
_space_group_symop_operation_xyz
x,y,z
-x,y,-z
-x,-y,-z
x,-y,z
1/2+x,1/2+y,z
1/2-x,1/2+y,-z
1/2-x,1/2-y,-z
1/2+x,1/2-y,z
loop_
_atom_site_type_symbol
_atom_site_label
_atom_site_fract_x
_atom_site_fract_y
_atom_site_fract_z
Si Si1 0.372836 0.059173 0.936564
Si Si2 0.512443 0.440357 0.142224
Si Si3 0.137204 0.187951 0.325303
Si Si4 0.775978 0.874604 0.049630
Si Si5 0.222882 0.097341 0.393856
Si Si6 0.610481 0.803869 0.440053
Si Si7 0.440199 0.859500 0.227834
O O1 0.303437 0.082536 0.909757
O O2 0.478545 0.097213 0.819683
O O3 0.408172 0.000000 0.865726
O O4 0.287877 0.063583 0.187372
O O5 0.547894 0.500000 0.116068
O O6 0.387934 0.430388 0.386456
O O7 0.500000 0.432518 0.000000
O O8 0.606994 0.401562 0.068327
O O9 0.180025 0.148818 0.378290
O O10 0.158244 0.246874 0.339040
O O11 0.000000 0.182271 0.500000
O O12 0.197685 0.169072 0.101386
O O13 0.704943 0.846910 0.268540
O O14 0.317806 0.114804 0.366634
O O15 0.500000 0.811530 0.500000
O O16 0.572677 0.812862 0.648150
O O17 0.500000 0.844596 0.000000
#
# Coordination Sequence:
#
# PCOD9208144 Si02
#       7
#     8   8   8   8   8   8   8
#     4  10  21  37  62  91 118 159 206 249 302 358
#     4  11  23  38  58  86 122 165 203 246 307 365
#     4  10  21  39  64  90 117 156 204 246 300 366
#     4  11  21  40  62  90 125 155 200 259 297 360
#     4  10  21  39  60  86 122 156 199 254 301 358
#     4  11  22  40  65  89 120 164 200 249 309 357
#     4  10  22  41  61  89 127 159 201 254 300 360
#
# _framework density 18.91517
#
# number of rings (size 3 to 8) (size 9 to 14) (size 15 to 20)
#    0.000    1.571    2.857    2.143    0.000    3.714 
#    0.000    5.000    0.000    0.000    0.000    0.000 
#    0.000    0.000    0.000    0.000    0.000    0.000 
#
# Total GULP energy -156419.699157 kJ/mol
# GULP energy per Si atom -5586.417827 kJ/mol
# Density = 1.887212 g / cm^3
# Si number density = 18.915170 Si / 1000 Ang^3
#
#
#
# Elastic Constant Matrix: (Units=GPa)
#
#
# Indices 1 2 3 4 5 6 
#
# 1 80.5288 38.8127 23.8359 0.0000 -4.8371 0.0000
# 2 38.8127 103.9797 37.1299 0.0000 11.0212 0.0000
# 3 23.8359 37.1299 58.2424 0.0000 5.7278 0.0000
# 4 0.0000 0.0000 0.0000 6.7935 0.0000 -6.2219
# 5 -4.8371 11.0212 5.7278 0.0000 27.5542 0.0000
# 6 0.0000 0.0000 0.0000 -6.2219 0.0000 6.7863
#
#
#
# Elastic Compliance Matrix: (Units=1/GPa)
#
#
# Indices 1 2 3 4 5 6 
#
# 1 0.016527 -0.005399 -0.003899 0.000000 0.005871 0.000000
# 2 -0.005399 0.014536 -0.006525 0.000000 -0.005405 0.000000
# 3 -0.003899 -0.006525 0.023211 0.000000 -0.002899 0.000000
# 4 0.000000 0.000000 0.000000 0.918245 0.000000 0.841876
# 5 0.005871 -0.005405 -0.002899 0.000000 0.040087 0.000000
# 6 0.000000 0.000000 0.000000 0.841876 0.000000 0.919215
#
#
# Mechanical properties :
#
#
# Convention : Reuss Voigt Hill
#
# Bulk Modulus (GPa) = 44.19734 49.14534 46.67134
# Shear Modulus (GPa) = 2.53677 17.75828 10.14753
#
# Velocity S-wave (km/s) = 1.15933 3.06737 2.31871
# Velocity P-wave (km/s) = 5.02084 6.21155 5.64767
#
# Compressibility (1/GPa) = 0.02262579
#
# Stress axis : x y z
#
# Youngs Moduli (GPa) = 60.50741 68.79644 43.08392
#
# Poissons Ratio (x) = 0.37143 0.16799
# Poissons Ratio (y) = 0.32668 0.28114
# Poissons Ratio (z) = 0.23593 0.44893
#
# Static dielectric constant tensor:
#      x y z
#    x 1.634830 0.000000 0.006870 
#    y 0.000000 1.633770 0.000000 
#    z 0.006870 0.000000 1.661370 
# 
# From -- ./inp_files/53188.got.cif
#   From: 2010.05.17/outbox.cif.g08.bks.cpg/sg12_27_cif.got.tgz:53188.got - 2010.06.03 13:09:07.
