data_PCOD9208451
_publ_section_title
;
Structure prediction by ZEFSAII (Michael W. Deem and Ramdas Pophale) SiO2 
 PCOD9208451
Probable space group: C 2/M
;
_chemical_formula_sum "Si O2"
_cell_formula_units_Z 44
_cell_length_a 8.800861
_cell_length_b 18.854884
_cell_length_c 19.400576
_cell_angle_alpha 90.000000
_cell_angle_beta 130.795372
_cell_angle_gamma 90.000000
_cell_volume 2437.176441
_symmetry_space_group_name_H-M "C 2/M"
_symmetry_group_IT_number 12
_symmetry_cell_setting 'monoclinic'
loop_
_space_group_symop_operation_xyz
x,y,z
-x,y,-z
-x,-y,-z
x,-y,z
1/2+x,1/2+y,z
1/2-x,1/2+y,-z
1/2-x,1/2-y,-z
1/2+x,1/2-y,z
loop_
_atom_site_type_symbol
_atom_site_label
_atom_site_fract_x
_atom_site_fract_y
_atom_site_fract_z
Si Si1 0.921046 0.802049 0.127243
Si Si2 0.427912 0.582919 0.246023
Si Si3 0.744389 0.694972 0.713380
Si Si4 0.500000 0.721277 0.000000
Si Si5 0.869011 0.287991 0.598295
Si Si6 0.400806 0.921622 0.396016
O O1 0.914781 0.870797 0.173038
O O2 0.987721 0.819313 0.068933
O O3 0.073304 0.742225 0.202761
O O4 0.699547 0.768853 0.061215
O O5 0.385060 0.500000 0.224266
O O6 0.280306 0.618791 0.258264
O O7 0.663522 0.589914 0.335833
O O8 0.745191 0.694467 0.630461
O O9 0.540334 0.734299 0.673594
O O10 0.750000 0.250000 0.500000
O O11 0.987973 0.358174 0.609888
O O12 0.500000 0.923167 0.500000
O O13 0.427060 0.000000 0.371218
#
# Coordination Sequence:
#
# PCOD9208451 Si02
#       6
#     8   8   8   4   8   8
#     4  11  20  40  62  93 112 156 197 253 297 378
#     4  11  23  40  62  91 128 163 196 251 312 361
#     4  12  21  37  61  86 121 157 205 248 293 363
#     4  10  22  36  70  88 116 148 208 246 316 360
#     4  12  22  34  58  91 121 158 212 255 289 347
#     4  10  21  38  57  82 123 168 202 243 302 353
#
# _framework density 18.053678000000001
#
# number of rings (size 3 to 8) (size 9 to 14) (size 15 to 20)
#    0.000    0.909    5.455    2.727    0.000    0.727 
#    0.000    0.909    0.000    5.455    0.000    0.000 
#    0.000    0.000    0.000    0.000    0.000    0.000 
#
# Total GULP energy -122739.235386 kJ/mol
# GULP energy per Si atom -5579.056154 kJ/mol
# Density = 1.801259 g / cm^3
# Si number density = 18.053678 Si / 1000 Ang^3
#
#
#
# Elastic Constant Matrix: (Units=GPa)
#
#
# Indices 1 2 3 4 5 6 
#
# 1 92.6249 47.3627 36.7099 0.0000 -23.3035 0.0000
# 2 47.3627 136.9546 37.4156 0.0000 -9.0821 0.0000
# 3 36.7099 37.4156 96.1996 0.0000 -7.8664 0.0000
# 4 0.0000 0.0000 0.0000 2.2171 0.0000 -6.3493
# 5 -23.3035 -9.0821 -7.8664 0.0000 42.6967 0.0000
# 6 0.0000 0.0000 0.0000 -6.3493 0.0000 35.8609
#
#
#
# Elastic Compliance Matrix: (Units=1/GPa)
#
#
# Indices 1 2 3 4 5 6 
#
# 1 0.016307 -0.004049 -0.004052 0.000000 0.007293 0.000000
# 2 -0.004049 0.009233 -0.002098 0.000000 -0.000632 0.000000
# 3 -0.004052 -0.002098 0.012732 0.000000 -0.000312 0.000000
# 4 0.000000 0.000000 0.000000 0.914940 0.000000 0.161994
# 5 0.007293 -0.000632 -0.000312 0.000000 0.027209 0.000000
# 6 0.000000 0.000000 0.000000 0.161994 0.000000 0.056567
#
#
# Mechanical properties :
#
#
# Convention : Reuss Voigt Hill
#
# Bulk Modulus (GPa) = 55.94393 63.19505 59.56949
# Shear Modulus (GPa) = 4.70215 29.77435 17.23825
#
# Velocity S-wave (km/s) = 1.61561 4.06546 3.09339
# Velocity P-wave (km/s) = 5.87666 7.55759 6.76950
#
# Compressibility (1/GPa) = 0.01787504
#
# Stress axis : x y z
#
# Youngs Moduli (GPa) = 61.32280 108.30625 78.54492
#
# Poissons Ratio (x) = 0.43853 0.31824
# Poissons Ratio (y) = 0.24829 0.16477
# Poissons Ratio (z) = 0.24846 0.22720
#
# Static dielectric constant tensor:
#      x y z
#    x 1.643480 0.000000 -0.018540 
#    y 0.000000 1.647420 0.000000 
#    z -0.018540 0.000000 1.637150 
# 
# From -- ./inp_files/195429.got.cif
#   From: 2010.05.17/outbox.cif.g08.bks.cpg/sg12_98_cif.got.tgz:195429.got - 2010.06.03 13:09:07.
