data_PCOD9208444
_publ_section_title
;
Structure prediction by ZEFSAII (Michael W. Deem and Ramdas Pophale) SiO2 
 PCOD9208444
Probable space group: C 2/M
;
_chemical_formula_sum "Si O2"
_cell_formula_units_Z 48
_cell_length_a 23.292266
_cell_length_b 11.066085
_cell_length_c 11.368691
_cell_angle_alpha 90.000000
_cell_angle_beta 71.912205
_cell_angle_gamma 90.000000
_cell_volume 2785.516539
_symmetry_space_group_name_H-M "C 2/M"
_symmetry_group_IT_number 12
_symmetry_cell_setting 'monoclinic'
loop_
_space_group_symop_operation_xyz
x,y,z
-x,y,-z
-x,-y,-z
x,-y,z
1/2+x,1/2+y,z
1/2-x,1/2+y,-z
1/2-x,1/2-y,-z
1/2+x,1/2-y,z
loop_
_atom_site_type_symbol
_atom_site_label
_atom_site_fract_x
_atom_site_fract_y
_atom_site_fract_z
Si Si1 0.704280 0.857187 0.671797
Si Si2 0.557755 0.140170 0.394716
Si Si3 0.969078 0.741295 0.836785
Si Si4 0.668209 0.258050 0.449674
Si Si5 0.414280 0.854026 0.107512
Si Si6 0.596151 0.500000 0.496646
Si Si7 0.968853 0.000000 0.712892
O O1 0.678752 0.819761 0.560199
O O2 0.766685 0.785629 0.647818
O O3 0.652327 0.832315 0.799804
O O4 0.716984 0.000000 0.665101
O O5 0.500000 0.196833 0.500000
O O6 0.546493 0.160268 0.265421
O O7 0.620485 0.196151 0.394556
O O8 0.559829 0.000000 0.424240
O O9 0.036293 0.706387 0.837597
O O10 0.963129 0.879157 0.795407
O O11 0.926729 0.705239 0.973047
O O12 0.636106 0.383955 0.501307
O O13 0.424436 0.000000 0.096491
O O14 0.534762 0.500000 0.610373
O O15 0.577389 0.500000 0.369341
#
# Coordination Sequence:
#
# PCOD9208444 Si02
#       7
#     8   8   8   8   8   4   4
#     4  10  21  38  57  82 111 151 187 229 277 332
#     4  11  21  34  57  85 112 141 184 238 283 323
#     4  11  21  36  57  84 111 147 183 235 279 336
#     4  11  21  35  58  82 115 144 188 230 278 334
#     4  10  21  38  59  80 112 148 191 231 278 328
#     4  11  20  36  54  86 112 153 175 226 286 340
#     4  11  22  33  58  82 120 143 181 224 286 344
#
# _framework density 17.231992000000002
#
# number of rings (size 3 to 8) (size 9 to 14) (size 15 to 20)
#    0.000    1.333    2.500    5.500    0.000    4.000 
#    0.000    1.667    0.000    0.000    0.000    0.000 
#    0.000    0.000    0.000    0.000    0.000    0.000 
#
# Total GULP energy -133993.675759 kJ/mol
# GULP energy per Si atom -5583.069823 kJ/mol
# Density = 1.719277 g / cm^3
# Si number density = 17.231992 Si / 1000 Ang^3
#
#
#
# Elastic Constant Matrix: (Units=GPa)
#
#
# Indices 1 2 3 4 5 6 
#
# 1 101.0985 10.8758 72.1452 0.0000 -10.9543 0.0000
# 2 10.8758 58.3395 25.7134 0.0000 -11.1331 0.0000
# 3 72.1452 25.7134 97.3144 0.0000 -9.4610 0.0000
# 4 0.0000 0.0000 0.0000 86.7192 0.0000 21.5644
# 5 -10.9543 -11.1331 -9.4610 0.0000 29.2780 0.0000
# 6 0.0000 0.0000 0.0000 21.5644 0.0000 37.8391
#
#
#
# Elastic Compliance Matrix: (Units=1/GPa)
#
#
# Indices 1 2 3 4 5 6 
#
# 1 0.022093 0.004239 -0.017075 0.000000 0.004360 0.000000
# 2 0.004239 0.021256 -0.008073 0.000000 0.007060 0.000000
# 3 -0.017075 -0.008073 0.024931 0.000000 -0.001402 0.000000
# 4 0.000000 0.000000 0.000000 0.013435 0.000000 -0.007657
# 5 0.004360 0.007060 -0.001402 0.000000 0.038018 0.000000
# 6 0.000000 0.000000 0.000000 -0.007657 0.000000 0.030791
#
#
# Mechanical properties :
#
#
# Convention : Reuss Voigt Hill
#
# Bulk Modulus (GPa) = 37.78826 52.69122 45.23974
# Shear Modulus (GPa) = 24.85538 40.63512 32.74525
#
# Velocity S-wave (km/s) = 3.80201 4.86132 4.36393
# Velocity P-wave (km/s) = 6.42265 7.88377 7.19042
#
# Compressibility (1/GPa) = 0.02646324
#
# Stress axis : x y z
#
# Youngs Moduli (GPa) = 45.26411 47.04493 40.10996
#
# Poissons Ratio (x) = -0.19944 0.68487
# Poissons Ratio (y) = -0.19189 0.32381
# Poissons Ratio (z) = 0.77288 0.37980
#
# Static dielectric constant tensor:
#      x y z
#    x 1.569080 0.000000 -0.013820 
#    y 0.000000 1.601650 0.000000 
#    z -0.013820 0.000000 1.560910 
# 
# From -- ./inp_files/164141.got.cif
#   From: 2010.05.17/outbox.cif.g08.bks.cpg/sg12_83_cif.got.tgz:164141.got - 2010.06.03 13:09:07.
