data_PCOD9208727
_publ_section_title
;
Structure prediction by ZEFSAII (Michael W. Deem and Ramdas Pophale) SiO2 
 PCOD9208727
Probable space group: C 2/M
;
_chemical_formula_sum "Si O2"
_cell_formula_units_Z 56
_cell_length_a 22.623381
_cell_length_b 8.478943
_cell_length_c 14.992408
_cell_angle_alpha 90.000000
_cell_angle_beta 111.846884
_cell_angle_gamma 90.000000
_cell_volume 2669.338117
_symmetry_space_group_name_H-M "C 2/M"
_symmetry_group_IT_number 12
_symmetry_cell_setting 'monoclinic'
loop_
_space_group_symop_operation_xyz
x,y,z
-x,y,-z
-x,-y,-z
x,-y,z
1/2+x,1/2+y,z
1/2-x,1/2+y,-z
1/2-x,1/2-y,-z
1/2+x,1/2-y,z
loop_
_atom_site_type_symbol
_atom_site_label
_atom_site_fract_x
_atom_site_fract_y
_atom_site_fract_z
Si Si1 0.870258 0.684586 0.845542
Si Si2 0.765421 0.314786 0.251017
Si Si3 0.197228 0.814422 0.539291
Si Si4 0.938787 0.685447 0.062306
Si Si5 0.950542 0.191759 0.548849
Si Si6 0.693122 0.814951 0.909180
Si Si7 0.955732 0.183777 0.752970
O O1 0.855047 0.500000 0.849677
O O2 0.807143 0.786769 0.820618
O O3 0.898508 0.716919 0.763867
O O4 0.922715 0.724976 0.950688
O O5 0.776671 0.500000 0.274972
O O6 0.777691 0.220708 0.347735
O O7 0.807461 0.252478 0.192029
O O8 0.250000 0.750000 0.500000
O O9 0.123605 0.753501 0.496092
O O10 0.193111 0.000000 0.519655
O O11 0.958736 0.500000 0.077076
O O12 0.871887 0.703239 0.075003
O O13 0.987183 0.787908 0.146293
O O14 0.973115 0.230667 0.662047
O O15 0.000000 0.248147 0.500000
O O16 0.949269 0.000000 0.540184
O O17 0.705414 0.000000 0.905485
O O18 0.750000 0.750000 0.000000
O O19 0.937111 0.000000 0.741335
#
# Coordination Sequence:
#
# PCOD9208727 Si02
#       7
#     8   8   8   8   8   8   8
#     4  11  22  39  62  87 122 164 203 244 298 368
#     4  11  23  38  61  92 126 158 199 254 309 365
#     4  11  23  41  68  94 124 163 208 262 318 378
#     4  10  22  39  58  85 122 162 201 242 298 365
#     4   9  21  42  63  87 119 158 205 256 307 362
#     4  10  21  38  59  85 121 160 200 251 302 360
#     4  11  23  38  62  90 118 154 200 254 306 360
#
# _framework density 20.978982999999999
#
# number of rings (size 3 to 8) (size 9 to 14) (size 15 to 20)
#    0.000    1.571    1.429    3.000    2.000    5.143 
#    0.000    2.143    0.000    3.429    0.000    0.000 
#    0.000    0.000    0.000    0.000    0.000    0.000 
#
# Total GULP energy -156357.428400 kJ/mol
# GULP energy per Si atom -5584.193871 kJ/mol
# Density = 2.093123 g / cm^3
# Si number density = 20.978983 Si / 1000 Ang^3
#
#
#
# Elastic Constant Matrix: (Units=GPa)
#
#
# Indices 1 2 3 4 5 6 
#
# 1 104.6237 23.7104 52.1315 0.0000 -30.9524 0.0000
# 2 23.7104 14.4608 9.0985 0.0000 -2.8377 0.0000
# 3 52.1315 9.0985 108.6132 0.0000 -27.5120 0.0000
# 4 0.0000 0.0000 0.0000 25.9845 0.0000 -1.2815
# 5 -30.9524 -2.8377 -27.5120 0.0000 43.9054 0.0000
# 6 0.0000 0.0000 0.0000 -1.2815 0.0000 23.8599
#
#
#
# Elastic Compliance Matrix: (Units=1/GPa)
#
#
# Indices 1 2 3 4 5 6 
#
# 1 0.022490 -0.031354 -0.005545 0.000000 0.010354 0.000000
# 2 -0.031354 0.116754 0.001880 0.000000 -0.013380 0.000000
# 3 -0.005545 0.001880 0.012780 0.000000 0.004220 0.000000
# 4 0.000000 0.000000 0.000000 0.038587 0.000000 0.002072
# 5 0.010354 -0.013380 0.004220 0.000000 0.031855 0.000000
# 6 0.000000 0.000000 0.000000 0.002072 0.000000 0.042023
#
#
# Mechanical properties :
#
#
# Convention : Reuss Voigt Hill
#
# Bulk Modulus (GPa) = 12.19761 44.17538 28.18650
# Shear Modulus (GPa) = 13.81763 28.26711 21.04237
#
# Velocity S-wave (km/s) = 2.56919 3.67468 3.17049
# Velocity P-wave (km/s) = 3.82463 6.25356 5.18338
#
# Compressibility (1/GPa) = 0.08198326
#
# Stress axis : x y z
#
# Youngs Moduli (GPa) = 44.46426 8.56505 78.24573
#
# Poissons Ratio (x) = 0.26855 0.43391
# Poissons Ratio (y) = 1.39415 -0.14707
# Poissons Ratio (z) = 0.24657 -0.01610
#
# Static dielectric constant tensor:
#      x y z
#    x 1.791390 0.000000 -0.014070 
#    y 0.000000 1.774820 0.000000 
#    z -0.014070 0.000000 1.754250 
# 
# From -- ./inp_files/239036.got.cif
#   From: 2010.05.17/outbox.cif.g08.bks.cpg/sg12_120_cif.got.tgz:239036.got - 2010.06.03 13:09:07.
