data_PCOD9208160
_publ_section_title
;
Structure prediction by ZEFSAII (Michael W. Deem and Ramdas Pophale) SiO2 
 PCOD9208160
Probable space group: C 2/M
;
_chemical_formula_sum "Si O2"
_cell_formula_units_Z 64
_cell_length_a 11.871335
_cell_length_b 26.192239
_cell_length_c 13.025129
_cell_angle_alpha 90.000000
_cell_angle_beta 41.558320
_cell_angle_gamma 90.000000
_cell_volume 2686.692322
_symmetry_space_group_name_H-M "C 2/M"
_symmetry_group_IT_number 12
_symmetry_cell_setting 'monoclinic'
loop_
_space_group_symop_operation_xyz
x,y,z
-x,y,-z
-x,-y,-z
x,-y,z
1/2+x,1/2+y,z
1/2-x,1/2+y,-z
1/2-x,1/2-y,-z
1/2+x,1/2-y,z
loop_
_atom_site_type_symbol
_atom_site_label
_atom_site_fract_x
_atom_site_fract_y
_atom_site_fract_z
Si Si1 0.852110 0.410725 0.186354
Si Si2 0.975358 0.942008 0.700504
Si Si3 0.386118 0.441383 0.990410
Si Si4 0.491956 0.943361 0.311762
Si Si5 0.478781 0.836157 0.397206
Si Si6 0.877975 0.837645 0.370593
Si Si7 0.340680 0.304722 0.686580
Si Si8 0.173798 0.196624 0.820716
O O1 0.683972 0.440791 0.266451
O O2 0.784742 0.352634 0.237103
O O3 0.917790 0.430831 0.250124
O O4 0.000000 0.416093 0.000000
O O5 0.902927 0.924986 0.861668
O O6 0.098478 0.894246 0.595981
O O7 0.043703 0.000000 0.654727
O O8 0.447578 0.500000 0.940481
O O9 0.500000 0.415438 0.000000
O O10 0.194473 0.442325 0.158190
O O11 0.451018 0.896937 0.414684
O O12 0.442263 0.000000 0.380283
O O13 0.500000 0.817930 0.500000
O O14 0.304603 0.815076 0.467738
O O15 0.663785 0.824631 0.225389
O O16 0.853319 0.836136 0.264673
O O17 0.049638 0.808084 0.282658
O O18 0.500000 0.307764 0.500000
O O19 0.233736 0.253574 0.750583
O O20 0.000000 0.199113 0.000000
#
# Coordination Sequence:
#
# PCOD9208160 Si02
#       8
#     8   8   8   8   8   8   8   8
#     4  11  22  39  64  98 133 169 223 274 327 389
#     4  10  21  37  62  92 132 177 217 269 321 376
#     4   9  19  32  52  86 121 166 217 259 317 371
#     4  11  23  37  62  94 132 177 220 269 322 380
#     4  10  24  43  63  93 132 173 216 265 326 392
#     4  10  24  43  64  97 130 170 217 260 325 392
#     4  11  24  44  70  94 127 171 213 266 329 393
#     4  11  26  45  70  98 126 161 212 275 335 393
#
# _framework density 23.821110999999998
#
# number of rings (size 3 to 8) (size 9 to 14) (size 15 to 20)
#    0.000    1.625    1.250    2.625    5.250    4.750 
#    0.000    0.000    0.000    4.125    0.000    0.000 
#    0.000    0.000    0.000    0.000    0.000    0.000 
#
# Total GULP energy -178783.134808 kJ/mol
# GULP energy per Si atom -5586.972963 kJ/mol
# Density = 2.376689 g / cm^3
# Si number density = 23.821111 Si / 1000 Ang^3
#
#
#
# Elastic Constant Matrix: (Units=GPa)
#
#
# Indices 1 2 3 4 5 6 
#
# 1 117.5994 9.2933 19.8144 0.0000 -28.3765 0.0000
# 2 9.2933 123.7857 7.6229 0.0000 -14.8248 0.0000
# 3 19.8144 7.6229 88.5510 0.0000 -29.0760 0.0000
# 4 0.0000 0.0000 0.0000 20.5503 0.0000 -2.0328
# 5 -28.3765 -14.8248 -29.0760 0.0000 38.2713 0.0000
# 6 0.0000 0.0000 0.0000 -2.0328 0.0000 20.8163
#
#
#
# Elastic Compliance Matrix: (Units=1/GPa)
#
#
# Indices 1 2 3 4 5 6 
#
# 1 0.010364 0.000158 0.000281 0.000000 0.007959 0.000000
# 2 0.000158 0.008488 0.000469 0.000000 0.003761 0.000000
# 3 0.000281 0.000469 0.015079 0.000000 0.011846 0.000000
# 4 0.000000 0.000000 0.000000 0.049136 0.000000 0.004798
# 5 0.007959 0.003761 0.011846 0.000000 0.042487 0.000000
# 6 0.000000 0.000000 0.000000 0.004798 0.000000 0.048508
#
#
# Mechanical properties :
#
#
# Convention : Reuss Voigt Hill
#
# Bulk Modulus (GPa) = 27.97455 44.82190 36.39822
# Shear Modulus (GPa) = 27.14983 35.47463 31.31223
#
# Velocity S-wave (km/s) = 3.37966 3.86321 3.62950
# Velocity P-wave (km/s) = 5.19602 6.22544 5.73388
#
# Compressibility (1/GPa) = 0.03574678
#
# Stress axis : x y z
#
# Youngs Moduli (GPa) = 96.48643 117.81047 66.31530
#
# Poissons Ratio (x) = -0.01859 -0.01861
# Poissons Ratio (y) = -0.01523 -0.03110
# Poissons Ratio (z) = -0.02708 -0.05526
#
# Static dielectric constant tensor:
#      x y z
#    x 1.946850 0.000000 0.014180 
#    y 0.000000 1.940040 0.000000 
#    z 0.014180 0.000000 1.945820 
# 
# From -- ./inp_files/209371.got.cif
#   From: 2010.05.17/outbox.cif.g08.bks.cpg/sg12_105_cif.got.tgz:209371.got - 2010.06.03 13:09:07.
