data_PCOD9208278
_publ_section_title
;
Structure prediction by ZEFSAII (Michael W. Deem and Ramdas Pophale) SiO2 
 PCOD9208278
Probable space group: C 2/M
;
_chemical_formula_sum "Si O2"
_cell_formula_units_Z 50
_cell_length_a 9.068537
_cell_length_b 24.417331
_cell_length_c 18.218570
_cell_angle_alpha 90.000000
_cell_angle_beta 142.895710
_cell_angle_gamma 90.000000
_cell_volume 2433.659316
_symmetry_space_group_name_H-M "C 2/M"
_symmetry_group_IT_number 12
_symmetry_cell_setting 'monoclinic'
loop_
_space_group_symop_operation_xyz
x,y,z
-x,y,-z
-x,-y,-z
x,-y,z
1/2+x,1/2+y,z
1/2-x,1/2+y,-z
1/2-x,1/2-y,-z
1/2+x,1/2-y,z
loop_
_atom_site_type_symbol
_atom_site_label
_atom_site_fract_x
_atom_site_fract_y
_atom_site_fract_z
Si Si1 0.236649 0.687176 0.884561
Si Si2 0.272796 0.938651 0.466977
Si Si3 0.612478 0.139113 0.684087
Si Si4 0.972300 0.756251 0.408194
Si Si5 0.500000 0.000000 0.000000
Si Si6 0.908729 0.092472 0.195510
Si Si7 0.334202 0.198376 0.841301
O O1 0.098863 0.656461 0.763683
O O2 0.290706 0.747115 0.871542
O O3 0.096120 0.691811 0.905816
O O4 0.500000 0.660097 0.000000
O O5 0.500000 0.940365 0.500000
O O6 0.371907 0.893795 0.563410
O O7 0.037773 0.923709 0.324572
O O8 0.244217 0.000000 0.486763
O O9 0.639680 0.194941 0.645830
O O10 0.859166 0.104585 0.765480
O O11 0.250000 0.750000 0.500000
O O12 0.000000 0.778380 0.500000
O O13 0.837118 0.794313 0.297789
O O14 0.717319 0.047347 0.093400
O O15 0.756964 0.147661 0.148472
#
# Coordination Sequence:
#
# PCOD9208278 Si02
#       7
#     8   8   8   8   2   8   8
#     4  11  24  40  59  94 125 169 205 248 309 397
#     4   9  17  35  61  90 118 156 209 265 313 367
#     4  10  21  37  64  92 129 164 209 256 322 377
#     4  11  19  33  57  95 130 160 195 249 314 393
#     4  12  28  40  66  94 126 164 236 264 320 356
#     4  11  23  41  64  94 124 165 213 274 313 372
#     4  11  23  38  62  88 129 163 206 249 318 380
#
# _framework density 20.545192
#
# number of rings (size 3 to 8) (size 9 to 14) (size 15 to 20)
#    0.000    1.440    0.800    7.680    4.480    0.000 
#    0.000    0.000    1.760    2.400    0.000    0.000 
#    0.000    0.000    0.000    0.000    0.000    0.000 
#
# Total GULP energy -139300.919971 kJ/mol
# GULP energy per Si atom -5572.036799 kJ/mol
# Density = 2.049843 g / cm^3
# Si number density = 20.545192 Si / 1000 Ang^3
#
#
#
# Elastic Constant Matrix: (Units=GPa)
#
#
# Indices 1 2 3 4 5 6 
#
# 1 66.6075 4.9271 12.4589 -0.0007 12.0854 -0.0002
# 2 4.9271 90.0373 28.5732 0.0004 -5.5783 0.0001
# 3 12.4589 28.5732 91.5780 -0.0036 11.5984 -0.0007
# 4 -0.0007 0.0004 -0.0036 151.5629 -0.0017 31.4258
# 5 12.0854 -5.5783 11.5984 -0.0017 36.9246 -0.0003
# 6 -0.0002 0.0001 -0.0007 31.4258 -0.0003 15.5012
#
#
#
# Elastic Compliance Matrix: (Units=1/GPa)
#
#
# Indices 1 2 3 4 5 6 
#
# 1 0.016229 -0.000776 -0.001331 0.000000 -0.005011 0.000000
# 2 -0.000776 0.012738 -0.004316 0.000000 0.003534 0.000000
# 3 -0.001331 -0.004316 0.012992 0.000000 -0.004297 0.000000
# 4 0.000000 0.000000 0.000000 0.011383 0.000000 -0.023076
# 5 -0.005011 0.003534 -0.004297 0.000000 0.030606 0.000000
# 6 0.000000 0.000000 0.000000 -0.023076 0.000000 0.111294
#
#
# Mechanical properties :
#
#
# Convention : Reuss Voigt Hill
#
# Bulk Modulus (GPa) = 34.35094 37.79347 36.07220
# Shear Modulus (GPa) = 22.95769 54.28197 38.61983
#
# Velocity S-wave (km/s) = 3.34642 5.14569 4.34031
# Velocity P-wave (km/s) = 5.62915 7.33072 6.53555
#
# Compressibility (1/GPa) = 0.02911129
#
# Stress axis : x y z
#
# Youngs Moduli (GPa) = 61.61843 78.50702 76.97212
#
# Poissons Ratio (x) = 0.06093 0.10246
# Poissons Ratio (y) = 0.04782 0.33223
# Poissons Ratio (z) = 0.08202 0.33886
#
# Static dielectric constant tensor:
#      x y z
#    x 1.717740 0.000000 0.022040 
#    y 0.000000 1.750140 0.000000 
#    z 0.022040 0.000000 1.770910 
# 
# From -- ./inp_files/259754.got.cif
#   From: 2010.05.17/outbox.cif.g08.bks.cpg/sg12_130_cif.got.tgz:259754.got - 2010.06.03 13:09:07.
