data_PCOD9208482
_publ_section_title
;
Structure prediction by ZEFSAII (Michael W. Deem and Ramdas Pophale) SiO2 
 PCOD9208482
Probable space group: C 2/M
;
_chemical_formula_sum "Si O2"
_cell_formula_units_Z 56
_cell_length_a 20.772238
_cell_length_b 8.620412
_cell_length_c 20.301072
_cell_angle_alpha 90.000000
_cell_angle_beta 58.909750
_cell_angle_gamma 90.000000
_cell_volume 3113.035742
_symmetry_space_group_name_H-M "C 2/M"
_symmetry_group_IT_number 12
_symmetry_cell_setting 'monoclinic'
loop_
_space_group_symop_operation_xyz
x,y,z
-x,y,-z
-x,-y,-z
x,-y,z
1/2+x,1/2+y,z
1/2-x,1/2+y,-z
1/2-x,1/2-y,-z
1/2+x,1/2-y,z
loop_
_atom_site_type_symbol
_atom_site_label
_atom_site_fract_x
_atom_site_fract_y
_atom_site_fract_z
Si Si1 0.908129 0.188432 0.832299
Si Si2 0.254095 0.313587 0.839363
Si Si3 0.215793 0.314393 0.585803
Si Si4 0.301474 0.687715 0.672689
Si Si5 0.049159 0.185338 0.673595
Si Si6 0.969121 0.684373 0.589067
Si Si7 0.822572 0.814347 0.000597
O O1 0.835292 0.236237 0.827194
O O2 0.891560 0.233485 0.916763
O O3 0.985647 0.241601 0.758953
O O4 0.909041 0.000000 0.829288
O O5 0.251619 0.500000 0.845873
O O6 0.253623 0.270375 0.762988
O O7 0.188347 0.246860 0.919961
O O8 0.218470 0.500000 0.581607
O O9 0.250000 0.250000 0.500000
O O10 0.263647 0.263433 0.624290
O O11 0.130234 0.260451 0.639392
O O12 0.309140 0.500000 0.668528
O O13 0.383328 0.760773 0.637408
O O14 0.017029 0.228227 0.618882
O O15 0.056183 0.000000 0.675420
O O16 0.974474 0.500000 0.597677
O O17 0.000000 0.718211 0.500000
O O18 0.819691 0.000000 0.002924
O O19 0.750000 0.750000 0.000000
#
# Coordination Sequence:
#
# PCOD9208482 Si02
#       7
#     8   8   8   8   8   8   8
#     4   8  15  29  50  75 106 139 175 215 260 317
#     4   9  16  31  51  76 106 138 178 222 266 322
#     4  11  24  41  59  81 108 144 187 231 277 332
#     4  10  21  38  58  77 106 146 184 223 276 335
#     4  11  21  37  59  80 108 147 184 223 273 328
#     4  11  23  36  53  81 112 137 174 231 280 324
#     4   9  16  27  45  74 109 142 174 215 264 320
#
# _framework density 17.988871
#
# number of rings (size 3 to 8) (size 9 to 14) (size 15 to 20)
#    0.000    2.143    1.429    3.429    0.000    5.143 
#    0.000    2.143    0.000    0.857    0.000    6.000 
#    0.000    0.000    0.000    0.000    0.000    0.000 
#
# Total GULP energy -156184.640085 kJ/mol
# GULP energy per Si atom -5578.022860 kJ/mol
# Density = 1.794793 g / cm^3
# Si number density = 17.988871 Si / 1000 Ang^3
#
#
#
# Elastic Constant Matrix: (Units=GPa)
#
#
# Indices 1 2 3 4 5 6 
#
# 1 26.2457 1.2467 -15.9571 0.0000 6.9055 -0.0002
# 2 1.2467 18.9788 14.0152 -0.0001 6.7723 -0.0005
# 3 -15.9571 14.0152 93.5911 0.0000 15.1511 0.0000
# 4 0.0000 -0.0001 0.0000 30.8626 0.0000 -1.4320
# 5 6.9055 6.7723 15.1511 0.0000 25.8314 0.0000
# 6 -0.0002 -0.0005 0.0000 -1.4320 0.0000 23.1953
#
#
#
# Elastic Compliance Matrix: (Units=1/GPa)
#
#
# Indices 1 2 3 4 5 6 
#
# 1 0.051362 -0.005801 0.012820 0.000000 -0.019729 0.000000
# 2 -0.005801 0.063106 -0.008852 0.000000 -0.009802 0.000001
# 3 0.012820 -0.008852 0.015883 0.000000 -0.010422 0.000000
# 4 0.000000 0.000000 0.000000 0.032495 0.000000 0.002006
# 5 -0.019729 -0.009802 -0.010422 0.000000 0.052670 0.000000
# 6 0.000000 0.000001 0.000000 0.002006 0.000000 0.043236
#
#
# Mechanical properties :
#
#
# Convention : Reuss Voigt Hill
#
# Bulk Modulus (GPa) = 7.89362 15.26948 11.58155
# Shear Modulus (GPa) = 16.41243 25.27858 20.84551
#
# Velocity S-wave (km/s) = 3.02382 3.75271 3.40781
# Velocity P-wave (km/s) = 4.07294 5.22340 4.68363
#
# Compressibility (1/GPa) = 0.12668465
#
# Stress axis : x y z
#
# Youngs Moduli (GPa) = 19.46963 15.84632 62.95886
#
# Poissons Ratio (x) = 0.09192 -0.80711
# Poissons Ratio (y) = 0.11294 0.55733
# Poissons Ratio (z) = -0.24959 0.14028
#
# Static dielectric constant tensor:
#      x y z
#    x 1.597220 0.000000 0.015600 
#    y 0.000000 1.612350 0.000000 
#    z 0.015600 0.000000 1.655710 
# 
# From -- ./inp_files/319689.got.cif
#   From: 2010.05.17/outbox.cif.g08.bks.cpg/sg12_160_cif.got.tgz:319689.got - 2010.06.03 13:09:07.
