data_PCOD9208918
_publ_section_title
;
Structure prediction by ZEFSAII (Michael W. Deem and Ramdas Pophale) SiO2 
 PCOD9208918
Probable space group: C 2/M
;
_chemical_formula_sum "Si O2"
_cell_formula_units_Z 56
_cell_length_a 21.476641
_cell_length_b 8.609677
_cell_length_c 21.687953
_cell_angle_alpha 90.000000
_cell_angle_beta 45.440442
_cell_angle_gamma 90.000000
_cell_volume 2857.391454
_symmetry_space_group_name_H-M "C 2/M"
_symmetry_group_IT_number 12
_symmetry_cell_setting 'monoclinic'
loop_
_space_group_symop_operation_xyz
x,y,z
-x,y,-z
-x,-y,-z
x,-y,z
1/2+x,1/2+y,z
1/2-x,1/2+y,-z
1/2-x,1/2-y,-z
1/2+x,1/2-y,z
loop_
_atom_site_type_symbol
_atom_site_label
_atom_site_fract_x
_atom_site_fract_y
_atom_site_fract_z
Si Si1 0.866894 0.683354 0.574025
Si Si2 0.455598 0.815430 0.227017
Si Si3 0.894732 0.683721 0.782438
Si Si4 0.026771 0.689658 0.050033
Si Si5 0.713189 0.314502 0.590270
Si Si6 0.029436 0.180863 0.391769
Si Si7 0.722567 0.813372 0.952257
O O1 0.863590 0.500000 0.590087
O O2 0.780356 0.731159 0.597987
O O3 0.889907 0.777578 0.619388
O O4 0.948232 0.718311 0.472272
O O5 0.550107 0.793428 0.193232
O O6 0.464388 0.759582 0.150154
O O7 0.381737 0.740462 0.321282
O O8 0.438334 0.000000 0.238317
O O9 0.893168 0.500000 0.770605
O O10 0.945869 0.772376 0.693680
O O11 0.797811 0.749594 0.855488
O O12 0.024545 0.500000 0.051868
O O13 0.125965 0.735460 0.997977
O O14 0.000000 0.740860 0.000000
O O15 0.713505 0.500000 0.584989
O O16 0.750000 0.250000 0.500000
O O17 0.007312 0.000000 0.412718
O O18 0.724199 0.000000 0.952885
O O19 0.750000 0.750000 0.000000
#
# Coordination Sequence:
#
# PCOD9208918 Si02
#       7
#     8   8   8   8   8   8   8
#     4  10  21  39  58  80 117 159 193 239 301 357
#     4  10  21  38  60  86 118 160 200 245 302 359
#     4  11  22  38  59  87 120 155 197 244 301 361
#     4   9  19  38  62  89 121 158 202 249 301 361
#     4  11  24  39  59  87 118 156 199 245 298 360
#     4  11  22  36  58  88 114 149 199 248 295 351
#     4  11  21  37  61  89 118 154 199 247 300 356
#
# _framework density 19.598296000000001
#
# number of rings (size 3 to 8) (size 9 to 14) (size 15 to 20)
#    0.000    1.571    1.429    4.714    0.000    8.000 
#    0.000    1.429    0.000    3.000    0.000    0.000 
#    0.000    0.000    0.000    0.000    0.000    0.000 
#
# Total GULP energy -156390.493714 kJ/mol
# GULP energy per Si atom -5585.374775 kJ/mol
# Density = 1.955369 g / cm^3
# Si number density = 19.598296 Si / 1000 Ang^3
#
#
#
# Elastic Constant Matrix: (Units=GPa)
#
#
# Indices 1 2 3 4 5 6 
#
# 1 84.8772 16.9631 30.1478 0.0001 -7.7260 -0.0001
# 2 16.9631 22.6658 5.5766 0.0005 -3.0589 -0.0004
# 3 30.1478 5.5766 86.8469 0.0001 4.7934 -0.0001
# 4 0.0001 0.0005 0.0001 27.4471 -0.0001 1.0961
# 5 -7.7260 -3.0589 4.7934 -0.0001 32.2413 0.0001
# 6 -0.0001 -0.0004 -0.0001 1.0961 0.0001 22.7827
#
#
#
# Elastic Compliance Matrix: (Units=1/GPa)
#
#
# Indices 1 2 3 4 5 6 
#
# 1 0.015955 -0.010203 -0.005083 0.000000 0.003611 0.000000
# 2 -0.010203 0.052076 0.000061 -0.000001 0.002487 0.000001
# 3 -0.005083 0.000061 0.013452 0.000000 -0.003212 0.000000
# 4 0.000000 -0.000001 0.000000 0.036504 0.000000 -0.001756
# 5 0.003611 0.002487 -0.003212 0.000000 0.032595 0.000000
# 6 0.000000 0.000001 0.000000 -0.001756 0.000000 0.043978
#
#
# Mechanical properties :
#
#
# Convention : Reuss Voigt Hill
#
# Bulk Modulus (GPa) = 19.59506 33.30721 26.45113
# Shear Modulus (GPa) = 20.65948 25.94105 23.30026
#
# Velocity S-wave (km/s) = 3.25028 3.64213 3.45177
# Velocity P-wave (km/s) = 4.90977 5.89225 5.42331
#
# Compressibility (1/GPa) = 0.05103328
#
# Stress axis : x y z
#
# Youngs Moduli (GPa) = 62.67702 19.20281 74.33672
#
# Poissons Ratio (x) = 0.19592 0.37783
# Poissons Ratio (y) = 0.63948 -0.00451
# Poissons Ratio (z) = 0.31857 -0.00116
#
# Static dielectric constant tensor:
#      x y z
#    x 1.705690 0.000000 0.005260 
#    y 0.000000 1.665910 0.000000 
#    z 0.005260 0.000000 1.676180 
# 
# From -- ./inp_files/319659.got.cif
#   From: 2010.05.17/outbox.cif.g08.bks.cpg/sg12_160_cif.got.tgz:319659.got - 2010.06.03 13:09:07.
