data_PCOD9208868
_publ_section_title
;
Structure prediction by ZEFSAII (Michael W. Deem and Ramdas Pophale) SiO2 
 PCOD9208868
Probable space group: C 2/M
;
_chemical_formula_sum "Si O2"
_cell_formula_units_Z 48
_cell_length_a 16.611541
_cell_length_b 17.238849
_cell_length_c 13.918627
_cell_angle_alpha 90.000000
_cell_angle_beta 144.408280
_cell_angle_gamma 90.000000
_cell_volume 2319.752458
_symmetry_space_group_name_H-M "C 2/M"
_symmetry_group_IT_number 12
_symmetry_cell_setting 'monoclinic'
loop_
_space_group_symop_operation_xyz
x,y,z
-x,y,-z
-x,-y,-z
x,-y,z
1/2+x,1/2+y,z
1/2-x,1/2+y,-z
1/2-x,1/2-y,-z
1/2+x,1/2-y,z
loop_
_atom_site_type_symbol
_atom_site_label
_atom_site_fract_x
_atom_site_fract_y
_atom_site_fract_z
Si Si1 0.067145 0.909129 0.664244
Si Si2 0.430301 0.847601 0.833272
Si Si3 0.709186 0.835961 0.992484
Si Si4 0.649688 0.329737 0.242755
Si Si5 0.291823 0.412555 0.517425
Si Si6 0.153514 0.091565 0.054085
O O1 0.196848 0.861149 0.826242
O O2 0.000000 0.881650 0.500000
O O3 0.946521 0.904346 0.626421
O O4 0.105171 0.000000 0.689904
O O5 0.368809 0.761531 0.790159
O O6 0.311238 0.899406 0.671240
O O7 0.500000 0.875340 0.000000
O O8 0.551865 0.840494 0.872744
O O9 0.750000 0.750000 0.000000
O O10 0.751137 0.890955 0.944697
O O11 0.729194 0.351879 0.417060
O O12 0.710916 0.370050 0.207381
O O13 0.495795 0.367180 0.104751
O O14 0.276478 0.500000 0.540491
O O15 0.133064 0.000000 0.045702
#
# Coordination Sequence:
#
# PCOD9208868 Si02
#       6
#     8   8   8   8   8   8
#     4  10  21  38  60  85 116 161 218 262 296 359
#     4  12  24  41  63  93 135 174 206 258 331 391
#     4  12  22  39  61  92 130 163 207 259 318 381
#     4  11  20  41  65  93 123 162 218 267 316 372
#     4  11  23  39  61  91 127 169 215 263 317 381
#     4  11  21  37  68  96 121 160 215 271 314 365
#
# _framework density 20.691863999999999
#
# number of rings (size 3 to 8) (size 9 to 14) (size 15 to 20)
#    0.000    0.833    5.000    4.000    0.000    1.667 
#    0.000    0.833    0.000    2.000    0.000    0.000 
#    0.000    0.000    0.000    0.000    0.000    0.000 
#
# Total GULP energy -134252.692179 kJ/mol
# GULP energy per Si atom -5593.862174 kJ/mol
# Density = 2.064477 g / cm^3
# Si number density = 20.691864 Si / 1000 Ang^3
#
#
#
# Elastic Constant Matrix: (Units=GPa)
#
#
# Indices 1 2 3 4 5 6 
#
# 1 56.1921 -2.9432 -7.9430 0.0000 -12.6665 0.0000
# 2 -2.9432 45.7247 16.5715 0.0000 0.9694 0.0000
# 3 -7.9430 16.5715 67.8301 0.0000 -20.9008 0.0000
# 4 0.0000 0.0000 0.0000 25.0172 0.0000 -10.2658
# 5 -12.6665 0.9694 -20.9008 0.0000 42.7109 0.0000
# 6 0.0000 0.0000 0.0000 -10.2658 0.0000 25.6186
#
#
#
# Elastic Compliance Matrix: (Units=1/GPa)
#
#
# Indices 1 2 3 4 5 6 
#
# 1 0.020447 -0.000769 0.005247 0.000000 0.008649 0.000000
# 2 -0.000769 0.024624 -0.007476 0.000000 -0.004445 0.000000
# 3 0.005247 -0.007476 0.020861 0.000000 0.011934 0.000000
# 4 0.000000 0.000000 0.000000 0.047839 0.000000 0.019170
# 5 0.008649 -0.004445 0.011934 0.000000 0.031919 0.000000
# 6 0.000000 0.000000 0.000000 0.019170 0.000000 0.046716
#
#
# Mechanical properties :
#
#
# Convention : Reuss Voigt Hill
#
# Bulk Modulus (GPa) = 16.68402 20.12418 18.40410
# Shear Modulus (GPa) = 22.89590 29.60679 26.25134
#
# Velocity S-wave (km/s) = 3.33004 3.78675 3.56572
# Velocity P-wave (km/s) = 4.78186 5.37272 5.08587
#
# Compressibility (1/GPa) = 0.05993758
#
# Stress axis : x y z
#
# Youngs Moduli (GPa) = 48.90654 40.61061 47.93656
#
# Poissons Ratio (x) = 0.03123 -0.25154
# Poissons Ratio (y) = 0.03761 0.35836
# Poissons Ratio (z) = -0.25663 0.30359
#
# Static dielectric constant tensor:
#      x y z
#    x 1.765380 0.000000 -0.029730 
#    y 0.000000 1.751610 0.000000 
#    z -0.029730 0.000000 1.744790 
# 
# From -- ./inp_files/226928.got.cif
#   From: 2010.05.17/outbox.cif.g08.bks.cpg/sg12_114_cif.got.tgz:226928.got - 2010.06.03 13:09:07.
