data_PCOD9208637
_publ_section_title
;
Structure prediction by ZEFSAII (Michael W. Deem and Ramdas Pophale) SiO2 
 PCOD9208637
Probable space group: C 2/M
;
_chemical_formula_sum "Si O2"
_cell_formula_units_Z 64
_cell_length_a 28.513182
_cell_length_b 9.230422
_cell_length_c 15.472350
_cell_angle_alpha 90.000000
_cell_angle_beta 54.420252
_cell_angle_gamma 90.000000
_cell_volume 3311.904087
_symmetry_space_group_name_H-M "C 2/M"
_symmetry_group_IT_number 12
_symmetry_cell_setting 'monoclinic'
loop_
_space_group_symop_operation_xyz
x,y,z
-x,y,-z
-x,-y,-z
x,-y,z
1/2+x,1/2+y,z
1/2-x,1/2+y,-z
1/2-x,1/2-y,-z
1/2+x,1/2-y,z
loop_
_atom_site_type_symbol
_atom_site_label
_atom_site_fract_x
_atom_site_fract_y
_atom_site_fract_z
Si Si1 0.959260 0.327735 0.333348
Si Si2 0.573962 0.673439 0.169058
Si Si3 0.567998 0.170357 0.447536
Si Si4 0.741607 0.324693 0.786974
Si Si5 0.107650 0.824079 0.944714
Si Si6 0.266328 0.665842 0.396411
Si Si7 0.157187 0.172001 0.228225
Si Si8 0.905187 0.167104 0.230240
O O1 0.964922 0.500000 0.321662
O O2 0.925107 0.295718 0.458289
O O3 0.929707 0.262297 0.280617
O O4 0.022014 0.255528 0.270587
O O5 0.564034 0.500000 0.182595
O O6 0.632785 0.701172 0.158352
O O7 0.577686 0.720997 0.065363
O O8 0.500000 0.187818 0.500000
O O9 0.608016 0.269110 0.345835
O O10 0.582151 0.000000 0.417806
O O11 0.745153 0.500000 0.786238
O O12 0.675154 0.283494 0.874976
O O13 0.756738 0.279749 0.671738
O O14 0.784792 0.253658 0.807915
O O15 0.081199 0.778365 0.881241
O O16 0.106433 0.000000 0.943781
O O17 0.246782 0.500000 0.427126
O O18 0.250000 0.750000 0.500000
O O19 0.335699 0.665236 0.311575
O O20 0.164237 0.000000 0.230300
O O21 0.925594 0.000000 0.217316
#
# Coordination Sequence:
#
# PCOD9208637 Si02
#       8
#     8   8   8   8   8   8   8   8
#     4  11  23  37  56  83 112 144 183 227 276 329
#     4  10  21  38  59  82 109 144 187 230 273 322
#     4  10  21  39  58  75 106 150 188 221 269 335
#     4   9  19  37  58  79 109 148 186 220 266 330
#     4   8  17  38  63  81 105 147 190 224 264 326
#     4   9  19  34  53  78 106 140 182 224 266 318
#     4  11  23  35  54  86 116 141 180 232 279 320
#     4   9  19  37  58  80 108 143 184 225 268 323
#
# _framework density 19.32423
#
# number of rings (size 3 to 8) (size 9 to 14) (size 15 to 20)
#    0.000    2.375    1.250    2.250    1.750    3.750 
#    0.000    5.625    0.000    0.000    0.000    0.000 
#    0.000    0.000    0.000    0.000    0.000    0.000 
#
# Total GULP energy -178592.387414 kJ/mol
# GULP energy per Si atom -5581.012107 kJ/mol
# Density = 1.928025 g / cm^3
# Si number density = 19.324230 Si / 1000 Ang^3
#
#
#
# Elastic Constant Matrix: (Units=GPa)
#
#
# Indices 1 2 3 4 5 6 
#
# 1 57.6772 10.6405 -7.0701 0.0000 24.4882 0.0000
# 2 10.6405 24.5254 15.4311 0.0000 13.5385 0.0000
# 3 -7.0701 15.4311 61.6082 0.0000 23.4228 0.0000
# 4 0.0000 0.0000 0.0000 17.6921 0.0000 3.0442
# 5 24.4882 13.5385 23.4228 0.0000 28.0729 0.0000
# 6 0.0000 0.0000 0.0000 3.0442 0.0000 34.8156
#
#
#
# Elastic Compliance Matrix: (Units=1/GPa)
#
#
# Indices 1 2 3 4 5 6 
#
# 1 0.054940 -0.004792 0.036390 0.000000 -0.075976 0.000000
# 2 -0.004792 0.057269 -0.008763 0.000000 -0.016127 0.000000
# 3 0.036390 -0.008763 0.048426 0.000000 -0.067922 0.000000
# 4 0.000000 0.000000 0.000000 0.057386 0.000000 -0.005018
# 5 -0.075976 -0.016127 -0.067922 0.000000 0.166345 0.000000
# 6 0.000000 0.000000 0.000000 -0.005018 0.000000 0.029161
#
#
# Mechanical properties :
#
#
# Convention : Reuss Voigt Hill
#
# Bulk Modulus (GPa) = 4.84717 20.20154 12.52435
# Shear Modulus (GPa) = 11.45149 24.43674 17.94411
#
# Velocity S-wave (km/s) = 2.43697 3.55993 3.05057
# Velocity P-wave (km/s) = 3.22990 5.23203 4.34778
#
# Compressibility (1/GPa) = 0.20630614
#
# Stress axis : x y z
#
# Youngs Moduli (GPa) = 18.20166 17.46140 20.65019
#
# Poissons Ratio (x) = 0.08368 -0.75147
# Poissons Ratio (y) = 0.08722 0.18095
# Poissons Ratio (z) = -0.66237 0.15301
#
# Static dielectric constant tensor:
#      x y z
#    x 1.702750 0.000000 0.016740 
#    y 0.000000 1.639770 0.000000 
#    z 0.016740 0.000000 1.678490 
# 
# From -- ./inp_files/249033.got.cif
#   From: 2010.05.17/outbox.cif.g08.bks.cpg/sg12_125_cif.got.tgz:249033.got - 2010.06.03 13:09:07.
