data_PCOD9208814
_publ_section_title
;
Structure prediction by ZEFSAII (Michael W. Deem and Ramdas Pophale) SiO2 
 PCOD9208814
Probable space group: C 2/M
;
_chemical_formula_sum "Si O2"
_cell_formula_units_Z 60
_cell_length_a 22.998314
_cell_length_b 14.886417
_cell_length_c 27.332222
_cell_angle_alpha 90.000000
_cell_angle_beta 20.759447
_cell_angle_gamma 90.000000
_cell_volume 3316.730941
_symmetry_space_group_name_H-M "C 2/M"
_symmetry_group_IT_number 12
_symmetry_cell_setting 'monoclinic'
loop_
_space_group_symop_operation_xyz
x,y,z
-x,y,-z
-x,-y,-z
x,-y,z
1/2+x,1/2+y,z
1/2-x,1/2+y,-z
1/2-x,1/2-y,-z
1/2+x,1/2-y,z
loop_
_atom_site_type_symbol
_atom_site_label
_atom_site_fract_x
_atom_site_fract_y
_atom_site_fract_z
Si Si1 0.360093 0.313157 0.148785
Si Si2 0.268374 0.144641 0.902966
Si Si3 0.461537 0.780715 0.658794
Si Si4 0.036747 0.766398 0.826155
Si Si5 0.886729 0.896818 0.419902
Si Si6 0.791767 0.107235 0.383813
Si Si7 0.011711 0.000000 0.057818
Si Si8 0.437478 0.098151 0.262121
O O1 0.182080 0.291355 0.267633
O O2 0.383970 0.268607 0.182762
O O3 0.390911 0.420006 0.131229
O O4 0.500000 0.282708 0.000000
O O5 0.385528 0.179743 0.768263
O O6 0.385730 0.103424 0.851368
O O7 0.137075 0.077682 0.981590
O O8 0.157551 0.222968 0.013140
O O9 0.512959 0.678633 0.630218
O O10 0.620686 0.838953 0.519223
O O11 0.099889 0.851762 0.744998
O O12 0.080017 0.678549 0.761835
O O13 0.876598 0.877048 0.369892
O O14 0.701816 0.892427 0.586667
O O15 0.943978 0.000000 0.381286
O O16 0.768402 0.000000 0.396449
O O17 0.415753 0.000000 0.256351
#
# Coordination Sequence:
#
# PCOD9208814 Si02
#       8
#     8   8   8   8   8   8   4   8
#     4  11  24  40  64  84 131 167 212 250 308 377
#     4  11  22  36  67  91 130 161 205 251 328 379
#     4  12  22  40  66  91 120 176 217 249 313 382
#     4  11  24  42  57  95 131 160 205 267 308 369
#     4  10  22  42  64  91 128 164 211 267 316 370
#     4  11  24  38  62  95 133 161 204 264 323 373
#     4  10  21  38  60 101 119 168 204 253 290 402
#     4  11  21  39  66  95 121 165 212 261 313 377
#
# _framework density 18.090102000000002
#
# number of rings (size 3 to 8) (size 9 to 14) (size 15 to 20)
#    0.000    1.067    6.000    1.800    5.600    0.533 
#    0.000    3.333    0.000    2.400    0.000    0.000 
#    0.000    0.000    0.000    0.000    0.000    0.000 
#
# Total GULP energy -167016.139225 kJ/mol
# GULP energy per Si atom -5567.204641 kJ/mol
# Density = 1.804893 g / cm^3
# Si number density = 18.090102 Si / 1000 Ang^3
#
#
#
# Elastic Constant Matrix: (Units=GPa)
#
#
# Indices 1 2 3 4 5 6 
#
# 1 108.0082 63.5330 26.7079 -0.0319 -11.4553 -0.0101
# 2 63.5330 88.7766 10.7620 -0.0913 -13.4395 -0.0262
# 3 26.7079 10.7620 41.8667 -0.1246 -2.1171 -0.0524
# 4 -0.0319 -0.0913 -0.1246 10.7176 0.0127 -13.4689
# 5 -11.4553 -13.4395 -2.1171 0.0127 36.2917 0.0080
# 6 -0.0101 -0.0262 -0.0524 -13.4689 0.0080 3.9751
#
#
#
# Elastic Compliance Matrix: (Units=1/GPa)
#
#
# Indices 1 2 3 4 5 6 
#
# 1 0.018670 -0.012169 -0.008737 0.000104 0.000877 0.000203
# 2 -0.012169 0.020215 0.002759 -0.000101 0.003806 -0.000210
# 3 -0.008737 0.002759 0.028746 -0.000247 -0.000059 -0.000460
# 4 0.000104 -0.000101 -0.000247 -0.028635 0.000013 -0.097029
# 5 0.000877 0.003806 -0.000059 0.000013 0.029237 0.000010
# 6 0.000203 -0.000210 -0.000460 -0.097029 0.000010 -0.077204
#
#
# Mechanical properties :
#
#
# Convention : Reuss Voigt Hill
#
# Bulk Modulus (GPa) = 31.91317 48.96195 40.43756
# Shear Modulus (GPa) = 132.37990 19.37346 75.87668
#
# Velocity S-wave (km/s) = 8.56370 3.27608 6.48343
# Velocity P-wave (km/s) = 10.74533 6.43697 8.85711
#
# Compressibility (1/GPa) = 0.03133502
#
# Stress axis : x y z
#
# Youngs Moduli (GPa) = 53.56044 49.46870 34.78791
#
# Poissons Ratio (x) = 0.60201 0.30395
# Poissons Ratio (y) = 0.65180 -0.09597
# Poissons Ratio (z) = 0.46797 -0.13647
#
# Static dielectric constant tensor:
#      x y z
#    x 1.629680 0.000000 0.018180 
#    y 0.000000 1.626870 0.000010 
#    z 0.018180 0.000010 1.618430 
# 
# From -- ./inp_files/368135.got.cif
#   From: 2010.05.17/outbox.cif.g08.bks.cpg/sg12_185_cif.got.tgz:368135.got - 2010.06.03 13:09:07.
