data_PCOD9208077
_publ_section_title
;
Structure prediction by ZEFSAII (Michael W. Deem and Ramdas Pophale) SiO2 
 PCOD9208077
Probable space group: C 2/M
;
_chemical_formula_sum "Si O2"
_cell_formula_units_Z 56
_cell_length_a 30.453789
_cell_length_b 8.744028
_cell_length_c 11.491256
_cell_angle_alpha 90.000000
_cell_angle_beta 65.773639
_cell_angle_gamma 90.000000
_cell_volume 2790.503381
_symmetry_space_group_name_H-M "C 2/M"
_symmetry_group_IT_number 12
_symmetry_cell_setting 'monoclinic'
loop_
_space_group_symop_operation_xyz
x,y,z
-x,y,-z
-x,-y,-z
x,-y,z
1/2+x,1/2+y,z
1/2-x,1/2+y,-z
1/2-x,1/2-y,-z
1/2+x,1/2-y,z
loop_
_atom_site_type_symbol
_atom_site_label
_atom_site_fract_x
_atom_site_fract_y
_atom_site_fract_z
Si Si1 0.013209 0.322522 0.350510
Si Si2 0.444564 0.314277 0.055313
Si Si3 0.896814 0.816261 0.863681
Si Si4 0.678805 0.182014 0.521975
Si Si5 0.723621 0.317467 0.708065
Si Si6 0.580661 0.682826 0.662895
Si Si7 0.795363 0.682213 0.019131
O O1 0.015050 0.500000 0.311903
O O2 0.064077 0.243621 0.269995
O O3 0.000000 0.316370 0.500000
O O4 0.970701 0.236448 0.328775
O O5 0.445878 0.500000 0.052673
O O6 0.418124 0.269351 0.202563
O O7 0.500000 0.261424 0.000000
O O8 0.417965 0.267427 0.967055
O O9 0.894063 0.000000 0.863420
O O10 0.844358 0.745015 0.909314
O O11 0.695236 0.260555 0.624854
O O12 0.720253 0.216101 0.382317
O O13 0.625879 0.241998 0.549585
O O14 0.678038 0.000000 0.539078
O O15 0.717260 0.500000 0.726257
O O16 0.707187 0.238608 0.844362
O O17 0.584070 0.500000 0.652133
O O18 0.794407 0.500000 0.015722
O O19 0.750000 0.750000 0.000000
#
# Coordination Sequence:
#
# PCOD9208077 Si02
#       7
#     8   8   8   8   8   8   8
#     4  11  25  43  60  83 122 166 207 254 305 360
#     4   9  17  33  58  90 123 154 190 241 301 358
#     4  11  22  41  68  94 124 160 203 254 312 373
#     4  10  21  37  61  92 127 163 202 254 313 372
#     4  10  21  40  63  90 125 164 206 256 314 369
#     4  11  21  36  61  90 121 160 205 252 306 372
#     4  12  26  44  66  92 124 163 212 262 315 374
#
# _framework density 20.068066000000002
#
# number of rings (size 3 to 8) (size 9 to 14) (size 15 to 20)
#    0.000    1.429    1.429    4.286    0.000    5.143 
#    0.000    4.286    0.000    0.000    0.000    0.000 
#    0.000    0.000    0.000    0.000    0.000    0.000 
#
# Total GULP energy -156578.258874 kJ/mol
# GULP energy per Si atom -5592.080674 kJ/mol
# Density = 2.002239 g / cm^3
# Si number density = 20.068066 Si / 1000 Ang^3
#
#
#
# Elastic Constant Matrix: (Units=GPa)
#
#
# Indices 1 2 3 4 5 6 
#
# 1 97.6461 35.8075 37.2455 0.0000 -41.0590 0.0000
# 2 35.8075 95.8315 48.7242 0.0000 -21.7796 0.0000
# 3 37.2455 48.7242 84.0269 0.0000 -29.2718 0.0000
# 4 0.0000 0.0000 0.0000 29.9893 0.0000 -3.4996
# 5 -41.0590 -21.7796 -29.2718 0.0000 39.1063 0.0000
# 6 0.0000 0.0000 0.0000 -3.4996 0.0000 32.7991
#
#
#
# Elastic Compliance Matrix: (Units=1/GPa)
#
#
# Indices 1 2 3 4 5 6 
#
# 1 0.019051 -0.002722 -0.000577 0.000000 0.018055 0.000000
# 2 -0.002722 0.015364 -0.007734 0.000000 -0.000090 0.000000
# 3 -0.000577 -0.007734 0.020196 0.000000 0.010205 0.000000
# 4 0.000000 0.000000 0.000000 0.033766 0.000000 0.003603
# 5 0.018055 -0.000090 0.010205 0.000000 0.052116 0.000000
# 6 0.000000 0.000000 0.000000 0.003603 0.000000 0.030873
#
#
# Mechanical properties :
#
#
# Convention : Reuss Voigt Hill
#
# Bulk Modulus (GPa) = 30.72571 57.89544 44.31057
# Shear Modulus (GPa) = 24.47647 30.76075 27.61861
#
# Velocity S-wave (km/s) = 3.49617 3.91937 3.71380
# Velocity P-wave (km/s) = 5.62509 7.02810 6.36536
#
# Compressibility (1/GPa) = 0.03254604
#
# Stress axis : x y z
#
# Youngs Moduli (GPa) = 52.49096 65.08866 49.51510
#
# Poissons Ratio (x) = 0.17717 0.02855
# Poissons Ratio (y) = 0.14288 0.38294
# Poissons Ratio (z) = 0.03026 0.50338
#
# Static dielectric constant tensor:
#      x y z
#    x 1.703040 0.000000 -0.011330 
#    y 0.000000 1.682570 0.000000 
#    z -0.011330 0.000000 1.708350 
# 
# From -- ./inp_files/187224.got.cif
#   From: 2010.05.17/outbox.cif.g08.bks.cpg/sg12_94_cif.got.tgz:187224.got - 2010.06.03 13:09:07.
