data_PCOD9208354
_publ_section_title
;
Structure prediction by ZEFSAII (Michael W. Deem and Ramdas Pophale) SiO2 
 PCOD9208354
Probable space group: C 2/M
;
_chemical_formula_sum "Si O2"
_cell_formula_units_Z 48
_cell_length_a 5.355669
_cell_length_b 14.738111
_cell_length_c 28.850952
_cell_angle_alpha 90.000000
_cell_angle_beta 106.062646
_cell_angle_gamma 90.000000
_cell_volume 2188.370718
_symmetry_space_group_name_H-M "C 2/M"
_symmetry_group_IT_number 12
_symmetry_cell_setting 'monoclinic'
loop_
_space_group_symop_operation_xyz
x,y,z
-x,y,-z
-x,-y,-z
x,-y,z
1/2+x,1/2+y,z
1/2-x,1/2+y,-z
1/2-x,1/2-y,-z
1/2+x,1/2-y,z
loop_
_atom_site_type_symbol
_atom_site_label
_atom_site_fract_x
_atom_site_fract_y
_atom_site_fract_z
Si Si1 0.791675 0.890085 0.028706
Si Si2 0.738844 0.891245 0.655702
Si Si3 0.581697 0.147082 0.178418
Si Si4 0.626123 0.807942 0.551404
Si Si5 0.821950 0.389575 0.710800
Si Si6 0.522466 0.648334 0.138628
O O1 0.880056 0.850554 0.082267
O O2 0.794238 0.000000 0.033419
O O3 0.500000 0.862854 0.000000
O O4 0.000000 0.865628 0.000000
O O5 0.658505 0.862841 0.600141
O O6 0.530391 0.859641 0.683113
O O7 0.031214 0.860739 0.682192
O O8 0.740565 0.000000 0.658072
O O9 0.607138 0.145261 0.234739
O O10 0.579574 0.249898 0.159247
O O11 0.306717 0.104980 0.149739
O O12 0.831828 0.104584 0.166552
O O13 0.500000 0.856577 0.500000
O O14 0.408835 0.730930 0.551737
O O15 0.826898 0.500000 0.713068
#
# Coordination Sequence:
#
# PCOD9208354 Si02
#       6
#     8   8   8   8   8   8
#     4  10  21  38  60  85 111 143 185 229 280 340
#     4  10  21  39  60  88 118 154 203 248 301 354
#     4  10  21  38  53  80 114 147 187 230 284 340
#     4  10  21  39  59  88 124 158 201 246 300 360
#     4  10  21  38  59  82 116 152 194 247 291 347
#     4  10  21  38  56  81 115 146 184 234 273 347
#
# _framework density 21.934125999999999
#
# number of rings (size 3 to 8) (size 9 to 14) (size 15 to 20)
#    0.000    2.000    0.000    3.000    0.000    1.667 
#   18.000   10.000    0.000    6.000    0.000    0.000 
#    0.000    0.000    0.000    0.000    0.000    0.000 
#
# Total GULP energy -134171.443659 kJ/mol
# GULP energy per Si atom -5590.476819 kJ/mol
# Density = 2.188420 g / cm^3
# Si number density = 21.934126 Si / 1000 Ang^3
#
#
#
# Elastic Constant Matrix: (Units=GPa)
#
#
# Indices 1 2 3 4 5 6 
#
# 1 122.6420 2.5077 -2.7350 0.0000 1.5648 0.0000
# 2 2.5077 69.5722 13.5132 0.0000 2.1695 0.0000
# 3 -2.7350 13.5132 131.2341 0.0000 1.5440 0.0000
# 4 0.0000 0.0000 0.0000 52.9417 0.0000 0.0326
# 5 1.5648 2.1695 1.5440 0.0000 44.4961 0.0000
# 6 0.0000 0.0000 0.0000 0.0326 0.0000 -16.1191
#
#
#
# Elastic Compliance Matrix: (Units=1/GPa)
#
#
# Indices 1 2 3 4 5 6 
#
# 1 0.008169 -0.000326 0.000207 0.000000 -0.000279 0.000000
# 2 -0.000326 0.014699 -0.001513 0.000000 -0.000653 0.000000
# 3 0.000207 -0.001513 0.007782 0.000000 -0.000204 0.000000
# 4 0.000000 0.000000 0.000000 0.018889 0.000000 0.000038
# 5 -0.000279 -0.000653 -0.000204 0.000000 0.022523 0.000000
# 6 0.000000 0.000000 0.000000 0.000038 0.000000 -0.062038
#
#
# Mechanical properties :
#
#
# Convention : Reuss Voigt Hill
#
# Bulk Modulus (GPa) = 36.51319 38.89110 37.70214
# Shear Modulus (GPa) = 223.05644 36.94125 129.99885
#
# Velocity S-wave (km/s) = 10.09527 4.10834 7.70691
# Velocity P-wave (km/s) = 12.35188 6.34618 9.81944
#
# Compressibility (1/GPa) = 0.02738736
#
# Stress axis : x y z
#
# Youngs Moduli (GPa) = 122.41919 68.02967 128.49429
#
# Poissons Ratio (x) = 0.02218 -0.02661
# Poissons Ratio (y) = 0.03991 0.19438
# Poissons Ratio (z) = -0.02535 0.10291
#
# Static dielectric constant tensor:
#      x y z
#    x 1.878550 0.000000 0.000550 
#    y 0.000000 1.769970 0.000000 
#    z 0.000550 0.000000 1.742850 
# 
# From -- ./inp_files/331060.got.cif
#   From: 2010.05.17/outbox.cif.g08.bks.cpg/sg12_166_cif.got.tgz:331060.got - 2010.06.03 13:09:07.
