data_PCOD9208871
_publ_section_title
;
Structure prediction by ZEFSAII (Michael W. Deem and Ramdas Pophale) SiO2 
 PCOD9208871
Probable space group: C 2/M
;
_chemical_formula_sum "Si O2"
_cell_formula_units_Z 64
_cell_length_a 25.409308
_cell_length_b 7.918032
_cell_length_c 14.745396
_cell_angle_alpha 90.000000
_cell_angle_beta 90.848759
_cell_angle_gamma 90.000000
_cell_volume 2966.325992
_symmetry_space_group_name_H-M "C 2/M"
_symmetry_group_IT_number 12
_symmetry_cell_setting 'monoclinic'
loop_
_space_group_symop_operation_xyz
x,y,z
-x,y,-z
-x,-y,-z
x,-y,z
1/2+x,1/2+y,z
1/2-x,1/2+y,-z
1/2-x,1/2-y,-z
1/2+x,1/2-y,z
loop_
_atom_site_type_symbol
_atom_site_label
_atom_site_fract_x
_atom_site_fract_y
_atom_site_fract_z
Si Si1 0.087573 0.700521 0.238253
Si Si2 0.671074 0.804092 0.511501
Si Si3 0.198904 0.706033 0.318340
Si Si4 0.058420 0.796629 0.034771
Si Si5 0.022233 0.304166 0.701508
Si Si6 0.400914 0.698188 0.150727
Si Si7 0.441859 0.693837 0.477524
Si Si8 0.311960 0.199201 0.285720
O O1 0.087412 0.500000 0.255024
O O2 0.144127 0.764069 0.272309
O O3 0.075937 0.727844 0.132117
O O4 0.036623 0.767281 0.291354
O O5 0.699845 0.733013 0.423593
O O6 0.608674 0.791537 0.488781
O O7 0.678653 0.727984 0.611878
O O8 0.686078 0.000000 0.518184
O O9 0.199879 0.500000 0.318587
O O10 0.250267 0.771401 0.268709
O O11 0.056923 0.000000 0.044263
O O12 0.098462 0.750968 0.954472
O O13 0.000000 0.743567 0.000000
O O14 0.021408 0.500000 0.673485
O O15 0.051420 0.291661 0.797759
O O16 0.057626 0.204044 0.631390
O O17 0.413844 0.500000 0.153375
O O18 0.348644 0.727345 0.208128
O O19 0.500000 0.763171 0.500000
O O20 0.438920 0.500000 0.507568
O O21 0.324677 0.000000 0.289511
#
# Coordination Sequence:
#
# PCOD9208871 Si02
#       8
#     8   8   8   8   8   8   8   8
#     4  10  22  38  60  89 120 156 198 243 296 355
#     4  10  21  38  60  85 117 155 200 247 293 349
#     4  10  22  41  61  85 119 160 200 244 299 352
#     4  10  21  38  61  90 121 154 193 239 299 359
#     4  11  21  35  57  85 118 155 193 238 293 350
#     4  11  22  38  61  88 119 154 191 239 295 352
#     4  11  23  35  51  81 119 159 201 241 289 349
#     4  11  23  39  61  90 118 155 205 249 291 345
#
# _framework density 21.575510999999999
#
# number of rings (size 3 to 8) (size 9 to 14) (size 15 to 20)
#    0.000    1.500    2.500    2.625    0.000    5.250 
#    0.000    0.625    0.000    0.000    0.000    0.000 
#    0.000    0.000    0.000    0.000    0.000    0.000 
#
# Total GULP energy -178801.303286 kJ/mol
# GULP energy per Si atom -5587.540728 kJ/mol
# Density = 2.152640 g / cm^3
# Si number density = 21.575511 Si / 1000 Ang^3
#
#
#
# Elastic Constant Matrix: (Units=GPa)
#
#
# Indices 1 2 3 4 5 6 
#
# 1 115.8100 -1.7071 29.3187 0.0000 -18.7595 0.0000
# 2 -1.7071 39.2037 4.3957 0.0000 -1.7057 0.0000
# 3 29.3187 4.3957 84.7060 0.0000 -16.2743 0.0000
# 4 0.0000 0.0000 0.0000 19.5632 0.0000 2.5153
# 5 -18.7595 -1.7057 -16.2743 0.0000 31.2648 0.0000
# 6 0.0000 0.0000 0.0000 2.5153 0.0000 23.0202
#
#
#
# Elastic Compliance Matrix: (Units=1/GPa)
#
#
# Indices 1 2 3 4 5 6 
#
# 1 0.010081 0.000940 -0.002629 0.000000 0.004731 0.000000
# 2 0.000940 0.025762 -0.001426 0.000000 0.001227 0.000000
# 3 -0.002629 -0.001426 0.013857 0.000000 0.005558 0.000000
# 4 0.000000 0.000000 0.000000 0.051845 0.000000 -0.005665
# 5 0.004731 0.001227 0.005558 0.000000 0.037784 0.000000
# 6 0.000000 0.000000 0.000000 -0.005665 0.000000 0.044059
#
#
# Mechanical properties :
#
#
# Convention : Reuss Voigt Hill
#
# Bulk Modulus (GPa) = 23.00513 33.74827 28.37670
# Shear Modulus (GPa) = 24.49677 28.61713 26.55695
#
# Velocity S-wave (km/s) = 3.37322 3.64589 3.51220
# Velocity P-wave (km/s) = 5.08500 5.77921 5.44318
#
# Compressibility (1/GPa) = 0.04346856
#
# Stress axis : x y z
#
# Youngs Moduli (GPa) = 99.20010 38.81684 72.16412
#
# Poissons Ratio (x) = -0.03647 0.18971
# Poissons Ratio (y) = -0.09321 0.10293
# Poissons Ratio (z) = 0.26078 0.05537
#
# Static dielectric constant tensor:
#      x y z
#    x 1.803170 0.000000 0.019550 
#    y 0.000000 1.782800 0.000000 
#    z 0.019550 0.000000 1.826100 
# 
# From -- ./inp_files/243936.got.cif
#   From: 2010.05.17/outbox.cif.g08.bks.cpg/sg12_122_cif.got.tgz:243936.got - 2010.06.03 13:09:07.
