data_PCOD9208185
_publ_section_title
;
Structure prediction by ZEFSAII (Michael W. Deem and Ramdas Pophale) SiO2 
 PCOD9208185
Probable space group: C 2/M
;
_chemical_formula_sum "Si O2"
_cell_formula_units_Z 50
_cell_length_a 29.841261
_cell_length_b 7.925187
_cell_length_c 28.786311
_cell_angle_alpha 90.000000
_cell_angle_beta 159.728742
_cell_angle_gamma 90.000000
_cell_volume 2358.697384
_symmetry_space_group_name_H-M "C 2/M"
_symmetry_group_IT_number 12
_symmetry_cell_setting 'monoclinic'
loop_
_space_group_symop_operation_xyz
x,y,z
-x,y,-z
-x,-y,-z
x,-y,z
1/2+x,1/2+y,z
1/2-x,1/2+y,-z
1/2-x,1/2-y,-z
1/2+x,1/2-y,z
loop_
_atom_site_type_symbol
_atom_site_label
_atom_site_fract_x
_atom_site_fract_y
_atom_site_fract_z
Si Si1 0.728781 0.694036 0.426202
Si Si2 0.259364 0.296731 0.062521
Si Si3 0.994815 0.797892 0.640670
Si Si4 0.425004 0.697450 0.972018
Si Si5 0.362861 0.696464 0.317581
Si Si6 0.498319 0.196674 0.138678
Si Si7 0.000000 0.500000 0.500000
O O1 0.690471 0.500000 0.390075
O O2 0.750000 0.750000 0.500000
O O3 0.615132 0.787047 0.288227
O O4 0.860806 0.717170 0.525787
O O5 0.259759 0.500000 0.066628
O O6 0.390547 0.236070 0.214155
O O7 0.250000 0.250000 0.000000
O O8 0.132229 0.232862 0.965085
O O9 0.043226 0.769105 0.635313
O O10 0.980529 0.000000 0.632541
O O11 0.399043 0.500000 0.939640
O O12 0.286318 0.786129 0.843485
O O13 0.500000 0.764698 0.000000
O O14 0.513080 0.717462 0.103287
O O15 0.381639 0.500000 0.350629
O O16 0.395435 0.846695 0.384798
O O17 0.478779 0.000000 0.109845
#
# Coordination Sequence:
#
# PCOD9208185 Si02
#       7
#     8   8   8   8   8   8   2
#     4  12  26  43  65  98 139 184 232 287 351 419
#     4  10  21  37  62  96 127 165 217 269 332 407
#     4  10  22  43  68  94 133 178 226 281 344 412
#     4  11  24  44  71 103 140 181 233 293 350 419
#     4  11  24  46  73 102 137 186 234 290 352 421
#     4  11  23  43  68  97 135 179 231 283 346 417
#     4  12  26  44  70 102 144 180 238 298 352 426
#
# _framework density 21.198141
#
# number of rings (size 3 to 8) (size 9 to 14) (size 15 to 20)
#    0.000    1.120    2.400    3.600    1.120    7.040 
#    0.000    0.000    0.000    0.000    0.000    0.000 
#    0.000    0.000    0.000    0.000    0.000    0.000 
#
# Total GULP energy -139478.242080 kJ/mol
# GULP energy per Si atom -5579.129683 kJ/mol
# Density = 2.114989 g / cm^3
# Si number density = 21.198141 Si / 1000 Ang^3
#
#
#
# Elastic Constant Matrix: (Units=GPa)
#
#
# Indices 1 2 3 4 5 6 
#
# 1 79.0819 10.6514 4.3548 -0.0002 -2.9426 -0.0001
# 2 10.6514 79.0920 5.7619 0.0009 0.2299 0.0003
# 3 4.3548 5.7619 82.9643 0.0019 -14.9791 0.0007
# 4 -0.0002 0.0009 0.0019 3.8516 0.0004 -16.6154
# 5 -2.9426 0.2299 -14.9791 0.0004 27.9564 0.0000
# 6 -0.0001 0.0003 0.0007 -16.6154 0.0000 13.6465
#
#
#
# Elastic Compliance Matrix: (Units=1/GPa)
#
#
# Indices 1 2 3 4 5 6 
#
# 1 0.012940 -0.001721 -0.000345 0.000000 0.001192 0.000000
# 2 -0.001721 0.012947 -0.000953 0.000001 -0.000798 0.000001
# 3 -0.000345 -0.000953 0.013432 0.000002 0.007168 0.000002
# 4 0.000000 0.000001 0.000002 -0.061055 0.000002 -0.074338
# 5 0.001192 -0.000798 0.007168 0.000002 0.039743 0.000002
# 6 0.000000 0.000001 0.000002 -0.074338 0.000002 -0.017232
#
#
# Mechanical properties :
#
#
# Convention : Reuss Voigt Hill
#
# Bulk Modulus (GPa) = 30.04623 31.40826 30.72725
# Shear Modulus (GPa) = 279.24266 23.78225 151.51245
#
# Velocity S-wave (km/s) = 11.48981 3.35312 8.46343
# Velocity P-wave (km/s) = 13.79224 5.46259 10.48965
#
# Compressibility (1/GPa) = 0.03328204
#
# Stress axis : x y z
#
# Youngs Moduli (GPa) = 77.27839 77.23779 74.44959
#
# Poissons Ratio (x) = 0.13293 0.02565
# Poissons Ratio (y) = 0.13300 0.07095
# Poissons Ratio (z) = 0.02663 0.07360
#
# Static dielectric constant tensor:
#      x y z
#    x 1.777180 0.000000 -0.047690 
#    y 0.000000 1.753200 0.000000 
#    z -0.047690 0.000000 1.812900 
# 
# From -- ./inp_files/384817.got.cif
#   From: 2010.05.17/outbox.cif.g08.bks.cpg/sg12_193_cif.got.tgz:384817.got - 2010.06.03 13:09:07.
