data_PCOD9208107
_publ_section_title
;
Structure prediction by ZEFSAII (Michael W. Deem and Ramdas Pophale) SiO2 
 PCOD9208107
Probable space group: C 2/M
;
_chemical_formula_sum "Si O2"
_cell_formula_units_Z 64
_cell_length_a 11.278432
_cell_length_b 16.475961
_cell_length_c 15.521453
_cell_angle_alpha 90.000000
_cell_angle_beta 91.830184
_cell_angle_gamma 90.000000
_cell_volume 2882.771724
_symmetry_space_group_name_H-M "C 2/M"
_symmetry_group_IT_number 12
_symmetry_cell_setting 'monoclinic'
loop_
_space_group_symop_operation_xyz
x,y,z
-x,y,-z
-x,-y,-z
x,-y,z
1/2+x,1/2+y,z
1/2-x,1/2+y,-z
1/2-x,1/2-y,-z
1/2+x,1/2-y,z
loop_
_atom_site_type_symbol
_atom_site_label
_atom_site_fract_x
_atom_site_fract_y
_atom_site_fract_z
Si Si1 0.196462 0.405453 0.650169
Si Si2 0.561690 0.849808 0.336647
Si Si3 0.383619 0.659680 0.955006
Si Si4 0.865003 0.343023 0.987779
Si Si5 0.112829 0.176843 0.247829
Si Si6 0.701807 0.091486 0.194306
Si Si7 0.768906 0.843079 0.475890
Si Si8 0.904794 0.094777 0.329535
O O1 0.191016 0.500000 0.672763
O O2 0.255044 0.350069 0.725024
O O3 0.269224 0.393604 0.563331
O O4 0.067040 0.368495 0.631142
O O5 0.579675 0.760425 0.295640
O O6 0.591528 0.907286 0.256709
O O7 0.657855 0.866172 0.412786
O O8 0.375549 0.746506 0.004590
O O9 0.406025 0.675944 0.854688
O O10 0.500000 0.617529 0.000000
O O11 0.250147 0.623765 0.963099
O O12 0.826846 0.355472 0.888278
O O13 0.000000 0.376811 0.000000
O O14 0.030851 0.109336 0.290623
O O15 0.810415 0.123362 0.254751
O O16 0.729425 0.000000 0.166999
O O17 0.750000 0.750000 0.500000
O O18 0.881373 0.857421 0.417021
O O19 0.881238 0.000000 0.345183
#
# Coordination Sequence:
#
# PCOD9208107 Si02
#       8
#     8   8   8   8   8   8   8   8
#     4  12  27  43  66 101 141 175 220 288 353 401
#     4  11  24  41  67  98 131 177 222 274 330 410
#     4  10  22  39  64  95 129 176 225 282 335 412
#     4  10  21  37  61  96 129 164 221 278 346 403
#     4  12  24  41  70  96 134 175 230 283 334 403
#     4  10  21  40  63  91 129 171 214 267 337 410
#     4  11  22  44  68  99 130 176 230 274 326 410
#     4  10  23  41  64  91 130 175 220 270 334 401
#
# _framework density 22.200856999999999
#
# number of rings (size 3 to 8) (size 9 to 14) (size 15 to 20)
#    0.000    1.250    2.500    3.000    3.500    3.750 
#    0.000    2.500    0.000    3.375    0.000    0.000 
#    0.000    0.000    0.000    0.000    0.000    0.000 
#
# Total GULP energy -178736.309522 kJ/mol
# GULP energy per Si atom -5585.509673 kJ/mol
# Density = 2.215033 g / cm^3
# Si number density = 22.200857 Si / 1000 Ang^3
#
#
#
# Elastic Constant Matrix: (Units=GPa)
#
#
# Indices 1 2 3 4 5 6 
#
# 1 93.3682 -4.0512 16.6945 0.0000 -7.2672 0.0000
# 2 -4.0512 67.2999 6.3389 0.0000 1.5631 0.0000
# 3 16.6945 6.3389 90.5178 0.0000 -0.4000 0.0000
# 4 0.0000 0.0000 0.0000 12.6172 0.0000 0.6639
# 5 -7.2672 1.5631 -0.4000 0.0000 28.7357 0.0000
# 6 0.0000 0.0000 0.0000 0.6639 0.0000 20.0845
#
#
#
# Elastic Compliance Matrix: (Units=1/GPa)
#
#
# Indices 1 2 3 4 5 6 
#
# 1 0.011346 0.000819 -0.002138 0.000000 0.002795 0.000000
# 2 0.000819 0.015036 -0.001207 0.000000 -0.000627 0.000000
# 3 -0.002138 -0.001207 0.011525 0.000000 -0.000315 0.000000
# 4 0.000000 0.000000 0.000000 0.079395 0.000000 -0.002625
# 5 0.002795 -0.000627 -0.000315 0.000000 0.035536 0.000000
# 6 0.000000 0.000000 0.000000 -0.002625 0.000000 0.049876
#
#
# Mechanical properties :
#
#
# Convention : Reuss Voigt Hill
#
# Bulk Modulus (GPa) = 30.43506 32.12781 31.28144
# Shear Modulus (GPa) = 22.86056 27.76774 25.31415
#
# Velocity S-wave (km/s) = 3.21240 3.54043 3.38040
# Velocity P-wave (km/s) = 5.24386 5.58710 5.41820
#
# Compressibility (1/GPa) = 0.03285684
#
# Stress axis : x y z
#
# Youngs Moduli (GPa) = 88.14011 66.50514 86.76858
#
# Poissons Ratio (x) = -0.05449 0.18547
# Poissons Ratio (y) = -0.07222 0.10472
# Poissons Ratio (z) = 0.18840 0.08026
#
# Static dielectric constant tensor:
#      x y z
#    x 1.949480 0.000000 -0.012420 
#    y 0.000000 1.825820 0.000000 
#    z -0.012420 0.000000 1.787510 
# 
# From -- ./inp_files/206687.got.cif
#   From: 2010.05.17/outbox.cif.g08.bks.cpg/sg12_104_cif.got.tgz:206687.got - 2010.06.03 13:09:07.
