data_PCOD9208494
_publ_section_title
;
Structure prediction by ZEFSAII (Michael W. Deem and Ramdas Pophale) SiO2 
 PCOD9208494
Probable space group: C 2/M
;
_chemical_formula_sum "Si O2"
_cell_formula_units_Z 48
_cell_length_a 4.951597
_cell_length_b 24.592537
_cell_length_c 16.220214
_cell_angle_alpha 90.000000
_cell_angle_beta 103.749064
_cell_angle_gamma 90.000000
_cell_volume 1918.576582
_symmetry_space_group_name_H-M "C 2/M"
_symmetry_group_IT_number 12
_symmetry_cell_setting 'monoclinic'
loop_
_space_group_symop_operation_xyz
x,y,z
-x,y,-z
-x,-y,-z
x,-y,z
1/2+x,1/2+y,z
1/2-x,1/2+y,-z
1/2-x,1/2-y,-z
1/2+x,1/2-y,z
loop_
_atom_site_type_symbol
_atom_site_label
_atom_site_fract_x
_atom_site_fract_y
_atom_site_fract_z
Si Si1 0.821534 0.064691 0.835787
Si Si2 0.378074 0.287875 0.409578
Si Si3 0.188923 0.562033 0.444878
Si Si4 0.253124 0.215239 0.779188
Si Si5 0.190037 0.848339 0.944770
Si Si6 0.756598 0.065929 0.267748
O O1 0.010311 0.097962 0.911632
O O2 0.952819 0.076660 0.755151
O O3 0.500953 0.081935 0.809156
O O4 0.838526 0.000000 0.851774
O O5 0.500000 0.317725 0.500000
O O6 0.576909 0.234900 0.412413
O O7 0.366861 0.309772 0.314828
O O8 0.500000 0.557499 0.500000
O O9 0.074019 0.500000 0.426140
O O10 0.202159 0.586441 0.355457
O O11 0.000000 0.589662 0.500000
O O12 0.570441 0.230540 0.782741
O O13 0.716029 0.317361 0.860168
O O14 0.500000 0.858246 0.000000
O O15 0.000000 0.818090 0.000000
O O16 0.745504 0.000000 0.272357
#
# Coordination Sequence:
#
# PCOD9208494 Si02
#       6
#     8   8   8   8   8   8
#     4  10  21  38  58  79 107 147 197 252 303 349
#     4   8  14  27  51  83 114 145 183 224 271 331
#     4   9  15  23  40  70 104 136 177 228 278 337
#     4  10  21  38  61  89 122 157 190 233 290 350
#     4  12  26  41  60  87 116 153 201 247 298 362
#     4   9  17  31  52  76 103 141 187 235 291 347
#
# _framework density 25.018547999999999
#
# number of rings (size 3 to 8) (size 9 to 14) (size 15 to 20)
#    0.000    2.333    0.000    3.000    0.000    6.667 
#    0.000    0.000    0.000    3.000    0.000    9.333 
#    0.000    0.000    0.000    0.000    0.000    0.167 
#
# Total GULP energy -134169.849295 kJ/mol
# GULP energy per Si atom -5590.410387 kJ/mol
# Density = 2.496161 g / cm^3
# Si number density = 25.018548 Si / 1000 Ang^3
#
#
#
# Elastic Constant Matrix: (Units=GPa)
#
#
# Indices 1 2 3 4 5 6 
#
# 1 106.3149 -1.9263 14.1814 0.0000 -12.4114 0.0000
# 2 -1.9263 48.6121 26.4146 0.0000 -10.4953 0.0000
# 3 14.1814 26.4146 165.5864 0.0000 -20.6697 0.0000
# 4 0.0000 0.0000 0.0000 171.8249 0.0000 196.8273
# 5 -12.4114 -10.4953 -20.6697 0.0000 47.5326 0.0000
# 6 0.0000 0.0000 0.0000 196.8273 0.0000 341.1568
#
#
#
# Elastic Compliance Matrix: (Units=1/GPa)
#
#
# Indices 1 2 3 4 5 6 
#
# 1 0.009825 0.001339 -0.000738 0.000000 0.002540 0.000000
# 2 0.001339 0.023306 -0.003327 0.000000 0.004049 0.000000
# 3 -0.000738 -0.003327 0.006891 0.000000 0.002069 0.000000
# 4 0.000000 0.000000 0.000000 0.017162 0.000000 -0.009902
# 5 0.002540 0.004049 0.002069 0.000000 0.023495 0.000000
# 6 0.000000 0.000000 0.000000 -0.009902 0.000000 0.008644
#
#
# Mechanical properties :
#
#
# Convention : Reuss Voigt Hill
#
# Bulk Modulus (GPa) = 28.92666 44.20585 36.56626
# Shear Modulus (GPa) = 47.03661 130.89244 88.96452
#
# Velocity S-wave (km/s) = 4.34068 7.24098 5.96964
# Velocity P-wave (km/s) = 6.05881 9.36037 7.88434
#
# Compressibility (1/GPa) = 0.03457018
#
# Stress axis : x y z
#
# Youngs Moduli (GPa) = 101.77850 42.90734 145.10829
#
# Poissons Ratio (x) = -0.05744 0.10708
# Poissons Ratio (y) = -0.13626 0.48278
# Poissons Ratio (z) = 0.07511 0.14276
#
# Static dielectric constant tensor:
#      x y z
#    x 1.883820 0.000000 -0.036980 
#    y 0.000000 2.024130 0.000000 
#    z -0.036980 0.000000 2.007450 
# 
# From -- ./inp_files/192660.got.cif
#   From: 2010.05.17/outbox.cif.g08.bks.cpg/sg12_97_cif.got.tgz:192660.got - 2010.06.03 13:09:07.
