data_PCOD9208613
_publ_section_title
;
Structure prediction by ZEFSAII (Michael W. Deem and Ramdas Pophale) SiO2 
 PCOD9208613
Probable space group: C 2/M
;
_chemical_formula_sum "Si O2"
_cell_formula_units_Z 58
_cell_length_a 14.890683
_cell_length_b 8.040640
_cell_length_c 22.266189
_cell_angle_alpha 90.000000
_cell_angle_beta 86.850454
_cell_angle_gamma 90.000000
_cell_volume 2661.917822
_symmetry_space_group_name_H-M "C 2/M"
_symmetry_group_IT_number 12
_symmetry_cell_setting 'monoclinic'
loop_
_space_group_symop_operation_xyz
x,y,z
-x,y,-z
-x,-y,-z
x,-y,z
1/2+x,1/2+y,z
1/2-x,1/2+y,-z
1/2-x,1/2-y,-z
1/2+x,1/2-y,z
loop_
_atom_site_type_symbol
_atom_site_label
_atom_site_fract_x
_atom_site_fract_y
_atom_site_fract_z
Si Si1 0.081491 0.692050 0.459157
Si Si2 0.708707 0.202950 0.265094
Si Si3 0.756793 0.796422 0.399141
Si Si4 0.007303 0.305125 0.246666
Si Si5 0.954109 0.805569 0.372416
Si Si6 0.500000 0.000000 0.000000
Si Si7 0.176958 0.681530 0.956647
Si Si8 0.864467 0.806894 0.170307
O O1 0.090334 0.500000 0.477867
O O2 0.180530 0.766247 0.447797
O O3 0.000000 0.772075 0.500000
O O4 0.037405 0.701342 0.394448
O O5 0.730061 0.255117 0.332489
O O6 0.609632 0.256059 0.247520
O O7 0.785152 0.260018 0.216162
O O8 0.709488 0.000000 0.264684
O O9 0.860065 0.747133 0.404910
O O10 0.754802 0.000000 0.400728
O O11 0.007008 0.500000 0.260701
O O12 0.950700 0.215685 0.301112
O O13 0.957466 0.280009 0.185538
O O14 0.967567 0.000000 0.385256
O O15 0.580325 0.142236 0.990008
O O16 0.209875 0.500000 0.933864
O O17 0.162117 0.787268 0.897557
O O18 0.250000 0.750000 0.000000
O O19 0.876490 0.000000 0.183941
#
# Coordination Sequence:
#
# PCOD9208613 Si02
#       8
#     8   8   8   8   8   2   8   8
#     4  10  21  38  59  80 105 145 199 248 295 367
#     4   9  18  34  57  83 118 162 193 235 311 373
#     4   9  17  34  56  78 111 153 191 230 304 373
#     4  11  21  36  58  87 123 163 202 247 306 371
#     4  11  21  35  57  80 113 154 190 244 306 366
#     4   8  24  44  74  94 140 176 226 268 340 382
#     4  10  22  45  70  97 130 177 222 270 321 383
#     4  11  22  39  62  96 130 160 207 260 309 375
#
# _framework density 21.788800999999999
#
# number of rings (size 3 to 8) (size 9 to 14) (size 15 to 20)
#    0.414    1.517    2.759    1.655    0.000    1.931 
#    2.483    8.276    0.000    0.000    0.000    0.000 
#    0.000    0.000    0.000    0.000    0.000    0.000 
#
# Total GULP energy -161577.131588 kJ/mol
# GULP energy per Si atom -5571.625227 kJ/mol
# Density = 2.173921 g / cm^3
# Si number density = 21.788801 Si / 1000 Ang^3
#
#
#
# Elastic Constant Matrix: (Units=GPa)
#
#
# Indices 1 2 3 4 5 6 
#
# 1 138.8612 10.7216 28.7765 0.0000 -10.8903 0.0000
# 2 10.7216 43.1434 0.2308 0.0000 -2.3118 0.0000
# 3 28.7765 0.2308 53.0864 0.0000 7.5480 0.0000
# 4 0.0000 0.0000 0.0000 23.4103 0.0000 2.2806
# 5 -10.8903 -2.3118 7.5480 0.0000 30.5260 0.0000
# 6 0.0000 0.0000 0.0000 2.2806 0.0000 22.3462
#
#
#
# Elastic Compliance Matrix: (Units=1/GPa)
#
#
# Indices 1 2 3 4 5 6 
#
# 1 0.008804 -0.001927 -0.005379 0.000000 0.004325 0.000000
# 2 -0.001927 0.023702 0.000813 0.000000 0.000906 0.000000
# 3 -0.005379 0.000813 0.022816 0.000000 -0.007499 0.000000
# 4 0.000000 0.000000 0.000000 0.043145 0.000000 -0.004403
# 5 0.004325 0.000906 -0.007499 0.000000 0.036225 0.000000
# 6 0.000000 0.000000 0.000000 -0.004403 0.000000 0.045200
#
#
# Mechanical properties :
#
#
# Convention : Reuss Voigt Hill
#
# Bulk Modulus (GPa) = 23.62142 34.94985 29.28563
# Shear Modulus (GPa) = 24.15577 28.28064 26.21820
#
# Velocity S-wave (km/s) = 3.33323 3.60661 3.47261
# Velocity P-wave (km/s) = 5.06739 5.78088 5.43586
#
# Compressibility (1/GPa) = 0.04233446
#
# Stress axis : x y z
#
# Youngs Moduli (GPa) = 113.58285 42.19101 43.82948
#
# Poissons Ratio (x) = 0.08132 0.23576
# Poissons Ratio (y) = 0.21892 -0.03563
# Poissons Ratio (z) = 0.61096 -0.03429
#
# Static dielectric constant tensor:
#      x y z
#    x 1.820970 0.000000 0.011350 
#    y 0.000000 1.784740 0.000000 
#    z 0.011350 0.000000 1.850230 
# 
# From -- ./inp_files/337978.got.cif
#   From: 2010.05.17/outbox.cif.g08.bks.cpg/sg12_169_cif.got.tgz:337978.got - 2010.06.03 13:09:07.
