data_PCOD9208626
_publ_section_title
;
Structure prediction by ZEFSAII (Michael W. Deem and Ramdas Pophale) SiO2 
 PCOD9208626
Probable space group: C 2/M
;
_chemical_formula_sum "Si O2"
_cell_formula_units_Z 64
_cell_length_a 9.904977
_cell_length_b 26.877406
_cell_length_c 15.169950
_cell_angle_alpha 90.000000
_cell_angle_beta 68.686343
_cell_angle_gamma 90.000000
_cell_volume 3762.327565
_symmetry_space_group_name_H-M "C 2/M"
_symmetry_group_IT_number 12
_symmetry_cell_setting 'monoclinic'
loop_
_space_group_symop_operation_xyz
x,y,z
-x,y,-z
-x,-y,-z
x,-y,z
1/2+x,1/2+y,z
1/2-x,1/2+y,-z
1/2-x,1/2-y,-z
1/2+x,1/2-y,z
loop_
_atom_site_type_symbol
_atom_site_label
_atom_site_fract_x
_atom_site_fract_y
_atom_site_fract_z
Si Si1 0.345206 0.059931 0.501679
Si Si2 0.294749 0.941202 0.314417
Si Si3 0.892918 0.695861 0.893719
Si Si4 0.168071 0.058909 0.716959
Si Si5 0.838846 0.557162 0.021850
Si Si6 0.216069 0.291130 0.881924
Si Si7 0.615370 0.914439 0.179642
Si Si8 0.627850 0.388095 0.204711
O O1 0.500000 0.079155 0.500000
O O2 0.306677 0.076728 0.412566
O O3 0.226550 0.068949 0.604716
O O4 0.360061 0.000000 0.490704
O O5 0.451060 0.932818 0.231896
O O6 0.179699 0.911107 0.284868
O O7 0.260644 0.000000 0.320847
O O8 0.797878 0.738662 0.870326
O O9 0.884837 0.644163 0.842958
O O10 0.061989 0.710275 0.867854
O O11 0.824987 0.691562 0.008425
O O12 0.296350 0.069967 0.755254
O O13 0.036411 0.095435 0.769686
O O14 0.128297 0.000000 0.732436
O O15 0.840672 0.500000 0.050854
O O16 0.815486 0.560513 0.923256
O O17 0.722240 0.585422 0.106502
O O18 0.000000 0.578778 0.000000
O O19 0.325323 0.330966 0.813663
#
# Coordination Sequence:
#
# PCOD9208626 Si02
#       8
#     8   8   8   8   8   8   8   8
#     4   9  18  35  57  81 110 149 193 238 278 328
#     4  11  20  34  60  85 111 151 195 230 275 341
#     4  10  21  38  59  81 107 146 195 241 281 329
#     4  11  24  38  54  84 123 152 189 239 284 330
#     4  11  20  32  52  77 113 155 190 218 263 336
#     4  10  21  39  58  80 110 146 191 243 282 328
#     4  12  21  35  57  83 111 154 195 227 276 341
#     4  12  23  37  54  83 119 152 187 235 284 333
#
# _framework density 17.010746999999999
#
# number of rings (size 3 to 8) (size 9 to 14) (size 15 to 20)
#    0.000    1.250    5.000    2.250    1.750    1.000 
#    0.000    3.125    0.000    0.000    0.000    5.250 
#    0.000    0.000    0.000    0.000    0.000    0.000 
#
# Total GULP energy -178660.025060 kJ/mol
# GULP energy per Si atom -5583.125783 kJ/mol
# Density = 1.697203 g / cm^3
# Si number density = 17.010747 Si / 1000 Ang^3
#
#
#
# Elastic Constant Matrix: (Units=GPa)
#
#
# Indices 1 2 3 4 5 6 
#
# 1 41.3241 14.3306 -12.6978 0.0000 -2.5908 0.0000
# 2 14.3306 75.9760 3.7522 0.0000 -0.7366 0.0000
# 3 -12.6978 3.7522 58.8390 0.0000 10.8043 0.0000
# 4 0.0000 0.0000 0.0000 3.9748 0.0000 6.8316
# 5 -2.5908 -0.7366 10.8043 0.0000 22.0892 0.0000
# 6 0.0000 0.0000 0.0000 6.8316 0.0000 20.8155
#
#
#
# Elastic Compliance Matrix: (Units=1/GPa)
#
#
# Indices 1 2 3 4 5 6 
#
# 1 0.028124 -0.005623 0.006434 0.000000 -0.000036 0.000000
# 2 -0.005623 0.014345 -0.002302 0.000000 0.000945 0.000000
# 3 0.006434 -0.002302 0.020223 0.000000 -0.009213 0.000000
# 4 0.000000 0.000000 0.000000 0.577134 0.000000 -0.189414
# 5 -0.000036 0.000945 -0.009213 0.000000 0.049805 0.000000
# 6 0.000000 0.000000 0.000000 -0.189414 0.000000 0.110206
#
#
# Mechanical properties :
#
#
# Convention : Reuss Voigt Hill
#
# Bulk Modulus (GPa) = 16.74712 20.76768 18.75740
# Shear Modulus (GPa) = 6.07740 20.75951 13.41846
#
# Velocity S-wave (km/s) = 1.89220 3.49718 2.81164
# Velocity P-wave (km/s) = 3.82627 5.34248 4.64663
#
# Compressibility (1/GPa) = 0.05971175
#
# Stress axis : x y z
#
# Youngs Moduli (GPa) = 35.55713 69.70837 49.44931
#
# Poissons Ratio (x) = 0.39196 -0.31818
# Poissons Ratio (y) = 0.19993 0.11382
# Poissons Ratio (z) = -0.22879 0.16045
#
# Static dielectric constant tensor:
#      x y z
#    x 1.583470 0.000000 0.011470 
#    y 0.000000 1.570740 0.000000 
#    z 0.011470 0.000000 1.574560 
# 
# From -- ./inp_files/199817.got.cif
#   From: 2010.05.17/outbox.cif.g08.bks.cpg/sg12_100_cif.got.tgz:199817.got - 2010.06.03 13:09:07.
