data_PCOD9208897
_publ_section_title
;
Structure prediction by ZEFSAII (Michael W. Deem and Ramdas Pophale) SiO2 
 PCOD9208897
Probable space group: C 2/M
;
_chemical_formula_sum "Si O2"
_cell_formula_units_Z 48
_cell_length_a 14.517601
_cell_length_b 9.759818
_cell_length_c 24.590824
_cell_angle_alpha 90.000000
_cell_angle_beta 138.998954
_cell_angle_gamma 90.000000
_cell_volume 2285.923509
_symmetry_space_group_name_H-M "C 2/M"
_symmetry_group_IT_number 12
_symmetry_cell_setting 'monoclinic'
loop_
_space_group_symop_operation_xyz
x,y,z
-x,y,-z
-x,-y,-z
x,-y,z
1/2+x,1/2+y,z
1/2-x,1/2+y,-z
1/2-x,1/2-y,-z
1/2+x,1/2-y,z
loop_
_atom_site_type_symbol
_atom_site_label
_atom_site_fract_x
_atom_site_fract_y
_atom_site_fract_z
Si Si1 0.602062 0.842349 0.311556
Si Si2 0.887010 0.341981 0.559000
Si Si3 0.360402 0.343602 0.830481
Si Si4 0.187630 0.659571 0.866798
Si Si5 0.585736 0.842445 0.980639
Si Si6 0.175290 0.338203 0.639902
O O1 0.555642 0.841362 0.353569
O O2 0.471330 0.796417 0.216565
O O3 0.737107 0.748384 0.363902
O O4 0.635427 0.000000 0.312290
O O5 0.852118 0.500000 0.530068
O O6 0.750000 0.250000 0.500000
O O7 0.014413 0.295766 0.577479
O O8 0.415491 0.500000 0.851408
O O9 0.268049 0.336199 0.844410
O O10 0.484972 0.235280 0.893557
O O11 0.260903 0.319306 0.734547
O O12 0.189053 0.500000 0.884447
O O13 0.274137 0.756301 0.945292
O O14 0.612162 0.000000 0.978007
O O15 0.500000 0.842074 0.000000
O O16 0.175947 0.500000 0.627594
#
# Coordination Sequence:
#
# PCOD9208897 Si02
#       6
#     8   8   8   8   8   8
#     4  10  21  38  60  86 116 149 189 234 280 334
#     4  10  22  42  64  87 116 149 185 228 281 342
#     4   9  16  31  54  76 104 148 193 230 273 330
#     4   9  16  31  54  76 104 148 193 230 273 330
#     4   9  17  27  44  77 114 144 182 236 284 323
#     4  10  21  38  60  86 116 149 189 234 280 334
#
# _framework density 20.998078
#
# number of rings (size 3 to 8) (size 9 to 14) (size 15 to 20)
#    0.000    2.500    1.667    0.500    0.000    5.333 
#    0.000    4.167    0.000    0.000    0.000    0.000 
#    0.000    0.000    0.000    0.000    0.000    0.000 
#
# Total GULP energy -134120.866000 kJ/mol
# GULP energy per Si atom -5588.369417 kJ/mol
# Density = 2.095029 g / cm^3
# Si number density = 20.998078 Si / 1000 Ang^3
#
#
#
# Elastic Constant Matrix: (Units=GPa)
#
#
# Indices 1 2 3 4 5 6 
#
# 1 78.2330 20.7816 20.9837 0.0000 16.0664 0.0000
# 2 20.7816 69.7735 49.8176 0.0000 29.3667 0.0000
# 3 20.9837 49.8176 90.5936 0.0000 26.6465 0.0000
# 4 0.0000 0.0000 0.0000 31.9519 0.0000 5.8442
# 5 16.0664 29.3667 26.6465 0.0000 43.3363 0.0000
# 6 0.0000 0.0000 0.0000 5.8442 0.0000 21.1367
#
#
#
# Elastic Compliance Matrix: (Units=1/GPa)
#
#
# Indices 1 2 3 4 5 6 
#
# 1 0.014309 -0.002028 -0.001273 0.000000 -0.003148 0.000000
# 2 -0.002028 0.027851 -0.011616 0.000000 -0.010979 0.000000
# 3 -0.001273 -0.011616 0.018638 0.000000 -0.003116 0.000000
# 4 0.000000 0.000000 0.000000 0.032964 0.000000 -0.009114
# 5 -0.003148 -0.010979 -0.003116 0.000000 0.033598 0.000000
# 6 0.000000 0.000000 0.000000 -0.009114 0.000000 0.049831
#
#
# Mechanical properties :
#
#
# Convention : Reuss Voigt Hill
#
# Bulk Modulus (GPa) = 32.29732 46.86288 39.58010
# Shear Modulus (GPa) = 23.00476 29.08612 26.04544
#
# Velocity S-wave (km/s) = 3.31352 3.72584 3.52571
# Velocity P-wave (km/s) = 5.48213 6.39338 5.95521
#
# Compressibility (1/GPa) = 0.03096232
#
# Stress axis : x y z
#
# Youngs Moduli (GPa) = 69.88618 35.90564 53.65492
#
# Poissons Ratio (x) = 0.07281 0.06832
# Poissons Ratio (y) = 0.14172 0.62327
# Poissons Ratio (z) = 0.08899 0.41709
#
# Static dielectric constant tensor:
#      x y z
#    x 1.765820 0.000000 -0.032410 
#    y 0.000000 1.703270 0.000000 
#    z -0.032410 0.000000 1.749700 
# 
# From -- ./inp_files/360325.got.cif
#   From: 2010.05.17/outbox.cif.g08.bks.cpg/sg12_181_cif.got.tgz:360325.got - 2010.06.03 13:09:07.
