data_PCOD9208168
_publ_section_title
;
Structure prediction by ZEFSAII (Michael W. Deem and Ramdas Pophale) SiO2 
 PCOD9208168
Probable space group: C 2/M
;
_chemical_formula_sum "Si O2"
_cell_formula_units_Z 50
_cell_length_a 9.590048
_cell_length_b 22.019272
_cell_length_c 12.022807
_cell_angle_alpha 90.000000
_cell_angle_beta 105.074430
_cell_angle_gamma 90.000000
_cell_volume 2451.443166
_symmetry_space_group_name_H-M "C 2/M"
_symmetry_group_IT_number 12
_symmetry_cell_setting 'monoclinic'
loop_
_space_group_symop_operation_xyz
x,y,z
-x,y,-z
-x,-y,-z
x,-y,z
1/2+x,1/2+y,z
1/2-x,1/2+y,-z
1/2-x,1/2-y,-z
1/2+x,1/2-y,z
loop_
_atom_site_type_symbol
_atom_site_label
_atom_site_fract_x
_atom_site_fract_y
_atom_site_fract_z
Si Si1 0.747852 0.179895 0.725340
Si Si2 0.196971 0.609209 0.153267
Si Si3 0.115105 0.066758 0.605206
Si Si4 0.670057 0.312815 0.014981
Si Si5 0.000000 0.500000 0.000000
Si Si6 0.336753 0.889077 0.494658
Si Si7 0.078799 0.296952 0.305107
O O1 0.777888 0.160828 0.856684
O O2 0.744906 0.126281 0.635687
O O3 0.856806 0.232409 0.712444
O O4 0.587316 0.207763 0.695441
O O5 0.323137 0.592011 0.267509
O O6 0.100788 0.657706 0.204323
O O7 0.280989 0.641553 0.070525
O O8 0.098163 0.554180 0.085884
O O9 0.255061 0.064524 0.555280
O O10 0.000000 0.100079 0.500000
O O11 0.054851 0.000000 0.616756
O O12 0.500000 0.302132 0.000000
O O13 0.750000 0.250000 0.000000
O O14 0.500000 0.906575 0.500000
O O15 0.344146 0.828301 0.572996
#
# Coordination Sequence:
#
# PCOD9208168 Si02
#       7
#     8   8   8   8   2   8   8
#     4  11  21  36  58  91 131 176 204 268 334 397
#     4  11  24  43  68 101 128 181 237 279 342 405
#     4  10  22  42  69  92 124 169 225 285 335 395
#     4  12  26  41  66  99 143 182 223 279 341 421
#     4  12  24  44  76  92 138 180 232 288 324 418
#     4   9  21  37  59  93 129 167 215 269 330 399
#     4  10  21  37  62  93 135 163 226 268 329 408
#
# _framework density 20.396148
#
# number of rings (size 3 to 8) (size 9 to 14) (size 15 to 20)
#    0.000    1.440    2.400    2.400    3.360    1.600 
#    0.000    1.200    1.760    0.000    0.000    0.000 
#    0.000    0.000    0.000    0.000    0.000    0.000 
#
# Total GULP energy -139214.618198 kJ/mol
# GULP energy per Si atom -5568.584728 kJ/mol
# Density = 2.034973 g / cm^3
# Si number density = 20.396148 Si / 1000 Ang^3
#
#
#
# Elastic Constant Matrix: (Units=GPa)
#
#
# Indices 1 2 3 4 5 6 
#
# 1 44.6404 16.1819 29.9946 0.0000 -11.8283 0.0000
# 2 16.1819 50.9360 37.1237 0.0000 3.0479 0.0000
# 3 29.9946 37.1237 176.4574 0.0000 0.5997 0.0000
# 4 0.0000 0.0000 0.0000 -0.5607 0.0000 2.8051
# 5 -11.8283 3.0479 0.5997 0.0000 33.5719 0.0000
# 6 0.0000 0.0000 0.0000 2.8051 0.0000 7.6433
#
#
#
# Elastic Compliance Matrix: (Units=1/GPa)
#
#
# Indices 1 2 3 4 5 6 
#
# 1 0.030745 -0.007824 -0.003620 0.000000 0.011607 0.000000
# 2 -0.007824 0.025316 -0.003979 0.000000 -0.004984 0.000000
# 3 -0.003620 -0.003979 0.007123 0.000000 -0.001041 0.000000
# 4 0.000000 0.000000 0.000000 -0.628872 0.000000 0.230793
# 5 0.011607 -0.004984 -0.001041 0.000000 0.034347 0.000000
# 6 0.000000 0.000000 0.000000 0.230793 0.000000 0.046134
#
#
# Mechanical properties :
#
#
# Convention : Reuss Voigt Hill
#
# Bulk Modulus (GPa) = 30.92237 48.73711 39.82974
# Shear Modulus (GPa) = -11.27187 20.71314 4.72063
#
# Velocity S-wave (km/s) = -2.35340 3.19021 1.52299
# Velocity P-wave (km/s) = 2.79449 6.12512 4.76058
#
# Compressibility (1/GPa) = 0.03233905
#
# Stress axis : x y z
#
# Youngs Moduli (GPa) = 32.52575 39.49995 140.38915
#
# Poissons Ratio (x) = 0.30904 0.50814
# Poissons Ratio (y) = 0.25448 0.55865
# Poissons Ratio (z) = 0.11773 0.15718
#
# Static dielectric constant tensor:
#      x y z
#    x 1.737690 0.000000 0.055170 
#    y 0.000000 1.727410 0.000000 
#    z 0.055170 0.000000 1.777520 
# 
# From -- ./inp_files/123575.got.cif
#   From: 2010.05.17/outbox.cif.g08.bks.cpg/sg12_62_cif.got.tgz:123575.got - 2010.06.03 13:09:07.
