data_PCOD9208409
_publ_section_title
;
Structure prediction by ZEFSAII (Michael W. Deem and Ramdas Pophale) SiO2 
 PCOD9208409
Probable space group: C 2/M
;
_chemical_formula_sum "Si O2"
_cell_formula_units_Z 40
_cell_length_a 18.670159
_cell_length_b 8.258570
_cell_length_c 26.997043
_cell_angle_alpha 90.000000
_cell_angle_beta 149.776227
_cell_angle_gamma 90.000000
_cell_volume 2095.384545
_symmetry_space_group_name_H-M "C 2/M"
_symmetry_group_IT_number 12
_symmetry_cell_setting 'monoclinic'
loop_
_space_group_symop_operation_xyz
x,y,z
-x,y,-z
-x,-y,-z
x,-y,z
1/2+x,1/2+y,z
1/2-x,1/2+y,-z
1/2-x,1/2-y,-z
1/2+x,1/2-y,z
loop_
_atom_site_type_symbol
_atom_site_label
_atom_site_fract_x
_atom_site_fract_y
_atom_site_fract_z
Si Si1 0.087340 0.806042 0.404492
Si Si2 0.098864 0.194674 0.212301
Si Si3 0.566811 0.697748 0.787235
Si Si4 0.335269 0.806474 0.002029
Si Si5 0.923156 0.695809 0.403780
O O1 0.250000 0.750000 0.500000
O O2 0.002200 0.746149 0.305035
O O3 0.011301 0.747517 0.408710
O O4 0.085266 0.000000 0.402162
O O5 0.259953 0.254022 0.303774
O O6 0.027541 0.249993 0.221642
O O7 0.993960 0.242604 0.104899
O O8 0.101584 0.000000 0.215943
O O9 0.564681 0.500000 0.785946
O O10 0.730702 0.747031 0.895170
O O11 0.341381 0.000000 0.005108
O O12 0.250000 0.750000 0.000000
O O13 0.920018 0.500000 0.403331
O O14 0.000000 0.751706 0.500000
#
# Coordination Sequence:
#
# PCOD9208409 Si02
#       5
#     8   8   8   8   8
#     4  11  22  37  56  78 105 136 175 218 261 311
#     4   9  17  32  54  77 102 134 173 213 255 303
#     4   8  16  32  53  75 101 137 173 206 251 308
#     4   9  16  29  50  75 103 135 172 209 251 303
#     4  10  21  38  57  76 104 141 175 211 262 318
#
# _framework density 19.089573999999999
#
# number of rings (size 3 to 8) (size 9 to 14) (size 15 to 20)
#    0.000    2.600    0.000    3.600    0.000    4.400 
#    0.000   15.000    0.000    6.000    0.000    0.000 
#    0.000    0.000    0.000    0.000    0.000    0.000 
#
# Total GULP energy -111517.690810 kJ/mol
# GULP energy per Si atom -5575.884540 kJ/mol
# Density = 1.904613 g / cm^3
# Si number density = 19.089574 Si / 1000 Ang^3
#
#
#
# Elastic Constant Matrix: (Units=GPa)
#
#
# Indices 1 2 3 4 5 6 
#
# 1 110.1443 10.0264 104.0996 0.0000 -0.4831 0.0000
# 2 10.0264 13.1346 21.0775 0.0000 2.0123 0.0000
# 3 104.0996 21.0775 244.4627 -0.0001 0.0829 0.0000
# 4 0.0000 0.0000 -0.0001 27.7411 0.0000 2.3574
# 5 -0.4831 2.0123 0.0829 0.0000 34.5741 0.0000
# 6 0.0000 0.0000 0.0000 2.3574 0.0000 22.4743
#
#
#
# Elastic Compliance Matrix: (Units=1/GPa)
#
#
# Indices 1 2 3 4 5 6 
#
# 1 0.015220 -0.001469 -0.006355 0.000000 0.000313 0.000000
# 2 -0.001469 0.089419 -0.007082 0.000000 -0.005208 0.000000
# 3 -0.006355 -0.007082 0.007407 0.000000 0.000306 0.000000
# 4 0.000000 0.000000 0.000000 0.036372 0.000000 -0.003815
# 5 0.000313 -0.005208 0.000306 0.000000 0.029230 0.000000
# 6 0.000000 0.000000 0.000000 -0.003815 0.000000 0.044896
#
#
# Mechanical properties :
#
#
# Convention : Reuss Voigt Hill
#
# Bulk Modulus (GPa) = 12.16039 70.90542 41.53290
# Shear Modulus (GPa) = 17.87204 32.46044 25.16624
#
# Velocity S-wave (km/s) = 3.06309 4.12810 3.63481
# Velocity P-wave (km/s) = 4.34673 7.74246 6.27853
#
# Compressibility (1/GPa) = 0.08223424
#
# Stress axis : x y z
#
# Youngs Moduli (GPa) = 65.70343 11.18331 135.00557
#
# Poissons Ratio (x) = 0.01643 0.85790
# Poissons Ratio (y) = 0.09652 0.95616
# Poissons Ratio (z) = 0.41752 0.07920
#
# Static dielectric constant tensor:
#      x y z
#    x 1.631950 0.000000 -0.004260 
#    y 0.000000 1.672490 0.000000 
#    z -0.004260 0.000000 1.703690 
# 
# From -- ./inp_files/211247.got.cif
#   From: 2010.05.17/outbox.cif.g08.bks.cpg/sg12_106_cif.got.tgz:211247.got - 2010.06.03 13:09:07.
