data_PCOD9208573
_publ_section_title
;
Structure prediction by ZEFSAII (Michael W. Deem and Ramdas Pophale) SiO2 
 PCOD9208573
Probable space group: C 2/M
;
_chemical_formula_sum "Si O2"
_cell_formula_units_Z 64
_cell_length_a 30.812227
_cell_length_b 7.929471
_cell_length_c 14.859965
_cell_angle_alpha 90.000000
_cell_angle_beta 130.329993
_cell_angle_gamma 90.000000
_cell_volume 2767.756629
_symmetry_space_group_name_H-M "C 2/M"
_symmetry_group_IT_number 12
_symmetry_cell_setting 'monoclinic'
loop_
_space_group_symop_operation_xyz
x,y,z
-x,y,-z
-x,-y,-z
x,-y,z
1/2+x,1/2+y,z
1/2-x,1/2+y,-z
1/2-x,1/2-y,-z
1/2+x,1/2-y,z
loop_
_atom_site_type_symbol
_atom_site_label
_atom_site_fract_x
_atom_site_fract_y
_atom_site_fract_z
Si Si1 0.787457 0.696316 0.425831
Si Si2 0.955542 0.303193 0.869672
Si Si3 0.305274 0.299354 0.947537
Si Si4 0.334387 0.703896 0.778808
Si Si5 0.314340 0.304723 0.262814
Si Si6 0.014816 0.806510 0.423034
Si Si7 0.907388 0.701066 0.627855
Si Si8 0.103557 0.303750 0.781273
O O1 0.783341 0.500000 0.445401
O O2 0.723666 0.767287 0.347586
O O3 0.802680 0.706653 0.339655
O O4 0.843314 0.773273 0.547135
O O5 0.972070 0.500000 0.881301
O O6 0.891889 0.288080 0.822724
O O7 0.948836 0.228846 0.760753
O O8 0.000000 0.226264 0.000000
O O9 0.297358 0.500000 0.945495
O O10 0.326426 0.262925 0.874447
O O11 0.243525 0.214391 0.872908
O O12 0.351406 0.240136 0.080996
O O13 0.338351 0.500000 0.773174
O O14 0.323232 0.500000 0.297120
O O15 0.365952 0.238890 0.272218
O O16 0.955296 0.795720 0.290074
O O17 0.000000 0.727519 0.500000
O O18 0.064332 0.726912 0.430687
O O19 0.031406 0.000000 0.460616
O O20 0.902366 0.500000 0.635238
O O21 0.089589 0.500000 0.766817
#
# Coordination Sequence:
#
# PCOD9208573 Si02
#       8
#     8   8   8   8   8   8   8   8
#     4   9  19  38  62  87 120 158 203 254 309 371
#     4  10  23  41  61  89 126 163 204 257 309 365
#     4  10  21  38  58  85 121 158 202 253 306 365
#     4   9  20  38  61  89 119 156 199 250 307 365
#     4  11  21  35  56  86 122 159 201 250 309 366
#     4  11  25  43  62  89 123 158 202 258 312 367
#     4  10  22  41  64  90 121 165 210 254 311 373
#     4  12  24  37  57  83 116 160 206 253 307 368
#
# _framework density 23.123418999999998
#
# number of rings (size 3 to 8) (size 9 to 14) (size 15 to 20)
#    0.000    1.750    0.000    4.875    1.750    7.250 
#    0.000    0.000    0.000    0.000    0.000    0.000 
#    0.000    0.000    0.000    0.000    0.000    0.000 
#
# Total GULP energy -178937.745576 kJ/mol
# GULP energy per Si atom -5591.804549 kJ/mol
# Density = 2.307079 g / cm^3
# Si number density = 23.123419 Si / 1000 Ang^3
#
#
#
# Elastic Constant Matrix: (Units=GPa)
#
#
# Indices 1 2 3 4 5 6 
#
# 1 81.0185 -5.7124 33.5607 0.0000 7.6999 0.0000
# 2 -5.7124 40.5300 -4.0052 0.0000 -7.5240 0.0000
# 3 33.5607 -4.0052 135.6771 0.0000 18.8005 0.0000
# 4 0.0000 0.0000 0.0000 11.3685 0.0000 2.4408
# 5 7.6999 -7.5240 18.8005 0.0000 31.3347 0.0000
# 6 0.0000 0.0000 0.0000 2.4408 0.0000 23.3933
#
#
#
# Elastic Compliance Matrix: (Units=1/GPa)
#
#
# Indices 1 2 3 4 5 6 
#
# 1 0.013892 0.001429 -0.003238 0.000000 -0.001128 0.000000
# 2 0.001429 0.025973 -0.000439 0.000000 0.006149 0.000000
# 3 -0.003238 -0.000439 0.008794 0.000000 -0.004586 0.000000
# 4 0.000000 0.000000 0.000000 0.089978 0.000000 -0.009388
# 5 -0.001128 0.006149 -0.004586 0.000000 0.036419 0.000000
# 6 0.000000 0.000000 0.000000 -0.009388 0.000000 0.043727
#
#
# Mechanical properties :
#
#
# Convention : Reuss Voigt Hill
#
# Bulk Modulus (GPa) = 22.64358 33.87910 28.26134
# Shear Modulus (GPa) = 21.00853 28.77812 24.89332
#
# Velocity S-wave (km/s) = 3.01747 3.53164 3.28463
# Velocity P-wave (km/s) = 4.68550 5.59582 5.16077
#
# Compressibility (1/GPa) = 0.04416263
#
# Stress axis : x y z
#
# Youngs Moduli (GPa) = 71.98382 38.50225 113.71581
#
# Poissons Ratio (x) = -0.05500 0.36819
# Poissons Ratio (y) = -0.10284 0.04988
# Poissons Ratio (z) = 0.23307 0.01689
#
# Static dielectric constant tensor:
#      x y z
#    x 1.837700 0.000000 -0.018660 
#    y 0.000000 1.840240 0.000000 
#    z -0.018660 0.000000 1.935200 
# 
# From -- ./inp_files/250033.got.cif
#   From: 2010.05.17/outbox.cif.g08.bks.cpg/sg12_126_cif.got.tgz:250033.got - 2010.06.03 13:09:07.
