data_PCOD9208299
_publ_section_title
;
Structure prediction by ZEFSAII (Michael W. Deem and Ramdas Pophale) SiO2 
 PCOD9208299
Probable space group: C 2/M
;
_chemical_formula_sum "Si O2"
_cell_formula_units_Z 46
_cell_length_a 16.315934
_cell_length_b 17.301660
_cell_length_c 8.174557
_cell_angle_alpha 90.000000
_cell_angle_beta 113.730370
_cell_angle_gamma 90.000000
_cell_volume 2112.507642
_symmetry_space_group_name_H-M "C 2/M"
_symmetry_group_IT_number 12
_symmetry_cell_setting 'monoclinic'
loop_
_space_group_symop_operation_xyz
x,y,z
-x,y,-z
-x,-y,-z
x,-y,z
1/2+x,1/2+y,z
1/2-x,1/2+y,-z
1/2-x,1/2-y,-z
1/2+x,1/2-y,z
loop_
_atom_site_type_symbol
_atom_site_label
_atom_site_fract_x
_atom_site_fract_y
_atom_site_fract_z
Si Si1 0.793944 0.253116 0.791074
Si Si2 0.000000 0.500000 0.000000
Si Si3 0.000000 0.347533 0.500000
Si Si4 0.623737 0.111734 0.317879
Si Si5 0.615553 0.728498 0.798425
Si Si6 0.205381 0.915934 0.349366
Si Si7 0.501832 0.584295 0.305016
O O1 0.855598 0.298950 0.712881
O O2 0.695826 0.290297 0.736479
O O3 0.778723 0.163017 0.737736
O O4 0.841295 0.261351 0.003233
O O5 0.068219 0.567114 0.134439
O O6 0.065800 0.395070 0.436912
O O7 0.055124 0.292107 0.663894
O O8 0.722544 0.082995 0.446038
O O9 0.558606 0.654178 0.802355
O O10 0.103858 0.909717 0.329962
O O11 0.214665 0.000000 0.270806
O O12 0.500000 0.588161 0.500000
O O13 0.467259 0.500000 0.224908
#
# Coordination Sequence:
#
# PCOD9208299 Si02
#       7
#     8   2   4   8   8   8   8
#     4  11  25  44  70 103 144 187 240 301 356 432
#     4  12  28  50  72 104 144 180 246 298 362 422
#     4  12  24  41  73  98 140 186 246 290 357 446
#     4  12  25  46  69 103 138 193 236 298 356 433
#     4  11  23  42  67 105 138 185 243 291 362 429
#     4  11  23  44  71 102 140 182 239 296 368 422
#     4  10  21  37  64  98 133 177 228 290 356 428
#
# _framework density 21.775069999999999
#
# number of rings (size 3 to 8) (size 9 to 14) (size 15 to 20)
#    0.000    0.870    3.478    3.652    0.000    3.130 
#    1.565    1.739    0.000    0.000    0.000    0.000 
#    0.000    0.000    0.000    0.000    0.000    0.000 
#
# Total GULP energy -128234.928059 kJ/mol
# GULP energy per Si atom -5575.431655 kJ/mol
# Density = 2.172551 g / cm^3
# Si number density = 21.775070 Si / 1000 Ang^3
#
#
#
# Elastic Constant Matrix: (Units=GPa)
#
#
# Indices 1 2 3 4 5 6 
#
# 1 97.0019 32.1058 4.8007 0.0000 9.7873 0.0000
# 2 32.1058 113.0694 25.8465 0.0000 16.1125 0.0000
# 3 4.8007 25.8465 58.4054 0.0000 20.8566 0.0000
# 4 0.0000 0.0000 0.0000 63.4361 0.0000 -10.3590
# 5 9.7873 16.1125 20.8566 0.0000 32.8294 0.0000
# 6 0.0000 0.0000 0.0000 -10.3590 0.0000 17.1468
#
#
#
# Elastic Compliance Matrix: (Units=1/GPa)
#
#
# Indices 1 2 3 4 5 6 
#
# 1 0.011588 -0.003228 0.001480 0.000000 -0.002810 0.000000
# 2 -0.003228 0.010923 -0.003877 0.000000 -0.001935 0.000000
# 3 0.001480 -0.003877 0.023533 0.000000 -0.013489 0.000000
# 4 0.000000 0.000000 0.000000 0.017489 0.000000 0.010566
# 5 -0.002810 -0.001935 -0.013489 0.000000 0.040817 0.000000
# 6 0.000000 0.000000 0.000000 0.010566 0.000000 0.064703
#
#
# Mechanical properties :
#
#
# Convention : Reuss Voigt Hill
#
# Bulk Modulus (GPa) = 28.74243 43.77587 36.25915
# Shear Modulus (GPa) = 26.05497 36.39738 31.22617
#
# Velocity S-wave (km/s) = 3.46287 4.09285 3.79097
# Velocity P-wave (km/s) = 5.40527 6.51787 5.98747
#
# Compressibility (1/GPa) = 0.03479178
#
# Stress axis : x y z
#
# Youngs Moduli (GPa) = 86.29726 91.55138 42.49404
#
# Poissons Ratio (x) = 0.29554 -0.06288
# Poissons Ratio (y) = 0.27858 0.16476
# Poissons Ratio (z) = -0.12769 0.35498
#
# Static dielectric constant tensor:
#      x y z
#    x 1.840540 0.000000 0.012540 
#    y 0.000000 1.809850 0.000000 
#    z 0.012540 0.000000 1.787690 
# 
# From -- ./inp_files/75478.got.cif
#   From: 2010.05.17/outbox.cif.g08.bks.cpg/sg12_38_cif.got.tgz:75478.got - 2010.06.03 13:09:07.
