data_PCOD9208126
_publ_section_title
;
Structure prediction by ZEFSAII (Michael W. Deem and Ramdas Pophale) SiO2 
 PCOD9208126
Probable space group: C 2/M
;
_chemical_formula_sum "Si O2"
_cell_formula_units_Z 40
_cell_length_a 32.134497
_cell_length_b 14.443212
_cell_length_c 14.430772
_cell_angle_alpha 90.000000
_cell_angle_beta 18.129209
_cell_angle_gamma 90.000000
_cell_volume 2084.058733
_symmetry_space_group_name_H-M "C 2/M"
_symmetry_group_IT_number 12
_symmetry_cell_setting 'monoclinic'
loop_
_space_group_symop_operation_xyz
x,y,z
-x,y,-z
-x,-y,-z
x,-y,z
1/2+x,1/2+y,z
1/2-x,1/2+y,-z
1/2-x,1/2-y,-z
1/2+x,1/2-y,z
loop_
_atom_site_type_symbol
_atom_site_label
_atom_site_fract_x
_atom_site_fract_y
_atom_site_fract_z
Si Si1 0.580290 0.000000 0.924700
Si Si2 0.351033 0.658389 0.539542
Si Si3 0.380048 0.364090 0.688318
Si Si4 0.538947 0.163267 0.156812
Si Si5 0.618410 0.500000 0.676129
Si Si6 0.397574 0.860768 0.639689
O O1 0.739466 0.000000 0.572579
O O2 0.500000 0.000000 0.000000
O O3 0.548278 0.908938 0.053354
O O4 0.373173 0.611907 0.594052
O O5 0.452048 0.745343 0.318229
O O6 0.382479 0.587952 0.390446
O O7 0.192030 0.684384 0.866974
O O8 0.500000 0.394840 0.500000
O O9 0.389899 0.251710 0.661198
O O10 0.247624 0.392112 0.023141
O O11 0.457449 0.116634 0.413574
O O12 0.500000 0.500000 0.000000
O O13 0.500000 0.892533 0.500000
#
# Coordination Sequence:
#
# PCOD9208126 Si02
#       6
#     4   8   8   8   4   8
#     4  10  24  46  62  85 116 146 192 253 299 342
#     4  10  21  38  61  88 118 154 195 235 285 346
#     4   9  17  28  50  83 120 155 188 229 274 333
#     4  10  21  37  62  88 118 154 194 235 285 346
#     4  10  24  46  64  82 114 152 192 246 303 348
#     4   9  15  28  50  82 117 153 190 222 276 336
#
# _framework density 19.193318000000001
#
# number of rings (size 3 to 8) (size 9 to 14) (size 15 to 20)
#    0.000    2.400    2.000    0.000    8.400    2.400 
#    0.000    6.000    0.000    0.000    0.000    0.000 
#    0.000    0.000    0.000    0.000    0.000    0.000 
#
# Total GULP energy -111569.246351 kJ/mol
# GULP energy per Si atom -5578.462318 kJ/mol
# Density = 1.914963 g / cm^3
# Si number density = 19.193318 Si / 1000 Ang^3
#
#
#
# Elastic Constant Matrix: (Units=GPa)
#
#
# Indices 1 2 3 4 5 6 
#
# 1 178.1262 44.4684 104.1734 0.0000 -16.1211 0.0000
# 2 44.4684 91.3579 47.7108 0.0001 -7.8043 0.0000
# 3 104.1734 47.7108 199.4486 0.0001 -9.4792 0.0000
# 4 0.0000 0.0001 0.0001 13.9048 0.0000 6.4975
# 5 -16.1211 -7.8043 -9.4792 0.0000 31.8495 0.0000
# 6 0.0000 0.0000 0.0000 6.4975 0.0000 12.5956
#
#
#
# Elastic Compliance Matrix: (Units=1/GPa)
#
#
# Indices 1 2 3 4 5 6 
#
# 1 0.008633 -0.001922 -0.003920 0.000000 0.002732 0.000000
# 2 -0.001922 0.013091 -0.002051 0.000000 0.001625 0.000000
# 3 -0.003920 -0.002051 0.007540 0.000000 -0.000242 0.000000
# 4 0.000000 0.000000 0.000000 0.094760 0.000000 -0.048883
# 5 0.002732 0.001625 -0.000242 0.000000 0.033107 0.000000
# 6 0.000000 0.000000 0.000000 -0.048883 0.000000 0.104609
#
#
# Mechanical properties :
#
#
# Convention : Reuss Voigt Hill
#
# Bulk Modulus (GPa) = 74.18171 95.73755 84.95963
# Shear Modulus (GPa) = 17.72936 29.84199 23.78568
#
# Velocity S-wave (km/s) = 3.04258 3.94739 3.52414
# Velocity P-wave (km/s) = 7.14680 8.41218 7.80518
#
# Compressibility (1/GPa) = 0.01348041
#
# Stress axis : x y z
#
# Youngs Moduli (GPa) = 115.82877 76.38782 132.62411
#
# Poissons Ratio (x) = 0.14681 0.51985
# Poissons Ratio (y) = 0.22261 0.27195
# Poissons Ratio (z) = 0.45401 0.15664
#
# Static dielectric constant tensor:
#      x y z
#    x 1.645450 0.000000 0.001760 
#    y 0.000000 1.707350 0.000000 
#    z 0.001760 0.000000 1.612100 
# 
# From -- ./inp_files/189908.got.cif
#   From: 2010.05.17/outbox.cif.g08.bks.cpg/sg12_95_cif.got.tgz:189908.got - 2010.06.03 13:09:07.
