data_PCOD9208648
_publ_section_title
;
Structure prediction by ZEFSAII (Michael W. Deem and Ramdas Pophale) SiO2 
 PCOD9208648
Probable space group: C 2/M
;
_chemical_formula_sum "Si O2"
_cell_formula_units_Z 48
_cell_length_a 14.552473
_cell_length_b 7.892373
_cell_length_c 16.693574
_cell_angle_alpha 90.000000
_cell_angle_beta 90.968489
_cell_angle_gamma 90.000000
_cell_volume 1917.042249
_symmetry_space_group_name_H-M "C 2/M"
_symmetry_group_IT_number 12
_symmetry_cell_setting 'monoclinic'
loop_
_space_group_symop_operation_xyz
x,y,z
-x,y,-z
-x,-y,-z
x,-y,z
1/2+x,1/2+y,z
1/2-x,1/2+y,-z
1/2-x,1/2-y,-z
1/2+x,1/2-y,z
loop_
_atom_site_type_symbol
_atom_site_label
_atom_site_fract_x
_atom_site_fract_y
_atom_site_fract_z
Si Si1 0.326994 0.692800 0.676665
Si Si2 0.500805 0.756632 0.788073
Si Si3 0.139028 0.802775 0.670155
Si Si4 0.604697 0.294437 0.492118
Si Si5 0.369664 0.302246 0.915123
Si Si6 0.829870 0.807659 0.094205
O O1 0.294244 0.500000 0.666356
O O2 0.415985 0.685404 0.734011
O O3 0.240302 0.794332 0.708544
O O4 0.355208 0.768125 0.590805
O O5 0.565056 0.812713 0.714158
O O6 0.436112 0.811120 0.861612
O O7 0.588037 0.689598 0.840984
O O8 0.150656 0.752494 0.577335
O O9 0.105117 0.000000 0.672440
O O10 0.500000 0.239633 0.500000
O O11 0.605269 0.500000 0.485393
O O12 0.401671 0.500000 0.907640
O O13 0.262435 0.295245 0.888306
O O14 0.369510 0.252873 0.008408
O O15 0.797145 0.000000 0.082011
#
# Coordination Sequence:
#
# PCOD9208648 Si02
#       6
#     8   8   8   8   8   8
#     4  11  22  37  58  83 112 146 186 229 274 324
#     4  12  22  36  60  85 110 147 190 226 268 330
#     4  11  22  37  58  83 112 146 186 229 274 324
#     4   9  17  34  59  82 105 144 191 227 264 322
#     4  10  21  38  59  83 111 144 184 228 274 326
#     4  10  21  38  59  83 111 144 184 228 274 326
#
# _framework density 25.038571000000001
#
# number of rings (size 3 to 8) (size 9 to 14) (size 15 to 20)
#    0.000    1.500    1.667    5.000    0.000    1.333 
#    0.000    3.333    0.000    5.000    0.000    0.000 
#    0.000    0.000    0.000    0.000    0.000    0.000 
#
# Total GULP energy -133664.204556 kJ/mol
# GULP energy per Si atom -5569.341857 kJ/mol
# Density = 2.498158 g / cm^3
# Si number density = 25.038571 Si / 1000 Ang^3
#
#
#
# Elastic Constant Matrix: (Units=GPa)
#
#
# Indices 1 2 3 4 5 6 
#
# 1 156.7705 17.8450 33.3815 0.0000 -4.0526 0.0000
# 2 17.8450 62.4735 9.0802 0.0000 -4.8470 0.0000
# 3 33.3815 9.0802 132.2632 0.0000 3.9669 0.0000
# 4 0.0000 0.0000 0.0000 -29.2280 0.0000 10.3587
# 5 -4.0526 -4.8470 3.9669 0.0000 51.5987 0.0000
# 6 0.0000 0.0000 0.0000 10.3587 0.0000 -13.2155
#
#
#
# Elastic Compliance Matrix: (Units=1/GPa)
#
#
# Indices 1 2 3 4 5 6 
#
# 1 0.006937 -0.001702 -0.001649 0.000000 0.000512 0.000000
# 2 -0.001702 0.016720 -0.000763 0.000000 0.001496 0.000000
# 3 -0.001649 -0.000763 0.008054 0.000000 -0.000820 0.000000
# 4 0.000000 0.000000 0.000000 -0.047374 0.000000 -0.037134
# 5 0.000512 0.001496 -0.000820 0.000000 0.019624 0.000000
# 6 0.000000 0.000000 0.000000 -0.037134 0.000000 -0.104776
#
#
# Mechanical properties :
#
#
# Convention : Reuss Voigt Hill
#
# Bulk Modulus (GPa) = 42.58613 52.45784 47.52198
# Shear Modulus (GPa) = -58.99097 21.24441 -18.87328
#
# Velocity S-wave (km/s) = -4.85913 2.91601 -2.74846
# Velocity P-wave (km/s) = 3.79953 5.68628 2.99143
#
# Compressibility (1/GPa) = 0.02348182
#
# Stress axis : x y z
#
# Youngs Moduli (GPa) = 144.15648 59.80888 124.16281
#
# Poissons Ratio (x) = 0.10180 0.20478
# Poissons Ratio (y) = 0.24536 0.09475
# Poissons Ratio (z) = 0.23776 0.04564
#
# Static dielectric constant tensor:
#      x y z
#    x 1.899340 0.000000 0.006230 
#    y 0.000000 1.968500 0.000000 
#    z 0.006230 0.000000 2.006500 
# 
# From -- ./inp_files/261705.got.cif
#   From: 2010.05.17/outbox.cif.g08.bks.cpg/sg12_131_cif.got.tgz:261705.got - 2010.06.03 13:09:07.
