data_PCOD9208173
_publ_section_title
;
Structure prediction by ZEFSAII (Michael W. Deem and Ramdas Pophale) SiO2 
 PCOD9208173
Probable space group: C 2/M
;
_chemical_formula_sum "Si O2"
_cell_formula_units_Z 44
_cell_length_a 9.773443
_cell_length_b 9.669358
_cell_length_c 22.240965
_cell_angle_alpha 90.000000
_cell_angle_beta 90.885574
_cell_angle_gamma 90.000000
_cell_volume 2101.585067
_symmetry_space_group_name_H-M "C 2/M"
_symmetry_group_IT_number 12
_symmetry_cell_setting 'monoclinic'
loop_
_space_group_symop_operation_xyz
x,y,z
-x,y,-z
-x,-y,-z
x,-y,z
1/2+x,1/2+y,z
1/2-x,1/2+y,-z
1/2-x,1/2-y,-z
1/2+x,1/2-y,z
loop_
_atom_site_type_symbol
_atom_site_label
_atom_site_fract_x
_atom_site_fract_y
_atom_site_fract_z
Si Si1 0.937885 0.336989 0.323161
Si Si2 0.176169 0.163399 0.868910
Si Si3 0.901260 0.281157 0.553404
Si Si4 0.710841 0.836250 0.262876
Si Si5 0.802401 0.000000 0.494929
Si Si6 0.455153 0.164419 0.932462
O O1 0.906428 0.500000 0.323290
O O2 0.013869 0.300326 0.385479
O O3 0.051275 0.306923 0.272677
O O4 0.803173 0.250058 0.309364
O O5 0.238346 0.195084 0.803871
O O6 0.296574 0.191047 0.917744
O O7 0.046829 0.253312 0.885827
O O8 0.143437 0.000000 0.870070
O O9 0.768732 0.378155 0.547811
O O10 0.000000 0.331566 0.500000
O O11 0.865221 0.122704 0.539201
O O12 0.729386 0.000000 0.273830
O O13 0.477547 0.000000 0.925080
O O14 0.500000 0.203415 0.000000
#
# Coordination Sequence:
#
# PCOD9208173 Si02
#       6
#     8   8   8   8   4   8
#     4  11  25  41  63  89 121 154 204 252 301 363
#     4  10  21  39  60  85 124 160 203 249 294 351
#     4  11  24  39  62  87 117 154 193 246 306 365
#     4  10  24  42  60  86 118 162 202 248 300 352
#     4  10  24  40  60  86 120 150 194 236 314 360
#     4  10  21  37  62  94 126 161 199 245 299 353
#
# _framework density 20.936578000000001
#
# number of rings (size 3 to 8) (size 9 to 14) (size 15 to 20)
#    0.000    1.636    0.909    2.182    6.364    4.000 
#    0.000    0.000    0.000    0.000    0.000    0.000 
#    0.000    0.000    0.000    0.000    0.000    0.000 
#
# Total GULP energy -122558.348228 kJ/mol
# GULP energy per Si atom -5570.834010 kJ/mol
# Density = 2.088893 g / cm^3
# Si number density = 20.936578 Si / 1000 Ang^3
#
#
#
# Elastic Constant Matrix: (Units=GPa)
#
#
# Indices 1 2 3 4 5 6 
#
# 1 44.2227 21.8680 -0.4412 0.0000 1.0587 0.0000
# 2 21.8680 62.3615 5.1226 0.0000 -3.1607 0.0000
# 3 -0.4412 5.1226 50.0281 0.0000 1.4024 0.0000
# 4 0.0000 0.0000 0.0000 24.6244 0.0000 -5.9910
# 5 1.0587 -3.1607 1.4024 0.0000 28.3916 0.0000
# 6 0.0000 0.0000 0.0000 -5.9910 0.0000 10.5805
#
#
#
# Elastic Compliance Matrix: (Units=1/GPa)
#
#
# Indices 1 2 3 4 5 6 
#
# 1 0.027567 -0.009886 0.001317 0.000000 -0.002194 0.000000
# 2 -0.009886 0.019818 -0.002192 0.000000 0.002683 0.000000
# 3 0.001317 -0.002192 0.020261 0.000000 -0.001294 0.000000
# 4 0.000000 0.000000 0.000000 0.047098 0.000000 0.026668
# 5 -0.002194 0.002683 -0.001294 0.000000 0.035666 0.000000
# 6 0.000000 0.000000 0.000000 0.026668 0.000000 0.109614
#
#
# Mechanical properties :
#
#
# Convention : Reuss Voigt Hill
#
# Bulk Modulus (GPa) = 21.68043 23.30124 22.49084
# Shear Modulus (GPa) = 16.83944 21.39015 19.11480
#
# Velocity S-wave (km/s) = 2.83911 3.19982 3.02484
# Velocity P-wave (km/s) = 4.59621 4.98050 4.79221
#
# Compressibility (1/GPa) = 0.04612455
#
# Stress axis : x y z
#
# Youngs Moduli (GPa) = 36.27505 50.45848 49.35573
#
# Poissons Ratio (x) = 0.49884 -0.06500
# Poissons Ratio (y) = 0.35862 0.10817
# Poissons Ratio (z) = -0.04777 0.11059
#
# Static dielectric constant tensor:
#      x y z
#    x 1.777670 0.000000 -0.028890 
#    y 0.000000 1.706020 0.000000 
#    z -0.028890 0.000000 1.760890 
# 
# From -- ./inp_files/303612.got.cif
#   From: 2010.05.17/outbox.cif.g08.bks.cpg/sg12_152_cif.got.tgz:303612.got - 2010.06.03 13:09:07.
