data_PCOD9208247
_publ_section_title
;
Structure prediction by ZEFSAII (Michael W. Deem and Ramdas Pophale) SiO2 
 PCOD9208247
Probable space group: C 2/M
;
_chemical_formula_sum "Si O2"
_cell_formula_units_Z 64
_cell_length_a 18.950231
_cell_length_b 14.981665
_cell_length_c 14.371101
_cell_angle_alpha 90.000000
_cell_angle_beta 137.134233
_cell_angle_gamma 90.000000
_cell_volume 2775.583479
_symmetry_space_group_name_H-M "C 2/M"
_symmetry_group_IT_number 12
_symmetry_cell_setting 'monoclinic'
loop_
_space_group_symop_operation_xyz
x,y,z
-x,y,-z
-x,-y,-z
x,-y,z
1/2+x,1/2+y,z
1/2-x,1/2+y,-z
1/2-x,1/2-y,-z
1/2+x,1/2-y,z
loop_
_atom_site_type_symbol
_atom_site_label
_atom_site_fract_x
_atom_site_fract_y
_atom_site_fract_z
Si Si1 0.116561 0.597117 0.153910
Si Si2 0.803766 0.604705 0.295041
Si Si3 0.031490 0.898101 0.627786
Si Si4 0.745158 0.603812 0.897285
Si Si5 0.601499 0.703577 0.163194
Si Si6 0.135988 0.349891 0.443371
Si Si7 0.093702 0.392454 0.798275
Si Si8 0.145323 0.854837 0.407662
O O1 0.132490 0.500000 0.215727
O O2 0.196490 0.602795 0.145078
O O3 0.124560 0.692802 0.210159
O O4 0.000000 0.594991 0.000000
O O5 0.776621 0.500000 0.257992
O O6 0.699483 0.662617 0.203562
O O7 0.863622 0.616258 0.450115
O O8 0.871262 0.632042 0.271597
O O9 0.131238 0.855623 0.773936
O O10 0.000000 0.853883 0.500000
O O11 0.933577 0.902227 0.600251
O O12 0.064935 0.000000 0.636725
O O13 0.730674 0.500000 0.913236
O O14 0.823367 0.644529 0.047817
O O15 0.596627 0.652822 0.257043
O O16 0.500000 0.697985 0.000000
O O17 0.154129 0.244061 0.459396
O O18 0.238320 0.390520 0.493897
O O19 0.023432 0.366104 0.292822
O O20 0.094161 0.500000 0.804434
#
# Coordination Sequence:
#
# PCOD9208247 Si02
#       8
#     8   8   8   8   8   8   8   8
#     4   9  19  38  63  91 131 170 208 271 339 394
#     4  10  22  41  62  92 133 177 220 269 332 397
#     4  10  23  44  67  91 127 177 227 273 331 401
#     4   9  20  38  61  96 129 162 218 275 330 397
#     4  10  23  39  63 100 134 170 221 276 331 404
#     4  10  22  40  61  89 129 170 222 272 328 393
#     4  10  21  37  63  95 129 169 217 275 332 394
#     4  10  24  42  63  92 131 171 220 279 332 396
#
# _framework density 23.058216000000002
#
# number of rings (size 3 to 8) (size 9 to 14) (size 15 to 20)
#    0.000    2.250    0.000    0.750    5.250    8.750 
#    0.000    1.875    0.000    0.000    0.000    0.000 
#    0.000    0.000    0.000    0.000    0.000    0.000 
#
# Total GULP energy -178850.355334 kJ/mol
# GULP energy per Si atom -5589.073604 kJ/mol
# Density = 2.300573 g / cm^3
# Si number density = 23.058216 Si / 1000 Ang^3
#
#
#
# Elastic Constant Matrix: (Units=GPa)
#
#
# Indices 1 2 3 4 5 6 
#
# 1 142.0357 20.1930 77.6061 0.0000 14.7918 0.0000
# 2 20.1930 67.3809 21.2596 0.0000 4.7879 0.0000
# 3 77.6061 21.2596 173.8571 0.0000 16.7955 0.0000
# 4 0.0000 0.0000 0.0000 50.7990 0.0000 33.3995
# 5 14.7918 4.7879 16.7955 0.0000 27.3319 0.0000
# 6 0.0000 0.0000 0.0000 33.3995 0.0000 49.4536
#
#
#
# Elastic Compliance Matrix: (Units=1/GPa)
#
#
# Indices 1 2 3 4 5 6 
#
# 1 0.009634 -0.001483 -0.003870 0.000000 -0.002576 0.000000
# 2 -0.001483 0.015734 -0.001141 0.000000 -0.001253 0.000000
# 3 -0.003870 -0.001141 0.007864 0.000000 -0.002538 0.000000
# 4 0.000000 0.000000 0.000000 0.035408 0.000000 -0.023914
# 5 -0.002576 -0.001253 -0.002538 0.000000 0.039760 0.000000
# 6 0.000000 0.000000 0.000000 -0.023914 0.000000 0.036372
#
#
# Mechanical properties :
#
#
# Convention : Reuss Voigt Hill
#
# Bulk Modulus (GPa) = 49.39719 69.04349 59.22034
# Shear Modulus (GPa) = 30.39326 43.13123 36.76224
#
# Velocity S-wave (km/s) = 3.63452 4.32966 3.99723
# Velocity P-wave (km/s) = 6.25158 7.41638 6.85875
#
# Compressibility (1/GPa) = 0.02024406
#
# Stress axis : x y z
#
# Youngs Moduli (GPa) = 103.79605 63.55478 127.15838
#
# Poissons Ratio (x) = 0.09426 0.49215
# Poissons Ratio (y) = 0.15394 0.14509
# Poissons Ratio (z) = 0.40173 0.07252
#
# Static dielectric constant tensor:
#      x y z
#    x 1.825390 0.000000 -0.015870 
#    y 0.000000 1.893220 0.000000 
#    z -0.015870 0.000000 1.903050 
# 
# From -- ./inp_files/226860.got.cif
#   From: 2010.05.17/outbox.cif.g08.bks.cpg/sg12_114_cif.got.tgz:226860.got - 2010.06.03 13:09:07.
