data_PCOD9208134
_publ_section_title
;
Structure prediction by ZEFSAII (Michael W. Deem and Ramdas Pophale) SiO2 
 PCOD9208134
Probable space group: C 2/M
;
_chemical_formula_sum "Si O2"
_cell_formula_units_Z 58
_cell_length_a 17.940209
_cell_length_b 7.473795
_cell_length_c 20.749830
_cell_angle_alpha 90.000000
_cell_angle_beta 61.448349
_cell_angle_gamma 90.000000
_cell_volume 2443.818384
_symmetry_space_group_name_H-M "C 2/M"
_symmetry_group_IT_number 12
_symmetry_cell_setting 'monoclinic'
loop_
_space_group_symop_operation_xyz
x,y,z
-x,y,-z
-x,-y,-z
x,-y,z
1/2+x,1/2+y,z
1/2-x,1/2+y,-z
1/2-x,1/2-y,-z
1/2+x,1/2-y,z
loop_
_atom_site_type_symbol
_atom_site_label
_atom_site_fract_x
_atom_site_fract_y
_atom_site_fract_z
Si Si1 0.766356 0.284187 0.117930
Si Si2 0.570764 0.210142 0.168130
Si Si3 0.392863 0.282735 0.595411
Si Si4 0.569624 0.781094 0.023987
Si Si5 0.409489 0.704965 0.309521
Si Si6 0.272018 0.790024 0.258913
Si Si7 0.651482 0.287267 0.530407
Si Si8 0.000000 0.500000 0.500000
O O1 0.771448 0.500000 0.114898
O O2 0.669837 0.235989 0.141767
O O3 0.837319 0.222195 0.038141
O O4 0.788879 0.217615 0.180613
O O5 0.506645 0.287938 0.247007
O O6 0.552344 0.000000 0.175588
O O7 0.551990 0.280202 0.103885
O O8 0.406897 0.500000 0.593316
O O9 0.317110 0.227737 0.674209
O O10 0.363037 0.221944 0.536207
O O11 0.474863 0.159422 0.564387
O O12 0.568653 0.000000 0.026026
O O13 0.500000 0.727030 0.000000
O O14 0.382900 0.500000 0.326494
O O15 0.348655 0.774513 0.277759
O O16 0.392565 0.785926 0.386728
O O17 0.258358 0.000000 0.255564
O O18 0.633452 0.500000 0.533575
O O19 0.750000 0.250000 0.500000
#
# Coordination Sequence:
#
# PCOD9208134 Si02
#       8
#     8   8   8   8   8   8   8   2
#     4  10  21  39  63  89 124 167 204 248 313 374
#     4  11  23  39  59  90 126 162 204 252 308 369
#     4  10  23  43  63  92 127 166 217 271 318 392
#     4   9  18  36  64  92 120 157 205 252 302 374
#     4  11  23  38  62  91 122 160 208 260 314 377
#     4  10  21  39  64  90 120 161 207 261 316 369
#     4  10  21  37  62  89 120 155 205 264 321 375
#     4  12  26  40  64  90 124 172 216 254 334 394
#
# _framework density 23.733349
#
# number of rings (size 3 to 8) (size 9 to 14) (size 15 to 20)
#    0.000    1.793    1.379    2.276    1.931    4.414 
#    2.483    4.828    0.000    2.897    0.000    0.000 
#    0.000    0.000    0.000    0.000    0.000    0.000 
#
# Total GULP energy -161760.377153 kJ/mol
# GULP energy per Si atom -5577.944040 kJ/mol
# Density = 2.367933 g / cm^3
# Si number density = 23.733349 Si / 1000 Ang^3
#
#
#
# Elastic Constant Matrix: (Units=GPa)
#
#
# Indices 1 2 3 4 5 6 
#
# 1 53.2006 -16.9259 12.9344 -0.0002 4.2192 0.0004
# 2 -16.9259 75.3959 3.8260 -0.0004 0.4942 0.0008
# 3 12.9344 3.8260 141.9025 0.0000 -2.5460 -0.0002
# 4 -0.0002 -0.0004 0.0000 5.0564 -0.0001 -5.2793
# 5 4.2192 0.4942 -2.5460 -0.0001 46.6441 -0.0003
# 6 0.0004 0.0008 -0.0002 -5.2793 -0.0003 7.8969
#
#
#
# Elastic Compliance Matrix: (Units=1/GPa)
#
#
# Indices 1 2 3 4 5 6 
#
# 1 0.021005 0.004835 -0.002082 -0.000002 -0.002065 -0.000003
# 2 0.004835 0.014395 -0.000840 -0.000002 -0.000636 -0.000003
# 3 -0.002082 -0.000840 0.007270 0.000001 0.000594 0.000001
# 4 -0.000002 -0.000002 0.000001 0.654889 0.000004 0.437814
# 5 -0.002065 -0.000636 0.000594 0.000004 0.021665 0.000003
# 6 -0.000003 -0.000003 0.000001 0.437814 0.000003 0.419324
#
#
# Mechanical properties :
#
#
# Convention : Reuss Voigt Hill
#
# Bulk Modulus (GPa) = 21.50749 30.01867 25.76308
# Shear Modulus (GPa) = 4.34699 29.96378 17.15538
#
# Velocity S-wave (km/s) = 1.35483 3.55705 2.69148
# Velocity P-wave (km/s) = 3.39547 5.43561 4.53184
#
# Compressibility (1/GPa) = 0.04649543
#
# Stress axis : x y z
#
# Youngs Moduli (GPa) = 47.60795 69.46628 137.54817
#
# Poissons Ratio (x) = -0.33585 0.28638
# Poissons Ratio (y) = -0.23017 0.11557
# Poissons Ratio (z) = 0.09912 0.05837
#
# Static dielectric constant tensor:
#      x y z
#    x 2.029870 0.000000 -0.004120 
#    y 0.000000 2.006470 0.000000 
#    z -0.004120 0.000000 1.911810 
# 
# From -- ./inp_files/314754.got.cif
#   From: 2010.05.17/outbox.cif.g08.bks.cpg/sg12_158_cif.got.tgz:314754.got - 2010.06.03 13:09:07.
