data_PCOD9208215
_publ_section_title
;
Structure prediction by ZEFSAII (Michael W. Deem and Ramdas Pophale) SiO2 
 PCOD9208215
Probable space group: C 2/M
;
_chemical_formula_sum "Si O2"
_cell_formula_units_Z 40
_cell_length_a 8.290130
_cell_length_b 27.794269
_cell_length_c 12.083797
_cell_angle_alpha 90.000000
_cell_angle_beta 139.661578
_cell_angle_gamma 90.000000
_cell_volume 1802.296936
_symmetry_space_group_name_H-M "C 2/M"
_symmetry_group_IT_number 12
_symmetry_cell_setting 'monoclinic'
loop_
_space_group_symop_operation_xyz
x,y,z
-x,y,-z
-x,-y,-z
x,-y,z
1/2+x,1/2+y,z
1/2-x,1/2+y,-z
1/2-x,1/2-y,-z
1/2+x,1/2-y,z
loop_
_atom_site_type_symbol
_atom_site_label
_atom_site_fract_x
_atom_site_fract_y
_atom_site_fract_z
Si Si1 0.734364 0.218580 0.379328
Si Si2 0.226269 0.194953 0.202945
Si Si3 0.131423 0.443708 0.408250
Si Si4 0.144544 0.096085 0.268792
Si Si5 0.614743 0.942919 0.939635
O O1 0.750000 0.250000 0.500000
O O2 0.481626 0.189897 0.267108
O O3 0.711281 0.255781 0.265057
O O4 0.000000 0.192906 0.500000
O O5 0.208982 0.151170 0.279226
O O6 0.000000 0.192901 0.000000
O O7 0.197834 0.500000 0.445011
O O8 0.328156 0.416059 0.587470
O O9 0.859924 0.435450 0.322686
O O10 0.080815 0.427872 0.256636
O O11 0.878766 0.083719 0.077641
O O12 0.662231 0.000000 0.947126
O O13 0.500000 0.936304 0.000000
#
# Coordination Sequence:
#
# PCOD9208215 Si02
#       5
#     8   8   8   8   8
#     4   9  21  40  64  92 123 165 208 260 330 390
#     4  11  22  40  67  94 127 166 211 270 325 389
#     4  10  21  37  63  91 125 172 215 258 314 379
#     4  11  22  37  63  94 128 166 218 264 311 382
#     4  10  21  39  62  93 133 171 212 265 323 380
#
# _framework density 22.193902999999999
#
# number of rings (size 3 to 8) (size 9 to 14) (size 15 to 20)
#    0.000    1.800    0.000    4.800    8.400    2.400 
#    0.000   12.000    0.000    0.000    0.000    0.000 
#    0.000    0.000    0.000    0.000    0.000    0.000 
#
# Total GULP energy -111819.852959 kJ/mol
# GULP energy per Si atom -5590.992648 kJ/mol
# Density = 2.214339 g / cm^3
# Si number density = 22.193903 Si / 1000 Ang^3
#
#
#
# Elastic Constant Matrix: (Units=GPa)
#
#
# Indices 1 2 3 4 5 6 
#
# 1 63.6528 23.2009 45.8166 0.0000 5.8130 0.0000
# 2 23.2009 67.6673 38.4867 0.0000 -4.4262 0.0000
# 3 45.8166 38.4867 152.1488 0.0000 -20.7206 0.0000
# 4 0.0000 0.0000 0.0000 -24.0987 0.0000 -1.9903
# 5 5.8130 -4.4262 -20.7206 0.0000 40.6734 0.0000
# 6 0.0000 0.0000 0.0000 -1.9903 0.0000 -10.8571
#
#
#
# Elastic Compliance Matrix: (Units=1/GPa)
#
#
# Indices 1 2 3 4 5 6 
#
# 1 0.022835 -0.004476 -0.006721 0.000000 -0.007175 0.000000
# 2 -0.004476 0.018144 -0.003101 0.000000 0.001034 0.000000
# 3 -0.006721 -0.003101 0.010171 0.000000 0.005805 0.000000
# 4 0.000000 0.000000 0.000000 -0.042134 0.000000 0.007724
# 5 -0.007175 0.001034 0.005805 0.000000 0.028681 0.000000
# 6 0.000000 0.000000 0.000000 0.007724 0.000000 -0.093521
#
#
# Mechanical properties :
#
#
# Convention : Reuss Voigt Hill
#
# Bulk Modulus (GPa) = 44.33723 55.38635 49.86179
# Shear Modulus (GPa) = -253.68004 12.87450 -120.40277
#
# Velocity S-wave (km/s) = -10.70279 2.41112 -7.37348
# Velocity P-wave (km/s) = 11.52009 5.72374 7.06935
#
# Compressibility (1/GPa) = 0.02255441
#
# Stress axis : x y z
#
# Youngs Moduli (GPa) = 43.79322 55.11411 98.31512
#
# Poissons Ratio (x) = 0.24668 0.66078
# Poissons Ratio (y) = 0.19601 0.30487
# Poissons Ratio (z) = 0.29434 0.17091
#
# Static dielectric constant tensor:
#      x y z
#    x 1.829390 0.000000 -0.008500 
#    y 0.000000 1.841710 0.000000 
#    z -0.008500 0.000000 1.823060 
# 
# From -- ./inp_files/125485.got.cif
#   From: 2010.05.17/outbox.cif.g08.bks.cpg/sg12_63_cif.got.tgz:125485.got - 2010.06.03 13:09:07.
