data_PCOD9208146
_publ_section_title
;
Structure prediction by ZEFSAII (Michael W. Deem and Ramdas Pophale) SiO2 
 PCOD9208146
Probable space group: C 2/M
;
_chemical_formula_sum "Si O2"
_cell_formula_units_Z 56
_cell_length_a 18.554433
_cell_length_b 25.319497
_cell_length_c 9.305472
_cell_angle_alpha 90.000000
_cell_angle_beta 43.096723
_cell_angle_gamma 90.000000
_cell_volume 2986.822222
_symmetry_space_group_name_H-M "C 2/M"
_symmetry_group_IT_number 12
_symmetry_cell_setting 'monoclinic'
loop_
_space_group_symop_operation_xyz
x,y,z
-x,y,-z
-x,-y,-z
x,-y,z
1/2+x,1/2+y,z
1/2-x,1/2+y,-z
1/2-x,1/2-y,-z
1/2+x,1/2-y,z
loop_
_atom_site_type_symbol
_atom_site_label
_atom_site_fract_x
_atom_site_fract_y
_atom_site_fract_z
Si Si1 0.606021 0.439404 0.587906
Si Si2 0.393221 0.714959 0.064904
Si Si3 0.743281 0.906886 0.890907
Si Si4 0.753026 0.879131 0.393416
Si Si5 0.375615 0.166907 0.152072
Si Si6 0.558334 0.349371 0.269927
Si Si7 0.880296 0.560624 0.653887
O O1 0.569028 0.500000 0.655050
O O2 0.686183 0.436129 0.334025
O O3 0.669528 0.419921 0.636103
O O4 0.512701 0.396872 0.694989
O O5 0.319403 0.667975 0.226572
O O6 0.345698 0.772946 0.155889
O O7 0.500000 0.713524 0.000000
O O8 0.426863 0.699744 0.855768
O O9 0.661783 0.870840 0.921612
O O10 0.828568 0.872143 0.852144
O O11 0.680090 0.937838 0.105323
O O12 0.682617 0.853148 0.620690
O O13 0.683677 0.907022 0.372463
O O14 0.500000 0.164470 0.000000
O O15 0.500000 0.333388 0.500000
O O16 0.887432 0.500000 0.594019
O O17 0.000000 0.580746 0.500000
#
# Coordination Sequence:
#
# PCOD9208146 Si02
#       7
#     8   8   8   8   8   8   8
#     4  10  21  37  62  91 121 160 198 236 296 363
#     4  11  21  40  61  88 118 158 195 246 303 350
#     4  10  21  39  59  84 121 157 197 247 291 356
#     4  11  21  40  61  86 121 154 200 248 289 359
#     4  10  23  40  62  84 114 159 207 246 293 345
#     4  10  21  38  58  87 125 154 190 248 291 365
#     4  11  23  38  59  86 120 155 197 249 302 344
#
# _framework density 18.749023999999999
#
# number of rings (size 3 to 8) (size 9 to 14) (size 15 to 20)
#    0.000    1.571    2.857    2.143    0.000    3.714 
#    0.000    1.429    0.000    6.857    0.000    0.000 
#    0.000    0.000    0.000    0.000    0.000    0.000 
#
# Total GULP energy -156316.391204 kJ/mol
# GULP energy per Si atom -5582.728257 kJ/mol
# Density = 1.870635 g / cm^3
# Si number density = 18.749024 Si / 1000 Ang^3
#
#
#
# Elastic Constant Matrix: (Units=GPa)
#
#
# Indices 1 2 3 4 5 6 
#
# 1 112.3273 41.4880 24.5979 0.0000 9.7214 0.0000
# 2 41.4880 90.8055 18.9250 0.0000 18.2649 0.0000
# 3 24.5979 18.9250 60.6003 0.0000 10.2513 0.0000
# 4 0.0000 0.0000 0.0000 8.6620 0.0000 -5.5933
# 5 9.7214 18.2649 10.2513 0.0000 25.5295 0.0000
# 6 0.0000 0.0000 0.0000 -5.5933 0.0000 18.3638
#
#
#
# Elastic Compliance Matrix: (Units=1/GPa)
#
#
# Indices 1 2 3 4 5 6 
#
# 1 0.011252 -0.004522 -0.003195 0.000000 0.000233 0.000000
# 2 -0.004522 0.015087 -0.001439 0.000000 -0.008494 0.000000
# 3 -0.003195 -0.001439 0.019170 0.000000 -0.005452 0.000000
# 4 0.000000 0.000000 0.000000 0.143712 0.000000 0.043772
# 5 0.000233 -0.008494 -0.005452 0.000000 0.047348 0.000000
# 6 0.000000 0.000000 0.000000 0.043772 0.000000 0.067787
#
#
# Mechanical properties :
#
#
# Convention : Reuss Voigt Hill
#
# Bulk Modulus (GPa) = 36.76811 48.19499 42.48155
# Shear Modulus (GPa) = 15.07237 22.42587 18.74912
#
# Velocity S-wave (km/s) = 2.83839 3.46223 3.16572
# Velocity P-wave (km/s) = 5.51318 6.46095 6.00579
#
# Compressibility (1/GPa) = 0.02719749
#
# Stress axis : x y z
#
# Youngs Moduli (GPa) = 88.87177 66.28160 52.16519
#
# Poissons Ratio (x) = 0.29973 0.16664
# Poissons Ratio (y) = 0.40189 0.07507
# Poissons Ratio (z) = 0.28391 0.09539
#
# Static dielectric constant tensor:
#      x y z
#    x 1.627090 0.000000 0.003620 
#    y 0.000000 1.632410 0.000000 
#    z 0.003620 0.000000 1.680680 
# 
# From -- ./inp_files/79066.got.cif
#   From: 2010.05.17/outbox.cif.g08.bks.cpg/sg12_40_cif.got.tgz:79066.got - 2010.06.03 13:09:07.
