data_PCOD9208643
_publ_section_title
;
Structure prediction by ZEFSAII (Michael W. Deem and Ramdas Pophale) SiO2 
 PCOD9208643
Probable space group: C 2/M
;
_chemical_formula_sum "Si O2"
_cell_formula_units_Z 48
_cell_length_a 21.224665
_cell_length_b 15.577573
_cell_length_c 13.140342
_cell_angle_alpha 90.000000
_cell_angle_beta 144.263321
_cell_angle_gamma 90.000000
_cell_volume 2537.496711
_symmetry_space_group_name_H-M "C 2/M"
_symmetry_group_IT_number 12
_symmetry_cell_setting 'monoclinic'
loop_
_space_group_symop_operation_xyz
x,y,z
-x,y,-z
-x,-y,-z
x,-y,z
1/2+x,1/2+y,z
1/2-x,1/2+y,-z
1/2-x,1/2-y,-z
1/2+x,1/2-y,z
loop_
_atom_site_type_symbol
_atom_site_label
_atom_site_fract_x
_atom_site_fract_y
_atom_site_fract_z
Si Si1 0.118644 0.397197 0.122846
Si Si2 0.005847 0.744055 0.389543
Si Si3 0.192235 0.812082 0.502788
Si Si4 0.006219 0.897808 0.123118
Si Si5 0.628786 0.899102 0.899301
Si Si6 0.132646 0.899656 0.873524
O O1 0.115652 0.500000 0.126303
O O2 0.214569 0.365562 0.320054
O O3 0.140723 0.376267 0.033882
O O4 0.000000 0.364339 0.000000
O O5 0.955134 0.666014 0.259793
O O6 0.936384 0.830962 0.280050
O O7 0.000000 0.722995 0.500000
O O8 0.123733 0.763587 0.499688
O O9 0.250000 0.750000 0.500000
O O10 0.104440 0.863300 0.320171
O O11 0.899112 0.882282 0.050499
O O12 0.019954 0.000000 0.133215
O O13 0.000000 0.862591 0.000000
O O14 0.597080 0.000000 0.851285
O O15 0.742755 0.889224 0.991222
O O16 0.103679 0.000000 0.814215
#
# Coordination Sequence:
#
# PCOD9208643 Si02
#       6
#     8   8   8   8   8   8
#     4  10  21  39  61  82 109 149 196 245 292 339
#     4  11  23  37  56  84 116 148 187 237 291 346
#     4  11  23  36  55  85 115 148 189 233 285 342
#     4   9  19  36  57  82 113 148 185 228 279 335
#     4  10  21  38  59  82 112 152 194 236 285 339
#     4   9  19  36  58  83 111 147 189 231 280 340
#
# _framework density 18.91628
#
# number of rings (size 3 to 8) (size 9 to 14) (size 15 to 20)
#    0.000    2.000    0.000    3.000    0.000    6.000 
#    0.000    0.833    0.000    0.000    0.000    0.000 
#    0.000    0.000    0.000    0.000    0.000    0.000 
#
# Total GULP energy -133960.488801 kJ/mol
# GULP energy per Si atom -5581.687033 kJ/mol
# Density = 1.887323 g / cm^3
# Si number density = 18.916280 Si / 1000 Ang^3
#
#
#
# Elastic Constant Matrix: (Units=GPa)
#
#
# Indices 1 2 3 4 5 6 
#
# 1 149.9582 32.1162 74.0755 0.0000 -6.0390 0.0000
# 2 32.1162 35.4362 31.5610 0.0000 -3.7723 0.0000
# 3 74.0755 31.5610 115.0150 0.0000 -16.2413 0.0000
# 4 0.0000 0.0000 0.0000 31.8400 0.0000 -5.9931
# 5 -6.0390 -3.7723 -16.2413 0.0000 36.4640 0.0000
# 6 0.0000 0.0000 0.0000 -5.9931 0.0000 3.9207
#
#
#
# Elastic Compliance Matrix: (Units=1/GPa)
#
#
# Indices 1 2 3 4 5 6 
#
# 1 0.010356 -0.004528 -0.005604 0.000000 -0.001249 0.000000
# 2 -0.004528 0.039346 -0.007909 0.000000 -0.000202 0.000000
# 3 -0.005604 -0.007909 0.015182 0.000000 0.005016 0.000000
# 4 0.000000 0.000000 0.000000 0.044094 0.000000 0.067401
# 5 -0.001249 -0.000202 0.005016 0.000000 0.029431 0.000000
# 6 0.000000 0.000000 0.000000 0.067401 0.000000 0.358083
#
#
# Mechanical properties :
#
#
# Convention : Reuss Voigt Hill
#
# Bulk Modulus (GPa) = 34.71886 63.99053 49.35470
# Shear Modulus (GPa) = 9.22211 25.28872 17.25542
#
# Velocity S-wave (km/s) = 2.21039 3.66030 3.02354
# Velocity P-wave (km/s) = 4.99081 7.19482 6.19167
#
# Compressibility (1/GPa) = 0.02880279
#
# Stress axis : x y z
#
# Youngs Moduli (GPa) = 96.56199 25.41538 65.86616
#
# Poissons Ratio (x) = 0.11508 0.36910
# Poissons Ratio (y) = 0.43722 0.52096
# Poissons Ratio (z) = 0.54111 0.20102
#
# Static dielectric constant tensor:
#      x y z
#    x 1.664350 0.000000 -0.002980 
#    y 0.000000 1.653410 0.000000 
#    z -0.002980 0.000000 1.614750 
# 
# From -- ./inp_files/167637.got.cif
#   From: 2010.05.17/outbox.cif.g08.bks.cpg/sg12_84_cif.got.tgz:167637.got - 2010.06.03 13:09:07.
