data_PCOD9208969
_publ_section_title
;
Structure prediction by ZEFSAII (Michael W. Deem and Ramdas Pophale) SiO2 
 PCOD9208969
Probable space group: C 2/M
;
_chemical_formula_sum "Si O2"
_cell_formula_units_Z 48
_cell_length_a 24.554066
_cell_length_b 7.444600
_cell_length_c 11.252574
_cell_angle_alpha 90.000000
_cell_angle_beta 81.290368
_cell_angle_gamma 90.000000
_cell_volume 2033.197065
_symmetry_space_group_name_H-M "C 2/M"
_symmetry_group_IT_number 12
_symmetry_cell_setting 'monoclinic'
loop_
_space_group_symop_operation_xyz
x,y,z
-x,y,-z
-x,-y,-z
x,-y,z
1/2+x,1/2+y,z
1/2-x,1/2+y,-z
1/2-x,1/2-y,-z
1/2+x,1/2-y,z
loop_
_atom_site_type_symbol
_atom_site_label
_atom_site_fract_x
_atom_site_fract_y
_atom_site_fract_z
Si Si1 0.872861 0.296946 0.713592
Si Si2 0.343855 0.718645 0.226166
Si Si3 0.505343 0.297619 0.365261
Si Si4 0.766145 0.714222 0.861375
Si Si5 0.037945 0.780321 0.876394
Si Si6 0.315053 0.286787 0.492641
O O1 0.886908 0.500000 0.746566
O O2 0.929665 0.195946 0.681186
O O3 0.826717 0.213835 0.814027
O O4 0.841239 0.301663 0.598594
O O5 0.342273 0.500000 0.222804
O O6 0.284811 0.783744 0.199226
O O7 0.397797 0.772898 0.135278
O O8 0.346540 0.770374 0.363075
O O9 0.500000 0.214624 0.500000
O O10 0.481441 0.500000 0.384237
O O11 0.480559 0.221209 0.250466
O O12 0.769923 0.500000 0.837950
O O13 0.750000 0.750000 0.000000
O O14 0.035023 0.000000 0.876522
O O15 0.000000 0.721477 0.000000
O O16 0.321788 0.500000 0.504239
O O17 0.250000 0.250000 0.500000
#
# Coordination Sequence:
#
# PCOD9208969 Si02
#       6
#     8   8   8   8   8   8
#     4  11  23  39  58  86 120 154 195 243 294 354
#     4   9  18  35  56  80 115 148 180 237 293 340
#     4  10  21  38  60  88 117 152 199 247 297 356
#     4  10  22  38  56  82 116 152 194 241 294 351
#     4   9  18  32  55  85 111 142 191 242 288 343
#     4  11  20  35  58  85 118 152 188 236 295 353
#
# _framework density 23.608141
#
# number of rings (size 3 to 8) (size 9 to 14) (size 15 to 20)
#    0.000    2.000    1.667    2.000    2.333    4.333 
#    0.000    0.000    0.000    1.500    0.000    0.000 
#    0.000    0.000    0.000    0.000    0.000    0.000 
#
# Total GULP energy -134086.147817 kJ/mol
# GULP energy per Si atom -5586.922826 kJ/mol
# Density = 2.355441 g / cm^3
# Si number density = 23.608141 Si / 1000 Ang^3
#
#
#
# Elastic Constant Matrix: (Units=GPa)
#
#
# Indices 1 2 3 4 5 6 
#
# 1 88.4849 -0.9833 20.2032 0.0000 -29.7330 0.0000
# 2 -0.9833 81.2423 2.0416 0.0000 -3.7360 0.0000
# 3 20.2032 2.0416 132.8092 0.0000 -29.0875 0.0000
# 4 0.0000 0.0000 0.0000 8.7579 0.0000 -0.0822
# 5 -29.7330 -3.7360 -29.0875 0.0000 48.6867 0.0000
# 6 0.0000 0.0000 0.0000 -0.0822 0.0000 7.6112
#
#
#
# Elastic Compliance Matrix: (Units=1/GPa)
#
#
# Indices 1 2 3 4 5 6 
#
# 1 0.014256 0.000574 -0.000300 0.000000 0.008571 0.000000
# 2 0.000574 0.012376 0.000008 0.000000 0.001305 0.000000
# 3 -0.000300 0.000008 0.008670 0.000000 0.004997 0.000000
# 4 0.000000 0.000000 0.000000 0.114195 0.000000 0.001234
# 5 0.008571 0.001305 0.004997 0.000000 0.028859 0.000000
# 6 0.000000 0.000000 0.000000 0.001234 0.000000 0.131399
#
#
# Mechanical properties :
#
#
# Convention : Reuss Voigt Hill
#
# Bulk Modulus (GPa) = 27.88161 38.33992 33.11077
# Shear Modulus (GPa) = 15.56925 31.76282 23.66604
#
# Velocity S-wave (km/s) = 2.57083 3.67197 3.16959
# Velocity P-wave (km/s) = 4.54401 5.85263 5.23934
#
# Compressibility (1/GPa) = 0.03586594
#
# Stress axis : x y z
#
# Youngs Moduli (GPa) = 70.14401 80.80402 115.34642
#
# Poissons Ratio (x) = -0.04640 0.03464
# Poissons Ratio (y) = -0.04028 -0.00096
# Poissons Ratio (z) = 0.02107 -0.00067
#
# Static dielectric constant tensor:
#      x y z
#    x 1.756280 0.000000 0.082310 
#    y 0.000000 1.891790 0.000000 
#    z 0.082310 0.000000 1.852140 
# 
# From -- ./inp_files/172207.got.cif
#   From: 2010.05.17/outbox.cif.g08.bks.cpg/sg12_87_cif.got.tgz:172207.got - 2010.06.03 13:09:07.
