data_PCOD9208570
_publ_section_title
;
Structure prediction by ZEFSAII (Michael W. Deem and Ramdas Pophale) SiO2 
 PCOD9208570
Probable space group: C 2/M
;
_chemical_formula_sum "Si O2"
_cell_formula_units_Z 58
_cell_length_a 17.637268
_cell_length_b 11.286503
_cell_length_c 15.300331
_cell_angle_alpha 90.000000
_cell_angle_beta 106.898288
_cell_angle_gamma 90.000000
_cell_volume 2914.223236
_symmetry_space_group_name_H-M "C 2/M"
_symmetry_group_IT_number 12
_symmetry_cell_setting 'monoclinic'
loop_
_space_group_symop_operation_xyz
x,y,z
-x,y,-z
-x,-y,-z
x,-y,z
1/2+x,1/2+y,z
1/2-x,1/2+y,-z
1/2-x,1/2-y,-z
1/2+x,1/2-y,z
loop_
_atom_site_type_symbol
_atom_site_label
_atom_site_fract_x
_atom_site_fract_y
_atom_site_fract_z
Si Si1 0.210078 0.867742 0.594703
Si Si2 0.670802 0.719955 0.763695
Si Si3 0.181542 0.138016 0.136818
Si Si4 0.515144 0.865573 0.681471
Si Si5 0.612413 0.364960 0.926364
Si Si6 0.359552 0.135720 0.520718
Si Si7 0.000000 0.500000 0.000000
Si Si8 0.958792 0.297513 0.852335
O O1 0.207843 0.856101 0.698217
O O2 0.297073 0.861911 0.580463
O O3 0.164849 0.749858 0.544753
O O4 0.178054 0.000000 0.559858
O O5 0.730867 0.825623 0.806140
O O6 0.586846 0.773284 0.704633
O O7 0.657145 0.651599 0.849756
O O8 0.118522 0.216911 0.167530
O O9 0.167349 0.000000 0.148140
O O10 0.166275 0.161645 0.028665
O O11 0.551621 0.848867 0.414181
O O12 0.472682 0.850470 0.761057
O O13 0.545740 0.000000 0.685247
O O14 0.585317 0.500000 0.926150
O O15 0.536171 0.281790 0.898522
O O16 0.352940 0.000000 0.480885
O O17 0.041717 0.397883 0.075124
#
# Coordination Sequence:
#
# PCOD9208570 Si02
#       8
#     8   8   8   8   8   8   2   8
#     4  10  21  41  64  92 117 148 190 247 301 355
#     4  11  23  37  57  87 122 156 195 237 295 353
#     4  11  22  38  57  85 118 159 202 245 292 343
#     4  10  21  38  58  85 120 158 196 241 288 350
#     4  10  21  39  57  81 116 159 198 241 292 348
#     4   9  20  40  66  88 113 149 194 241 296 353
#     4  12  20  36  58  96 112 154 204 254 296 340
#     4  11  21  37  60  88 116 155 202 250 291 341
#
# _framework density 19.902387999999998
#
# number of rings (size 3 to 8) (size 9 to 14) (size 15 to 20)
#    0.000    1.655    2.069    2.483    0.000    2.759 
#    2.483    8.966    0.000    0.000    0.000    0.000 
#    0.000    0.000    0.000    0.000    0.000    0.000 
#
# Total GULP energy -161626.918472 kJ/mol
# GULP energy per Si atom -5573.342016 kJ/mol
# Density = 1.985709 g / cm^3
# Si number density = 19.902388 Si / 1000 Ang^3
#
#
#
# Elastic Constant Matrix: (Units=GPa)
#
#
# Indices 1 2 3 4 5 6 
#
# 1 52.6351 27.9827 25.9595 0.0000 7.5480 0.0000
# 2 27.9827 104.8441 21.0154 0.0000 6.5329 0.0000
# 3 25.9595 21.0154 40.9403 0.0000 -8.5526 0.0000
# 4 0.0000 0.0000 0.0000 17.7827 0.0000 18.7232
# 5 7.5480 6.5329 -8.5526 0.0000 26.8052 0.0000
# 6 0.0000 0.0000 0.0000 18.7232 0.0000 -30.0518
#
#
#
# Elastic Compliance Matrix: (Units=1/GPa)
#
#
# Indices 1 2 3 4 5 6 
#
# 1 0.035034 -0.003529 -0.023876 0.000000 -0.016623 0.000000
# 2 -0.003529 0.011555 -0.004366 0.000000 -0.003215 0.000000
# 3 -0.023876 -0.004366 0.046534 0.000000 0.022635 0.000000
# 4 0.000000 0.000000 0.000000 0.033958 0.000000 0.021157
# 5 -0.016623 -0.003215 0.022635 0.000000 0.049993 0.000000
# 6 0.000000 0.000000 0.000000 0.021157 0.000000 -0.020094
#
#
# Mechanical properties :
#
#
# Convention : Reuss Voigt Hill
#
# Bulk Modulus (GPa) = 33.80283 38.70383 36.25333
# Shear Modulus (GPa) = 21.70309 11.13800 16.42055
#
# Velocity S-wave (km/s) = 3.30582 2.36822 2.87549
# Velocity P-wave (km/s) = 5.62071 5.19298 5.41107
#
# Compressibility (1/GPa) = 0.02958332
#
# Stress axis : x y z
#
# Youngs Moduli (GPa) = 28.54367 86.54063 21.48949
#
# Poissons Ratio (x) = 0.30540 0.51307
# Poissons Ratio (y) = 0.10073 0.09381
# Poissons Ratio (z) = 0.68150 0.37780
#
# Static dielectric constant tensor:
#      x y z
#    x 1.678200 0.000000 -0.019980 
#    y 0.000000 1.684690 0.000000 
#    z -0.019980 0.000000 1.711600 
# 
# From -- ./inp_files/223261.got.cif
#   From: 2010.05.17/outbox.cif.g08.bks.cpg/sg12_112_cif.got.tgz:223261.got - 2010.06.03 13:09:07.
