data_PCOD9208531
_publ_section_title
;
Structure prediction by ZEFSAII (Michael W. Deem and Ramdas Pophale) SiO2 
 PCOD9208531
Probable space group: C 2/M
;
_chemical_formula_sum "Si O2"
_cell_formula_units_Z 40
_cell_length_a 24.526737
_cell_length_b 7.730899
_cell_length_c 15.781745
_cell_angle_alpha 90.000000
_cell_angle_beta 148.856166
_cell_angle_gamma 90.000000
_cell_volume 1547.652508
_symmetry_space_group_name_H-M "C 2/M"
_symmetry_group_IT_number 12
_symmetry_cell_setting 'monoclinic'
loop_
_space_group_symop_operation_xyz
x,y,z
-x,y,-z
-x,-y,-z
x,-y,z
1/2+x,1/2+y,z
1/2-x,1/2+y,-z
1/2-x,1/2-y,-z
1/2+x,1/2-y,z
loop_
_atom_site_type_symbol
_atom_site_label
_atom_site_fract_x
_atom_site_fract_y
_atom_site_fract_z
Si Si1 0.128421 0.696236 0.829444
Si Si2 0.638417 0.708812 0.109971
Si Si3 0.589832 0.300488 0.411211
Si Si4 0.149461 0.799227 0.671888
Si Si5 0.604293 0.710526 0.249010
O O1 0.117017 0.500000 0.841172
O O2 0.107012 0.714397 0.700195
O O3 0.038181 0.799725 0.758804
O O4 0.250000 0.750000 0.000000
O O5 0.646057 0.500000 0.116669
O O6 0.723895 0.786975 0.161429
O O7 0.659727 0.766330 0.235820
O O8 0.518836 0.754544 0.929060
O O9 0.624327 0.500000 0.460260
O O10 0.619248 0.219227 0.540679
O O11 0.632509 0.222918 0.380062
O O12 0.117624 0.000000 0.631851
O O13 0.610210 0.500000 0.259115
#
# Coordination Sequence:
#
# PCOD9208531 Si02
#       5
#     8   8   8   8   8
#     4  12  25  41  62  85 110 143 186 234 284 340
#     4   9  17  33  58  83 109 147 196 240 279 331
#     4  10  21  38  58  82 117 155 189 230 281 335
#     4  11  23  37  55  83 118 153 189 232 282 332
#     4   8  16  33  57  82 108 146 193 237 283 331
#
# _framework density 25.845593999999998
#
# number of rings (size 3 to 8) (size 9 to 14) (size 15 to 20)
#    0.000    2.000    0.000    5.400    0.000    6.400 
#    0.000    3.000    0.000    0.000    0.000    0.000 
#    0.000    0.000    0.000    0.000    0.000    0.000 
#
# Total GULP energy -111925.191281 kJ/mol
# GULP energy per Si atom -5596.259564 kJ/mol
# Density = 2.578677 g / cm^3
# Si number density = 25.845594 Si / 1000 Ang^3
#
#
#
# Elastic Constant Matrix: (Units=GPa)
#
#
# Indices 1 2 3 4 5 6 
#
# 1 151.1039 -2.3688 12.2037 0.0000 -14.0978 0.0000
# 2 -2.3688 68.7938 3.6453 0.0000 -1.7784 0.0000
# 3 12.2037 3.6453 71.3918 0.0000 -19.8048 0.0000
# 4 0.0000 0.0000 0.0000 16.9370 0.0000 2.4341
# 5 -14.0978 -1.7784 -19.8048 0.0000 56.4990 0.0000
# 6 0.0000 0.0000 0.0000 2.4341 0.0000 22.8121
#
#
#
# Elastic Compliance Matrix: (Units=1/GPa)
#
#
# Indices 1 2 3 4 5 6 
#
# 1 0.006820 0.000313 -0.000783 0.000000 0.001437 0.000000
# 2 0.000313 0.014592 -0.000720 0.000000 0.000285 0.000000
# 3 -0.000783 -0.000720 0.015638 0.000000 0.005264 0.000000
# 4 0.000000 0.000000 0.000000 0.059962 0.000000 -0.006398
# 5 0.001437 0.000285 0.005264 0.000000 0.019912 0.000000
# 6 0.000000 0.000000 0.000000 -0.006398 0.000000 0.044519
#
#
# Mechanical properties :
#
#
# Convention : Reuss Voigt Hill
#
# Bulk Modulus (GPa) = 28.84152 35.36113 32.10133
# Shear Modulus (GPa) = 28.50962 37.77025 33.13994
#
# Velocity S-wave (km/s) = 3.32486 3.82695 3.58471
# Velocity P-wave (km/s) = 5.09146 5.76531 5.43883
#
# Compressibility (1/GPa) = 0.03467223
#
# Stress axis : x y z
#
# Youngs Moduli (GPa) = 146.62303 68.52840 63.94684
#
# Poissons Ratio (x) = -0.02148 0.05008
# Poissons Ratio (y) = -0.04597 0.04601
# Poissons Ratio (z) = 0.11483 0.04931
#
# Static dielectric constant tensor:
#      x y z
#    x 1.987100 0.000000 -0.023480 
#    y 0.000000 1.901000 0.000000 
#    z -0.023480 0.000000 2.164200 
# 
# From -- ./inp_files/211257.got.cif
#   From: 2010.05.17/outbox.cif.g08.bks.cpg/sg12_106_cif.got.tgz:211257.got - 2010.06.03 13:09:07.
