data_PCOD9208859
_publ_section_title
;
Structure prediction by ZEFSAII (Michael W. Deem and Ramdas Pophale) SiO2 
 PCOD9208859
Probable space group: C 2/M
;
_chemical_formula_sum "Si O2"
_cell_formula_units_Z 48
_cell_length_a 28.994250
_cell_length_b 8.415223
_cell_length_c 15.289200
_cell_angle_alpha 90.000000
_cell_angle_beta 38.880348
_cell_angle_gamma 90.000000
_cell_volume 2341.594520
_symmetry_space_group_name_H-M "C 2/M"
_symmetry_group_IT_number 12
_symmetry_cell_setting 'monoclinic'
loop_
_space_group_symop_operation_xyz
x,y,z
-x,y,-z
-x,-y,-z
x,-y,z
1/2+x,1/2+y,z
1/2-x,1/2+y,-z
1/2-x,1/2-y,-z
1/2+x,1/2-y,z
loop_
_atom_site_type_symbol
_atom_site_label
_atom_site_fract_x
_atom_site_fract_y
_atom_site_fract_z
Si Si1 0.185592 0.192071 0.712821
Si Si2 0.848132 0.191845 0.428924
Si Si3 0.344414 0.686293 0.051590
Si Si4 0.897404 0.683203 0.798462
Si Si5 0.055552 0.190880 0.553662
Si Si6 0.310419 0.685599 0.774648
O O1 0.147086 0.243529 0.679233
O O2 0.269785 0.249400 0.581199
O O3 0.150203 0.244808 0.856294
O O4 0.186496 0.000000 0.713169
O O5 0.912649 0.241150 0.398789
O O6 0.846348 0.000000 0.433211
O O7 0.363152 0.500000 0.020609
O O8 0.259615 0.712478 0.149038
O O9 0.391085 0.776476 0.910006
O O10 0.881024 0.500000 0.806956
O O11 0.838292 0.784334 0.831446
O O12 0.978963 0.726693 0.647076
O O13 0.120075 0.224285 0.389501
O O14 0.043365 0.000000 0.571238
O O15 0.291672 0.500000 0.789943
#
# Coordination Sequence:
#
# PCOD9208859 Si02
#       6
#     8   8   8   8   8   8
#     4   9  18  32  56  87 115 144 183 229 275 327
#     4   9  17  33  57  86 115 145 182 226 277 332
#     4  11  22  38  59  85 117 151 189 232 279 333
#     4  12  26  40  56  80 114 153 192 237 285 334
#     4  10  21  38  60  85 115 150 186 228 281 339
#     4  11  22  39  62  86 112 147 190 234 282 336
#
# _framework density 20.498853
#
# number of rings (size 3 to 8) (size 9 to 14) (size 15 to 20)
#    0.000    1.667    1.667    3.500    0.000    4.667 
#    0.000    0.833    0.000    5.000    0.000    0.000 
#    0.000    0.000    0.000    0.000    0.000    0.000 
#
# Total GULP energy -134123.023649 kJ/mol
# GULP energy per Si atom -5588.459319 kJ/mol
# Density = 2.045220 g / cm^3
# Si number density = 20.498853 Si / 1000 Ang^3
#
#
#
# Elastic Constant Matrix: (Units=GPa)
#
#
# Indices 1 2 3 4 5 6 
#
# 1 59.4437 -3.5785 2.2481 -0.0001 17.8015 0.0000
# 2 -3.5785 12.5628 9.6468 -0.0001 -1.1239 0.0002
# 3 2.2481 9.6468 57.8578 -0.0001 14.7945 0.0002
# 4 -0.0001 -0.0001 -0.0001 28.9664 0.0001 -3.3843
# 5 17.8015 -1.1239 14.7945 0.0001 29.8303 -0.0001
# 6 0.0000 0.0002 0.0002 -3.3843 -0.0001 16.4558
#
#
#
# Elastic Compliance Matrix: (Units=1/GPa)
#
#
# Indices 1 2 3 4 5 6 
#
# 1 0.020953 0.003163 0.002091 0.000000 -0.013422 0.000000
# 2 0.003163 0.096085 -0.018995 0.000000 0.011154 -0.000001
# 3 0.002091 -0.018995 0.023903 0.000000 -0.013818 0.000000
# 4 0.000000 0.000000 0.000000 0.035373 0.000000 0.007275
# 5 -0.013422 0.011154 -0.013818 0.000000 0.048806 0.000000
# 6 0.000000 -0.000001 0.000000 0.007275 0.000000 0.062265
#
#
# Mechanical properties :
#
#
# Convention : Reuss Voigt Hill
#
# Bulk Modulus (GPa) = 8.81393 16.27745 12.54569
# Shear Modulus (GPa) = 14.17683 23.15369 18.66526
#
# Velocity S-wave (km/s) = 2.63267 3.36447 3.02081
# Velocity P-wave (km/s) = 3.68107 4.80112 4.27791
#
# Compressibility (1/GPa) = 0.11345672
#
# Stress axis : x y z
#
# Youngs Moduli (GPa) = 47.72504 10.40747 41.83573
#
# Poissons Ratio (x) = -0.03291 -0.08746
# Poissons Ratio (y) = -0.15094 0.79469
# Poissons Ratio (z) = -0.09977 0.19769
#
# Static dielectric constant tensor:
#      x y z
#    x 1.732910 0.000000 0.046550 
#    y 0.000000 1.691060 0.000000 
#    z 0.046550 0.000000 1.730650 
# 
# From -- ./inp_files/230388.got.cif
#   From: 2010.05.17/outbox.cif.g08.bks.cpg/sg12_116_cif.got.tgz:230388.got - 2010.06.03 13:09:07.
