data_PCOD9208130
_publ_section_title
;
Structure prediction by ZEFSAII (Michael W. Deem and Ramdas Pophale) SiO2 
 PCOD9208130
Probable space group: C 2/M
;
_chemical_formula_sum "Si O2"
_cell_formula_units_Z 64
_cell_length_a 26.944998
_cell_length_b 22.389645
_cell_length_c 8.706505
_cell_angle_alpha 90.000000
_cell_angle_beta 34.388226
_cell_angle_gamma 90.000000
_cell_volume 2966.620085
_symmetry_space_group_name_H-M "C 2/M"
_symmetry_group_IT_number 12
_symmetry_cell_setting 'monoclinic'
loop_
_space_group_symop_operation_xyz
x,y,z
-x,y,-z
-x,-y,-z
x,-y,z
1/2+x,1/2+y,z
1/2-x,1/2+y,-z
1/2-x,1/2-y,-z
1/2+x,1/2-y,z
loop_
_atom_site_type_symbol
_atom_site_label
_atom_site_fract_x
_atom_site_fract_y
_atom_site_fract_z
Si Si1 0.906065 0.696448 0.158821
Si Si2 0.263076 0.434181 0.210405
Si Si3 0.636414 0.349884 0.245399
Si Si4 0.913360 0.259633 0.809916
Si Si5 0.639062 0.393060 0.732735
Si Si6 0.460264 0.432025 0.300610
Si Si7 0.597529 0.064133 0.815686
Si Si8 0.290967 0.714268 0.640146
O O1 0.885631 0.628851 0.152859
O O2 0.832743 0.725333 0.459243
O O3 0.922805 0.736341 0.967254
O O4 0.000000 0.694009 0.000000
O O5 0.291685 0.500000 0.083259
O O6 0.307595 0.422061 0.263597
O O7 0.160892 0.435563 0.507767
O O8 0.282335 0.381748 0.043431
O O9 0.593117 0.307580 0.232111
O O10 0.578032 0.405165 0.447943
O O11 0.658733 0.309061 0.336270
O O12 0.000000 0.285969 0.500000
O O13 0.811897 0.282894 0.050425
O O14 0.616088 0.429346 0.634685
O O15 0.687842 0.334377 0.546513
O O16 0.540034 0.388536 0.050499
O O17 0.492341 0.500000 0.228219
O O18 0.613793 0.000000 0.856919
O O19 0.500000 0.063538 0.000000
#
# Coordination Sequence:
#
# PCOD9208130 Si02
#       8
#     8   8   8   8   8   8   8   8
#     4  11  23  41  68  94 123 164 212 259 322 391
#     4  11  21  36  61  91 125 165 215 265 321 378
#     4  11  25  39  60  90 133 171 209 262 318 383
#     4  12  26  42  62  93 128 167 213 269 321 378
#     4  10  21  37  62  88 123 166 218 266 308 371
#     4  10  21  39  61  90 129 171 212 259 319 384
#     4   9  20  39  63  91 118 153 204 265 316 374
#     4  11  24  42  64  90 129 173 218 261 320 383
#
# _framework density 21.573371999999999
#
# number of rings (size 3 to 8) (size 9 to 14) (size 15 to 20)
#    0.000    1.375    0.000    5.625    7.000    2.000 
#    0.000    1.250    0.000    1.125    0.000    0.875 
#    0.000    0.000    0.000    0.000    0.000    0.000 
#
# Total GULP energy -178420.048129 kJ/mol
# GULP energy per Si atom -5575.626504 kJ/mol
# Density = 2.152427 g / cm^3
# Si number density = 21.573372 Si / 1000 Ang^3
#
#
#
# Elastic Constant Matrix: (Units=GPa)
#
#
# Indices 1 2 3 4 5 6 
#
# 1 48.0770 37.8942 20.9343 0.0000 10.8866 0.0000
# 2 37.8942 108.5516 49.9734 0.0000 5.3549 0.0000
# 3 20.9343 49.9734 138.2380 0.0000 -11.1299 0.0000
# 4 0.0000 0.0000 0.0000 -5.2489 0.0000 9.4783
# 5 10.8866 5.3549 -11.1299 0.0000 33.6411 0.0000
# 6 0.0000 0.0000 0.0000 9.4783 0.0000 6.7782
#
#
#
# Elastic Compliance Matrix: (Units=1/GPa)
#
#
# Indices 1 2 3 4 5 6 
#
# 1 0.031304 -0.009529 -0.002044 0.000000 -0.009290 0.000000
# 2 -0.009529 0.014290 -0.003758 0.000000 -0.000434 0.000000
# 3 -0.002044 -0.003758 0.009250 0.000000 0.004320 0.000000
# 4 0.000000 0.000000 0.000000 -0.054045 0.000000 0.075575
# 5 -0.009290 -0.000434 0.004320 0.000000 0.034230 0.000000
# 6 0.000000 0.000000 0.000000 0.075575 0.000000 0.041852
#
#
# Mechanical properties :
#
#
# Convention : Reuss Voigt Hill
#
# Bulk Modulus (GPa) = 41.35161 56.94116 49.14639
# Shear Modulus (GPa) = 43.25190 19.43839 31.34515
#
# Velocity S-wave (km/s) = 4.48244 3.00498 3.81590
# Velocity P-wave (km/s) = 6.78227 6.20414 6.49964
#
# Compressibility (1/GPa) = 0.02418285
#
# Stress axis : x y z
#
# Youngs Moduli (GPa) = 31.94483 69.97914 108.11185
#
# Poissons Ratio (x) = 0.66681 0.22097
# Poissons Ratio (y) = 0.30439 0.40627
# Poissons Ratio (z) = 0.06529 0.26297
#
# Static dielectric constant tensor:
#      x y z
#    x 1.858930 0.000000 -0.065900 
#    y 0.000000 1.850470 0.000000 
#    z -0.065900 0.000000 1.816370 
# 
# From -- ./inp_files/113597.got.cif
#   From: 2010.05.17/outbox.cif.g08.bks.cpg/sg12_57_cif.got.tgz:113597.got - 2010.06.03 13:09:07.
