data_PCOD9208955
_publ_section_title
;
Structure prediction by ZEFSAII (Michael W. Deem and Ramdas Pophale) SiO2 
 PCOD9208955
Probable space group: C 2/M
;
_chemical_formula_sum "Si O2"
_cell_formula_units_Z 56
_cell_length_a 9.781746
_cell_length_b 16.525589
_cell_length_c 28.145643
_cell_angle_alpha 90.000000
_cell_angle_beta 140.667437
_cell_angle_gamma 90.000000
_cell_volume 2883.705010
_symmetry_space_group_name_H-M "C 2/M"
_symmetry_group_IT_number 12
_symmetry_cell_setting 'monoclinic'
loop_
_space_group_symop_operation_xyz
x,y,z
-x,y,-z
-x,-y,-z
x,-y,z
1/2+x,1/2+y,z
1/2-x,1/2+y,-z
1/2-x,1/2-y,-z
1/2+x,1/2-y,z
loop_
_atom_site_type_symbol
_atom_site_label
_atom_site_fract_x
_atom_site_fract_y
_atom_site_fract_z
Si Si1 0.029339 0.405969 0.559491
Si Si2 0.898608 0.310041 0.280530
Si Si3 0.265179 0.686212 0.459811
Si Si4 0.311897 0.849724 0.815207
Si Si5 0.340257 0.097715 0.169375
Si Si6 0.001858 0.764532 0.944399
Si Si7 0.873774 0.091056 0.724278
O O1 0.075715 0.500000 0.564877
O O2 0.821070 0.393617 0.536125
O O3 0.000000 0.367777 0.500000
O O4 0.234355 0.373255 0.643066
O O5 0.812733 0.221697 0.245621
O O6 0.945575 0.361599 0.245185
O O7 0.695506 0.355221 0.250202
O O8 0.093654 0.303506 0.370625
O O9 0.500000 0.681068 0.500000
O O10 0.250000 0.750000 0.500000
O O11 0.501972 0.884201 0.833187
O O12 0.388324 0.806208 0.883898
O O13 0.122667 0.910258 0.778448
O O14 0.121050 0.151200 0.102440
O O15 0.309377 0.000000 0.165786
O O16 0.250000 0.750000 0.000000
O O17 0.000000 0.756755 0.000000
O O18 0.795947 0.000000 0.712753
#
# Coordination Sequence:
#
# PCOD9208955 Si02
#       7
#     8   8   8   8   8   8   8
#     4   9  20  39  59  83 120 163 203 256 325 380
#     4  10  23  40  62  87 127 166 212 264 321 379
#     4  11  25  37  60  89 121 164 221 275 317 374
#     4  11  23  39  67  93 125 164 210 255 312 382
#     4  11  24  42  67  99 129 166 212 263 317 378
#     4  11  23  45  68  96 130 171 205 251 314 380
#     4  10  21  38  60  87 121 161 205 256 310 371
#
# _framework density 19.419463
#
# number of rings (size 3 to 8) (size 9 to 14) (size 15 to 20)
#    0.000    1.571    1.429    3.000   10.000    1.143 
#    0.000    1.429    0.000    2.143    0.000    0.000 
#    0.000    0.000    0.000    0.000    0.000    0.000 
#
# Total GULP energy -156003.715528 kJ/mol
# GULP energy per Si atom -5571.561269 kJ/mol
# Density = 1.937526 g / cm^3
# Si number density = 19.419463 Si / 1000 Ang^3
#
#
#
# Elastic Constant Matrix: (Units=GPa)
#
#
# Indices 1 2 3 4 5 6 
#
# 1 107.0449 31.8417 58.6876 0.0000 4.1368 0.0000
# 2 31.8417 74.5842 24.5695 0.0000 -2.9582 0.0000
# 3 58.6876 24.5695 107.0395 -0.0001 -5.2559 0.0000
# 4 0.0000 0.0000 -0.0001 18.1680 0.0000 -6.2152
# 5 4.1368 -2.9582 -5.2559 0.0000 41.8597 0.0000
# 6 0.0000 0.0000 0.0000 -6.2152 0.0000 36.8079
#
#
#
# Elastic Compliance Matrix: (Units=1/GPa)
#
#
# Indices 1 2 3 4 5 6 
#
# 1 0.014572 -0.003950 -0.007212 0.000000 -0.002625 0.000000
# 2 -0.003950 0.015590 -0.001348 0.000000 0.001323 0.000000
# 3 -0.007212 -0.001348 0.013721 0.000000 0.002340 0.000000
# 4 0.000000 0.000000 0.000000 0.058416 0.000000 0.009864
# 5 -0.002625 0.001323 0.002340 0.000000 0.024536 0.000000
# 6 0.000000 0.000000 0.000000 0.009864 0.000000 0.028834
#
#
# Mechanical properties :
#
#
# Convention : Reuss Voigt Hill
#
# Bulk Modulus (GPa) = 53.01062 57.65179 55.33120
# Shear Modulus (GPa) = 26.74135 30.93845 28.83990
#
# Velocity S-wave (km/s) = 3.71487 3.99578 3.85788
# Velocity P-wave (km/s) = 6.76441 7.14426 6.95693
#
# Compressibility (1/GPa) = 0.01886414
#
# Stress axis : x y z
#
# Youngs Moduli (GPa) = 68.62452 64.14209 72.88190
#
# Poissons Ratio (x) = 0.25333 0.52562
# Poissons Ratio (y) = 0.27103 0.09826
# Poissons Ratio (z) = 0.49491 0.08647
#
# Static dielectric constant tensor:
#      x y z
#    x 1.869320 0.000000 -0.705570 
#    y 0.000000 1.660890 0.000000 
#    z -0.705570 0.000000 4.260650 
# 
# From -- ./inp_files/256999.got.cif
#   From: 2010.05.17/outbox.cif.g08.bks.cpg/sg12_129_cif.got.tgz:256999.got - 2010.06.03 13:09:07.
