data_PCOD9208734
_publ_section_title
;
Structure prediction by ZEFSAII (Michael W. Deem and Ramdas Pophale) SiO2 
 PCOD9208734
Probable space group: C 2/M
;
_chemical_formula_sum "Si O2"
_cell_formula_units_Z 64
_cell_length_a 19.964681
_cell_length_b 8.558976
_cell_length_c 31.303650
_cell_angle_alpha 90.000000
_cell_angle_beta 141.563636
_cell_angle_gamma 90.000000
_cell_volume 3325.229602
_symmetry_space_group_name_H-M "C 2/M"
_symmetry_group_IT_number 12
_symmetry_cell_setting 'monoclinic'
loop_
_space_group_symop_operation_xyz
x,y,z
-x,y,-z
-x,-y,-z
x,-y,z
1/2+x,1/2+y,z
1/2-x,1/2+y,-z
1/2-x,1/2-y,-z
1/2+x,1/2-y,z
loop_
_atom_site_type_symbol
_atom_site_label
_atom_site_fract_x
_atom_site_fract_y
_atom_site_fract_z
Si Si1 0.209593 0.812918 0.785682
Si Si2 0.374558 0.189259 0.435403
Si Si3 0.983598 0.682493 0.800615
Si Si4 0.625166 0.310887 0.063639
Si Si5 0.277047 0.189719 0.060443
Si Si6 0.269291 0.683829 0.556497
Si Si7 0.254270 0.810566 0.711072
Si Si8 0.481982 0.179958 0.699043
O O1 0.311394 0.752997 0.863576
O O2 0.213198 0.769457 0.737559
O O3 0.101844 0.739629 0.751130
O O4 0.205761 0.000000 0.786820
O O5 0.500000 0.236978 0.500000
O O6 0.308741 0.245429 0.444509
O O7 0.316646 0.247923 0.363458
O O8 0.371125 0.000000 0.433251
O O9 0.989510 0.500000 0.816588
O O10 0.877369 0.750198 0.769262
O O11 0.961592 0.687670 0.739314
O O12 0.102128 0.747825 0.868397
O O13 0.627947 0.500000 0.066648
O O14 0.692019 0.261519 0.054634
O O15 0.500000 0.262090 0.000000
O O16 0.276686 0.000000 0.060594
O O17 0.250000 0.250000 0.000000
O O18 0.251465 0.500000 0.545726
O O19 0.250000 0.750000 0.500000
O O20 0.391539 0.720409 0.630614
O O21 0.256118 0.000000 0.708448
O O22 0.472569 0.000000 0.680528
#
# Coordination Sequence:
#
# PCOD9208734 Si02
#       8
#     8   8   8   8   8   8   8   8
#     4  11  24  39  60  92 124 155 200 252 302 358
#     4  10  23  42  61  87 122 158 198 245 294 351
#     4   9  18  37  62  83 112 152 197 241 293 355
#     4  10  22  41  61  84 120 162 204 245 296 363
#     4  10  21  38  59  86 116 154 197 243 296 354
#     4  11  24  41  62  92 125 159 203 250 298 356
#     4  10  22  40  61  88 118 155 197 244 300 357
#     4  11  21  40  67  87 116 161 202 249 304 355
#
# _framework density 19.246793
#
# number of rings (size 3 to 8) (size 9 to 14) (size 15 to 20)
#    0.000    1.750    2.500    1.125    3.500    2.500 
#    0.000    0.625    0.000    0.000    0.000    0.000 
#    0.000    0.000    0.000    0.000    0.000    0.000 
#
# Total GULP energy -178647.494697 kJ/mol
# GULP energy per Si atom -5582.734209 kJ/mol
# Density = 1.920299 g / cm^3
# Si number density = 19.246793 Si / 1000 Ang^3
#
#
#
# Elastic Constant Matrix: (Units=GPa)
#
#
# Indices 1 2 3 4 5 6 
#
# 1 53.1651 10.4265 5.0452 0.0000 -8.5392 0.0000
# 2 10.4265 12.2844 -2.9638 -0.0001 -8.4734 0.0001
# 3 5.0452 -2.9638 76.3194 0.0000 -10.0366 0.0000
# 4 0.0000 -0.0001 0.0000 31.8360 0.0000 -7.6806
# 5 -8.5392 -8.4734 -10.0366 0.0000 32.1406 0.0000
# 6 0.0000 0.0001 0.0000 -7.6806 0.0000 21.1399
#
#
#
# Elastic Compliance Matrix: (Units=1/GPa)
#
#
# Indices 1 2 3 4 5 6 
#
# 1 0.022958 -0.019944 -0.002275 0.000000 0.000131 0.000000
# 2 -0.019944 0.121270 0.009944 0.000000 0.029777 0.000000
# 3 -0.002275 0.009944 0.014500 0.000000 0.006545 0.000000
# 4 0.000000 0.000000 0.000000 0.034429 0.000000 0.012509
# 5 0.000131 0.029777 0.006545 0.000000 0.041042 0.000000
# 6 0.000000 0.000000 0.000000 0.012509 0.000000 0.051849
#
#
# Mechanical properties :
#
#
# Convention : Reuss Voigt Hill
#
# Bulk Modulus (GPa) = 7.45279 18.53164 12.99222
# Shear Modulus (GPa) = 14.07168 25.64069 19.85618
#
# Velocity S-wave (km/s) = 2.70685 3.65390 3.21543
# Velocity P-wave (km/s) = 3.69460 5.23934 4.53325
#
# Compressibility (1/GPa) = 0.13417791
#
# Stress axis : x y z
#
# Youngs Moduli (GPa) = 43.55854 8.24604 68.96504
#
# Poissons Ratio (x) = 0.16446 0.15689
# Poissons Ratio (y) = 0.86873 -0.68578
# Poissons Ratio (z) = 0.09909 -0.08200
#
# Static dielectric constant tensor:
#      x y z
#    x 1.684180 0.000000 0.035400 
#    y 0.000000 1.665440 0.000000 
#    z 0.035400 0.000000 1.659800 
# 
# From -- ./inp_files/378486.got.cif
#   From: 2010.05.17/outbox.cif.g08.bks.cpg/sg12_190_cif.got.tgz:378486.got - 2010.06.03 13:09:07.
