data_PCOD9208338
_publ_section_title
;
Structure prediction by ZEFSAII (Michael W. Deem and Ramdas Pophale) SiO2 
 PCOD9208338
Probable space group: C 2/M
;
_chemical_formula_sum "Si O2"
_cell_formula_units_Z 36
_cell_length_a 12.144379
_cell_length_b 22.299550
_cell_length_c 14.375532
_cell_angle_alpha 90.000000
_cell_angle_beta 28.838393
_cell_angle_gamma 90.000000
_cell_volume 1877.799872
_symmetry_space_group_name_H-M "C 2/M"
_symmetry_group_IT_number 12
_symmetry_cell_setting 'monoclinic'
loop_
_space_group_symop_operation_xyz
x,y,z
-x,y,-z
-x,-y,-z
x,-y,z
1/2+x,1/2+y,z
1/2-x,1/2+y,-z
1/2-x,1/2-y,-z
1/2+x,1/2-y,z
loop_
_atom_site_type_symbol
_atom_site_label
_atom_site_fract_x
_atom_site_fract_y
_atom_site_fract_z
Si Si1 0.910012 0.596362 0.969660
Si Si2 0.021138 0.000000 0.258725
Si Si3 0.750259 0.000000 0.270359
Si Si4 0.275825 0.137809 0.729778
Si Si5 0.753530 0.000000 0.635140
Si Si6 0.294913 0.687668 0.020086
O O1 0.838771 0.642494 0.945911
O O2 0.106644 0.555480 0.779838
O O3 0.686788 0.555959 0.155032
O O4 0.000000 0.622304 0.000000
O O5 0.935892 0.000000 0.215945
O O6 0.805060 0.000000 0.487248
O O7 0.500000 0.000000 0.500000
O O8 0.764782 0.066723 0.213541
O O9 0.500000 0.139990 0.500000
O O10 0.296735 0.178277 0.806908
O O11 0.057770 0.164897 0.835860
O O12 0.000000 0.000000 0.500000
O O13 0.250000 0.750000 0.000000
#
# Coordination Sequence:
#
# PCOD9208338 Si02
#       6
#     8   4   4   8   4   8
#     4  11  23  38  62  92 128 172 212 256 319 379
#     4  11  20  40  59  94 135 158 205 267 323 390
#     4  10  21  37  68 101 130 160 206 271 337 388
#     4  10  24  46  69 101 130 165 218 270 332 386
#     4  11  21  37  59  93 128 163 202 256 321 389
#     4  11  26  44  66  92 129 174 220 265 310 377
#
# _framework density 19.171372999999999
#
# number of rings (size 3 to 8) (size 9 to 14) (size 15 to 20)
#    0.000    1.333    4.444    0.667    9.333    3.556 
#    0.000    1.111    0.000    0.000    0.000    0.000 
#    0.000    0.000    0.000    0.000    0.000    0.000 
#
# Total GULP energy -100391.476054 kJ/mol
# GULP energy per Si atom -5577.304225 kJ/mol
# Density = 1.912774 g / cm^3
# Si number density = 19.171373 Si / 1000 Ang^3
#
#
#
# Elastic Constant Matrix: (Units=GPa)
#
#
# Indices 1 2 3 4 5 6 
#
# 1 135.2234 65.6788 35.3400 -0.0083 -8.7456 0.0014
# 2 65.6788 120.8562 45.2381 0.0053 -5.0274 -0.0039
# 3 35.3400 45.2381 139.3971 0.0141 7.3041 -0.0079
# 4 -0.0083 0.0053 0.0141 14.1015 -0.0013 3.6517
# 5 -8.7456 -5.0274 7.3041 -0.0013 26.5434 -0.0074
# 6 0.0014 -0.0039 -0.0079 3.6517 -0.0074 33.8425
#
#
#
# Elastic Compliance Matrix: (Units=1/GPa)
#
#
# Indices 1 2 3 4 5 6 
#
# 1 0.010334 -0.005085 -0.001114 0.000010 0.002748 -0.000002
# 2 -0.005085 0.012109 -0.002712 -0.000005 0.001365 0.000002
# 3 -0.001114 -0.002712 0.008505 -0.000009 -0.003221 0.000002
# 4 0.000010 -0.000005 -0.000009 0.072953 0.000006 -0.007872
# 5 0.002748 0.001365 -0.003221 0.000006 0.039725 0.000007
# 6 -0.000002 0.000002 0.000002 -0.007872 0.000007 0.030398
#
#
# Mechanical properties :
#
#
# Convention : Reuss Voigt Hill
#
# Bulk Modulus (GPa) = 76.17874 76.44339 76.31106
# Shear Modulus (GPa) = 25.48154 31.51212 28.49683
#
# Velocity S-wave (km/s) = 3.64970 4.05866 3.85960
# Velocity P-wave (km/s) = 7.58830 7.86918 7.73002
#
# Compressibility (1/GPa) = 0.01312702
#
# Stress axis : x y z
#
# Youngs Moduli (GPa) = 96.77206 82.57982 117.57649
#
# Poissons Ratio (x) = 0.41988 0.13095
# Poissons Ratio (y) = 0.49204 0.31891
# Poissons Ratio (z) = 0.10778 0.22398
#
# Static dielectric constant tensor:
#      x y z
#    x 1.678070 0.000020 0.026490 
#    y 0.000020 1.680950 0.000060 
#    z 0.026490 0.000060 1.676830 
# 
# From -- ./inp_files/207493.got.cif
#   From: 2010.05.17/outbox.cif.g08.bks.cpg/sg12_104_cif.got.tgz:207493.got - 2010.06.03 13:09:07.
