data_PCOD9208599
_publ_section_title
;
Structure prediction by ZEFSAII (Michael W. Deem and Ramdas Pophale) SiO2 
 PCOD9208599
Probable space group: C 2/M
;
_chemical_formula_sum "Si O2"
_cell_formula_units_Z 56
_cell_length_a 9.370711
_cell_length_b 27.329282
_cell_length_c 18.789590
_cell_angle_alpha 90.000000
_cell_angle_beta 143.128055
_cell_angle_gamma 90.000000
_cell_volume 2887.287369
_symmetry_space_group_name_H-M "C 2/M"
_symmetry_group_IT_number 12
_symmetry_cell_setting 'monoclinic'
loop_
_space_group_symop_operation_xyz
x,y,z
-x,y,-z
-x,-y,-z
x,-y,z
1/2+x,1/2+y,z
1/2-x,1/2+y,-z
1/2-x,1/2-y,-z
1/2+x,1/2-y,z
loop_
_atom_site_type_symbol
_atom_site_label
_atom_site_fract_x
_atom_site_fract_y
_atom_site_fract_z
Si Si1 0.228852 0.442759 0.049839
Si Si2 0.742642 0.403871 0.244098
Si Si3 0.581619 0.941252 0.827298
Si Si4 0.282881 0.808050 0.355641
Si Si5 0.511510 0.279947 0.379402
Si Si6 0.161219 0.446102 0.494954
Si Si7 0.422225 0.612130 0.389777
O O1 0.243459 0.500000 0.074688
O O2 0.486538 0.421172 0.168980
O O3 0.181741 0.438447 0.947032
O O4 0.000000 0.421767 0.000000
O O5 0.756578 0.411546 0.164727
O O6 0.783643 0.352720 0.300832
O O7 0.970438 0.436095 0.357633
O O8 0.326487 0.913893 0.725146
O O9 0.567378 0.000000 0.804632
O O10 0.500000 0.814801 0.500000
O O11 0.317228 0.760169 0.321012
O O12 0.060197 0.797562 0.318498
O O13 0.750000 0.250000 0.500000
O O14 0.439759 0.329230 0.392271
O O15 0.267160 0.500000 0.530182
O O16 0.371770 0.407651 0.579535
O O17 0.000000 0.443385 0.500000
O O18 0.500000 0.597005 0.500000
#
# Coordination Sequence:
#
# PCOD9208599 Si02
#       7
#     8   8   8   8   8   8   8
#     4  10  24  44  65  89 120 164 220 270 313 370
#     4  12  22  39  64  90 123 167 212 257 316 376
#     4  11  25  41  63  93 130 171 215 261 310 381
#     4  10  22  37  63  94 130 162 210 256 320 373
#     4  10  21  38  58  89 128 167 206 261 305 376
#     4  11  23  35  54  87 130 166 198 248 311 377
#     4  12  23  37  62  92 131 164 209 251 321 379
#
# _framework density 19.395367
#
# number of rings (size 3 to 8) (size 9 to 14) (size 15 to 20)
#    0.000    1.143    1.429    6.429    6.000    1.714 
#    0.000    0.000    0.000    0.857    0.000    0.000 
#    0.000    0.000    0.000    0.000    0.000    0.000 
#
# Total GULP energy -156188.686380 kJ/mol
# GULP energy per Si atom -5578.167371 kJ/mol
# Density = 1.935122 g / cm^3
# Si number density = 19.395367 Si / 1000 Ang^3
#
#
#
# Elastic Constant Matrix: (Units=GPa)
#
#
# Indices 1 2 3 4 5 6 
#
# 1 103.2531 38.8242 15.7780 -0.0004 4.2644 0.0040
# 2 38.8242 130.7393 34.7423 -0.0011 0.5597 0.0041
# 3 15.7780 34.7423 39.6612 -0.0017 16.0273 0.0167
# 4 -0.0004 -0.0011 -0.0017 11.5442 -0.0005 -6.7392
# 5 4.2644 0.5597 16.0273 -0.0005 32.2499 0.0050
# 6 0.0040 0.0041 0.0167 -6.7392 0.0050 47.8673
#
#
#
# Elastic Compliance Matrix: (Units=1/GPa)
#
#
# Indices 1 2 3 4 5 6 
#
# 1 0.011028 -0.002826 -0.001679 0.000000 -0.000575 0.000000
# 2 -0.002826 0.011447 -0.011229 0.000001 0.005756 0.000003
# 3 -0.001679 -0.011229 0.044483 -0.000003 -0.021690 -0.000013
# 4 0.000000 0.000001 -0.000003 0.094381 0.000001 0.013288
# 5 -0.000575 0.005756 -0.021690 0.000001 0.041763 0.000003
# 6 0.000000 0.000003 -0.000013 0.013288 0.000003 0.022762
#
#
# Mechanical properties :
#
#
# Convention : Reuss Voigt Hill
#
# Bulk Modulus (GPa) = 28.17757 50.26027 39.21892
# Shear Modulus (GPa) = 18.57606 30.61956 24.59781
#
# Velocity S-wave (km/s) = 3.09812 3.97760 3.56509
# Velocity P-wave (km/s) = 5.23043 6.86039 6.10009
#
# Compressibility (1/GPa) = 0.03548922
#
# Stress axis : x y z
#
# Youngs Moduli (GPa) = 90.67883 87.35551 22.48032
#
# Poissons Ratio (x) = 0.24688 0.03775
# Poissons Ratio (y) = 0.25627 0.25244
# Poissons Ratio (z) = 0.15228 0.98095
#
# Static dielectric constant tensor:
#      x y z
#    x 1.782740 0.000000 -0.029270 
#    y 0.000000 1.680290 0.000000 
#    z -0.029270 0.000000 1.708230 
# 
# From -- ./inp_files/259882.got.cif
#   From: 2010.05.17/outbox.cif.g08.bks.cpg/sg12_130_cif.got.tgz:259882.got - 2010.06.03 13:09:07.
