data_PCOD9208329
_publ_section_title
;
Structure prediction by ZEFSAII (Michael W. Deem and Ramdas Pophale) SiO2 
 PCOD9208329
Probable space group: C 2/M
;
_chemical_formula_sum "Si O2"
_cell_formula_units_Z 36
_cell_length_a 21.473579
_cell_length_b 14.016238
_cell_length_c 5.356786
_cell_angle_alpha 90.000000
_cell_angle_beta 69.646635
_cell_angle_gamma 90.000000
_cell_volume 1511.616986
_symmetry_space_group_name_H-M "C 2/M"
_symmetry_group_IT_number 12
_symmetry_cell_setting 'monoclinic'
loop_
_space_group_symop_operation_xyz
x,y,z
-x,y,-z
-x,-y,-z
x,-y,z
1/2+x,1/2+y,z
1/2-x,1/2+y,-z
1/2-x,1/2-y,-z
1/2+x,1/2-y,z
loop_
_atom_site_type_symbol
_atom_site_label
_atom_site_fract_x
_atom_site_fract_y
_atom_site_fract_z
Si Si1 0.271253 0.199160 0.721416
Si Si2 0.718226 0.000000 0.286319
Si Si3 0.094036 0.697349 0.730505
Si Si4 0.500000 0.714775 0.500000
Si Si5 0.132155 0.500000 0.903196
Si Si6 0.574071 0.391119 0.022381
O O1 0.250000 0.250000 0.500000
O O2 0.240537 0.095119 0.790889
O O3 0.350024 0.185044 0.563518
O O4 0.250000 0.250000 0.000000
O O5 0.687828 0.000000 0.607124
O O6 0.665444 0.000000 0.129797
O O7 0.096007 0.601240 0.894544
O O8 0.025455 0.717554 0.684457
O O9 0.108335 0.797802 0.851663
O O10 0.441527 0.644913 0.674904
O O11 0.599059 0.500000 0.972534
O O12 0.500000 0.394667 0.000000
#
# Coordination Sequence:
#
# PCOD9208329 Si02
#       6
#     8   4   8   4   4   8
#     4  11  24  43  69  95 133 173 224 278 331 402
#     4  10  22  44  68  94 129 183 211 269 349 385
#     4  10  23  40  64  96 132 176 228 275 339 403
#     4  10  21  37  66  94 136 179 223 278 340 408
#     4  10  22  39  71  93 136 176 218 272 336 399
#     4   9  19  38  61  90 129 175 219 277 344 395
#
# _framework density 23.815556999999998
#
# number of rings (size 3 to 8) (size 9 to 14) (size 15 to 20)
#    0.000    2.000    0.000    3.000    9.333    1.333 
#    4.000    5.000    0.000    0.000    0.000    0.000 
#    0.000    0.000    0.000    0.000    0.000    0.000 
#
# Total GULP energy -100445.297481 kJ/mol
# GULP energy per Si atom -5580.294305 kJ/mol
# Density = 2.376135 g / cm^3
# Si number density = 23.815557 Si / 1000 Ang^3
#
#
#
# Elastic Constant Matrix: (Units=GPa)
#
#
# Indices 1 2 3 4 5 6 
#
# 1 54.2816 52.4880 13.6274 0.0000 14.4948 0.0000
# 2 52.4880 268.2652 71.4690 0.0000 15.3093 0.0000
# 3 13.6274 71.4690 129.9283 0.0000 11.3408 0.0000
# 4 0.0000 0.0000 0.0000 45.8265 0.0000 -2.2162
# 5 14.4948 15.3093 11.3408 0.0000 36.9593 0.0000
# 6 0.0000 0.0000 0.0000 -2.2162 0.0000 39.7007
#
#
#
# Elastic Compliance Matrix: (Units=1/GPa)
#
#
# Indices 1 2 3 4 5 6 
#
# 1 0.024825 -0.004560 0.000606 0.000000 -0.008033 0.000000
# 2 -0.004560 0.005249 -0.002441 0.000000 0.000363 0.000000
# 3 0.000606 -0.002441 0.009153 0.000000 -0.002035 0.000000
# 4 0.000000 0.000000 0.000000 0.021880 0.000000 0.001221
# 5 -0.008033 0.000363 -0.002035 0.000000 0.030681 0.000000
# 6 0.000000 0.000000 0.000000 0.001221 0.000000 0.025257
#
#
# Mechanical properties :
#
#
# Convention : Reuss Voigt Hill
#
# Bulk Modulus (GPa) = 37.82573 80.84932 59.33753
# Shear Modulus (GPa) = 36.06232 45.49003 40.77617
#
# Velocity S-wave (km/s) = 3.89554 4.37521 4.14232
# Velocity P-wave (km/s) = 6.01256 7.71654 6.91722
#
# Compressibility (1/GPa) = 0.02643703
#
# Stress axis : x y z
#
# Youngs Moduli (GPa) = 40.28226 190.49595 109.24996
#
# Poissons Ratio (x) = 0.86869 -0.06618
# Poissons Ratio (y) = 0.18369 0.26667
# Poissons Ratio (z) = -0.02440 0.46499
#
# Static dielectric constant tensor:
#      x y z
#    x 1.966740 0.000000 -0.054640 
#    y 0.000000 1.983690 0.000000 
#    z -0.054640 0.000000 1.946440 
# 
# From -- ./inp_files/27353.got.cif
#   From: 2010.05.17/outbox.cif.g08.bks.cpg/sg12_14_cif.got.tgz:27353.got - 2010.06.03 13:09:07.
