data_PCOD9208666
_publ_section_title
;
Structure prediction by ZEFSAII (Michael W. Deem and Ramdas Pophale) SiO2 
 PCOD9208666
Probable space group: C 2/M
;
_chemical_formula_sum "Si O2"
_cell_formula_units_Z 40
_cell_length_a 24.563286
_cell_length_b 19.421960
_cell_length_c 9.870239
_cell_angle_alpha 90.000000
_cell_angle_beta 156.066905
_cell_angle_gamma 90.000000
_cell_volume 1910.203608
_symmetry_space_group_name_H-M "C 2/M"
_symmetry_group_IT_number 12
_symmetry_cell_setting 'monoclinic'
loop_
_space_group_symop_operation_xyz
x,y,z
-x,y,-z
-x,-y,-z
x,-y,z
1/2+x,1/2+y,z
1/2-x,1/2+y,-z
1/2-x,1/2-y,-z
1/2+x,1/2-y,z
loop_
_atom_site_type_symbol
_atom_site_label
_atom_site_fract_x
_atom_site_fract_y
_atom_site_fract_z
Si Si1 0.960579 0.182866 0.252760
Si Si2 0.308964 0.422645 0.279363
Si Si3 0.730100 0.077413 0.785513
Si Si4 0.416987 0.923112 0.006029
Si Si5 0.392616 0.221703 0.862905
O O1 0.000000 0.195811 0.500000
O O2 0.079092 0.136472 0.457068
O O3 0.825952 0.136229 0.943939
O O4 0.936186 0.251239 0.110133
O O5 0.366897 0.500000 0.430985
O O6 0.254507 0.419869 0.002395
O O7 0.185056 0.415772 0.100028
O O8 0.572380 0.085154 0.400492
O O9 0.770156 0.000000 0.831264
O O10 0.398796 0.000000 0.908089
O O11 0.384151 0.860413 0.834856
O O12 0.250000 0.250000 0.500000
O O13 0.500000 0.247959 0.000000
#
# Coordination Sequence:
#
# PCOD9208666 Si02
#       5
#     8   8   8   8   8
#     4  10  21  38  62  90 119 157 202 243 290 352
#     4   9  17  32  57  90 124 154 192 245 296 343
#     4   9  17  32  58  91 123 154 193 244 295 343
#     4  10  21  38  59  83 114 156 201 240 289 355
#     4  12  26  44  62  86 123 159 194 245 304 353
#
# _framework density 20.940176000000001
#
# number of rings (size 3 to 8) (size 9 to 14) (size 15 to 20)
#    0.000    2.000    0.000    3.600    0.000    6.800 
#    0.000    7.000    0.000    5.400    0.000    0.000 
#    0.000    0.000    0.000    0.000    0.000    0.000 
#
# Total GULP energy -111755.590100 kJ/mol
# GULP energy per Si atom -5587.779505 kJ/mol
# Density = 2.089252 g / cm^3
# Si number density = 20.940176 Si / 1000 Ang^3
#
#
#
# Elastic Constant Matrix: (Units=GPa)
#
#
# Indices 1 2 3 4 5 6 
#
# 1 79.9075 37.2383 30.4523 0.0000 18.9034 0.0000
# 2 37.2383 112.3028 53.8427 0.0000 2.4150 0.0000
# 3 30.4523 53.8427 94.4810 0.0000 18.5985 0.0000
# 4 0.0000 0.0000 0.0000 12.4927 0.0000 -16.6953
# 5 18.9034 2.4150 18.5985 0.0000 27.6287 0.0000
# 6 0.0000 0.0000 0.0000 -16.6953 0.0000 18.3244
#
#
#
# Elastic Compliance Matrix: (Units=1/GPa)
#
#
# Indices 1 2 3 4 5 6 
#
# 1 0.017968 -0.005537 -0.000358 0.000000 -0.011569 0.000000
# 2 -0.005537 0.014393 -0.007972 0.000000 0.007897 0.000000
# 3 -0.000358 -0.007972 0.017357 0.000000 -0.010742 0.000000
# 4 0.000000 0.000000 0.000000 -0.367880 0.000000 -0.335173
# 5 -0.011569 0.007897 -0.010742 0.000000 0.050650 0.000000
# 6 0.000000 0.000000 0.000000 -0.335173 0.000000 -0.250802
#
#
# Mechanical properties :
#
#
# Convention : Reuss Voigt Hill
#
# Bulk Modulus (GPa) = 45.49005 58.86198 52.17602
# Shear Modulus (GPa) = -10.34661 22.69969 6.17654
#
# Velocity S-wave (km/s) = -2.22526 3.29603 1.71931
# Velocity P-wave (km/s) = 3.89469 6.53113 5.37700
#
# Compressibility (1/GPa) = 0.02198283
#
# Stress axis : x y z
#
# Youngs Moduli (GPa) = 55.65344 69.47857 57.61252
#
# Poissons Ratio (x) = 0.38473 0.02065
# Poissons Ratio (y) = 0.30818 0.45929
# Poissons Ratio (z) = 0.01995 0.55388
#
# Static dielectric constant tensor:
#      x y z
#    x 1.757280 0.000000 0.011050 
#    y 0.000000 1.770980 0.000000 
#    z 0.011050 0.000000 1.700110 
# 
# From -- ./inp_files/119131.got.cif
#   From: 2010.05.17/outbox.cif.g08.bks.cpg/sg12_60_cif.got.tgz:119131.got - 2010.06.03 13:09:07.
