data_PCOD9208053
_publ_section_title
;
Structure prediction by ZEFSAII (Michael W. Deem and Ramdas Pophale) SiO2 
 PCOD9208053
Probable space group: C 2/M
;
_chemical_formula_sum "Si O2"
_cell_formula_units_Z 56
_cell_length_a 15.310349
_cell_length_b 17.775423
_cell_length_c 12.510130
_cell_angle_alpha 90.000000
_cell_angle_beta 57.185336
_cell_angle_gamma 90.000000
_cell_volume 2861.325970
_symmetry_space_group_name_H-M "C 2/M"
_symmetry_group_IT_number 12
_symmetry_cell_setting 'monoclinic'
loop_
_space_group_symop_operation_xyz
x,y,z
-x,y,-z
-x,-y,-z
x,-y,z
1/2+x,1/2+y,z
1/2-x,1/2+y,-z
1/2-x,1/2-y,-z
1/2+x,1/2-y,z
loop_
_atom_site_type_symbol
_atom_site_label
_atom_site_fract_x
_atom_site_fract_y
_atom_site_fract_z
Si Si1 0.957399 0.698014 0.735082
Si Si2 0.379082 0.353590 0.884173
Si Si3 0.103961 0.912551 0.728700
Si Si4 0.645815 0.710206 0.523404
Si Si5 0.758768 0.158931 0.755851
Si Si6 0.766556 0.172532 0.176615
Si Si7 0.454043 0.087925 0.146569
O O1 0.050873 0.732054 0.602991
O O2 0.997589 0.636127 0.790470
O O3 0.915764 0.768458 0.833127
O O4 0.858265 0.668394 0.735607
O O5 0.482411 0.401086 0.837180
O O6 0.318774 0.376077 0.816407
O O7 0.304486 0.352813 0.035073
O O8 0.122832 0.862557 0.611008
O O9 0.174508 0.875365 0.773723
O O10 0.127518 0.000000 0.698856
O O11 0.750000 0.750000 0.500000
O O12 0.665059 0.682971 0.390426
O O13 0.708010 0.238783 0.825306
O O14 0.668242 0.105532 0.775209
O O15 0.474557 0.000000 0.148244
O O16 0.500000 0.109882 0.000000
#
# Coordination Sequence:
#
# PCOD9208053 Si02
#       7
#     8   8   8   8   8   8   8
#     4  10  21  37  61  91 121 155 214 260 304 368
#     4  10  22  38  64  94 121 162 207 260 313 370
#     4  11  25  42  62  92 130 170 209 256 320 385
#     4  11  21  43  66  91 121 168 210 262 311 370
#     4  11  21  40  64  90 122 159 214 262 312 368
#     4  11  21  38  65  93 122 162 209 259 313 368
#     4  11  22  35  55  86 125 163 198 251 319 378
#
# _framework density 19.571345999999998
#
# number of rings (size 3 to 8) (size 9 to 14) (size 15 to 20)
#    0.000    1.286    2.857    4.714    0.000    8.000 
#    0.000    0.714    0.000    0.857    0.000    0.000 
#    0.000    0.000    0.000    0.000    0.000    0.000 
#
# Total GULP energy -156527.770156 kJ/mol
# GULP energy per Si atom -5590.277506 kJ/mol
# Density = 1.952680 g / cm^3
# Si number density = 19.571346 Si / 1000 Ang^3
#
#
#
# Elastic Constant Matrix: (Units=GPa)
#
#
# Indices 1 2 3 4 5 6 
#
# 1 81.6082 23.4142 -7.2767 0.0000 -2.5527 0.0000
# 2 23.4142 42.3038 -4.4689 0.0000 -2.6302 0.0000
# 3 -7.2767 -4.4689 78.2176 0.0000 -0.1892 0.0000
# 4 0.0000 0.0000 0.0000 10.4578 0.0000 4.3868
# 5 -2.5527 -2.6302 -0.1892 0.0000 32.6956 0.0000
# 6 0.0000 0.0000 0.0000 4.3868 0.0000 -8.2017
#
#
#
# Elastic Compliance Matrix: (Units=1/GPa)
#
#
# Indices 1 2 3 4 5 6 
#
# 1 0.014638 -0.007975 0.000907 0.000000 0.000507 0.000000
# 2 -0.007975 0.028248 0.000876 0.000000 0.001655 0.000000
# 3 0.000907 0.000876 0.012920 0.000000 0.000216 0.000000
# 4 0.000000 0.000000 0.000000 0.078099 0.000000 0.041773
# 5 0.000507 0.001655 0.000216 0.000000 0.030759 0.000000
# 6 0.000000 0.000000 0.000000 0.041773 0.000000 -0.099583
#
#
# Mechanical properties :
#
#
# Convention : Reuss Voigt Hill
#
# Bulk Modulus (GPa) = 23.02897 25.05188 24.04042
# Shear Modulus (GPa) = 54.38408 19.68773 37.03591
#
# Velocity S-wave (km/s) = 5.27711 3.17511 4.35484
# Velocity P-wave (km/s) = 6.99448 5.12541 6.13158
#
# Compressibility (1/GPa) = 0.04342357
#
# Stress axis : x y z
#
# Youngs Moduli (GPa) = 68.31320 35.40099 77.40030
#
# Poissons Ratio (x) = 0.28231 -0.07024
# Poissons Ratio (y) = 0.54478 -0.06780
# Poissons Ratio (z) = -0.06199 -0.03101
#
# Static dielectric constant tensor:
#      x y z
#    x 1.699470 0.000000 -0.012070 
#    y 0.000000 1.668280 0.000000 
#    z -0.012070 0.000000 1.690410 
# 
# From -- ./inp_files/146041.got.cif
#   From: 2010.05.17/outbox.cif.g08.bks.cpg/sg12_74_cif.got.tgz:146041.got - 2010.06.03 13:09:07.
