data_PCOD9208436
_publ_section_title
;
Structure prediction by ZEFSAII (Michael W. Deem and Ramdas Pophale) SiO2 
 PCOD9208436
Probable space group: C 2/M
;
_chemical_formula_sum "Si O2"
_cell_formula_units_Z 48
_cell_length_a 8.999032
_cell_length_b 17.938594
_cell_length_c 12.967486
_cell_angle_alpha 90.000000
_cell_angle_beta 99.169852
_cell_angle_gamma 90.000000
_cell_volume 2066.588660
_symmetry_space_group_name_H-M "C 2/M"
_symmetry_group_IT_number 12
_symmetry_cell_setting 'monoclinic'
loop_
_space_group_symop_operation_xyz
x,y,z
-x,y,-z
-x,-y,-z
x,-y,z
1/2+x,1/2+y,z
1/2-x,1/2+y,-z
1/2-x,1/2-y,-z
1/2+x,1/2-y,z
loop_
_atom_site_type_symbol
_atom_site_label
_atom_site_fract_x
_atom_site_fract_y
_atom_site_fract_z
Si Si1 0.883395 0.202551 0.572055
Si Si2 0.079317 0.343997 0.618348
Si Si3 0.166509 0.644359 0.915720
Si Si4 0.948395 0.921582 0.874837
Si Si5 0.817030 0.189491 0.151808
Si Si6 0.096538 0.585245 0.221604
O O1 0.750000 0.250000 0.500000
O O2 0.762869 0.156237 0.628335
O O3 0.000000 0.165959 0.500000
O O4 0.999755 0.262761 0.634634
O O5 0.000000 0.362384 0.500000
O O6 0.009711 0.400191 0.692903
O O7 0.273518 0.587882 0.868093
O O8 0.169386 0.722433 0.853829
O O9 0.005765 0.606871 0.887898
O O10 0.236445 0.665230 0.034275
O O11 0.021844 0.849655 0.833514
O O12 0.994619 0.000000 0.831653
O O13 0.000000 0.922488 0.000000
O O14 0.726456 0.147946 0.231565
O O15 0.149011 0.500000 0.221742
#
# Coordination Sequence:
#
# PCOD9208436 Si02
#       6
#     8   8   8   8   8   8
#     4   7  13  31  58  84 105 137 187 235 284 334
#     4   9  19  36  58  85 115 148 188 236 289 345
#     4  10  21  38  57  81 112 149 194 244 286 333
#     4   9  17  32  54  75 102 142 183 228 280 332
#     4  10  21  38  58  81 111 150 197 240 284 337
#     4  12  25  36  55  88 122 157 190 236 296 347
#
# _framework density 23.226683000000001
#
# number of rings (size 3 to 8) (size 9 to 14) (size 15 to 20)
#    0.000    2.833    0.000    2.500    2.333    5.667 
#    0.000    0.000    0.000    0.500    0.000    0.000 
#    0.000    0.667    0.000    0.000    0.000    0.000 
#
# Total GULP energy -133670.495511 kJ/mol
# GULP energy per Si atom -5569.603980 kJ/mol
# Density = 2.317382 g / cm^3
# Si number density = 23.226683 Si / 1000 Ang^3
#
#
#
# Elastic Constant Matrix: (Units=GPa)
#
#
# Indices 1 2 3 4 5 6 
#
# 1 134.1360 21.1718 13.7437 0.0000 -23.0126 0.0000
# 2 21.1718 107.3856 7.1104 0.0000 -20.2750 0.0000
# 3 13.7437 7.1104 76.9263 0.0000 -4.6244 0.0000
# 4 0.0000 0.0000 0.0000 162.7354 0.0000 -116.7068
# 5 -23.0126 -20.2750 -4.6244 0.0000 36.9352 0.0000
# 6 0.0000 0.0000 0.0000 -116.7068 0.0000 79.3741
#
#
#
# Elastic Compliance Matrix: (Units=1/GPa)
#
#
# Indices 1 2 3 4 5 6 
#
# 1 0.008503 -0.000699 -0.001168 0.000000 0.004768 0.000000
# 2 -0.000699 0.010476 -0.000528 0.000000 0.005249 0.000000
# 3 -0.001168 -0.000528 0.013296 0.000000 0.000647 0.000000
# 4 0.000000 0.000000 0.000000 -0.112824 0.000000 -0.165890
# 5 0.004768 0.005249 0.000647 0.000000 0.033008 0.000000
# 6 0.000000 0.000000 0.000000 -0.165890 0.000000 -0.231317
#
#
# Mechanical properties :
#
#
# Convention : Reuss Voigt Hill
#
# Bulk Modulus (GPa) = 36.38280 44.72220 40.55250
# Shear Modulus (GPa) = -18.87454 74.23706 27.68126
#
# Velocity S-wave (km/s) = -2.85375 5.65963 3.45597
# Velocity P-wave (km/s) = 2.19994 7.87432 5.78121
#
# Compressibility (1/GPa) = 0.02748551
#
# Stress axis : x y z
#
# Youngs Moduli (GPa) = 117.60408 95.45586 75.21162
#
# Poissons Ratio (x) = 0.06671 0.08784
# Poissons Ratio (y) = 0.08219 0.03970
# Poissons Ratio (z) = 0.13735 0.05039
#
# Static dielectric constant tensor:
#      x y z
#    x 2.173400 0.000000 0.005300 
#    y 0.000000 1.830500 0.000000 
#    z 0.005300 0.000000 2.008180 
# 
# From -- ./inp_files/195997.got.cif
#   From: 2010.05.17/outbox.cif.g08.bks.cpg/sg12_98_cif.got.tgz:195997.got - 2010.06.03 13:09:07.
