data_PCOD9208800
_publ_section_title
;
Structure prediction by ZEFSAII (Michael W. Deem and Ramdas Pophale) SiO2 
 PCOD9208800
Probable space group: C 2/M
;
_chemical_formula_sum "Si O2"
_cell_formula_units_Z 50
_cell_length_a 25.193685
_cell_length_b 9.042146
_cell_length_c 12.755052
_cell_angle_alpha 90.000000
_cell_angle_beta 111.061866
_cell_angle_gamma 90.000000
_cell_volume 2711.545417
_symmetry_space_group_name_H-M "C 2/M"
_symmetry_group_IT_number 12
_symmetry_cell_setting 'monoclinic'
loop_
_space_group_symop_operation_xyz
x,y,z
-x,y,-z
-x,-y,-z
x,-y,z
1/2+x,1/2+y,z
1/2-x,1/2+y,-z
1/2-x,1/2-y,-z
1/2+x,1/2-y,z
loop_
_atom_site_type_symbol
_atom_site_label
_atom_site_fract_x
_atom_site_fract_y
_atom_site_fract_z
Si Si1 0.317124 0.323455 0.231504
Si Si2 0.685444 0.823731 0.185049
Si Si3 0.623561 0.823520 0.922629
Si Si4 0.494031 0.323129 0.118890
Si Si5 0.384429 0.836529 0.462961
Si Si6 0.000000 0.500000 0.500000
Si Si7 0.114178 0.176489 0.313993
O O1 0.323632 0.500000 0.229781
O O2 0.251086 0.290609 0.207586
O O3 0.337903 0.250571 0.138502
O O4 0.355095 0.257213 0.351397
O O5 0.660753 0.735636 0.265525
O O6 0.680229 0.000000 0.201006
O O7 0.648672 0.788974 0.055264
O O8 0.559688 0.761582 0.871993
O O9 0.623523 0.000000 0.908397
O O10 0.484369 0.500000 0.118527
O O11 0.552371 0.287757 0.220008
O O12 0.500000 0.284748 0.000000
O O13 0.380198 0.754985 0.570573
O O14 0.356454 0.000000 0.449573
O O15 0.449954 0.873495 0.482279
O O16 0.118193 0.000000 0.327539
#
# Coordination Sequence:
#
# PCOD9208800 Si02
#       7
#     8   8   8   8   8   2   8
#     4  11  24  42  64  90 124 164 213 258 311 371
#     4  10  23  42  62  90 125 166 209 260 308 369
#     4  11  23  38  62  92 125 165 210 256 316 372
#     4  10  21  38  59  90 126 161 201 254 310 368
#     4  10  23  43  65  91 122 162 202 254 306 367
#     4   8  24  44  66  88 126 156 206 250 302 370
#     4  11  23  39  64  94 127 164 208 256 313 369
#
# _framework density 18.439668999999999
#
# number of rings (size 3 to 8) (size 9 to 14) (size 15 to 20)
#    0.480    1.120    1.600    2.400    2.240    4.160 
#    0.000    0.800    0.000    0.000    0.000    0.000 
#    0.000    0.000    0.000    0.000    0.000    0.000 
#
# Total GULP energy -139384.127604 kJ/mol
# GULP energy per Si atom -5575.365104 kJ/mol
# Density = 1.839770 g / cm^3
# Si number density = 18.439669 Si / 1000 Ang^3
#
#
#
# Elastic Constant Matrix: (Units=GPa)
#
#
# Indices 1 2 3 4 5 6 
#
# 1 108.8395 42.5536 12.8298 0.0000 -11.8742 0.0000
# 2 42.5536 43.6139 17.2390 0.0000 -7.9106 0.0000
# 3 12.8298 17.2390 41.3626 0.0000 -13.1082 0.0000
# 4 0.0000 0.0000 0.0000 25.6652 0.0000 -7.2982
# 5 -11.8742 -7.9106 -13.1082 0.0000 12.0560 0.0000
# 6 0.0000 0.0000 0.0000 -7.2982 0.0000 30.5174
#
#
#
# Elastic Compliance Matrix: (Units=1/GPa)
#
#
# Indices 1 2 3 4 5 6 
#
# 1 0.015818 -0.015427 0.004962 0.000000 0.010853 0.000000
# 2 -0.015427 0.043079 -0.013772 0.000000 -0.001901 0.000000
# 3 0.004962 -0.013772 0.041289 0.000000 0.040743 0.000000
# 4 0.000000 0.000000 0.000000 0.041806 0.000000 0.009998
# 5 0.010853 -0.001901 0.040743 0.000000 0.136687 0.000000
# 6 0.000000 0.000000 0.000000 0.009998 0.000000 0.035159
#
#
# Mechanical properties :
#
#
# Convention : Reuss Voigt Hill
#
# Bulk Modulus (GPa) = 19.33720 37.67343 28.50531
# Shear Modulus (GPa) = 13.17352 21.72728 17.45040
#
# Velocity S-wave (km/s) = 2.67575 3.43635 3.07962
# Velocity P-wave (km/s) = 4.47836 6.01828 5.30449
#
# Compressibility (1/GPa) = 0.05171380
#
# Stress axis : x y z
#
# Youngs Moduli (GPa) = 63.21740 23.21322 24.21953
#
# Poissons Ratio (x) = 0.35811 -0.12019
# Poissons Ratio (y) = 0.97524 0.33355
# Poissons Ratio (z) = -0.31371 0.31969
#
# Static dielectric constant tensor:
#      x y z
#    x 1.604750 0.000000 0.006130 
#    y 0.000000 1.619110 0.000000 
#    z 0.006130 0.000000 1.614150 
# 
# From -- ./inp_files/180187.got.cif
#   From: 2010.05.17/outbox.cif.g08.bks.cpg/sg12_91_cif.got.tgz:180187.got - 2010.06.03 13:09:07.
