data_PCOD9208589
_publ_section_title
;
Structure prediction by ZEFSAII (Michael W. Deem and Ramdas Pophale) SiO2 
 PCOD9208589
Probable space group: C 2/M
;
_chemical_formula_sum "Si O2"
_cell_formula_units_Z 60
_cell_length_a 23.946583
_cell_length_b 9.805111
_cell_length_c 15.141365
_cell_angle_alpha 90.000000
_cell_angle_beta 49.058216
_cell_angle_gamma 90.000000
_cell_volume 2685.493801
_symmetry_space_group_name_H-M "C 2/M"
_symmetry_group_IT_number 12
_symmetry_cell_setting 'monoclinic'
loop_
_space_group_symop_operation_xyz
x,y,z
-x,y,-z
-x,-y,-z
x,-y,z
1/2+x,1/2+y,z
1/2-x,1/2+y,-z
1/2-x,1/2-y,-z
1/2+x,1/2-y,z
loop_
_atom_site_type_symbol
_atom_site_label
_atom_site_fract_x
_atom_site_fract_y
_atom_site_fract_z
Si Si1 0.328471 0.720584 0.485874
Si Si2 0.372907 0.839601 0.748935
Si Si3 0.583226 0.344633 0.449522
Si Si4 0.058227 0.158527 0.176639
Si Si5 0.470180 0.841121 0.130743
Si Si6 0.252975 0.000000 0.530367
Si Si7 0.292186 0.348034 0.090876
Si Si8 0.806075 0.345027 0.242264
O O1 0.403113 0.687962 0.461778
O O2 0.309729 0.619811 0.425418
O O3 0.264146 0.676154 0.622652
O O4 0.314783 0.878140 0.480635
O O5 0.374914 0.770270 0.650533
O O6 0.427057 0.751078 0.753191
O O7 0.288007 0.825199 0.869057
O O8 0.391691 0.000000 0.727553
O O9 0.500000 0.339890 0.500000
O O10 0.610155 0.500000 0.404886
O O11 0.004527 0.236373 0.164513
O O12 0.038498 0.000000 0.215387
O O13 0.138616 0.156737 0.045374
O O14 0.382113 0.826618 0.216266
O O15 0.488548 0.000000 0.133400
O O16 0.500000 0.816009 0.000000
O O17 0.287918 0.500000 0.134641
O O18 0.304466 0.248447 0.159091
O O19 0.805848 0.500000 0.211101
#
# Coordination Sequence:
#
# PCOD9208589 Si02
#       8
#     8   8   8   8   8   4   8   8
#     4  11  22  45  65  97 126 164 208 267 315 388
#     4  11  24  42  64  93 123 167 215 259 312 369
#     4  11  24  44  68  96 131 169 209 263 328 389
#     4  11  23  41  60  91 130 168 209 263 311 371
#     4  10  21  38  58  87 125 165 205 249 308 370
#     4  10  24  42  70  94 126 160 210 264 324 368
#     4  10  22  37  63  92 124 161 209 258 307 365
#     4  11  21  36  63  92 121 163 207 250 305 370
#
# _framework density 22.342258999999999
#
# number of rings (size 3 to 8) (size 9 to 14) (size 15 to 20)
#    0.000    1.333    4.000    1.200    1.867    2.133 
#    4.800    0.000    0.000    0.000    0.000    0.000 
#    0.000    0.000    0.000    0.000    0.000    0.000 
#
# Total GULP energy -167233.916609 kJ/mol
# GULP energy per Si atom -5574.463887 kJ/mol
# Density = 2.229141 g / cm^3
# Si number density = 22.342259 Si / 1000 Ang^3
#
#
#
# Elastic Constant Matrix: (Units=GPa)
#
#
# Indices 1 2 3 4 5 6 
#
# 1 127.0086 78.7649 -3.3230 0.0000 -2.8925 0.0000
# 2 78.7649 212.1927 14.5212 0.0000 8.1491 0.0001
# 3 -3.3230 14.5212 31.8276 0.0000 -8.4560 0.0000
# 4 0.0000 0.0000 0.0000 -11.7185 0.0000 -15.5932
# 5 -2.8925 8.1491 -8.4560 0.0000 27.0247 0.0000
# 6 0.0000 0.0001 0.0000 -15.5932 0.0000 40.3592
#
#
#
# Elastic Compliance Matrix: (Units=1/GPa)
#
#
# Indices 1 2 3 4 5 6 
#
# 1 0.010830 -0.004452 0.004174 0.000000 0.003808 0.000000
# 2 -0.004452 0.006836 -0.004644 0.000000 -0.003991 0.000000
# 3 0.004174 -0.004644 0.037590 0.000000 0.013609 0.000000
# 4 0.000000 0.000000 0.000000 -0.056360 0.000000 -0.021775
# 5 0.003808 -0.003991 0.013609 0.000000 0.042872 0.000000
# 6 0.000000 0.000000 0.000000 -0.021775 0.000000 0.016364
#
#
# Mechanical properties :
#
#
# Convention : Reuss Voigt Hill
#
# Bulk Modulus (GPa) = 22.02119 61.21725 41.61922
# Shear Modulus (GPa) = 60.15720 29.87079 45.01399
#
# Velocity S-wave (km/s) = 5.19459 3.66042 4.49346
# Velocity P-wave (km/s) = 6.77171 6.73232 6.75204
#
# Compressibility (1/GPa) = 0.04541081
#
# Stress axis : x y z
#
# Youngs Moduli (GPa) = 92.33338 146.27665 26.60315
#
# Poissons Ratio (x) = 0.65122 -0.11103
# Poissons Ratio (y) = 0.41107 0.12355
# Poissons Ratio (z) = -0.38536 0.67934
#
# Static dielectric constant tensor:
#      x y z
#    x 1.860780 0.000000 -0.000020 
#    y 0.000000 1.769190 0.000000 
#    z -0.000020 0.000000 1.890460 
# 
# From -- ./inp_files/288285.got.cif
#   From: 2010.05.17/outbox.cif.g08.bks.cpg/sg12_145_cif.got.tgz:288285.got - 2010.06.03 13:09:07.
