data_PCOD9208018
_publ_section_title
;
Structure prediction by ZEFSAII (Michael W. Deem and Ramdas Pophale) SiO2 
 PCOD9208018
Probable space group: C 2/M
;
_chemical_formula_sum "Si O2"
_cell_formula_units_Z 34
_cell_length_a 5.146470
_cell_length_b 18.044261
_cell_length_c 18.615339
_cell_angle_alpha 90.000000
_cell_angle_beta 97.344133
_cell_angle_gamma 90.000000
_cell_volume 1714.517680
_symmetry_space_group_name_H-M "C 2/M"
_symmetry_group_IT_number 12
_symmetry_cell_setting 'monoclinic'
loop_
_space_group_symop_operation_xyz
x,y,z
-x,y,-z
-x,-y,-z
x,-y,z
1/2+x,1/2+y,z
1/2-x,1/2+y,-z
1/2-x,1/2-y,-z
1/2+x,1/2-y,z
loop_
_atom_site_type_symbol
_atom_site_label
_atom_site_fract_x
_atom_site_fract_y
_atom_site_fract_z
Si Si1 0.286204 0.150849 0.044982
Si Si2 0.508753 0.910816 0.669891
Si Si3 0.797008 0.296871 0.208614
Si Si4 0.467693 0.410108 0.580161
Si Si5 0.000000 0.500000 0.000000
O O1 0.283051 0.183498 0.123977
O O2 0.500000 0.189511 0.000000
O O3 0.388222 0.066062 0.049043
O O4 0.000000 0.148804 0.000000
O O5 0.611777 0.867301 0.742381
O O6 0.215007 0.888941 0.637703
O O7 0.698587 0.890843 0.609963
O O8 0.519531 0.000000 0.680479
O O9 0.517863 0.266262 0.224060
O O10 0.500000 0.382277 0.500000
O O11 0.472909 0.500000 0.576444
#
# Coordination Sequence:
#
# PCOD9208018 Si02
#       5
#     8   8   8   8   2
#     4  10  22  40  63  87 117 154 199 240 299 345
#     4  10  21  37  61  89 116 157 200 242 293 354
#     4  12  26  42  60  86 124 164 194 245 298 351
#     4   9  17  33  59  92 120 146 192 252 300 343
#     4   8  22  40  62  96 118 148 186 270 290 348
#
# _framework density 19.830651
#
# number of rings (size 3 to 8) (size 9 to 14) (size 15 to 20)
#    0.706    1.176    0.000    3.882    1.647    5.647 
#    0.000    0.000    0.000   14.118    0.000    0.000 
#    0.000    0.000    0.000    0.000    0.000    0.000 
#
# Total GULP energy -94642.168673 kJ/mol
# GULP energy per Si atom -5567.186393 kJ/mol
# Density = 1.978552 g / cm^3
# Si number density = 19.830651 Si / 1000 Ang^3
#
#
#
# Elastic Constant Matrix: (Units=GPa)
#
#
# Indices 1 2 3 4 5 6 
#
# 1 56.0917 -11.8889 -11.2651 0.0000 -1.3287 0.0000
# 2 -11.8889 48.9434 8.3905 0.0000 2.8787 0.0000
# 3 -11.2651 8.3905 73.7377 0.0000 0.1288 0.0000
# 4 0.0000 0.0000 0.0000 3.9007 0.0000 3.9846
# 5 -1.3287 2.8787 0.1288 0.0000 26.7022 0.0000
# 6 0.0000 0.0000 0.0000 3.9846 0.0000 13.5048
#
#
#
# Elastic Compliance Matrix: (Units=1/GPa)
#
#
# Indices 1 2 3 4 5 6 
#
# 1 0.019227 0.004221 0.002456 0.000000 0.000490 0.000000
# 2 0.004221 0.021899 -0.001843 0.000000 -0.002142 0.000000
# 3 0.002456 -0.001843 0.014146 0.000000 0.000253 0.000000
# 4 0.000000 0.000000 0.000000 0.366968 0.000000 -0.108273
# 5 0.000490 -0.002142 0.000253 0.000000 0.037704 0.000000
# 6 0.000000 0.000000 0.000000 -0.108273 0.000000 0.105993
#
#
# Mechanical properties :
#
#
# Convention : Reuss Voigt Hill
#
# Bulk Modulus (GPa) = 15.39885 16.58287 15.99086
# Shear Modulus (GPa) = 8.65176 21.72396 15.18786
#
# Velocity S-wave (km/s) = 2.09100 3.31339 2.77045
# Velocity P-wave (km/s) = 3.68941 4.79775 4.27961
#
# Compressibility (1/GPa) = 0.06493990
#
# Stress axis : x y z
#
# Youngs Moduli (GPa) = 52.00898 45.66424 70.69065
#
# Poissons Ratio (x) = -0.19273 -0.17364
# Poissons Ratio (y) = -0.21951 0.13030
# Poissons Ratio (z) = -0.12775 0.08417
#
# Static dielectric constant tensor:
#      x y z
#    x 1.707400 0.000000 -0.008900 
#    y 0.000000 1.690540 0.000000 
#    z -0.008900 0.000000 1.676160 
# 
# From -- ./inp_files/191226.got.cif
#   From: 2010.05.17/outbox.cif.g08.bks.cpg/sg12_96_cif.got.tgz:191226.got - 2010.06.03 13:09:07.
