data_PCOD9208581
_publ_section_title
;
Structure prediction by ZEFSAII (Michael W. Deem and Ramdas Pophale) SiO2 
 PCOD9208581
Probable space group: C 2/M
;
_chemical_formula_sum "Si O2"
_cell_formula_units_Z 48
_cell_length_a 32.245117
_cell_length_b 7.636643
_cell_length_c 12.364715
_cell_angle_alpha 90.000000
_cell_angle_beta 120.342995
_cell_angle_gamma 90.000000
_cell_volume 2627.663569
_symmetry_space_group_name_H-M "C 2/M"
_symmetry_group_IT_number 12
_symmetry_cell_setting 'monoclinic'
loop_
_space_group_symop_operation_xyz
x,y,z
-x,y,-z
-x,-y,-z
x,-y,z
1/2+x,1/2+y,z
1/2-x,1/2+y,-z
1/2-x,1/2-y,-z
1/2+x,1/2-y,z
loop_
_atom_site_type_symbol
_atom_site_label
_atom_site_fract_x
_atom_site_fract_y
_atom_site_fract_z
Si Si1 0.947365 0.000000 0.792680
Si Si2 0.699306 0.788326 0.276675
Si Si3 0.059712 0.000000 0.956362
Si Si4 0.300157 0.207801 0.124764
Si Si5 0.133723 0.289020 0.985449
Si Si6 0.304784 0.297554 0.378297
Si Si7 0.623282 0.199832 0.358374
O O1 0.921116 0.829890 0.709758
O O2 0.004223 0.000000 0.849104
O O3 0.938924 0.000000 0.911150
O O4 0.753754 0.721640 0.352338
O O5 0.664149 0.736680 0.327115
O O6 0.702815 0.000000 0.284384
O O7 0.673371 0.744884 0.129733
O O8 0.087777 0.828609 0.951077
O O9 0.342734 0.256519 0.098636
O O10 0.303405 0.290301 0.247007
O O11 0.302233 0.000000 0.142680
O O12 0.250000 0.250000 0.000000
O O13 0.125204 0.500000 0.979382
O O14 0.308118 0.500000 0.416230
O O15 0.350114 0.204970 0.491598
O O16 0.610274 0.000000 0.313056
#
# Coordination Sequence:
#
# PCOD9208581 Si02
#       7
#     4   8   4   8   8   8   8
#     4  11  24  42  61  95 117 149 210 257 296 366
#     4   9  18  33  54  84 122 162 193 233 292 358
#     4  11  24  40  67  89 117 159 200 251 318 343
#     4  11  22  35  54  85 123 163 204 241 289 352
#     4  10  21  38  58  86 124 156 195 244 294 357
#     4  11  21  35  56  86 124 163 204 238 288 361
#     4  11  22  40  59  83 123 161 195 250 301 353
#
# _framework density 18.267178999999999
#
# number of rings (size 3 to 8) (size 9 to 14) (size 15 to 20)
#    0.000    1.500    4.167    1.500    2.333    0.667 
#    4.500    1.667    0.000    2.000    0.000    3.500 
#    0.000    0.000    0.000    0.000    0.000    0.000 
#
# Total GULP energy -134075.134777 kJ/mol
# GULP energy per Si atom -5586.463949 kJ/mol
# Density = 1.822560 g / cm^3
# Si number density = 18.267179 Si / 1000 Ang^3
#
#
#
# Elastic Constant Matrix: (Units=GPa)
#
#
# Indices 1 2 3 4 5 6 
#
# 1 88.7895 38.3427 33.8718 0.0000 25.7108 0.0000
# 2 38.3427 83.9995 23.8351 0.0000 20.2141 0.0000
# 3 33.8718 23.8351 88.6792 0.0000 18.3980 0.0000
# 4 0.0000 0.0000 0.0000 24.6010 0.0000 0.7587
# 5 25.7108 20.2141 18.3980 0.0000 31.7943 0.0000
# 6 0.0000 0.0000 0.0000 0.7587 0.0000 27.2897
#
#
#
# Elastic Compliance Matrix: (Units=1/GPa)
#
#
# Indices 1 2 3 4 5 6 
#
# 1 0.017200 -0.004729 -0.003451 0.000000 -0.008905 0.000000
# 2 -0.004729 0.015739 -0.001297 0.000000 -0.005432 0.000000
# 3 -0.003451 -0.001297 0.013857 0.000000 -0.004403 0.000000
# 4 0.000000 0.000000 0.000000 0.040684 0.000000 -0.001131
# 5 -0.008905 -0.005432 -0.004403 0.000000 0.044655 0.000000
# 6 0.000000 0.000000 0.000000 -0.001131 0.000000 0.036675
#
#
# Mechanical properties :
#
#
# Convention : Reuss Voigt Hill
#
# Bulk Modulus (GPa) = 35.91782 50.39638 43.15710
# Shear Modulus (GPa) = 25.37510 27.76490 26.57000
#
# Velocity S-wave (km/s) = 3.73112 3.90286 3.81796
# Velocity P-wave (km/s) = 6.18602 6.92518 6.56601
#
# Compressibility (1/GPa) = 0.02784133
#
# Stress axis : x y z
#
# Youngs Moduli (GPa) = 58.13968 63.53836 72.16634
#
# Poissons Ratio (x) = 0.30046 0.24905
# Poissons Ratio (y) = 0.27493 0.09361
# Poissons Ratio (z) = 0.20065 0.08241
#
# Static dielectric constant tensor:
#      x y z
#    x 1.612290 0.000000 -0.034880 
#    y 0.000000 1.698640 0.000000 
#    z -0.034880 0.000000 1.829160 
# 
# From -- ./inp_files/172455.got.cif
#   From: 2010.05.17/outbox.cif.g08.bks.cpg/sg12_87_cif.got.tgz:172455.got - 2010.06.03 13:09:07.
