data_PCOD9208944
_publ_section_title
;
Structure prediction by ZEFSAII (Michael W. Deem and Ramdas Pophale) SiO2 
 PCOD9208944
Probable space group: C 2/M
;
_chemical_formula_sum "Si O2"
_cell_formula_units_Z 48
_cell_length_a 25.171027
_cell_length_b 7.862110
_cell_length_c 20.076281
_cell_angle_alpha 90.000000
_cell_angle_beta 146.925357
_cell_angle_gamma 90.000000
_cell_volume 2168.213639
_symmetry_space_group_name_H-M "C 2/M"
_symmetry_group_IT_number 12
_symmetry_cell_setting 'monoclinic'
loop_
_space_group_symop_operation_xyz
x,y,z
-x,y,-z
-x,-y,-z
x,-y,z
1/2+x,1/2+y,z
1/2-x,1/2+y,-z
1/2-x,1/2-y,-z
1/2+x,1/2-y,z
loop_
_atom_site_type_symbol
_atom_site_label
_atom_site_fract_x
_atom_site_fract_y
_atom_site_fract_z
Si Si1 0.911456 0.708229 0.359830
Si Si2 0.803217 0.800180 0.845361
Si Si3 0.279206 0.300752 0.455801
Si Si4 0.431068 0.803130 0.096821
Si Si5 0.604042 0.304814 0.186469
Si Si6 0.996024 0.293809 0.308746
O O1 0.909369 0.500000 0.359098
O O2 0.805817 0.770470 0.272074
O O3 0.934347 0.758620 0.308144
O O4 0.000000 0.762519 0.500000
O O5 0.877213 0.730505 0.867339
O O6 0.796746 0.000000 0.822443
O O7 0.847563 0.781675 0.965097
O O8 0.260285 0.500000 0.426553
O O9 0.250000 0.250000 0.500000
O O10 0.209515 0.201135 0.332281
O O11 0.392772 0.263605 0.565811
O O12 0.529200 0.788568 0.156091
O O13 0.453581 0.731581 0.193666
O O14 0.404679 0.000000 0.076486
O O15 0.568191 0.500000 0.144536
O O16 0.997628 0.500000 0.307877
#
# Coordination Sequence:
#
# PCOD9208944 Si02
#       6
#     8   8   8   8   8   8
#     4   9  18  37  64  88 112 149 199 249 294 346
#     4  10  22  39  61  87 115 155 204 248 292 348
#     4  12  23  36  58  88 120 154 192 240 294 349
#     4  11  23  37  56  85 122 159 196 245 301 355
#     4  11  22  38  61  87 118 156 200 249 295 349
#     4  10  21  38  60  87 119 156 199 244 292 350
#
# _framework density 22.138041000000001
#
# number of rings (size 3 to 8) (size 9 to 14) (size 15 to 20)
#    0.000    1.500    1.667    4.000    0.000    7.333 
#    0.000    0.833    0.000    2.000    0.000    0.000 
#    0.000    0.000    0.000    0.000    0.000    0.000 
#
# Total GULP energy -134216.483823 kJ/mol
# GULP energy per Si atom -5592.353493 kJ/mol
# Density = 2.208765 g / cm^3
# Si number density = 22.138041 Si / 1000 Ang^3
#
#
#
# Elastic Constant Matrix: (Units=GPa)
#
#
# Indices 1 2 3 4 5 6 
#
# 1 113.8314 2.3833 33.0353 0.0000 -8.8466 0.0000
# 2 2.3833 42.9927 -9.3794 0.0000 -1.5836 0.0000
# 3 33.0353 -9.3794 108.3882 0.0000 -13.5664 0.0000
# 4 0.0000 0.0000 0.0000 26.1798 0.0000 -3.1922
# 5 -8.8466 -1.5836 -13.5664 0.0000 33.7604 0.0000
# 6 0.0000 0.0000 0.0000 -3.1922 0.0000 11.8766
#
#
#
# Elastic Compliance Matrix: (Units=1/GPa)
#
#
# Indices 1 2 3 4 5 6 
#
# 1 0.009755 -0.001125 -0.002903 0.000000 0.001337 0.000000
# 2 -0.001125 0.023971 0.002655 0.000000 0.001896 0.000000
# 3 -0.002903 0.002655 0.010804 0.000000 0.003705 0.000000
# 4 0.000000 0.000000 0.000000 0.039492 0.000000 0.010614
# 5 0.001337 0.001896 0.003705 0.000000 0.031549 0.000000
# 6 0.000000 0.000000 0.000000 0.010614 0.000000 0.087052
#
#
# Mechanical properties :
#
#
# Convention : Reuss Voigt Hill
#
# Bulk Modulus (GPa) = 23.93294 35.25450 29.59372
# Shear Modulus (GPa) = 22.80004 30.30824 26.55414
#
# Velocity S-wave (km/s) = 3.21269 3.70409 3.46711
# Velocity P-wave (km/s) = 4.95945 5.85262 5.42445
#
# Compressibility (1/GPa) = 0.04178342
#
# Stress axis : x y z
#
# Youngs Moduli (GPa) = 102.51252 41.71690 92.55436
#
# Poissons Ratio (x) = 0.04693 0.26870
# Poissons Ratio (y) = 0.11532 -0.24569
# Poissons Ratio (z) = 0.29761 -0.11074
#
# Static dielectric constant tensor:
#      x y z
#    x 1.812070 0.000000 -0.010760 
#    y 0.000000 1.812070 0.000000 
#    z -0.010760 0.000000 1.804800 
# 
# From -- ./inp_files/327311.got.cif
#   From: 2010.05.17/outbox.cif.g08.bks.cpg/sg12_164_cif.got.tgz:327311.got - 2010.06.03 13:09:07.
