data_PCOD9208434
_publ_section_title
;
Structure prediction by ZEFSAII (Michael W. Deem and Ramdas Pophale) SiO2 
 PCOD9208434
Probable space group: C 2/M
;
_chemical_formula_sum "Si O2"
_cell_formula_units_Z 40
_cell_length_a 16.008815
_cell_length_b 25.388766
_cell_length_c 5.034523
_cell_angle_alpha 90.000000
_cell_angle_beta 91.014762
_cell_angle_gamma 90.000000
_cell_volume 2045.931035
_symmetry_space_group_name_H-M "C 2/M"
_symmetry_group_IT_number 12
_symmetry_cell_setting 'monoclinic'
loop_
_space_group_symop_operation_xyz
x,y,z
-x,y,-z
-x,-y,-z
x,-y,z
1/2+x,1/2+y,z
1/2-x,1/2+y,-z
1/2-x,1/2-y,-z
1/2+x,1/2-y,z
loop_
_atom_site_type_symbol
_atom_site_label
_atom_site_fract_x
_atom_site_fract_y
_atom_site_fract_z
Si Si1 0.096499 0.613198 0.939113
Si Si2 0.672570 0.061096 0.435415
Si Si3 0.091686 0.819790 0.127404
Si Si4 0.810831 0.855631 0.385716
Si Si5 0.315242 0.783726 0.834173
O O1 0.117025 0.592366 0.647962
O O2 0.130567 0.569941 0.147678
O O3 0.146566 0.666725 0.006935
O O4 0.000000 0.621935 0.000000
O O5 0.762055 0.090019 0.421103
O O6 0.678673 0.000000 0.503576
O O7 0.116150 0.849818 0.397004
O O8 0.112358 0.758997 0.206790
O O9 0.152080 0.843912 0.902756
O O10 0.000000 0.823514 0.000000
O O11 0.738028 0.810417 0.407389
O O12 0.250000 0.750000 0.000000
#
# Coordination Sequence:
#
# PCOD9208434 Si02
#       5
#     8   8   8   8   8
#     4  11  23  37  56  86 118 144 182 234 279 323
#     4  11  23  40  61  80 106 150 192 229 278 333
#     4  11  21  35  58  86 116 147 181 226 279 330
#     4  10  21  38  57  81 112 147 190 230 268 328
#     4   9  19  36  57  82 115 153 187 218 266 331
#
# _framework density 19.551002
#
# number of rings (size 3 to 8) (size 9 to 14) (size 15 to 20)
#    0.000    1.600    0.000    6.600    0.000    7.200 
#    0.000    8.000    0.000    3.600    0.000    0.000 
#    0.000    0.000    0.000    0.000    0.000    0.000 
#
# Total GULP energy -111620.891455 kJ/mol
# GULP energy per Si atom -5581.044573 kJ/mol
# Density = 1.950650 g / cm^3
# Si number density = 19.551002 Si / 1000 Ang^3
#
#
#
# Elastic Constant Matrix: (Units=GPa)
#
#
# Indices 1 2 3 4 5 6 
#
# 1 83.0411 34.7121 -7.5245 0.0000 18.4029 0.0000
# 2 34.7121 93.4041 -10.4273 0.0000 0.3072 0.0000
# 3 -7.5245 -10.4273 54.4395 0.0000 5.2525 0.0000
# 4 0.0000 0.0000 0.0000 18.6643 0.0000 -2.7408
# 5 18.4029 0.3072 5.2525 0.0000 37.3436 0.0000
# 6 0.0000 0.0000 0.0000 -2.7408 0.0000 9.9398
#
#
#
# Elastic Compliance Matrix: (Units=1/GPa)
#
#
# Indices 1 2 3 4 5 6 
#
# 1 0.016545 -0.005902 0.001965 0.000000 -0.008381 0.000000
# 2 -0.005902 0.013051 0.001433 0.000000 0.002599 0.000000
# 3 0.001965 0.001433 0.019271 0.000000 -0.003691 0.000000
# 4 0.000000 0.000000 0.000000 0.055839 0.000000 0.015397
# 5 -0.008381 0.002599 -0.003691 0.000000 0.031406 0.000000
# 6 0.000000 0.000000 0.000000 0.015397 0.000000 0.104852
#
#
# Mechanical properties :
#
#
# Convention : Reuss Voigt Hill
#
# Bulk Modulus (GPa) = 22.79983 29.37835 26.08909
# Shear Modulus (GPa) = 19.18720 27.46450 23.32585
#
# Velocity S-wave (km/s) = 3.13612 3.75208 3.45784
# Velocity P-wave (km/s) = 4.98003 5.81635 5.41436
#
# Compressibility (1/GPa) = 0.04385998
#
# Stress axis : x y z
#
# Youngs Moduli (GPa) = 60.44296 76.62343 51.89079
#
# Poissons Ratio (x) = 0.45220 -0.10197
# Poissons Ratio (y) = 0.35671 -0.07437
# Poissons Ratio (z) = -0.11877 -0.10982
#
# Static dielectric constant tensor:
#      x y z
#    x 1.714880 0.000000 -0.002010 
#    y 0.000000 1.682240 0.000000 
#    z -0.002010 0.000000 1.687030 
# 
# From -- ./inp_files/11378.got.cif
#   From: 2010.05.17/outbox.cif.g08.bks.cpg/sg12_6_cif.got.tgz:11378.got - 2010.06.03 13:09:07.
