data_PCOD9208596
_publ_section_title
;
Structure prediction by ZEFSAII (Michael W. Deem and Ramdas Pophale) SiO2 
 PCOD9208596
Probable space group: C 2/M
;
_chemical_formula_sum "Si O2"
_cell_formula_units_Z 58
_cell_length_a 14.783247
_cell_length_b 7.530178
_cell_length_c 21.584482
_cell_angle_alpha 90.000000
_cell_angle_beta 81.438737
_cell_angle_gamma 90.000000
_cell_volume 2376.021192
_symmetry_space_group_name_H-M "C 2/M"
_symmetry_group_IT_number 12
_symmetry_cell_setting 'monoclinic'
loop_
_space_group_symop_operation_xyz
x,y,z
-x,y,-z
-x,-y,-z
x,-y,z
1/2+x,1/2+y,z
1/2-x,1/2+y,-z
1/2-x,1/2-y,-z
1/2+x,1/2-y,z
loop_
_atom_site_type_symbol
_atom_site_label
_atom_site_fract_x
_atom_site_fract_y
_atom_site_fract_z
Si Si1 0.078919 0.717542 0.445548
Si Si2 0.718096 0.293276 0.264405
Si Si3 0.769916 0.798206 0.397133
Si Si4 0.042328 0.199606 0.212531
Si Si5 0.965699 0.703745 0.342516
Si Si6 0.500000 0.000000 0.000000
Si Si7 0.148770 0.789334 0.984585
Si Si8 0.880293 0.213981 0.155913
O O1 0.080834 0.500000 0.446899
O O2 0.042120 0.769999 0.381889
O O3 0.000000 0.776602 0.500000
O O4 0.183119 0.777867 0.443133
O O5 0.698751 0.500000 0.280507
O O6 0.738529 0.204108 0.328069
O O7 0.633102 0.218386 0.233290
O O8 0.805828 0.283897 0.211469
O O9 0.868308 0.708398 0.386659
O O10 0.784683 0.000000 0.415162
O O11 0.972333 0.192790 0.278040
O O12 0.980973 0.281850 0.164997
O O13 0.068901 0.000000 0.190333
O O14 0.983925 0.500000 0.324837
O O15 0.571549 0.157486 0.017499
O O16 0.146609 0.744549 0.911226
O O17 0.128583 0.000000 0.995001
O O18 0.250000 0.750000 0.000000
O O19 0.882382 0.000000 0.161657
#
# Coordination Sequence:
#
# PCOD9208596 Si02
#       8
#     8   8   8   8   8   2   8   8
#     4   9  20  38  58  80 111 153 202 253 309 379
#     4  11  22  35  60  93 126 165 206 258 324 391
#     4  11  21  36  58  82 116 160 201 248 318 380
#     4  10  21  38  58  88 129 165 202 255 323 388
#     4  11  21  35  58  85 114 154 201 252 307 376
#     4  12  26  48  84 112 148 204 254 300 380 436
#     4  11  25  49  78 110 151 198 253 311 366 435
#     4  10  23  42  65  98 137 172 217 275 331 400
#
# _framework density 24.410556
#
# number of rings (size 3 to 8) (size 9 to 14) (size 15 to 20)
#    0.000    1.517    3.448    1.448    0.966    2.207 
#    0.000    1.379    0.000    5.793    0.000    0.000 
#    0.000    0.000    0.000    0.000    0.000    0.000 
#
# Total GULP energy -161893.970381 kJ/mol
# GULP energy per Si atom -5582.550703 kJ/mol
# Density = 2.435500 g / cm^3
# Si number density = 24.410556 Si / 1000 Ang^3
#
#
#
# Elastic Constant Matrix: (Units=GPa)
#
#
# Indices 1 2 3 4 5 6 
#
# 1 137.5855 17.2387 -3.2312 0.0000 5.2590 0.0000
# 2 17.2387 105.2163 7.1365 0.0000 3.4117 0.0000
# 3 -3.2312 7.1365 51.5953 0.0000 -1.3374 0.0000
# 4 0.0000 0.0000 0.0000 9.0499 0.0000 0.8811
# 5 5.2590 3.4117 -1.3374 0.0000 37.8741 0.0000
# 6 0.0000 0.0000 0.0000 0.8811 0.0000 23.3764
#
#
#
# Elastic Compliance Matrix: (Units=1/GPa)
#
#
# Indices 1 2 3 4 5 6 
#
# 1 0.007472 -0.001237 0.000616 0.000000 -0.000904 0.000000
# 2 -0.001237 0.009830 -0.001457 0.000000 -0.000765 0.000000
# 3 0.000616 -0.001457 0.019641 0.000000 0.000739 0.000000
# 4 0.000000 0.000000 0.000000 0.110906 0.000000 -0.004180
# 5 -0.000904 -0.000765 0.000739 0.000000 0.026624 0.000000
# 6 0.000000 0.000000 0.000000 -0.004180 0.000000 0.042936
#
#
# Mechanical properties :
#
#
# Convention : Reuss Voigt Hill
#
# Bulk Modulus (GPa) = 30.49963 37.40945 33.95454
# Shear Modulus (GPa) = 21.50591 32.27694 26.89143
#
# Velocity S-wave (km/s) = 2.97140 3.64023 3.32268
# Velocity P-wave (km/s) = 4.92888 5.74689 5.35353
#
# Compressibility (1/GPa) = 0.03278728
#
# Stress axis : x y z
#
# Youngs Moduli (GPa) = 133.82975 101.72434 50.91433
#
# Poissons Ratio (x) = 0.12580 -0.03134
# Poissons Ratio (y) = 0.16550 0.07418
# Poissons Ratio (z) = -0.08238 0.14821
#
# Static dielectric constant tensor:
#      x y z
#    x 1.946460 0.000000 -0.010800 
#    y 0.000000 1.946320 0.000000 
#    z -0.010800 0.000000 1.953630 
# 
# From -- ./inp_files/337980.got.cif
#   From: 2010.05.17/outbox.cif.g08.bks.cpg/sg12_169_cif.got.tgz:337980.got - 2010.06.03 13:09:07.
