data_PCOD9208730
_publ_section_title
;
Structure prediction by ZEFSAII (Michael W. Deem and Ramdas Pophale) SiO2 
 PCOD9208730
Probable space group: C 2/M
;
_chemical_formula_sum "Si O2"
_cell_formula_units_Z 32
_cell_length_a 11.880785
_cell_length_b 16.908570
_cell_length_c 16.103116
_cell_angle_alpha 90.000000
_cell_angle_beta 153.502930
_cell_angle_gamma 90.000000
_cell_volume 1443.260840
_symmetry_space_group_name_H-M "C 2/M"
_symmetry_group_IT_number 12
_symmetry_cell_setting 'monoclinic'
loop_
_space_group_symop_operation_xyz
x,y,z
-x,y,-z
-x,-y,-z
x,-y,z
1/2+x,1/2+y,z
1/2-x,1/2+y,-z
1/2-x,1/2-y,-z
1/2+x,1/2-y,z
loop_
_atom_site_type_symbol
_atom_site_label
_atom_site_fract_x
_atom_site_fract_y
_atom_site_fract_z
Si Si1 0.364911 0.911001 0.277667
Si Si2 0.866722 0.125607 0.696519
Si Si3 0.461636 0.792572 0.196912
Si Si4 0.549404 0.090251 0.941740
O O1 0.211039 0.888347 0.259073
O O2 0.654912 0.913346 0.499701
O O3 0.347377 0.842299 0.197444
O O4 0.296353 0.000000 0.203160
O O5 0.862817 0.218297 0.668452
O O6 0.148343 0.093226 0.871160
O O7 0.250000 0.750000 0.000000
O O8 0.579518 0.858004 0.214250
O O9 0.462278 0.000000 0.881787
O O10 0.500000 0.124613 0.000000
#
# Coordination Sequence:
#
# PCOD9208730 Si02
#       4
#     8   8   8   8
#     4  11  22  41  66  93 122 159 208 257 307 363
#     4  10  22  39  65  90 123 159 204 257 308 359
#     4  10  23  37  60  88 126 159 202 248 308 361
#     4  10  21  38  59  85 123 163 204 248 299 365
#
# _framework density 22.172014999999998
#
# number of rings (size 3 to 8) (size 9 to 14) (size 15 to 20)
#    0.000    1.750    0.000    4.500    7.000    3.000 
#    0.000    6.250    0.000    4.500    0.000    0.000 
#    0.000    0.000    0.000    0.000    0.000    0.000 
#
# Total GULP energy -89365.570003 kJ/mol
# GULP energy per Si atom -5585.348125 kJ/mol
# Density = 2.212155 g / cm^3
# Si number density = 22.172015 Si / 1000 Ang^3
#
#
#
# Elastic Constant Matrix: (Units=GPa)
#
#
# Indices 1 2 3 4 5 6 
#
# 1 92.7195 40.1771 9.5864 0.0093 -15.2204 0.0059
# 2 40.1771 141.6154 26.3300 0.0030 -14.2377 0.0003
# 3 9.5864 26.3300 47.0705 0.0183 -1.5521 0.0024
# 4 0.0093 0.0030 0.0183 5.7770 0.0132 -9.6191
# 5 -15.2204 -14.2377 -1.5521 0.0132 28.6261 0.0062
# 6 0.0059 0.0003 0.0024 -9.6191 0.0062 28.8656
#
#
#
# Elastic Compliance Matrix: (Units=1/GPa)
#
#
# Indices 1 2 3 4 5 6 
#
# 1 0.013060 -0.003014 -0.000796 -0.000080 0.005402 -0.000030
# 2 -0.003014 0.008985 -0.004326 0.000019 0.002632 0.000007
# 3 -0.000796 -0.004326 0.023784 -0.000160 -0.001285 -0.000055
# 4 -0.000080 0.000019 -0.000160 0.388866 -0.000249 0.129585
# 5 0.005402 0.002632 -0.001285 -0.000249 0.039045 -0.000093
# 6 -0.000030 0.000007 -0.000055 0.129585 -0.000093 0.077826
#
#
# Mechanical properties :
#
#
# Convention : Reuss Voigt Hill
#
# Bulk Modulus (GPa) = 33.83069 48.17693 41.00381
# Shear Modulus (GPa) = 8.65517 26.34123 17.49820
#
# Velocity S-wave (km/s) = 1.97791 3.45053 2.81232
# Velocity P-wave (km/s) = 4.52853 6.13602 5.39251
#
# Compressibility (1/GPa) = 0.02955896
#
# Stress axis : x y z
#
# Youngs Moduli (GPa) = 76.56748 111.29203 42.04497
#
# Poissons Ratio (x) = 0.33547 0.03345
# Poissons Ratio (y) = 0.23080 0.18187
# Poissons Ratio (z) = 0.06092 0.48139
#
# Static dielectric constant tensor:
#      x y z
#    x 1.794260 0.000020 -0.018080 
#    y 0.000020 1.838120 -0.000020 
#    z -0.018080 -0.000020 1.844490 
# 
# From -- ./inp_files/45313.got.cif
#   From: 2010.05.17/outbox.cif.g08.bks.cpg/sg12_23_cif.got.tgz:45313.got - 2010.06.03 13:09:07.
