data_PCOD9208537
_publ_section_title
;
Structure prediction by ZEFSAII (Michael W. Deem and Ramdas Pophale) SiO2 
 PCOD9208537
Probable space group: C 2/M
;
_chemical_formula_sum "Si O2"
_cell_formula_units_Z 48
_cell_length_a 21.929163
_cell_length_b 9.363935
_cell_length_c 11.960851
_cell_angle_alpha 90.000000
_cell_angle_beta 106.758417
_cell_angle_gamma 90.000000
_cell_volume 2351.767955
_symmetry_space_group_name_H-M "C 2/M"
_symmetry_group_IT_number 12
_symmetry_cell_setting 'monoclinic'
loop_
_space_group_symop_operation_xyz
x,y,z
-x,y,-z
-x,-y,-z
x,-y,z
1/2+x,1/2+y,z
1/2-x,1/2+y,-z
1/2-x,1/2-y,-z
1/2+x,1/2-y,z
loop_
_atom_site_type_symbol
_atom_site_label
_atom_site_fract_x
_atom_site_fract_y
_atom_site_fract_z
Si Si1 0.152998 0.835239 0.486145
Si Si2 0.752346 0.836036 0.675804
Si Si3 0.955582 0.170787 0.725138
Si Si4 0.097203 0.833267 0.864915
Si Si5 0.763584 0.833038 0.121121
Si Si6 0.075086 0.661986 0.071638
O O1 0.195376 0.832279 0.394839
O O2 0.188288 0.729476 0.588213
O O3 0.082364 0.794858 0.408148
O O4 0.154033 0.000000 0.528161
O O5 0.769652 0.739742 0.790944
O O6 0.744083 0.000000 0.706497
O O7 0.923620 0.250667 0.812899
O O8 0.030803 0.204510 0.769336
O O9 0.948565 0.000000 0.737377
O O10 0.159804 0.819245 0.823449
O O11 0.092079 0.000000 0.896166
O O12 0.105179 0.740774 0.981256
O O13 0.748510 0.000000 0.103010
O O14 0.750000 0.750000 0.000000
O O15 0.097962 0.500000 0.097207
O O16 0.000000 0.656967 0.000000
#
# Coordination Sequence:
#
# PCOD9208537 Si02
#       6
#     8   8   8   8   8   8
#     4   9  19  36  60  85 109 140 182 229 275 324
#     4  10  21  38  58  83 113 144 182 227 274 327
#     4   9  17  32  55  80 106 140 182 228 273 320
#     4   9  19  35  53  75 106 144 185 225 269 324
#     4  11  24  40  58  80 110 149 189 227 273 330
#     4   9  17  28  45  74 110 142 174 218 270 320
#
# _framework density 20.410176
#
# number of rings (size 3 to 8) (size 9 to 14) (size 15 to 20)
#    0.000    2.500    0.000    1.500    2.333    4.667 
#    0.000    0.833    0.000    5.000    0.000    0.000 
#    0.000    0.000    0.000    0.000    0.000    0.000 
#
# Total GULP energy -134008.305082 kJ/mol
# GULP energy per Si atom -5583.679378 kJ/mol
# Density = 2.036372 g / cm^3
# Si number density = 20.410176 Si / 1000 Ang^3
#
#
#
# Elastic Constant Matrix: (Units=GPa)
#
#
# Indices 1 2 3 4 5 6 
#
# 1 62.5930 14.8479 6.0469 0.0000 13.3026 0.0000
# 2 14.8479 87.2592 39.7432 0.0000 1.5419 0.0000
# 3 6.0469 39.7432 64.0008 0.0000 13.9677 0.0000
# 4 0.0000 0.0000 0.0000 33.9599 0.0000 -0.2092
# 5 13.3026 1.5419 13.9677 0.0000 32.7775 0.0000
# 6 0.0000 0.0000 0.0000 -0.2092 0.0000 18.6152
#
#
#
# Elastic Compliance Matrix: (Units=1/GPa)
#
#
# Indices 1 2 3 4 5 6 
#
# 1 0.018523 -0.004250 0.002741 0.000000 -0.008486 0.000000
# 2 -0.004250 0.017404 -0.011691 0.000000 0.005888 0.000000
# 3 0.002741 -0.011691 0.025081 0.000000 -0.011251 0.000000
# 4 0.000000 0.000000 0.000000 0.029449 0.000000 0.000331
# 5 -0.008486 0.005888 -0.011251 0.000000 0.038470 0.000000
# 6 0.000000 0.000000 0.000000 0.000331 0.000000 0.053723
#
#
# Mechanical properties :
#
#
# Convention : Reuss Voigt Hill
#
# Bulk Modulus (GPa) = 28.89521 37.23655 33.06588
# Shear Modulus (GPa) = 22.66682 27.28485 24.97584
#
# Velocity S-wave (km/s) = 3.33613 3.66023 3.50193
# Velocity P-wave (km/s) = 5.38773 6.01222 5.70852
#
# Compressibility (1/GPa) = 0.03460781
#
# Stress axis : x y z
#
# Youngs Moduli (GPa) = 53.98668 57.45742 39.87057
#
# Poissons Ratio (x) = 0.24422 -0.10930
# Poissons Ratio (y) = 0.22947 0.46613
# Poissons Ratio (z) = -0.14800 0.67174
#
# Static dielectric constant tensor:
#      x y z
#    x 1.771570 0.000000 0.039610 
#    y 0.000000 1.693870 0.000000 
#    z 0.039610 0.000000 1.709430 
# 
# From -- ./inp_files/172930.got.cif
#   From: 2010.05.17/outbox.cif.g08.bks.cpg/sg12_87_cif.got.tgz:172930.got - 2010.06.03 13:09:07.
