data_PCOD9208327
_publ_section_title
;
Structure prediction by ZEFSAII (Michael W. Deem and Ramdas Pophale) SiO2 
 PCOD9208327
Probable space group: C 2/M
;
_chemical_formula_sum "Si O2"
_cell_formula_units_Z 48
_cell_length_a 13.331426
_cell_length_b 30.017383
_cell_length_c 10.984198
_cell_angle_alpha 90.000000
_cell_angle_beta 145.671823
_cell_angle_gamma 90.000000
_cell_volume 2478.818394
_symmetry_space_group_name_H-M "C 2/M"
_symmetry_group_IT_number 12
_symmetry_cell_setting 'monoclinic'
loop_
_space_group_symop_operation_xyz
x,y,z
-x,y,-z
-x,-y,-z
x,-y,z
1/2+x,1/2+y,z
1/2-x,1/2+y,-z
1/2-x,1/2-y,-z
1/2+x,1/2-y,z
loop_
_atom_site_type_symbol
_atom_site_label
_atom_site_fract_x
_atom_site_fract_y
_atom_site_fract_z
Si Si1 0.308553 0.800737 0.047896
Si Si2 0.989921 0.140930 0.355894
Si Si3 0.715623 0.500000 0.327020
Si Si4 0.401348 0.427776 0.057750
Si Si5 0.702356 0.657119 0.193595
Si Si6 0.294444 0.197373 0.546519
Si Si7 0.873044 0.500000 0.208528
O O1 0.292979 0.820683 0.168441
O O2 0.508252 0.805802 0.206214
O O3 0.250000 0.750000 0.000000
O O4 0.178693 0.827143 0.829637
O O5 0.157015 0.171738 0.493111
O O6 0.000000 0.121393 0.500000
O O7 0.971816 0.104990 0.231915
O O8 0.573212 0.459472 0.201917
O O9 0.798963 0.500000 0.274901
O O10 0.911219 0.500000 0.592198
O O11 0.321643 0.395023 0.871179
O O12 0.234720 0.456338 0.942997
O O13 0.785291 0.672572 0.404639
O O14 0.500000 0.674136 0.000000
O O15 0.250000 0.250000 0.500000
#
# Coordination Sequence:
#
# PCOD9208327 Si02
#       7
#     8   8   4   8   8   8   4
#     4  11  23  40  60  88 121 164 217 273 319 370
#     4  11  26  44  62  89 128 175 222 269 319 378
#     4  10  21  37  68 100 134 161 192 262 323 405
#     4  10  21  42  64  94 134 161 206 257 328 386
#     4  11  20  39  63  94 127 165 209 262 324 385
#     4  12  24  40  62  90 120 172 221 272 320 370
#     4  10  21  37  66 104 132 157 197 257 329 400
#
# _framework density 19.364063999999999
#
# number of rings (size 3 to 8) (size 9 to 14) (size 15 to 20)
#    0.000    1.167    5.000    2.500    2.333    3.333 
#    9.000    1.667    0.000    1.000    0.000    0.000 
#    0.000    0.000    0.000    0.000    0.000    0.000 
#
# Total GULP energy -133725.069294 kJ/mol
# GULP energy per Si atom -5571.877887 kJ/mol
# Density = 1.931999 g / cm^3
# Si number density = 19.364064 Si / 1000 Ang^3
#
#
#
# Elastic Constant Matrix: (Units=GPa)
#
#
# Indices 1 2 3 4 5 6 
#
# 1 45.5809 38.0291 42.6569 0.0000 7.7017 0.0000
# 2 38.0291 134.9245 44.9638 0.0000 7.6149 0.0000
# 3 42.6569 44.9638 114.9770 0.0000 39.4434 0.0000
# 4 0.0000 0.0000 0.0000 17.2466 0.0000 5.5371
# 5 7.7017 7.6149 39.4434 0.0000 48.3096 0.0000
# 6 0.0000 0.0000 0.0000 5.5371 0.0000 12.0630
#
#
#
# Elastic Compliance Matrix: (Units=1/GPa)
#
#
# Indices 1 2 3 4 5 6 
#
# 1 0.040024 -0.006853 -0.014378 0.000000 0.006439 0.000000
# 2 -0.006853 0.009825 -0.001588 0.000000 0.000840 0.000000
# 3 -0.014378 -0.001588 0.019142 0.000000 -0.013086 0.000000
# 4 0.000000 0.000000 0.000000 0.068004 0.000000 -0.031215
# 5 0.006439 0.000840 -0.013086 0.000000 0.030226 0.000000
# 6 0.000000 0.000000 0.000000 -0.031215 0.000000 0.097226
#
#
# Mechanical properties :
#
#
# Convention : Reuss Voigt Hill
#
# Bulk Modulus (GPa) = 42.82054 60.75356 51.78705
# Shear Modulus (GPa) = 15.72975 26.84602 21.28789
#
# Velocity S-wave (km/s) = 2.85321 3.72746 3.31924
# Velocity P-wave (km/s) = 5.74594 7.06879 6.44141
#
# Compressibility (1/GPa) = 0.02335328
#
# Stress axis : x y z
#
# Youngs Moduli (GPa) = 24.98486 101.78262 52.24091
#
# Poissons Ratio (x) = 0.69751 0.75112
# Poissons Ratio (y) = 0.17122 0.08296
# Poissons Ratio (z) = 0.35923 0.16164
#
# Static dielectric constant tensor:
#      x y z
#    x 1.696420 0.000000 -0.021160 
#    y 0.000000 1.704670 0.000000 
#    z -0.021160 0.000000 1.732810 
# 
# From -- ./inp_files/150357.got.cif
#   From: 2010.05.17/outbox.cif.g08.bks.cpg/sg12_76_cif.got.tgz:150357.got - 2010.06.03 13:09:07.
