data_PCOD9208554
_publ_section_title
;
Structure prediction by ZEFSAII (Michael W. Deem and Ramdas Pophale) SiO2 
 PCOD9208554
Probable space group: C 2/M
;
_chemical_formula_sum "Si O2"
_cell_formula_units_Z 56
_cell_length_a 29.908275
_cell_length_b 8.952924
_cell_length_c 11.258352
_cell_angle_alpha 90.000000
_cell_angle_beta 111.159549
_cell_angle_gamma 90.000000
_cell_volume 2811.361289
_symmetry_space_group_name_H-M "C 2/M"
_symmetry_group_IT_number 12
_symmetry_cell_setting 'monoclinic'
loop_
_space_group_symop_operation_xyz
x,y,z
-x,y,-z
-x,-y,-z
x,-y,z
1/2+x,1/2+y,z
1/2-x,1/2+y,-z
1/2-x,1/2-y,-z
1/2+x,1/2-y,z
loop_
_atom_site_type_symbol
_atom_site_label
_atom_site_fract_x
_atom_site_fract_y
_atom_site_fract_z
Si Si1 0.121734 0.323874 0.959721
Si Si2 0.330174 0.824758 0.741087
Si Si3 0.227557 0.327706 0.636116
Si Si4 0.028315 0.181857 0.408074
Si Si5 0.132966 0.821699 0.439233
Si Si6 0.980812 0.179786 0.111225
Si Si7 0.706534 0.171214 0.893863
O O1 0.109387 0.500000 0.935167
O O2 0.155177 0.307379 0.107935
O O3 0.073820 0.231321 0.929296
O O4 0.154536 0.269592 0.881851
O O5 0.277059 0.760791 0.666785
O O6 0.367949 0.734128 0.697483
O O7 0.331959 0.000000 0.713487
O O8 0.233719 0.500000 0.603362
O O9 0.181166 0.253241 0.533890
O O10 0.216150 0.325644 0.764629
O O11 0.084547 0.223881 0.460863
O O12 0.000000 0.232441 0.500000
O O13 0.007027 0.230280 0.259041
O O14 0.026249 0.000000 0.406756
O O15 0.137015 0.000000 0.447534
O O16 0.984360 0.000000 0.113473
O O17 0.000000 0.233033 0.000000
O O18 0.706471 0.000000 0.935399
O O19 0.750000 0.250000 0.000000
#
# Coordination Sequence:
#
# PCOD9208554 Si02
#       7
#     8   8   8   8   8   8   8
#     4  10  22  38  59  88 120 154 191 238 295 351
#     4  11  22  39  61  86 121 157 195 239 288 351
#     4  11  23  38  59  87 121 156 196 240 290 350
#     4   9  20  39  60  85 117 154 198 247 296 351
#     4  11  23  39  62  86 116 154 197 244 294 348
#     4  10  21  38  62  90 117 150 198 251 297 349
#     4  10  21  38  58  84 119 155 193 240 289 347
#
# _framework density 19.919174999999999
#
# number of rings (size 3 to 8) (size 9 to 14) (size 15 to 20)
#    0.000    1.714    1.429    2.571    2.000    3.714 
#    0.000    1.429    0.000    2.143    0.000    0.000 
#    0.000    0.000    0.000    0.000    0.000    0.000 
#
# Total GULP energy -156312.206081 kJ/mol
# GULP energy per Si atom -5582.578789 kJ/mol
# Density = 1.987384 g / cm^3
# Si number density = 19.919175 Si / 1000 Ang^3
#
#
#
# Elastic Constant Matrix: (Units=GPa)
#
#
# Indices 1 2 3 4 5 6 
#
# 1 141.7583 20.3356 29.8903 0.0000 -7.9911 0.0000
# 2 20.3356 38.3760 15.4364 0.0000 1.7826 0.0000
# 3 29.8903 15.4364 74.7535 0.0000 -0.6707 0.0000
# 4 0.0000 0.0000 0.0000 20.4605 0.0000 3.2431
# 5 -7.9911 1.7826 -0.6707 0.0000 32.1047 0.0000
# 6 0.0000 0.0000 0.0000 3.2431 0.0000 27.9106
#
#
#
# Elastic Compliance Matrix: (Units=1/GPa)
#
#
# Indices 1 2 3 4 5 6 
#
# 1 0.008207 -0.003422 -0.002555 0.000000 0.002179 0.000000
# 2 -0.003422 0.029939 -0.004837 0.000000 -0.002615 0.000000
# 3 -0.002555 -0.004837 0.015398 0.000000 -0.000046 0.000000
# 4 0.000000 0.000000 0.000000 0.049792 0.000000 -0.005786
# 5 0.002179 -0.002615 -0.000046 0.000000 0.031835 0.000000
# 6 0.000000 0.000000 0.000000 -0.005786 0.000000 0.036501
#
#
# Mechanical properties :
#
#
# Convention : Reuss Voigt Hill
#
# Bulk Modulus (GPa) = 31.33490 42.91251 37.12371
# Shear Modulus (GPa) = 24.51725 28.71018 26.61372
#
# Velocity S-wave (km/s) = 3.51213 3.80061 3.65922
# Velocity P-wave (km/s) = 5.67556 6.39137 6.04407
#
# Compressibility (1/GPa) = 0.03191329
#
# Stress axis : x y z
#
# Youngs Moduli (GPa) = 121.84959 33.40164 64.94556
#
# Poissons Ratio (x) = 0.11431 0.16595
# Poissons Ratio (y) = 0.41700 0.31416
# Poissons Ratio (z) = 0.31136 0.16157
#
# Static dielectric constant tensor:
#      x y z
#    x 1.702040 0.000000 -0.034090 
#    y 0.000000 1.681460 0.000000 
#    z -0.034090 0.000000 1.733090 
# 
# From -- ./inp_files/181136.got.cif
#   From: 2010.05.17/outbox.cif.g08.bks.cpg/sg12_91_cif.got.tgz:181136.got - 2010.06.03 13:09:07.
