data_PCOD9208977
_publ_section_title
;
Structure prediction by ZEFSAII (Michael W. Deem and Ramdas Pophale) SiO2 
 PCOD9208977
Probable space group: C 2/M
;
_chemical_formula_sum "Si O2"
_cell_formula_units_Z 64
_cell_length_a 16.633673
_cell_length_b 8.855090
_cell_length_c 29.478785
_cell_angle_alpha 90.000000
_cell_angle_beta 138.969177
_cell_angle_gamma 90.000000
_cell_volume 2850.376672
_symmetry_space_group_name_H-M "C 2/M"
_symmetry_group_IT_number 12
_symmetry_cell_setting 'monoclinic'
loop_
_space_group_symop_operation_xyz
x,y,z
-x,y,-z
-x,-y,-z
x,-y,z
1/2+x,1/2+y,z
1/2-x,1/2+y,-z
1/2-x,1/2-y,-z
1/2+x,1/2-y,z
loop_
_atom_site_type_symbol
_atom_site_label
_atom_site_fract_x
_atom_site_fract_y
_atom_site_fract_z
Si Si1 0.608893 0.679629 0.215172
Si Si2 0.946395 0.320834 0.711871
Si Si3 0.215521 0.319334 0.843596
Si Si4 0.698511 0.175706 0.583303
Si Si5 0.620168 0.824971 0.655405
Si Si6 0.955043 0.676941 0.901726
Si Si7 0.374867 0.323251 0.535524
Si Si8 0.773707 0.321820 0.961037
O O1 0.599543 0.500000 0.221060
O O2 0.573886 0.775765 0.244111
O O3 0.752490 0.712274 0.265832
O O4 0.532912 0.727334 0.139252
O O5 0.928312 0.500000 0.697551
O O6 0.839519 0.230348 0.641090
O O7 0.088435 0.283485 0.763662
O O8 0.231784 0.500000 0.848648
O O9 0.333931 0.236663 0.874437
O O10 0.206798 0.264496 0.891976
O O11 0.655558 0.190885 0.617023
O O12 0.620377 0.271971 0.514966
O O13 0.688404 0.000000 0.566568
O O14 0.498232 0.732452 0.612139
O O15 0.591973 0.000000 0.652328
O O16 0.942038 0.500000 0.884948
O O17 0.079321 0.692744 0.983152
O O18 0.364740 0.500000 0.535060
O O19 0.250000 0.250000 0.500000
O O20 0.742828 0.500000 0.947361
O O21 0.750000 0.250000 0.000000
#
# Coordination Sequence:
#
# PCOD9208977 Si02
#       8
#     8   8   8   8   8   8   8   8
#     4  10  21  38  62  89 117 153 194 237 287 342
#     4  10  21  38  60  88 120 151 191 240 285 338
#     4  11  24  40  60  87 119 156 194 237 291 345
#     4  10  21  39  63  88 116 152 192 236 288 343
#     4   9  20  39  61  86 117 150 189 238 287 340
#     4  11  24  40  59  86 120 155 193 240 290 343
#     4  12  25  39  58  84 116 154 194 238 290 345
#     4  11  24  41  62  88 117 152 195 242 290 341
#
# _framework density 22.453174000000001
#
# number of rings (size 3 to 8) (size 9 to 14) (size 15 to 20)
#    0.000    1.500    0.000    5.625    0.000   14.000 
#    0.000    1.250    0.000    0.000    0.000    0.000 
#    0.000    0.000    0.000    0.000    0.000    0.000 
#
# Total GULP energy -179105.094955 kJ/mol
# GULP energy per Si atom -5597.034217 kJ/mol
# Density = 2.240207 g / cm^3
# Si number density = 22.453174 Si / 1000 Ang^3
#
#
#
# Elastic Constant Matrix: (Units=GPa)
#
#
# Indices 1 2 3 4 5 6 
#
# 1 65.4525 18.0260 1.1252 0.0000 21.1299 0.0000
# 2 18.0260 81.5228 23.0488 0.0000 31.3416 0.0000
# 3 1.1252 23.0488 83.6801 0.0000 22.8909 0.0000
# 4 0.0000 0.0000 0.0000 35.0875 0.0000 2.6721
# 5 21.1299 31.3416 22.8909 0.0000 41.7015 0.0000
# 6 0.0000 0.0000 0.0000 2.6721 0.0000 32.8254
#
#
#
# Elastic Compliance Matrix: (Units=1/GPa)
#
#
# Indices 1 2 3 4 5 6 
#
# 1 0.018851 -0.000986 0.002857 0.000000 -0.010379 0.000000
# 2 -0.000986 0.017447 -0.001579 0.000000 -0.011746 0.000000
# 3 0.002857 -0.001579 0.014612 0.000000 -0.008282 0.000000
# 4 0.000000 0.000000 0.000000 0.028678 0.000000 -0.002334
# 5 -0.010379 -0.011746 -0.008282 0.000000 0.042613 0.000000
# 6 0.000000 0.000000 0.000000 -0.002334 0.000000 0.030654
#
#
# Mechanical properties :
#
#
# Convention : Reuss Voigt Hill
#
# Bulk Modulus (GPa) = 19.41918 35.00617 27.21268
# Shear Modulus (GPa) = 29.50960 34.48657 31.99809
#
# Velocity S-wave (km/s) = 3.62922 3.92335 3.77915
# Velocity P-wave (km/s) = 5.12145 6.01233 5.58468
#
# Compressibility (1/GPa) = 0.05149548
#
# Stress axis : x y z
#
# Youngs Moduli (GPa) = 53.04644 57.31725 68.43519
#
# Poissons Ratio (x) = 0.05650 -0.19554
# Poissons Ratio (y) = 0.05229 0.10806
# Poissons Ratio (z) = -0.15157 0.09051
#
# Static dielectric constant tensor:
#      x y z
#    x 1.891360 0.000000 -0.006190 
#    y 0.000000 1.745360 0.000000 
#    z -0.006190 0.000000 1.858550 
# 
# From -- ./inp_files/378333.got.cif
#   From: 2010.05.17/outbox.cif.g08.bks.cpg/sg12_190_cif.got.tgz:378333.got - 2010.06.03 13:09:07.
