data_PCOD9208041
_publ_section_title
;
Structure prediction by ZEFSAII (Michael W. Deem and Ramdas Pophale) SiO2 
 PCOD9208041
Probable space group: C 2/M
;
_chemical_formula_sum "Si O2"
_cell_formula_units_Z 64
_cell_length_a 9.164990
_cell_length_b 30.466072
_cell_length_c 16.300865
_cell_angle_alpha 90.000000
_cell_angle_beta 138.597491
_cell_angle_gamma 90.000000
_cell_volume 3010.142086
_symmetry_space_group_name_H-M "C 2/M"
_symmetry_group_IT_number 12
_symmetry_cell_setting 'monoclinic'
loop_
_space_group_symop_operation_xyz
x,y,z
-x,y,-z
-x,-y,-z
x,-y,z
1/2+x,1/2+y,z
1/2-x,1/2+y,-z
1/2-x,1/2-y,-z
1/2+x,1/2-y,z
loop_
_atom_site_type_symbol
_atom_site_label
_atom_site_fract_x
_atom_site_fract_y
_atom_site_fract_z
Si Si1 0.006391 0.048003 0.651526
Si Si2 0.593946 0.278520 0.664025
Si Si3 0.286514 0.948787 0.213814
Si Si4 0.284270 0.157051 0.865391
Si Si5 0.458521 0.080017 0.827477
Si Si6 0.858692 0.696110 0.617836
Si Si7 0.162064 0.929443 0.898063
Si Si8 0.586297 0.892830 0.448105
O O1 0.827690 0.085463 0.559712
O O2 0.238248 0.055786 0.703546
O O3 0.090983 0.049789 0.781530
O O4 0.913991 0.000000 0.594375
O O5 0.634467 0.306206 0.763070
O O6 0.363189 0.293830 0.527488
O O7 0.784923 0.290320 0.678796
O O8 0.554200 0.227666 0.668624
O O9 0.372828 0.919924 0.175255
O O10 0.418653 0.930752 0.348344
O O11 0.029570 0.941973 0.120960
O O12 0.331564 0.000000 0.217786
O O13 0.370190 0.125436 0.827838
O O14 0.172725 0.122592 0.881011
O O15 0.500000 0.176053 0.000000
O O16 0.602815 0.059072 0.962365
O O17 0.909764 0.645940 0.617056
O O18 0.500000 0.876108 0.500000
#
# Coordination Sequence:
#
# PCOD9208041 Si02
#       8
#     8   8   8   8   8   8   8   8
#     4  11  22  39  62  86 120 166 213 259 308 371
#     4  10  21  40  64  96 125 153 199 251 306 373
#     4  12  25  39  59  89 127 169 211 268 318 362
#     4   9  19  39  65  90 124 168 206 248 302 370
#     4  10  22  39  60  91 123 164 214 257 308 360
#     4  10  23  38  65  92 122 157 198 256 309 368
#     4  10  21  37  61  90 123 164 212 254 308 362
#     4  12  26  41  62  88 123 164 209 259 323 380
#
# _framework density 21.261455000000002
#
# number of rings (size 3 to 8) (size 9 to 14) (size 15 to 20)
#    0.000    1.500    1.250    4.875    3.500    5.000 
#    0.000    1.875    0.000    1.500    0.000    0.000 
#    0.000    0.000    0.000    0.000    0.000    0.000 
#
# Total GULP energy -178665.124904 kJ/mol
# GULP energy per Si atom -5583.285153 kJ/mol
# Density = 2.121306 g / cm^3
# Si number density = 21.261455 Si / 1000 Ang^3
#
#
#
# Elastic Constant Matrix: (Units=GPa)
#
#
# Indices 1 2 3 4 5 6 
#
# 1 69.0323 11.4063 9.1458 0.0000 11.5523 0.0000
# 2 11.4063 103.4971 37.0788 0.0000 8.1288 0.0000
# 3 9.1458 37.0788 45.9035 0.0000 9.9023 0.0000
# 4 0.0000 0.0000 0.0000 14.6565 0.0000 6.1123
# 5 11.5523 8.1288 9.9023 0.0000 27.5636 0.0000
# 6 0.0000 0.0000 0.0000 6.1123 0.0000 12.1823
#
#
#
# Elastic Compliance Matrix: (Units=1/GPa)
#
#
# Indices 1 2 3 4 5 6 
#
# 1 0.015776 -0.000852 -0.001174 0.000000 -0.005939 0.000000
# 2 -0.000852 0.013643 -0.010905 0.000000 0.000251 0.000000
# 3 -0.001174 -0.010905 0.032550 0.000000 -0.007985 0.000000
# 4 0.000000 0.000000 0.000000 0.086283 0.000000 -0.043292
# 5 -0.005939 0.000251 -0.007985 0.000000 0.041564 0.000000
# 6 0.000000 0.000000 0.000000 -0.043292 0.000000 0.103808
#
#
# Mechanical properties :
#
#
# Convention : Reuss Voigt Hill
#
# Bulk Modulus (GPa) = 27.69474 37.07718 32.38596
# Shear Modulus (GPa) = 15.08205 21.60062 18.34133
#
# Velocity S-wave (km/s) = 2.66627 3.19086 2.94029
# Velocity P-wave (km/s) = 4.74687 5.57243 5.17613
#
# Compressibility (1/GPa) = 0.03610793
#
# Stress axis : x y z
#
# Youngs Moduli (GPa) = 63.38693 73.29816 30.72228
#
# Poissons Ratio (x) = 0.06241 0.03608
# Poissons Ratio (y) = 0.05397 0.33501
# Poissons Ratio (z) = 0.07443 0.79929
#
# Static dielectric constant tensor:
#      x y z
#    x 1.810640 0.000000 -0.024870 
#    y 0.000000 1.773580 0.000000 
#    z -0.024870 0.000000 1.763350 
# 
# From -- ./inp_files/260382.got.cif
#   From: 2010.05.17/outbox.cif.g08.bks.cpg/sg12_131_cif.got.tgz:260382.got - 2010.06.03 13:09:07.
