data_PCOD9208350
_publ_section_title
;
Structure prediction by ZEFSAII (Michael W. Deem and Ramdas Pophale) SiO2 
 PCOD9208350
Probable space group: C 2/M
;
_chemical_formula_sum "Si O2"
_cell_formula_units_Z 44
_cell_length_a 18.439934
_cell_length_b 13.810273
_cell_length_c 9.384440
_cell_angle_alpha 90.000000
_cell_angle_beta 46.320770
_cell_angle_gamma 90.000000
_cell_volume 1728.378847
_symmetry_space_group_name_H-M "C 2/M"
_symmetry_group_IT_number 12
_symmetry_cell_setting 'monoclinic'
loop_
_space_group_symop_operation_xyz
x,y,z
-x,y,-z
-x,-y,-z
x,-y,z
1/2+x,1/2+y,z
1/2-x,1/2+y,-z
1/2-x,1/2-y,-z
1/2+x,1/2-y,z
loop_
_atom_site_type_symbol
_atom_site_label
_atom_site_fract_x
_atom_site_fract_y
_atom_site_fract_z
Si Si1 0.902016 0.106152 0.267868
Si Si2 0.000000 0.280478 0.000000
Si Si3 0.399887 0.148095 0.887111
Si Si4 0.394805 0.628221 0.831666
Si Si5 0.685297 0.102624 0.278730
Si Si6 0.804765 0.831149 0.672663
O O1 0.913171 0.200049 0.150870
O O2 0.818071 0.129143 0.497039
O O3 0.004555 0.100337 0.222580
O O4 0.889520 0.000000 0.216889
O O5 0.989522 0.348833 0.877450
O O6 0.301104 0.136767 0.117429
O O7 0.394516 0.257496 0.843616
O O8 0.393327 0.096998 0.745945
O O9 0.381434 0.616447 0.680086
O O10 0.293874 0.599337 0.051940
O O11 0.679811 0.212761 0.349492
O O12 0.674777 0.000000 0.375942
#
# Coordination Sequence:
#
# PCOD9208350 Si02
#       6
#     8   4   8   8   8   8
#     4  11  21  32  52  80 106 133 165 206 260 316
#     4  10  21  38  53  64  98 144 181 214 247 290
#     4   8  17  33  52  73 101 140 172 205 250 296
#     4   8  16  31  52  79 108 129 154 204 268 317
#     4   9  16  31  56  81 105 133 166 204 251 306
#     4   9  18  31  50  81 110 130 160 210 263 305
#
# _framework density 25.457381999999999
#
# number of rings (size 3 to 8) (size 9 to 14) (size 15 to 20)
#    0.000    2.909    0.000    3.545    0.000    5.091 
#    0.000    1.364    0.000   20.727    0.000    0.000 
#    0.000    0.000    0.000    0.000    0.000    0.000 
#
# Total GULP energy -122570.109662 kJ/mol
# GULP energy per Si atom -5571.368621 kJ/mol
# Density = 2.539944 g / cm^3
# Si number density = 25.457382 Si / 1000 Ang^3
#
#
#
# Elastic Constant Matrix: (Units=GPa)
#
#
# Indices 1 2 3 4 5 6 
#
# 1 74.6264 9.4365 -1.6415 0.0000 4.7418 0.0000
# 2 9.4365 117.1721 -3.9800 0.0000 -10.1118 0.0000
# 3 -1.6415 -3.9800 52.2126 0.0000 7.3707 0.0000
# 4 0.0000 0.0000 0.0000 25.2750 0.0000 -3.9327
# 5 4.7418 -10.1118 7.3707 0.0000 14.7534 0.0000
# 6 0.0000 0.0000 0.0000 -3.9327 0.0000 12.4309
#
#
#
# Elastic Compliance Matrix: (Units=1/GPa)
#
#
# Indices 1 2 3 4 5 6 
#
# 1 0.014027 -0.001626 0.001195 0.000000 -0.006220 0.000000
# 2 -0.001626 0.009261 -0.000339 0.000000 0.007039 0.000000
# 3 0.001195 -0.000339 0.020712 0.000000 -0.010964 0.000000
# 4 0.000000 0.000000 0.000000 0.041613 0.000000 0.013165
# 5 -0.006220 0.007039 -0.010964 0.000000 0.080082 0.000000
# 6 0.000000 0.000000 0.000000 0.013165 0.000000 0.084610
#
#
# Mechanical properties :
#
#
# Convention : Reuss Voigt Hill
#
# Bulk Modulus (GPa) = 23.55091 27.96011 25.75551
# Shear Modulus (GPa) = 18.79707 26.50493 22.65100
#
# Velocity S-wave (km/s) = 2.72025 3.23018 2.98612
# Velocity P-wave (km/s) = 4.37465 4.99190 4.69343
#
# Compressibility (1/GPa) = 0.04246121
#
# Stress axis : x y z
#
# Youngs Moduli (GPa) = 71.29017 107.97529 48.28132
#
# Poissons Ratio (x) = 0.17555 -0.05770
# Poissons Ratio (y) = 0.11591 0.01636
# Poissons Ratio (z) = -0.08520 0.03659
#
# Static dielectric constant tensor:
#      x y z
#    x 2.166020 0.000000 -0.023510 
#    y 0.000000 2.044630 0.000000 
#    z -0.023510 0.000000 1.995750 
# 
# From -- ./inp_files/175959.got.cif
#   From: 2010.05.17/outbox.cif.g08.bks.cpg/sg12_88_cif.got.tgz:175959.got - 2010.06.03 13:09:07.
