data_PCOD9208475
_publ_section_title
;
Structure prediction by ZEFSAII (Michael W. Deem and Ramdas Pophale) SiO2 
 PCOD9208475
Probable space group: C 2/M
;
_chemical_formula_sum "Si O2"
_cell_formula_units_Z 56
_cell_length_a 9.327717
_cell_length_b 24.881993
_cell_length_c 12.655372
_cell_angle_alpha 90.000000
_cell_angle_beta 68.510798
_cell_angle_gamma 90.000000
_cell_volume 2733.037396
_symmetry_space_group_name_H-M "C 2/M"
_symmetry_group_IT_number 12
_symmetry_cell_setting 'monoclinic'
loop_
_space_group_symop_operation_xyz
x,y,z
-x,y,-z
-x,-y,-z
x,-y,z
1/2+x,1/2+y,z
1/2-x,1/2+y,-z
1/2-x,1/2-y,-z
1/2+x,1/2-y,z
loop_
_atom_site_type_symbol
_atom_site_label
_atom_site_fract_x
_atom_site_fract_y
_atom_site_fract_z
Si Si1 0.109311 0.253936 0.238862
Si Si2 0.270588 0.632651 0.231362
Si Si3 0.669533 0.610105 0.406424
Si Si4 0.365417 0.638572 0.828174
Si Si5 0.316545 0.058194 0.555759
Si Si6 0.185195 0.061354 0.972352
Si Si7 0.722133 0.221600 0.616442
O O1 0.190518 0.311927 0.215828
O O2 0.178492 0.202261 0.158598
O O3 0.129494 0.233756 0.353350
O O4 0.926351 0.260305 0.276623
O O5 0.453726 0.640301 0.192522
O O6 0.224380 0.607805 0.356793
O O7 0.239555 0.587722 0.151105
O O8 0.500000 0.620803 0.500000
O O9 0.656265 0.611757 0.282399
O O10 0.739298 0.563581 0.460799
O O11 0.785865 0.658679 0.399499
O O12 0.287490 0.601006 0.936491
O O13 0.500000 0.057545 0.500000
O O14 0.264207 0.000000 0.615135
O O15 0.233115 0.000000 0.978589
O O16 0.000000 0.060517 0.000000
O O17 0.750000 0.250000 0.500000
#
# Coordination Sequence:
#
# PCOD9208475 Si02
#       7
#     8   8   8   8   8   8   8
#     4  11  21  34  57  85 123 162 191 250 309 351
#     4  11  20  39  61  88 125 157 207 253 301 367
#     4  11  21  37  57  86 125 157 200 254 305 360
#     4  10  21  38  57  92 128 152 207 254 299 367
#     4  11  24  40  60  89 124 164 205 250 305 363
#     4   9  20  38  63  87 115 161 206 256 307 355
#     4  11  20  33  52  82 118 164 202 235 291 366
#
# _framework density 20.490023999999998
#
# number of rings (size 3 to 8) (size 9 to 14) (size 15 to 20)
#    0.000    1.429    2.857    4.286    0.000    2.000 
#    0.000    0.000    0.000    4.286    0.000   11.000 
#    0.000    0.000    0.000    0.000    0.000    0.000 
#
# Total GULP energy -156022.266265 kJ/mol
# GULP energy per Si atom -5572.223795 kJ/mol
# Density = 2.044339 g / cm^3
# Si number density = 20.490024 Si / 1000 Ang^3
#
#
#
# Elastic Constant Matrix: (Units=GPa)
#
#
# Indices 1 2 3 4 5 6 
#
# 1 49.2847 20.1022 12.0582 0.0000 8.5663 0.0000
# 2 20.1022 150.1976 41.3875 0.0000 12.2819 0.0000
# 3 12.0582 41.3875 61.9239 0.0000 21.8224 0.0000
# 4 0.0000 0.0000 0.0000 13.3674 0.0000 93.0825
# 5 8.5663 12.2819 21.8224 0.0000 18.0952 0.0000
# 6 0.0000 0.0000 0.0000 93.0825 0.0000 -348.4928
#
#
#
# Elastic Compliance Matrix: (Units=1/GPa)
#
#
# Indices 1 2 3 4 5 6 
#
# 1 0.022851 -0.002434 0.000708 0.000000 -0.010020 0.000000
# 2 -0.002434 0.008454 -0.006192 0.000000 0.002881 0.000000
# 3 0.000708 -0.006192 0.032672 0.000000 -0.035534 0.000000
# 4 0.000000 0.000000 0.000000 0.026158 0.000000 0.006987
# 5 -0.010020 0.002881 -0.035534 0.000000 0.100904 0.000000
# 6 0.000000 0.000000 0.000000 0.006987 0.000000 -0.001003
#
#
# Mechanical properties :
#
#
# Convention : Reuss Voigt Hill
#
# Bulk Modulus (GPa) = 20.77204 45.38912 33.08058
# Shear Modulus (GPa) = 22.53074 -50.88214 -14.17570
#
# Velocity S-wave (km/s) = 3.31961 -4.98864 -2.63313
# Velocity P-wave (km/s) = 4.98525 3.31393 2.63349
#
# Compressibility (1/GPa) = 0.04814163
#
# Stress axis : x y z
#
# Youngs Moduli (GPa) = 43.76093 118.28331 30.60742
#
# Poissons Ratio (x) = 0.28793 -0.02168
# Poissons Ratio (y) = 0.10652 0.18952
# Poissons Ratio (z) = -0.03099 0.73240
#
# Static dielectric constant tensor:
#      x y z
#    x 1.722680 0.000000 0.014990 
#    y 0.000000 1.853900 0.000000 
#    z 0.014990 0.000000 1.690800 
# 
# From -- ./inp_files/124254.got.cif
#   From: 2010.05.17/outbox.cif.g08.bks.cpg/sg12_63_cif.got.tgz:124254.got - 2010.06.03 13:09:07.
