data_PCOD9208293
_publ_section_title
;
Structure prediction by ZEFSAII (Michael W. Deem and Ramdas Pophale) SiO2 
 PCOD9208293
Probable space group: C 2/M
;
_chemical_formula_sum "Si O2"
_cell_formula_units_Z 32
_cell_length_a 9.162176
_cell_length_b 21.899896
_cell_length_c 7.572833
_cell_angle_alpha 90.000000
_cell_angle_beta 96.042219
_cell_angle_gamma 90.000000
_cell_volume 1511.052859
_symmetry_space_group_name_H-M "C 2/M"
_symmetry_group_IT_number 12
_symmetry_cell_setting 'monoclinic'
loop_
_space_group_symop_operation_xyz
x,y,z
-x,y,-z
-x,-y,-z
x,-y,z
1/2+x,1/2+y,z
1/2-x,1/2+y,-z
1/2-x,1/2-y,-z
1/2+x,1/2-y,z
loop_
_atom_site_type_symbol
_atom_site_label
_atom_site_fract_x
_atom_site_fract_y
_atom_site_fract_z
Si Si1 0.830958 0.571094 0.413416
Si Si2 0.468526 0.257027 0.750654
Si Si3 0.217984 0.336001 0.903740
Si Si4 0.268550 0.336675 0.320953
O O1 0.793568 0.500000 0.393880
O O2 0.807682 0.606609 0.226807
O O3 0.738340 0.606694 0.549787
O O4 0.000000 0.575817 0.500000
O O5 0.361750 0.298678 0.857767
O O6 0.583769 0.210251 0.853765
O O7 0.576356 0.303384 0.667065
O O8 0.356008 0.212172 0.635029
O O9 0.231037 0.351856 0.111571
#
# Coordination Sequence:
#
# PCOD9208293 Si02
#       4
#     8   8   8   8
#     4  11  26  42  58  85 116 159 214 242 275 350
#     4  10  21  37  64  97 123 148 191 237 304 369
#     4  11  21  39  63  91 123 154 187 244 299 349
#     4  11  21  39  63  91 123 154 187 244 299 349
#
# _framework density 21.177285000000001
#
# number of rings (size 3 to 8) (size 9 to 14) (size 15 to 20)
#    0.000    1.250    2.500    6.000    0.000    8.000 
#    0.000    5.000    0.000    3.000    0.000    0.000 
#    0.000    0.000    0.000    0.000    0.000    0.000 
#
# Total GULP energy -89527.957518 kJ/mol
# GULP energy per Si atom -5595.497345 kJ/mol
# Density = 2.112908 g / cm^3
# Si number density = 21.177285 Si / 1000 Ang^3
#
#
#
# Elastic Constant Matrix: (Units=GPa)
#
#
# Indices 1 2 3 4 5 6 
#
# 1 144.5160 57.3959 36.1814 0.0000 -13.4069 0.0000
# 2 57.3959 180.5578 97.4760 0.0000 -20.5922 0.0000
# 3 36.1814 97.4760 162.3679 0.0000 5.9355 0.0000
# 4 0.0000 0.0000 0.0000 28.0387 0.0000 7.9610
# 5 -13.4069 -20.5922 5.9355 0.0000 25.6988 0.0000
# 6 0.0000 0.0000 0.0000 7.9610 0.0000 12.3498
#
#
#
# Elastic Compliance Matrix: (Units=1/GPa)
#
#
# Indices 1 2 3 4 5 6 
#
# 1 0.008118 -0.001778 -0.000852 0.000000 0.003007 0.000000
# 2 -0.001778 0.010476 -0.006218 0.000000 0.008903 0.000000
# 3 -0.000852 -0.006218 0.010368 0.000000 -0.007822 0.000000
# 4 0.000000 0.000000 0.000000 0.043655 0.000000 -0.028141
# 5 0.003007 0.008903 -0.007822 0.000000 0.049422 0.000000
# 6 0.000000 0.000000 0.000000 -0.028141 0.000000 0.099113
#
#
# Mechanical properties :
#
#
# Convention : Reuss Voigt Hill
#
# Bulk Modulus (GPa) = 88.76350 96.61650 92.69000
# Shear Modulus (GPa) = 20.60982 32.97669 26.79325
#
# Velocity S-wave (km/s) = 3.12301 3.95038 3.56081
# Velocity P-wave (km/s) = 7.41685 8.15654 7.79547
#
# Compressibility (1/GPa) = 0.01126589
#
# Stress axis : x y z
#
# Youngs Moduli (GPa) = 123.18430 95.45610 96.45298
#
# Poissons Ratio (x) = 0.16970 0.08214
# Poissons Ratio (y) = 0.21900 0.59979
# Poissons Ratio (z) = 0.10490 0.59359
#
# Static dielectric constant tensor:
#      x y z
#    x 1.779250 0.000000 -0.013810 
#    y 0.000000 1.712570 0.000000 
#    z -0.013810 0.000000 1.866200 
# 
# From -- ./inp_files/37757.got.cif
#   From: 2010.05.17/outbox.cif.g08.bks.cpg/sg12_19_cif.got.tgz:37757.got - 2010.06.03 13:09:07.
