data_PCOD9208304
_publ_section_title
;
Structure prediction by ZEFSAII (Michael W. Deem and Ramdas Pophale) SiO2 
 PCOD9208304
Probable space group: C 2/M
;
_chemical_formula_sum "Si O2"
_cell_formula_units_Z 56
_cell_length_a 22.983285
_cell_length_b 20.651875
_cell_length_c 6.079172
_cell_angle_alpha 90.000000
_cell_angle_beta 121.426655
_cell_angle_gamma 90.000000
_cell_volume 2462.192492
_symmetry_space_group_name_H-M "C 2/M"
_symmetry_group_IT_number 12
_symmetry_cell_setting 'monoclinic'
loop_
_space_group_symop_operation_xyz
x,y,z
-x,y,-z
-x,-y,-z
x,-y,z
1/2+x,1/2+y,z
1/2-x,1/2+y,-z
1/2-x,1/2-y,-z
1/2+x,1/2-y,z
loop_
_atom_site_type_symbol
_atom_site_label
_atom_site_fract_x
_atom_site_fract_y
_atom_site_fract_z
Si Si1 0.590681 0.000000 0.640471
Si Si2 0.835271 0.697412 0.695305
Si Si3 0.303327 0.898485 0.298961
Si Si4 0.041967 0.612347 0.880083
Si Si5 0.718971 0.649222 0.760217
Si Si6 0.379588 0.691624 0.069260
Si Si7 0.500000 0.224200 0.500000
Si Si8 0.338179 0.425718 0.734598
O O1 0.632009 0.055806 0.579340
O O2 0.558977 0.056864 0.740391
O O3 0.824059 0.672666 0.426513
O O4 0.763976 0.691234 0.683743
O O5 0.887835 0.645276 0.902299
O O6 0.865071 0.766133 0.821985
O O7 0.240277 0.921144 0.328212
O O8 0.271689 0.896928 0.993608
O O9 0.997423 0.672617 0.695493
O O10 0.000000 0.584224 0.000000
O O11 0.682288 0.688703 0.879787
O O12 0.666779 0.606610 0.515368
O O13 0.438886 0.728037 0.316187
O O14 0.383851 0.618590 0.985770
O O15 0.358751 0.500000 0.769571
#
# Coordination Sequence:
#
# PCOD9208304 Si02
#       8
#     4   8   8   8   8   8   4   8
#     4  12  23  43  66  98 140 196 227 268 339 383
#     4  10  22  40  62  98 131 175 230 282 332 389
#     4  10  22  37  64  96 142 178 218 275 330 405
#     4  11  26  43  65  94 138 187 241 286 316 393
#     4  10  21  37  65 100 130 173 214 284 338 410
#     4  10  23  43  71  94 129 177 227 281 348 406
#     4  10  26  51  67  94 128 180 238 296 340 388
#     4  10  22  39  64 105 140 168 212 276 351 422
#
# _framework density 22.743957000000002
#
# number of rings (size 3 to 8) (size 9 to 14) (size 15 to 20)
#    0.000    1.714    2.143    0.643    3.000   10.000 
#    0.000    0.357    0.000    0.857    0.000    0.000 
#    0.000    0.000    0.000    0.000    0.000    0.000 
#
# Total GULP energy -155975.757490 kJ/mol
# GULP energy per Si atom -5570.562767 kJ/mol
# Density = 2.269219 g / cm^3
# Si number density = 22.743957 Si / 1000 Ang^3
#
#
#
# Elastic Constant Matrix: (Units=GPa)
#
#
# Indices 1 2 3 4 5 6 
#
# 1 51.7269 33.8272 18.3200 0.0000 -3.1112 0.0000
# 2 33.8272 152.8599 42.3456 0.0000 7.3518 0.0000
# 3 18.3200 42.3456 85.6803 0.0000 8.5422 0.0000
# 4 0.0000 0.0000 0.0000 -1.6736 0.0000 -18.1046
# 5 -3.1112 7.3518 8.5422 0.0000 31.2114 0.0000
# 6 0.0000 0.0000 0.0000 -18.1046 0.0000 14.7944
#
#
#
# Elastic Compliance Matrix: (Units=1/GPa)
#
#
# Indices 1 2 3 4 5 6 
#
# 1 0.023725 -0.004558 -0.003252 0.000000 0.004328 0.000000
# 2 -0.004558 0.008474 -0.003053 0.000000 -0.001615 0.000000
# 3 -0.003252 -0.003053 0.014224 0.000000 -0.003498 0.000000
# 4 0.000000 0.000000 0.000000 -0.041966 0.000000 -0.051355
# 5 0.004328 -0.001615 -0.003498 0.000000 0.033809 0.000000
# 6 0.000000 0.000000 0.000000 -0.051355 0.000000 0.004747
#
#
# Mechanical properties :
#
#
# Convention : Reuss Voigt Hill
#
# Bulk Modulus (GPa) = 40.48786 53.25029 46.86907
# Shear Modulus (GPa) = 68.52198 21.91808 45.22003
#
# Velocity S-wave (km/s) = 5.49481 3.10770 4.46379
# Velocity P-wave (km/s) = 7.62217 6.02834 6.87162
#
# Compressibility (1/GPa) = 0.02469876
#
# Stress axis : x y z
#
# Youngs Moduli (GPa) = 42.15007 118.01113 70.30372
#
# Poissons Ratio (x) = 0.53784 0.22862
# Poissons Ratio (y) = 0.19210 0.21460
# Poissons Ratio (z) = 0.13707 0.36023
#
# Static dielectric constant tensor:
#      x y z
#    x 1.855270 0.000000 0.034310 
#    y 0.000000 1.843680 0.000000 
#    z 0.034310 0.000000 1.913460 
# 
# From -- ./inp_files/25691.got.cif
#   From: 2010.05.17/outbox.cif.g08.bks.cpg/sg12_13_cif.got.tgz:25691.got - 2010.06.03 13:09:07.
