data_PCOD9208373
_publ_section_title
;
Structure prediction by ZEFSAII (Michael W. Deem and Ramdas Pophale) SiO2 
 PCOD9208373
Probable space group: C 2/M
;
_chemical_formula_sum "Si O2"
_cell_formula_units_Z 40
_cell_length_a 16.670702
_cell_length_b 28.899836
_cell_length_c 8.032772
_cell_angle_alpha 90.000000
_cell_angle_beta 146.703498
_cell_angle_gamma 90.000000
_cell_volume 2124.539130
_symmetry_space_group_name_H-M "C 2/M"
_symmetry_group_IT_number 12
_symmetry_cell_setting 'monoclinic'
loop_
_space_group_symop_operation_xyz
x,y,z
-x,y,-z
-x,-y,-z
x,-y,z
1/2+x,1/2+y,z
1/2-x,1/2+y,-z
1/2-x,1/2-y,-z
1/2+x,1/2-y,z
loop_
_atom_site_type_symbol
_atom_site_label
_atom_site_fract_x
_atom_site_fract_y
_atom_site_fract_z
Si Si1 0.109713 0.796615 0.443970
Si Si2 0.432772 0.946210 0.067812
Si Si3 0.292133 0.291708 0.772155
Si Si4 0.122967 0.625982 0.603703
Si Si5 0.837039 0.106757 0.273318
O O1 0.195949 0.752142 0.660974
O O2 0.153374 0.792209 0.324292
O O3 0.153068 0.844069 0.612002
O O4 0.934062 0.794212 0.136369
O O5 0.538423 0.915634 0.367914
O O6 0.433907 0.000000 0.118451
O O7 0.500000 0.942162 0.000000
O O8 0.267603 0.926452 0.797883
O O9 0.193697 0.337265 0.606333
O O10 0.000000 0.651133 0.500000
O O11 0.247780 0.610544 0.946781
O O12 0.000000 0.092128 0.500000
#
# Coordination Sequence:
#
# PCOD9208373 Si02
#       5
#     8   8   8   8   8
#     4  10  22  36  58  82 122 163 207 246 293 354
#     4  10  23  44  68  90 116 157 204 249 304 372
#     4  10  21  38  55  85 117 166 209 246 291 350
#     4  10  22  37  60  87 118 157 196 245 305 360
#     4  11  22  39  60  92 126 156 197 251 308 356
#
# _framework density 18.827612999999999
#
# number of rings (size 3 to 8) (size 9 to 14) (size 15 to 20)
#    0.000    1.800    2.000    1.200    5.600    5.600 
#    0.000    0.000    0.000    2.400    0.000    0.000 
#    0.000    0.000    0.000    0.000    0.000    0.000 
#
# Total GULP energy -111464.727076 kJ/mol
# GULP energy per Si atom -5573.236354 kJ/mol
# Density = 1.878476 g / cm^3
# Si number density = 18.827613 Si / 1000 Ang^3
#
#
#
# Elastic Constant Matrix: (Units=GPa)
#
#
# Indices 1 2 3 4 5 6 
#
# 1 64.0747 44.2493 35.6899 0.0000 27.6740 0.0000
# 2 44.2493 137.6523 66.0324 0.0000 21.1251 0.0000
# 3 35.6899 66.0324 130.3819 0.0000 27.5586 0.0000
# 4 0.0000 0.0000 0.0000 28.0175 0.0000 3.4779
# 5 27.6740 21.1251 27.5586 0.0000 31.6189 0.0000
# 6 0.0000 0.0000 0.0000 3.4779 0.0000 -17.7944
#
#
#
# Elastic Compliance Matrix: (Units=1/GPa)
#
#
# Indices 1 2 3 4 5 6 
#
# 1 0.029026 -0.005844 -0.000541 0.000000 -0.021029 0.000000
# 2 -0.005844 0.010960 -0.004271 0.000000 0.001515 0.000000
# 3 -0.000541 -0.004271 0.011373 0.000000 -0.006585 0.000000
# 4 0.000000 0.000000 0.000000 0.034847 0.000000 0.006811
# 5 -0.021029 0.001515 -0.006585 0.000000 0.054760 0.000000
# 6 0.000000 0.000000 0.000000 0.006811 0.000000 -0.054866
#
#
# Mechanical properties :
#
#
# Convention : Reuss Voigt Hill
#
# Bulk Modulus (GPa) = 33.28135 69.33913 51.31024
# Shear Modulus (GPa) = 42.57997 20.77755 31.67876
#
# Velocity S-wave (km/s) = 4.76076 3.32560 4.10636
# Velocity P-wave (km/s) = 6.92351 7.18711 7.05654
#
# Compressibility (1/GPa) = 0.03004685
#
# Stress axis : x y z
#
# Youngs Moduli (GPa) = 34.45147 91.24422 87.92821
#
# Poissons Ratio (x) = 0.53323 0.04756
# Poissons Ratio (y) = 0.20133 0.37555
# Poissons Ratio (z) = 0.01864 0.38971
#
# Static dielectric constant tensor:
#      x y z
#    x 1.698750 0.000000 -0.001260 
#    y 0.000000 1.633640 0.000000 
#    z -0.001260 0.000000 1.660560 
# 
# From -- ./inp_files/39155.got.cif
#   From: 2010.05.17/outbox.cif.g08.bks.cpg/sg12_20_cif.got.tgz:39155.got - 2010.06.03 13:09:07.
