data_PCOD9208780
_publ_section_title
;
Structure prediction by ZEFSAII (Michael W. Deem and Ramdas Pophale) SiO2 
 PCOD9208780
Probable space group: C 2/M
;
_chemical_formula_sum "Si O2"
_cell_formula_units_Z 48
_cell_length_a 18.423098
_cell_length_b 11.874472
_cell_length_c 12.343643
_cell_angle_alpha 90.000000
_cell_angle_beta 64.418382
_cell_angle_gamma 90.000000
_cell_volume 2435.639157
_symmetry_space_group_name_H-M "C 2/M"
_symmetry_group_IT_number 12
_symmetry_cell_setting 'monoclinic'
loop_
_space_group_symop_operation_xyz
x,y,z
-x,y,-z
-x,-y,-z
x,-y,z
1/2+x,1/2+y,z
1/2-x,1/2+y,-z
1/2-x,1/2-y,-z
1/2+x,1/2-y,z
loop_
_atom_site_type_symbol
_atom_site_label
_atom_site_fract_x
_atom_site_fract_y
_atom_site_fract_z
Si Si1 0.796894 0.758157 0.734885
Si Si2 0.866940 0.135570 0.131560
Si Si3 0.204672 0.131238 0.490271
Si Si4 0.461228 0.876311 0.642678
Si Si5 0.458250 0.311888 0.281585
Si Si6 0.366603 0.372997 0.886243
O O1 0.720343 0.677647 0.774793
O O2 0.797461 0.849151 0.637932
O O3 0.877703 0.686071 0.677543
O O4 0.803636 0.811972 0.849506
O O5 0.929159 0.186373 0.176793
O O6 0.874897 0.000000 0.132877
O O7 0.877441 0.172986 0.000587
O O8 0.250000 0.250000 0.500000
O O9 0.115369 0.137885 0.600881
O O10 0.234332 0.000000 0.493684
O O11 0.500000 0.881851 0.500000
O O12 0.520484 0.809062 0.683125
O O13 0.446151 0.000000 0.696332
O O14 0.545379 0.371780 0.227083
O O15 0.338748 0.500000 0.918003
#
# Coordination Sequence:
#
# PCOD9208780 Si02
#       6
#     8   8   8   8   8   8
#     4  11  22  39  60  90 124 160 206 258 310 371
#     4  11  22  39  62  88 119 162 210 256 308 367
#     4  12  25  40  62  96 132 166 206 258 322 379
#     4  10  21  38  59  88 125 167 205 247 309 379
#     4  11  22  39  62  92 122 156 205 258 307 371
#     4  10  22  39  62  87 118 159 206 259 310 366
#
# _framework density 19.707353000000001
#
# number of rings (size 3 to 8) (size 9 to 14) (size 15 to 20)
#    0.000    1.167    3.333    3.500    0.000    2.667 
#    0.000    2.500    0.000   10.000    0.000    0.000 
#    0.000    0.000    0.000    0.000    0.000    0.000 
#
# Total GULP energy -133773.058551 kJ/mol
# GULP energy per Si atom -5573.877440 kJ/mol
# Density = 1.966250 g / cm^3
# Si number density = 19.707353 Si / 1000 Ang^3
#
#
#
# Elastic Constant Matrix: (Units=GPa)
#
#
# Indices 1 2 3 4 5 6 
#
# 1 82.1582 36.0615 5.6612 0.0000 13.7452 0.0000
# 2 36.0615 105.6393 18.1122 0.0000 15.5905 0.0000
# 3 5.6612 18.1122 68.7018 0.0000 13.0394 0.0000
# 4 0.0000 0.0000 0.0000 13.8475 0.0000 3.7807
# 5 13.7452 15.5905 13.0394 0.0000 40.7684 0.0000
# 6 0.0000 0.0000 0.0000 3.7807 0.0000 18.1190
#
#
#
# Elastic Compliance Matrix: (Units=1/GPa)
#
#
# Indices 1 2 3 4 5 6 
#
# 1 0.014732 -0.004639 0.000655 0.000000 -0.003402 0.000000
# 2 -0.004639 0.011769 -0.002303 0.000000 -0.002200 0.000000
# 3 0.000655 -0.002303 0.015952 0.000000 -0.004442 0.000000
# 4 0.000000 0.000000 0.000000 0.076578 0.000000 -0.015978
# 5 -0.003402 -0.002200 -0.004442 0.000000 0.027938 0.000000
# 6 0.000000 0.000000 0.000000 -0.015978 0.000000 0.058525
#
#
# Mechanical properties :
#
#
# Convention : Reuss Voigt Hill
#
# Bulk Modulus (GPa) = 33.46858 41.79656 37.63257
# Shear Modulus (GPa) = 21.92714 27.65793 24.79254
#
# Velocity S-wave (km/s) = 3.33924 3.75031 3.55073
# Velocity P-wave (km/s) = 5.64686 6.32516 5.99561
#
# Compressibility (1/GPa) = 0.02987877
#
# Stress axis : x y z
#
# Youngs Moduli (GPa) = 67.87962 84.96644 62.68821
#
# Poissons Ratio (x) = 0.39417 -0.04105
# Poissons Ratio (y) = 0.31490 0.14437
# Poissons Ratio (z) = -0.04445 0.19567
#
# Static dielectric constant tensor:
#      x y z
#    x 1.684260 0.000000 0.011500 
#    y 0.000000 1.722590 0.000000 
#    z 0.011500 0.000000 1.750660 
# 
# From -- ./inp_files/154170.got.cif
#   From: 2010.05.17/outbox.cif.g08.bks.cpg/sg12_78_cif.got.tgz:154170.got - 2010.06.03 13:09:07.
