data_PCOD9208692
_publ_section_title
;
Structure prediction by ZEFSAII (Michael W. Deem and Ramdas Pophale) SiO2 
 PCOD9208692
Probable space group: C 2/M
;
_chemical_formula_sum "Si O2"
_cell_formula_units_Z 64
_cell_length_a 16.245272
_cell_length_b 27.516658
_cell_length_c 12.604745
_cell_angle_alpha 90.000000
_cell_angle_beta 36.496446
_cell_angle_gamma 90.000000
_cell_volume 3351.258486
_symmetry_space_group_name_H-M "C 2/M"
_symmetry_group_IT_number 12
_symmetry_cell_setting 'monoclinic'
loop_
_space_group_symop_operation_xyz
x,y,z
-x,y,-z
-x,-y,-z
x,-y,z
1/2+x,1/2+y,z
1/2-x,1/2+y,-z
1/2-x,1/2-y,-z
1/2+x,1/2-y,z
loop_
_atom_site_type_symbol
_atom_site_label
_atom_site_fract_x
_atom_site_fract_y
_atom_site_fract_z
Si Si1 0.506055 0.689245 0.709330
Si Si2 0.049993 0.650947 0.716858
Si Si3 0.035571 0.942395 0.085154
Si Si4 0.734730 0.617443 0.026305
Si Si5 0.164068 0.055506 0.309438
Si Si6 0.409315 0.772789 0.506165
Si Si7 0.601736 0.241581 0.801589
Si Si8 0.691347 0.594154 0.511215
O O1 0.358445 0.665865 0.884724
O O2 0.496148 0.727204 0.625088
O O3 0.569462 0.721435 0.738532
O O4 0.609407 0.644970 0.576896
O O5 0.100573 0.688153 0.575498
O O6 0.068782 0.686076 0.800370
O O7 0.157597 0.607130 0.603754
O O8 0.894834 0.632375 0.858813
O O9 0.907601 0.932096 0.299720
O O10 0.168042 0.915772 0.001674
O O11 0.060035 0.000000 0.057032
O O12 0.000000 0.926539 0.000000
O O13 0.704954 0.590544 0.170023
O O14 0.216762 0.068527 0.372154
O O15 0.000000 0.058457 0.500000
O O16 0.199918 0.000000 0.243471
O O17 0.500000 0.798744 0.500000
O O18 0.257882 0.750520 0.677959
O O19 0.500000 0.255391 0.000000
#
# Coordination Sequence:
#
# PCOD9208692 Si02
#       8
#     8   8   8   8   8   8   8   8
#     4  10  21  38  59  84 117 163 215 244 312 366
#     4  11  25  43  56  93 130 167 216 264 321 369
#     4  10  22  43  69  95 122 161 210 258 316 390
#     4  11  25  38  66  95 126 164 209 267 310 395
#     4  11  22  39  66  98 126 158 204 268 326 380
#     4  11  24  39  60  85 128 171 213 272 310 370
#     4  11  24  40  61  84 129 170 212 272 308 369
#     4  11  21  40  67  90 126 167 209 260 318 382
#
# _framework density 19.097303
#
# number of rings (size 3 to 8) (size 9 to 14) (size 15 to 20)
#    0.000    1.250    5.000    1.500    7.000    4.000 
#    0.000    3.125    0.000    1.500    0.000    0.000 
#    0.000    0.000    0.000    0.000    0.000    0.000 
#
# Total GULP energy -178413.050310 kJ/mol
# GULP energy per Si atom -5575.407822 kJ/mol
# Density = 1.905384 g / cm^3
# Si number density = 19.097303 Si / 1000 Ang^3
#
#
#
# Elastic Constant Matrix: (Units=GPa)
#
#
# Indices 1 2 3 4 5 6 
#
# 1 106.7320 21.5729 50.8252 0.0000 -16.0559 0.0000
# 2 21.5729 50.5840 22.3869 0.0000 -10.5899 0.0000
# 3 50.8252 22.3869 62.6422 -0.0001 -22.0517 0.0001
# 4 0.0000 0.0000 -0.0001 5.9617 0.0000 -6.2175
# 5 -16.0559 -10.5899 -22.0517 0.0000 47.7688 0.0000
# 6 0.0000 0.0000 0.0001 -6.2175 0.0000 28.4921
#
#
#
# Elastic Compliance Matrix: (Units=1/GPa)
#
#
# Indices 1 2 3 4 5 6 
#
# 1 0.015357 -0.001280 -0.012281 0.000000 -0.000791 0.000000
# 2 -0.001280 0.023692 -0.006843 0.000000 0.001663 0.000000
# 3 -0.012281 -0.006843 0.031507 0.000000 0.008900 0.000000
# 4 0.000000 0.000000 0.000000 0.217157 0.000000 0.047388
# 5 -0.000791 0.001663 0.008900 0.000000 0.025145 0.000000
# 6 0.000000 0.000000 0.000000 0.047388 0.000000 0.045438
#
#
# Mechanical properties :
#
#
# Convention : Reuss Voigt Hill
#
# Bulk Modulus (GPa) = 33.61676 45.50313 39.55994
# Shear Modulus (GPa) = 12.22433 24.78939 18.50686
#
# Velocity S-wave (km/s) = 2.53278 3.60676 3.11639
# Velocity P-wave (km/s) = 5.11805 6.42057 5.80595
#
# Compressibility (1/GPa) = 0.02974707
#
# Stress axis : x y z
#
# Youngs Moduli (GPa) = 65.11583 42.20911 31.73927
#
# Poissons Ratio (x) = 0.05402 0.38980
# Poissons Ratio (y) = 0.08334 0.21719
# Poissons Ratio (z) = 0.79972 0.28884
#
# Static dielectric constant tensor:
#      x y z
#    x 1.801060 0.000000 0.068970 
#    y 0.000000 1.666900 0.000000 
#    z 0.068970 0.000000 1.685180 
# 
# From -- ./inp_files/149731.got.cif
#   From: 2010.05.17/outbox.cif.g08.bks.cpg/sg12_75_cif.got.tgz:149731.got - 2010.06.03 13:09:07.
