data_PCOD9208996
_publ_section_title
;
Structure prediction by ZEFSAII (Michael W. Deem and Ramdas Pophale) SiO2 
 PCOD9208996
Probable space group: C 2/M
;
_chemical_formula_sum "Si O2"
_cell_formula_units_Z 56
_cell_length_a 25.318234
_cell_length_b 7.614555
_cell_length_c 15.268254
_cell_angle_alpha 90.000000
_cell_angle_beta 119.441944
_cell_angle_gamma 90.000000
_cell_volume 2563.378677
_symmetry_space_group_name_H-M "C 2/M"
_symmetry_group_IT_number 12
_symmetry_cell_setting 'monoclinic'
loop_
_space_group_symop_operation_xyz
x,y,z
-x,y,-z
-x,-y,-z
x,-y,z
1/2+x,1/2+y,z
1/2-x,1/2+y,-z
1/2-x,1/2-y,-z
1/2+x,1/2-y,z
loop_
_atom_site_type_symbol
_atom_site_label
_atom_site_fract_x
_atom_site_fract_y
_atom_site_fract_z
Si Si1 0.613312 0.709812 0.771297
Si Si2 0.163138 0.787949 0.001211
Si Si3 0.848345 0.798899 0.544635
Si Si4 0.472142 0.000000 0.835747
Si Si5 0.478111 0.285878 0.692096
Si Si6 0.906422 0.500000 0.951628
Si Si7 0.264692 0.794737 0.205323
Si Si8 0.773728 0.703056 0.639494
O O1 0.613454 0.500000 0.774264
O O2 0.543221 0.761744 0.702991
O O3 0.663839 0.760597 0.742085
O O4 0.638999 0.771638 0.886717
O O5 0.125757 0.676612 0.041295
O O6 0.231942 0.743973 0.087219
O O7 0.154949 0.000000 0.999526
O O8 0.916689 0.732080 0.591261
O O9 0.828045 0.792459 0.630381
O O10 0.790646 0.719116 0.447606
O O11 0.850778 0.000000 0.516414
O O12 0.474666 0.826515 0.778099
O O13 0.415375 0.000000 0.854957
O O14 0.530384 0.000000 0.945014
O O15 0.476590 0.500000 0.703707
O O16 0.231567 0.710216 0.260892
O O17 0.255297 0.000000 0.208476
O O18 0.777526 0.500000 0.615709
#
# Coordination Sequence:
#
# PCOD9208996 Si02
#       8
#     8   8   8   4   8   4   8   8
#     4  10  21  40  60  83 114 154 201 243 291 346
#     4  10  23  40  58  86 119 158 200 243 296 351
#     4   9  20  39  62  86 118 154 189 240 300 354
#     4  11  24  38  58  94 116 163 201 236 297 355
#     4  10  22  40  62  87 118 158 199 243 292 356
#     4  11  24  38  60  86 127 156 197 247 293 350
#     4  11  24  37  58  86 118 155 194 248 298 344
#     4  10  21  38  60  89 119 150 192 241 297 356
#
# _framework density 21.846167000000001
#
# number of rings (size 3 to 8) (size 9 to 14) (size 15 to 20)
#    0.000    1.857    1.429    1.286    7.000    1.143 
#    0.000    2.143    0.000    4.286    0.000    0.000 
#    0.000    0.000    0.000    0.000    0.000    0.000 
#
# Total GULP energy -156170.589687 kJ/mol
# GULP energy per Si atom -5577.521060 kJ/mol
# Density = 2.179644 g / cm^3
# Si number density = 21.846167 Si / 1000 Ang^3
#
#
#
# Elastic Constant Matrix: (Units=GPa)
#
#
# Indices 1 2 3 4 5 6 
#
# 1 77.1393 -2.4632 8.6952 0.0000 24.6711 0.0000
# 2 -2.4632 41.1192 -2.4240 0.0000 7.6378 0.0000
# 3 8.6952 -2.4240 45.0068 0.0000 19.2958 0.0000
# 4 0.0000 0.0000 0.0000 -1.9834 0.0000 -1.0223
# 5 24.6711 7.6378 19.2958 0.0000 38.8363 0.0000
# 6 0.0000 0.0000 0.0000 -1.0223 0.0000 26.4962
#
#
#
# Elastic Compliance Matrix: (Units=1/GPa)
#
#
# Indices 1 2 3 4 5 6 
#
# 1 0.016815 0.003466 0.002300 0.000000 -0.012506 0.000000
# 2 0.003466 0.026671 0.005031 0.000000 -0.009947 0.000000
# 3 0.002300 0.005031 0.029348 0.000000 -0.017032 0.000000
# 4 0.000000 0.000000 0.000000 -0.494357 0.000000 -0.019074
# 5 -0.012506 -0.009947 -0.017032 0.000000 0.044112 0.000000
# 6 0.000000 0.000000 0.000000 -0.019074 0.000000 0.037005
#
#
# Mechanical properties :
#
#
# Convention : Reuss Voigt Hill
#
# Bulk Modulus (GPa) = 10.59011 18.98683 14.78847
# Shear Modulus (GPa) = -15.12747 23.30030 4.08641
#
# Velocity S-wave (km/s) = -2.63431 3.26937 1.36916
# Velocity P-wave (km/s) = 2.09635 4.79184 3.04689
#
# Compressibility (1/GPa) = 0.09442775
#
# Stress axis : x y z
#
# Youngs Moduli (GPa) = 59.47174 37.49337 34.07434
#
# Poissons Ratio (x) = -0.12994 -0.07836
# Poissons Ratio (y) = -0.20612 -0.17144
# Poissons Ratio (z) = -0.13677 -0.18865
#
# Static dielectric constant tensor:
#      x y z
#    x 1.824050 0.000000 0.035930 
#    y 0.000000 1.803720 0.000000 
#    z 0.035930 0.000000 1.851370 
# 
# From -- ./inp_files/239054.got.cif
#   From: 2010.05.17/outbox.cif.g08.bks.cpg/sg12_120_cif.got.tgz:239054.got - 2010.06.03 13:09:07.
