data_PCOD9208079
_publ_section_title
;
Structure prediction by ZEFSAII (Michael W. Deem and Ramdas Pophale) SiO2 
 PCOD9208079
Probable space group: C 2/M
;
_chemical_formula_sum "Si O2"
_cell_formula_units_Z 48
_cell_length_a 11.011980
_cell_length_b 22.888417
_cell_length_c 8.655861
_cell_angle_alpha 90.000000
_cell_angle_beta 95.609634
_cell_angle_gamma 90.000000
_cell_volume 2171.233858
_symmetry_space_group_name_H-M "C 2/M"
_symmetry_group_IT_number 12
_symmetry_cell_setting 'monoclinic'
loop_
_space_group_symop_operation_xyz
x,y,z
-x,y,-z
-x,-y,-z
x,-y,z
1/2+x,1/2+y,z
1/2-x,1/2+y,-z
1/2-x,1/2-y,-z
1/2+x,1/2-y,z
loop_
_atom_site_type_symbol
_atom_site_label
_atom_site_fract_x
_atom_site_fract_y
_atom_site_fract_z
Si Si1 0.761335 0.183556 0.349000
Si Si2 0.559049 0.566566 0.353760
Si Si3 0.264908 0.374323 0.836609
Si Si4 0.692082 0.432310 0.831232
Si Si5 0.628160 0.255542 0.089864
Si Si6 0.886089 0.298024 0.376648
O O1 0.769478 0.118207 0.285402
O O2 0.653459 0.214833 0.238953
O O3 0.873763 0.229018 0.333086
O O4 0.728674 0.188583 0.523836
O O5 0.500000 0.596071 0.500000
O O6 0.582794 0.500000 0.402236
O O7 0.683743 0.587782 0.296339
O O8 0.454766 0.567987 0.208861
O O9 0.365910 0.323348 0.866917
O O10 0.141160 0.340742 0.770260
O O11 0.263481 0.410115 0.995758
O O12 0.730068 0.500000 0.807523
O O13 0.500000 0.241177 0.000000
O O14 0.750000 0.250000 0.000000
O O15 0.000000 0.310058 0.500000
#
# Coordination Sequence:
#
# PCOD9208079 Si02
#       6
#     8   8   8   8   8   8
#     4  10  23  39  62  94 126 166 216 273 332 409
#     4  10  21  37  61  92 129 168 212 272 336 402
#     4  11  22  38  61  94 127 169 217 276 337 404
#     4  11  22  38  64  95 131 169 214 272 332 400
#     4  11  23  38  63  98 130 173 217 281 347 405
#     4  10  24  41  64  91 125 171 215 275 336 397
#
# _framework density 22.107247000000001
#
# number of rings (size 3 to 8) (size 9 to 14) (size 15 to 20)
#    0.000    1.500    1.667    3.000    4.667    4.667 
#    0.000    0.833    0.000    8.000    0.000    0.000 
#    0.000    0.000    0.000    0.000    0.000    0.000 
#
# Total GULP energy -133922.045376 kJ/mol
# GULP energy per Si atom -5580.085224 kJ/mol
# Density = 2.205693 g / cm^3
# Si number density = 22.107247 Si / 1000 Ang^3
#
#
#
# Elastic Constant Matrix: (Units=GPa)
#
#
# Indices 1 2 3 4 5 6 
#
# 1 46.5495 13.9951 25.2626 0.0000 11.0540 0.0000
# 2 13.9951 154.9508 39.0865 0.0000 -7.4598 0.0000
# 3 25.2626 39.0865 112.9117 0.0000 14.5835 0.0000
# 4 0.0000 0.0000 0.0000 35.7409 0.0000 -0.0531
# 5 11.0540 -7.4598 14.5835 0.0000 48.8126 0.0000
# 6 0.0000 0.0000 0.0000 -0.0531 0.0000 20.9333
#
#
#
# Elastic Compliance Matrix: (Units=1/GPa)
#
#
# Indices 1 2 3 4 5 6 
#
# 1 0.025500 -0.001353 -0.004644 0.000000 -0.004594 0.000000
# 2 -0.001353 0.007314 -0.002510 0.000000 0.002174 0.000000
# 3 -0.004644 -0.002510 0.011107 0.000000 -0.002650 0.000000
# 4 0.000000 0.000000 0.000000 0.027979 0.000000 0.000071
# 5 -0.004594 0.002174 -0.002650 0.000000 0.022651 0.000000
# 6 0.000000 0.000000 0.000000 0.000071 0.000000 0.047771
#
#
# Mechanical properties :
#
#
# Convention : Reuss Voigt Hill
#
# Bulk Modulus (GPa) = 37.16414 52.34447 44.75431
# Shear Modulus (GPa) = 29.70815 36.83521 33.27168
#
# Velocity S-wave (km/s) = 3.66979 4.08635 3.88366
# Velocity P-wave (km/s) = 5.89948 6.78183 6.35598
#
# Compressibility (1/GPa) = 0.02690766
#
# Stress axis : x y z
#
# Youngs Moduli (GPa) = 39.21506 136.73099 90.03691
#
# Poissons Ratio (x) = 0.18500 0.41810
# Poissons Ratio (y) = 0.05306 0.22598
# Poissons Ratio (z) = 0.18210 0.34317
#
# Static dielectric constant tensor:
#      x y z
#    x 1.863530 0.000000 -0.033460 
#    y 0.000000 1.939780 0.000000 
#    z -0.033460 0.000000 1.875620 
# 
# From -- ./inp_files/51343.got.cif
#   From: 2010.05.17/outbox.cif.g08.bks.cpg/sg12_26_cif.got.tgz:51343.got - 2010.06.03 13:09:07.
