data_PCOD9208536
_publ_section_title
;
Structure prediction by ZEFSAII (Michael W. Deem and Ramdas Pophale) SiO2 
 PCOD9208536
Probable space group: C 2/M
;
_chemical_formula_sum "Si O2"
_cell_formula_units_Z 50
_cell_length_a 8.853889
_cell_length_b 17.339435
_cell_length_c 17.756363
_cell_angle_alpha 90.000000
_cell_angle_beta 54.048651
_cell_angle_gamma 90.000000
_cell_volume 2206.725742
_symmetry_space_group_name_H-M "C 2/M"
_symmetry_group_IT_number 12
_symmetry_cell_setting 'monoclinic'
loop_
_space_group_symop_operation_xyz
x,y,z
-x,y,-z
-x,-y,-z
x,-y,z
1/2+x,1/2+y,z
1/2-x,1/2+y,-z
1/2-x,1/2-y,-z
1/2+x,1/2-y,z
loop_
_atom_site_type_symbol
_atom_site_label
_atom_site_fract_x
_atom_site_fract_y
_atom_site_fract_z
Si Si1 0.157775 0.583129 0.556533
Si Si2 0.734761 0.124310 0.311721
Si Si3 0.958972 0.716077 0.932578
Si Si4 0.008092 0.083322 0.340607
Si Si5 0.325069 0.709510 0.607971
Si Si6 0.000000 0.000000 0.000000
Si Si7 0.245683 0.358549 0.136390
O O1 0.189167 0.500000 0.585799
O O2 0.320523 0.586453 0.447044
O O3 0.186510 0.658991 0.598306
O O4 0.943440 0.586201 0.596261
O O5 0.931517 0.089077 0.278679
O O6 0.746325 0.210986 0.339206
O O7 0.695596 0.117375 0.235444
O O8 0.930133 0.668220 0.863921
O O9 0.109565 0.786041 0.890545
O O10 0.750000 0.750000 0.000000
O O11 0.000000 0.672452 0.000000
O O12 0.120707 0.155183 0.338177
O O13 0.097587 0.000000 0.325773
O O14 0.500000 0.723729 0.500000
O O15 0.849573 0.069581 0.067257
#
# Coordination Sequence:
#
# PCOD9208536 Si02
#       7
#     8   8   8   8   8   2   8
#     4  10  21  38  58  82 125 171 210 253 305 356
#     4  12  24  35  57  94 122 157 204 259 300 354
#     4   9  18  44  69  92 114 160 200 234 313 391
#     4  10  21  38  58  84 122 173 213 249 305 358
#     4  10  21  38  59  84 122 170 216 255 298 352
#     4  12  24  48  66  96 126 158 198 244 328 386
#     4  11  25  40  71  92 127 159 199 255 312 379
#
# _framework density 22.658003999999998
#
# number of rings (size 3 to 8) (size 9 to 14) (size 15 to 20)
#    0.000    1.600    2.400    3.360    6.720    5.760 
#    0.000    0.400    0.000    0.000    0.000    0.000 
#    0.000    0.000    0.000    0.000    0.000    0.000 
#
# Total GULP energy -139244.643845 kJ/mol
# GULP energy per Si atom -5569.785754 kJ/mol
# Density = 2.260643 g / cm^3
# Si number density = 22.658004 Si / 1000 Ang^3
#
#
#
# Elastic Constant Matrix: (Units=GPa)
#
#
# Indices 1 2 3 4 5 6 
#
# 1 84.7915 29.8122 16.8719 0.0000 26.2680 -0.0001
# 2 29.8122 144.0451 8.3389 0.0000 11.0319 0.0000
# 3 16.8719 8.3389 51.4621 0.0000 18.1721 0.0000
# 4 0.0000 0.0000 0.0000 27.1010 0.0000 47.5004
# 5 26.2680 11.0319 18.1721 0.0000 39.8228 0.0000
# 6 -0.0001 0.0000 0.0000 47.5004 0.0000 91.4561
#
#
#
# Elastic Compliance Matrix: (Units=1/GPa)
#
#
# Indices 1 2 3 4 5 6 
#
# 1 0.015767 -0.002483 -0.001594 0.000000 -0.008985 0.000000
# 2 -0.002483 0.007496 -0.000293 0.000000 -0.000305 0.000000
# 3 -0.001594 -0.000293 0.023367 0.000000 -0.009530 0.000000
# 4 0.000000 0.000000 0.000000 0.411484 0.000000 -0.213716
# 5 -0.008985 -0.000305 -0.009530 0.000000 0.035472 0.000000
# 6 0.000000 0.000000 0.000000 -0.213716 0.000000 0.121934
#
#
# Mechanical properties :
#
#
# Convention : Reuss Voigt Hill
#
# Bulk Modulus (GPa) = 26.39137 43.37162 34.88150
# Shear Modulus (GPa) = 7.85064 46.69436 27.27250
#
# Velocity S-wave (km/s) = 1.86343 4.54456 3.47314
# Velocity P-wave (km/s) = 4.03767 6.83526 5.61354
#
# Compressibility (1/GPa) = 0.03789117
#
# Stress axis : x y z
#
# Youngs Moduli (GPa) = 63.42203 133.39607 42.79500
#
# Poissons Ratio (x) = 0.33120 0.06822
# Poissons Ratio (y) = 0.15747 0.01254
# Poissons Ratio (z) = 0.10111 0.03907
#
# Static dielectric constant tensor:
#      x y z
#    x 1.860290 0.000000 0.035760 
#    y 0.000000 1.882240 0.000000 
#    z 0.035760 0.000000 1.937970 
# 
# From -- ./inp_files/256521.got.cif
#   From: 2010.05.17/outbox.cif.g08.bks.cpg/sg12_129_cif.got.tgz:256521.got - 2010.06.03 13:09:07.
