data_PCOD9208427
_publ_section_title
;
Structure prediction by ZEFSAII (Michael W. Deem and Ramdas Pophale) SiO2 
 PCOD9208427
Probable space group: C 2/M
;
_chemical_formula_sum "Si O2"
_cell_formula_units_Z 56
_cell_length_a 14.749278
_cell_length_b 8.515287
_cell_length_c 24.396905
_cell_angle_alpha 90.000000
_cell_angle_beta 82.483608
_cell_angle_gamma 90.000000
_cell_volume 3037.784606
_symmetry_space_group_name_H-M "C 2/M"
_symmetry_group_IT_number 12
_symmetry_cell_setting 'monoclinic'
loop_
_space_group_symop_operation_xyz
x,y,z
-x,y,-z
-x,-y,-z
x,-y,z
1/2+x,1/2+y,z
1/2-x,1/2+y,-z
1/2-x,1/2-y,-z
1/2+x,1/2-y,z
loop_
_atom_site_type_symbol
_atom_site_label
_atom_site_fract_x
_atom_site_fract_y
_atom_site_fract_z
Si Si1 0.186225 0.189376 0.853322
Si Si2 0.060283 0.811772 0.761300
Si Si3 0.523229 0.810579 0.937068
Si Si4 0.087307 0.315593 0.637953
Si Si5 0.603127 0.809789 0.154456
Si Si6 0.550900 0.684081 0.438555
Si Si7 0.244088 0.316540 0.438893
O O1 0.136645 0.236378 0.800367
O O2 0.119883 0.250427 0.906434
O O3 0.291436 0.241516 0.849591
O O4 0.185888 0.000000 0.855292
O O5 0.078805 0.735096 0.701428
O O6 0.962640 0.759336 0.793581
O O7 0.062680 0.000000 0.756003
O O8 0.445176 0.764501 0.899207
O O9 0.526315 0.000000 0.937516
O O10 0.500000 0.755073 0.000000
O O11 0.069656 0.500000 0.633432
O O12 0.186165 0.273905 0.605663
O O13 0.016160 0.221157 0.605917
O O14 0.600960 0.000000 0.158510
O O15 0.500000 0.718775 0.500000
O O16 0.575930 0.500000 0.437366
O O17 0.641214 0.787681 0.427627
O O18 0.267851 0.500000 0.437511
O O19 0.250000 0.250000 0.500000
#
# Coordination Sequence:
#
# PCOD9208427 Si02
#       7
#     8   8   8   8   8   8   8
#     4   9  19  35  56  79 107 147 189 233 282 332
#     4  10  21  38  57  80 110 142 186 239 288 339
#     4   9  18  32  51  79 115 151 187 231 282 336
#     4  12  25  41  62  87 117 153 192 236 291 350
#     4   9  18  35  56  78 109 148 190 233 284 342
#     4  11  23  40  63  88 116 149 187 232 283 341
#     4  12  24  40  62  88 118 152 190 232 283 343
#
# _framework density 18.434486
#
# number of rings (size 3 to 8) (size 9 to 14) (size 15 to 20)
#    0.000    1.714    1.429    3.429    0.000    3.714 
#    0.000    4.286    0.000    0.000    0.000    0.000 
#    0.000    0.000    0.000    0.000    0.000    0.000 
#
# Total GULP energy -156417.395269 kJ/mol
# GULP energy per Si atom -5586.335545 kJ/mol
# Density = 1.839253 g / cm^3
# Si number density = 18.434486 Si / 1000 Ang^3
#
#
#
# Elastic Constant Matrix: (Units=GPa)
#
#
# Indices 1 2 3 4 5 6 
#
# 1 132.2945 7.8445 55.8189 0.0000 -8.1158 0.0000
# 2 7.8445 25.8852 16.8698 0.0000 -2.0986 0.0000
# 3 55.8189 16.8698 144.4238 0.0000 -19.1789 0.0000
# 4 0.0000 0.0000 0.0000 25.7980 0.0000 -6.1630
# 5 -8.1158 -2.0986 -19.1789 0.0000 15.1271 0.0000
# 6 0.0000 0.0000 0.0000 -6.1630 0.0000 24.3248
#
#
#
# Elastic Compliance Matrix: (Units=1/GPa)
#
#
# Indices 1 2 3 4 5 6 
#
# 1 0.009041 -0.000504 -0.003368 0.000000 0.000511 0.000000
# 2 -0.000504 0.041846 -0.004760 0.000000 -0.000499 0.000000
# 3 -0.003368 -0.004760 0.010165 0.000000 0.010421 0.000000
# 4 0.000000 0.000000 0.000000 0.041260 0.000000 0.010454
# 5 0.000511 -0.000499 0.010421 0.000000 0.079524 0.000000
# 6 0.000000 0.000000 0.000000 0.010454 0.000000 0.043759
#
#
# Mechanical properties :
#
#
# Convention : Reuss Voigt Hill
#
# Bulk Modulus (GPa) = 22.83579 51.51886 37.17733
# Shear Modulus (GPa) = 19.42092 27.85468 23.63780
#
# Velocity S-wave (km/s) = 3.24930 3.89139 3.58475
# Velocity P-wave (km/s) = 5.14701 6.94249 6.11105
#
# Compressibility (1/GPa) = 0.04379090
#
# Stress axis : x y z
#
# Youngs Moduli (GPa) = 110.60730 23.89703 98.37232
#
# Poissons Ratio (x) = 0.01204 0.33128
# Poissons Ratio (y) = 0.05572 0.46821
# Poissons Ratio (z) = 0.37248 0.11374
#
# Static dielectric constant tensor:
#      x y z
#    x 1.622250 0.000000 0.018100 
#    y 0.000000 1.624140 0.000000 
#    z 0.018100 0.000000 1.606770 
# 
# From -- ./inp_files/308885.got.cif
#   From: 2010.05.17/outbox.cif.g08.bks.cpg/sg12_155_cif.got.tgz:308885.got - 2010.06.03 13:09:07.
