data_PCOD9208975
_publ_section_title
;
Structure prediction by ZEFSAII (Michael W. Deem and Ramdas Pophale) SiO2 
 PCOD9208975
Probable space group: C 2/M
;
_chemical_formula_sum "Si O2"
_cell_formula_units_Z 56
_cell_length_a 10.274682
_cell_length_b 15.032413
_cell_length_c 18.003394
_cell_angle_alpha 90.000000
_cell_angle_beta 81.773952
_cell_angle_gamma 90.000000
_cell_volume 2752.073302
_symmetry_space_group_name_H-M "C 2/M"
_symmetry_group_IT_number 12
_symmetry_cell_setting 'monoclinic'
loop_
_space_group_symop_operation_xyz
x,y,z
-x,y,-z
-x,-y,-z
x,-y,z
1/2+x,1/2+y,z
1/2-x,1/2+y,-z
1/2-x,1/2-y,-z
1/2+x,1/2-y,z
loop_
_atom_site_type_symbol
_atom_site_label
_atom_site_fract_x
_atom_site_fract_y
_atom_site_fract_z
Si Si1 0.192251 0.340578 0.925267
Si Si2 0.610349 0.732820 0.550037
Si Si3 0.055689 0.604458 0.656086
Si Si4 0.898296 0.688613 0.917856
Si Si5 0.726725 0.396582 0.242514
Si Si6 0.564871 0.390801 0.693735
Si Si7 0.198638 0.396586 0.225211
O O1 0.316780 0.278853 0.931433
O O2 0.232413 0.391060 0.847047
O O3 0.053455 0.295432 0.913280
O O4 0.150895 0.375702 0.010513
O O5 0.500000 0.704814 0.500000
O O6 0.750000 0.750000 0.500000
O O7 0.569470 0.827481 0.588339
O O8 0.610778 0.659475 0.615655
O O9 0.079796 0.500000 0.635927
O O10 0.159119 0.635368 0.711517
O O11 0.910877 0.610466 0.702221
O O12 0.856399 0.651431 0.842231
O O13 0.714457 0.500000 0.261047
O O14 0.582659 0.359155 0.273034
O O15 0.570216 0.500000 0.685562
O O16 0.663634 0.365477 0.752318
O O17 0.212679 0.500000 0.204556
#
# Coordination Sequence:
#
# PCOD9208975 Si02
#       7
#     8   8   8   8   8   8   8
#     4  10  22  37  56  87 123 161 204 253 305 353
#     4  12  26  42  64  94 117 156 205 238 312 385
#     4  10  22  40  62  91 122 153 199 254 305 364
#     4  10  22  37  56  87 123 161 203 254 306 351
#     4  10  21  38  60  88 118 161 207 248 305 359
#     4  10  24  42  62  91 126 159 201 256 306 364
#     4  10  21  38  60  88 118 159 205 248 307 358
#
# _framework density 20.348296000000001
#
# number of rings (size 3 to 8) (size 9 to 14) (size 15 to 20)
#    0.000    1.714    1.429    1.714    6.000    1.714 
#    0.000    1.429    0.000    2.571    0.000    0.000 
#    0.000    0.000    0.000    0.000    0.000    0.000 
#
# Total GULP energy -156138.204068 kJ/mol
# GULP energy per Si atom -5576.364431 kJ/mol
# Density = 2.030198 g / cm^3
# Si number density = 20.348296 Si / 1000 Ang^3
#
#
#
# Elastic Constant Matrix: (Units=GPa)
#
#
# Indices 1 2 3 4 5 6 
#
# 1 114.4582 -0.1740 2.1761 0.0000 0.6428 0.0000
# 2 -0.1740 35.6384 6.1878 0.0000 -3.2992 0.0000
# 3 2.1761 6.1878 60.8934 0.0000 0.6313 0.0000
# 4 0.0000 0.0000 0.0000 -5.1303 0.0000 -3.9531
# 5 0.6428 -3.2992 0.6313 0.0000 30.9932 0.0000
# 6 0.0000 0.0000 0.0000 -3.9531 0.0000 13.4289
#
#
#
# Elastic Compliance Matrix: (Units=1/GPa)
#
#
# Indices 1 2 3 4 5 6 
#
# 1 0.008744 0.000083 -0.000319 0.000000 -0.000166 0.000000
# 2 0.000083 0.028865 -0.002969 0.000000 0.003131 0.000000
# 3 -0.000319 -0.002969 0.016742 0.000000 -0.000650 0.000000
# 4 0.000000 0.000000 0.000000 -0.158883 0.000000 -0.046771
# 5 -0.000166 0.003131 -0.000650 0.000000 0.032615 0.000000
# 6 0.000000 0.000000 0.000000 -0.046771 0.000000 0.060698
#
#
# Mechanical properties :
#
#
# Convention : Reuss Voigt Hill
#
# Bulk Modulus (GPa) = 20.85890 25.26330 23.06110
# Shear Modulus (GPa) = 447.52455 21.37836 234.45146
#
# Velocity S-wave (km/s) = 14.84620 3.24485 10.74567
# Velocity P-wave (km/s) = 17.43997 5.14598 12.85756
#
# Compressibility (1/GPa) = 0.04794117
#
# Stress axis : x y z
#
# Youngs Moduli (GPa) = 114.36493 34.64361 59.73016
#
# Poissons Ratio (x) = -0.00287 0.01906
# Poissons Ratio (y) = -0.00946 0.17732
# Poissons Ratio (z) = 0.03650 0.10284
#
# Static dielectric constant tensor:
#      x y z
#    x 1.714040 0.000000 -0.009870 
#    y 0.000000 1.743170 0.000000 
#    z -0.009870 0.000000 1.728500 
# 
# From -- ./inp_files/300149.got.cif
#   From: 2010.05.17/outbox.cif.g08.bks.cpg/sg12_151_cif.got.tgz:300149.got - 2010.06.03 13:09:07.
