data_PCOD9208166
_publ_section_title
;
Structure prediction by ZEFSAII (Michael W. Deem and Ramdas Pophale) SiO2 
 PCOD9208166
Probable space group: C 2/M
;
_chemical_formula_sum "Si O2"
_cell_formula_units_Z 52
_cell_length_a 9.844931
_cell_length_b 29.416547
_cell_length_c 7.979678
_cell_angle_alpha 90.000000
_cell_angle_beta 73.086404
_cell_angle_gamma 90.000000
_cell_volume 2210.984736
_symmetry_space_group_name_H-M "C 2/M"
_symmetry_group_IT_number 12
_symmetry_cell_setting 'monoclinic'
loop_
_space_group_symop_operation_xyz
x,y,z
-x,y,-z
-x,-y,-z
x,-y,z
1/2+x,1/2+y,z
1/2-x,1/2+y,-z
1/2-x,1/2-y,-z
1/2+x,1/2-y,z
loop_
_atom_site_type_symbol
_atom_site_label
_atom_site_fract_x
_atom_site_fract_y
_atom_site_fract_z
Si Si1 0.711458 0.305956 0.745458
Si Si2 0.673276 0.594307 0.909643
Si Si3 0.165954 0.160556 0.406052
Si Si4 0.448159 0.259004 0.715572
Si Si5 0.702680 0.500000 0.723151
Si Si6 0.087247 0.500000 0.640663
Si Si7 0.415485 0.500000 0.699831
Si Si8 0.307566 0.078531 0.199836
O O1 0.680327 0.356992 0.815324
O O2 0.730397 0.312190 0.538407
O O3 0.577249 0.271367 0.791627
O O4 0.846957 0.283349 0.783040
O O5 0.734035 0.549195 0.793068
O O6 0.500000 0.589186 0.000000
O O7 0.786961 0.598669 0.022539
O O8 0.147170 0.195014 0.258455
O O9 0.267723 0.118682 0.338005
O O10 0.000000 0.145606 0.500000
O O11 0.500000 0.255120 0.500000
O O12 0.761710 0.500000 0.511475
O O13 0.534972 0.500000 0.793911
O O14 0.074959 0.544474 0.763590
O O15 0.000000 0.500000 0.500000
O O16 0.500000 0.500000 0.500000
O O17 0.324050 0.544093 0.757336
#
# Coordination Sequence:
#
# PCOD9208166 Si02
#       8
#     8   8   8   8   4   4   4   8
#     4  10  21  37  62  93 127 168 214 267 321 378
#     4  12  23  37  62 102 133 160 199 263 329 385
#     4   9  17  32  59  89 119 152 209 273 318 356
#     4   9  18  36  62  91 124 162 219 276 319 367
#     4  12  22  38  66  95 126 156 207 260 319 372
#     4  11  26  44  62  84 123 175 219 254 302 375
#     4  11  19  30  61  97 120 142 196 262 321 363
#     4  11  21  36  59  92 128 159 198 259 317 376
#
# _framework density 23.518932
#
# number of rings (size 3 to 8) (size 9 to 14) (size 15 to 20)
#    0.000    1.846    3.077    6.231    0.000    0.000 
#    0.000   10.769    0.000    1.846    0.000    0.000 
#    0.000    0.000    0.000    0.000    0.000    0.000 
#
# Total GULP energy -144766.100192 kJ/mol
# GULP energy per Si atom -5567.926930 kJ/mol
# Density = 2.346540 g / cm^3
# Si number density = 23.518932 Si / 1000 Ang^3
#
#
#
# Elastic Constant Matrix: (Units=GPa)
#
#
# Indices 1 2 3 4 5 6 
#
# 1 84.3658 37.8302 8.2194 0.0000 21.8366 0.0000
# 2 37.8302 125.8250 13.4697 0.0000 -6.9945 0.0000
# 3 8.2194 13.4697 35.3923 0.0000 10.0504 0.0000
# 4 0.0000 0.0000 0.0000 26.3586 0.0000 8.6488
# 5 21.8366 -6.9945 10.0504 0.0000 27.2191 0.0000
# 6 0.0000 0.0000 0.0000 8.6488 0.0000 23.5433
#
#
#
# Elastic Compliance Matrix: (Units=1/GPa)
#
#
# Indices 1 2 3 4 5 6 
#
# 1 0.019754 -0.007391 0.003647 0.000000 -0.019094 0.000000
# 2 -0.007391 0.011394 -0.005737 0.000000 0.010976 0.000000
# 3 0.003647 -0.005737 0.034453 0.000000 -0.017122 0.000000
# 4 0.000000 0.000000 0.000000 0.043138 0.000000 -0.015847
# 5 -0.019094 0.010976 -0.017122 0.000000 0.061199 0.000000
# 6 0.000000 0.000000 0.000000 -0.015847 0.000000 0.048296
#
#
# Mechanical properties :
#
#
# Convention : Reuss Voigt Hill
#
# Bulk Modulus (GPa) = 21.44060 40.51351 30.97705
# Shear Modulus (GPa) = 19.78300 27.82847 23.80573
#
# Velocity S-wave (km/s) = 2.90341 3.44355 3.18495
# Velocity P-wave (km/s) = 4.51396 5.75100 5.16962
#
# Compressibility (1/GPa) = 0.04664050
#
# Stress axis : x y z
#
# Youngs Moduli (GPa) = 50.62236 87.76573 29.02500
#
# Poissons Ratio (x) = 0.64868 -0.10587
# Poissons Ratio (y) = 0.37415 0.16651
# Poissons Ratio (z) = -0.18464 0.50348
#
# Static dielectric constant tensor:
#      x y z
#    x 2.312950 0.000000 0.100290 
#    y 0.000000 1.899630 0.000000 
#    z 0.100290 0.000000 2.051840 
# 
# From -- ./inp_files/52582.got.cif
#   From: 2010.05.17/outbox.cif.g08.bks.cpg/sg12_27_cif.got.tgz:52582.got - 2010.06.03 13:09:07.
