data_PCOD9208702
_publ_section_title
;
Structure prediction by ZEFSAII (Michael W. Deem and Ramdas Pophale) SiO2 
 PCOD9208702
Probable space group: C 2/M
;
_chemical_formula_sum "Si O2"
_cell_formula_units_Z 42
_cell_length_a 14.047268
_cell_length_b 8.019609
_cell_length_c 25.133847
_cell_angle_alpha 90.000000
_cell_angle_beta 45.420401
_cell_angle_gamma 90.000000
_cell_volume 2016.751314
_symmetry_space_group_name_H-M "C 2/M"
_symmetry_group_IT_number 12
_symmetry_cell_setting 'monoclinic'
loop_
_space_group_symop_operation_xyz
x,y,z
-x,y,-z
-x,-y,-z
x,-y,z
1/2+x,1/2+y,z
1/2-x,1/2+y,-z
1/2-x,1/2-y,-z
1/2+x,1/2-y,z
loop_
_atom_site_type_symbol
_atom_site_label
_atom_site_fract_x
_atom_site_fract_y
_atom_site_fract_z
Si Si1 0.877776 0.308117 0.185120
Si Si2 0.913624 0.686376 0.701557
Si Si3 0.379561 0.689399 0.299943
Si Si4 0.000000 0.000000 0.000000
Si Si5 0.910644 0.194466 0.583059
Si Si6 0.128918 0.301736 0.008669
O O1 0.835230 0.500000 0.204880
O O2 0.743531 0.207708 0.225235
O O3 0.927523 0.255282 0.223951
O O4 0.994162 0.290460 0.097022
O O5 0.956086 0.500000 0.697745
O O6 0.931842 0.721595 0.631915
O O7 0.005084 0.800929 0.702075
O O8 0.335341 0.500000 0.309444
O O9 0.246290 0.788101 0.368293
O O10 0.107670 0.847698 0.974701
O O11 0.000000 0.263387 0.500000
O O12 0.944133 0.000000 0.576455
O O13 0.357521 0.000000 0.013876
O O14 0.250000 0.250000 0.000000
#
# Coordination Sequence:
#
# PCOD9208702 Si02
#       6
#     8   8   8   2   8   8
#     4  10  22  41  64  91 126 160 206 263 316 381
#     4  11  22  37  60  88 122 159 207 257 307 376
#     4  11  22  37  61  88 119 161 204 254 313 372
#     4  12  26  44  76  96 144 180 224 288 328 432
#     4  10  21  38  59  84 119 159 200 255 314 368
#     4  11  25  46  72 103 139 184 229 285 348 415
#
# _framework density 20.825571
#
# number of rings (size 3 to 8) (size 9 to 14) (size 15 to 20)
#    0.000    1.333    0.952    7.143    2.667    3.810 
#    0.000    0.000    0.000    0.000    0.000    0.000 
#    0.000    0.000    0.000    0.000    0.000    0.000 
#
# Total GULP energy -117010.417726 kJ/mol
# GULP energy per Si atom -5571.924654 kJ/mol
# Density = 2.077817 g / cm^3
# Si number density = 20.825571 Si / 1000 Ang^3
#
#
#
# Elastic Constant Matrix: (Units=GPa)
#
#
# Indices 1 2 3 4 5 6 
#
# 1 104.9291 12.7715 7.1951 0.0000 -5.5245 -0.0001
# 2 12.7715 119.8365 17.5121 0.0000 5.3161 -0.0001
# 3 7.1951 17.5121 47.0821 0.0000 4.9475 0.0000
# 4 0.0000 0.0000 0.0000 -43.7064 0.0000 -11.4528
# 5 -5.5245 5.3161 4.9475 0.0000 4.3222 0.0000
# 6 -0.0001 -0.0001 0.0000 -11.4528 0.0000 36.2577
#
#
#
# Elastic Compliance Matrix: (Units=1/GPa)
#
#
# Indices 1 2 3 4 5 6 
#
# 1 0.010968 -0.001577 -0.003145 0.000000 0.019557 0.000000
# 2 -0.001577 0.009306 -0.002053 0.000000 -0.011111 0.000000
# 3 -0.003145 -0.002053 0.025736 0.000000 -0.030954 0.000000
# 4 0.000000 0.000000 0.000000 -0.021131 0.000000 -0.006675
# 5 0.019557 -0.011111 -0.030954 0.000000 0.305457 0.000000
# 6 0.000000 0.000000 0.000000 -0.006675 0.000000 0.025472
#
#
# Mechanical properties :
#
#
# Convention : Reuss Voigt Hill
#
# Bulk Modulus (GPa) = 30.80615 38.53389 34.67002
# Shear Modulus (GPa) = 13.15179 14.99930 14.07554
#
# Velocity S-wave (km/s) = 2.51573 2.68663 2.60259
# Velocity P-wave (km/s) = 4.82319 5.30729 5.07102
#
# Compressibility (1/GPa) = 0.03246105
#
# Stress axis : x y z
#
# Youngs Moduli (GPa) = 91.17842 107.46176 38.85568
#
# Poissons Ratio (x) = 0.16946 0.12219
# Poissons Ratio (y) = 0.14378 0.07976
# Poissons Ratio (z) = 0.28672 0.22058
#
# Static dielectric constant tensor:
#      x y z
#    x 1.709260 0.000000 0.024620 
#    y 0.000000 1.703570 0.000000 
#    z 0.024620 0.000000 1.738020 
# 
# From -- ./inp_files/359551.got.cif
#   From: 2010.05.17/outbox.cif.g08.bks.cpg/sg12_180_cif.got.tgz:359551.got - 2010.06.03 13:09:07.
