data_PCOD9208499
_publ_section_title
;
Structure prediction by ZEFSAII (Michael W. Deem and Ramdas Pophale) SiO2 
 PCOD9208499
Probable space group: C 2/M
;
_chemical_formula_sum "Si O2"
_cell_formula_units_Z 56
_cell_length_a 30.428945
_cell_length_b 8.522606
_cell_length_c 20.755292
_cell_angle_alpha 90.000000
_cell_angle_beta 147.288942
_cell_angle_gamma 90.000000
_cell_volume 2908.745211
_symmetry_space_group_name_H-M "C 2/M"
_symmetry_group_IT_number 12
_symmetry_cell_setting 'monoclinic'
loop_
_space_group_symop_operation_xyz
x,y,z
-x,y,-z
-x,-y,-z
x,-y,z
1/2+x,1/2+y,z
1/2-x,1/2+y,-z
1/2-x,1/2-y,-z
1/2+x,1/2-y,z
loop_
_atom_site_type_symbol
_atom_site_label
_atom_site_fract_x
_atom_site_fract_y
_atom_site_fract_z
Si Si1 0.077699 0.691476 0.137481
Si Si2 0.597956 0.188712 0.440443
Si Si3 0.475466 0.189762 0.786678
Si Si4 0.643131 0.686273 0.941918
Si Si5 0.250235 0.311010 0.295638
Si Si6 0.076386 0.687679 0.725548
Si Si7 0.704743 0.687542 0.792162
O O1 0.078709 0.500000 0.137484
O O2 0.064635 0.737394 0.195568
O O3 0.162396 0.746289 0.211498
O O4 0.000000 0.742075 0.000000
O O5 0.577806 0.231763 0.341658
O O6 0.678806 0.262781 0.568270
O O7 0.517664 0.236102 0.382030
O O8 0.604733 0.000000 0.451872
O O9 0.564383 0.262915 0.886323
O O10 0.485254 0.000000 0.798469
O O11 0.652087 0.500000 0.952596
O O12 0.624279 0.745185 0.846547
O O13 0.722892 0.762382 0.070823
O O14 0.246106 0.500000 0.287853
O O15 0.272951 0.255116 0.251929
O O16 0.079364 0.500000 0.733195
O O17 0.121197 0.744369 0.716995
O O18 0.699273 0.500000 0.784546
#
# Coordination Sequence:
#
# PCOD9208499 Si02
#       7
#     8   8   8   8   8   8   8
#     4   9  17  33  58  84 109 141 182 224 269 323
#     4   9  20  37  55  77 108 144 180 225 277 326
#     4   9  18  35  58  81 109 147 186 223 269 324
#     4  11  21  34  55  84 114 143 179 225 276 326
#     4  10  22  37  56  81 108 143 186 230 270 319
#     4  10  21  38  58  80 108 145 185 223 271 328
#     4  11  22  36  54  79 111 146 184 227 276 324
#
# _framework density 19.252286999999999
#
# number of rings (size 3 to 8) (size 9 to 14) (size 15 to 20)
#    0.000    2.143    0.000    4.286    0.000    7.429 
#    0.000    3.571    0.000    1.714    0.000    0.000 
#    0.000    0.000    0.000    0.000    0.000    0.000 
#
# Total GULP energy -156401.060842 kJ/mol
# GULP energy per Si atom -5585.752173 kJ/mol
# Density = 1.920847 g / cm^3
# Si number density = 19.252287 Si / 1000 Ang^3
#
#
#
# Elastic Constant Matrix: (Units=GPa)
#
#
# Indices 1 2 3 4 5 6 
#
# 1 217.4183 126.3815 136.5189 0.0000 65.4636 0.0000
# 2 126.3815 312.3969 201.0433 0.0000 126.2172 0.0000
# 3 136.5189 201.0433 241.9462 0.0000 106.6655 0.0000
# 4 0.0000 0.0000 0.0000 29.2264 0.0000 4.3533
# 5 65.4636 126.2172 106.6655 0.0000 62.6743 0.0000
# 6 0.0000 0.0000 0.0000 4.3533 0.0000 21.2441
#
#
#
# Elastic Compliance Matrix: (Units=1/GPa)
#
#
# Indices 1 2 3 4 5 6 
#
# 1 0.007215 -0.000035 -0.003006 0.000000 -0.002349 0.000000
# 2 -0.000035 0.018157 0.004152 0.000000 -0.043595 0.000000
# 3 -0.003006 0.004152 0.018749 0.000000 -0.037130 0.000000
# 4 0.000000 0.000000 0.000000 0.035293 0.000000 -0.007232
# 5 -0.002349 -0.043595 -0.037130 0.000000 0.169394 0.000000
# 6 0.000000 0.000000 0.000000 -0.007232 0.000000 0.048554
#
#
# Mechanical properties :
#
#
# Convention : Reuss Voigt Hill
#
# Bulk Modulus (GPa) = 21.57900 188.84987 105.21444
# Shear Modulus (GPa) = 16.09854 43.15012 29.62433
#
# Velocity S-wave (km/s) = 2.89483 4.73937 3.92694
# Velocity P-wave (km/s) = 4.73352 11.32493 8.67929
#
# Compressibility (1/GPa) = 0.04634135
#
# Stress axis : x y z
#
# Youngs Moduli (GPa) = 138.60616 55.07559 53.33746
#
# Poissons Ratio (x) = 0.00193 0.16035
# Poissons Ratio (y) = 0.00487 -0.22146
# Poissons Ratio (z) = 0.41669 -0.22868
#
# Static dielectric constant tensor:
#      x y z
#    x 1.683300 0.000000 0.001580 
#    y 0.000000 1.657190 0.000000 
#    z 0.001580 0.000000 1.634030 
# 
# From -- ./inp_files/238242.got.cif
#   From: 2010.05.17/outbox.cif.g08.bks.cpg/sg12_120_cif.got.tgz:238242.got - 2010.06.03 13:09:07.
