data_PCOD9208620
_publ_section_title
;
Structure prediction by ZEFSAII (Michael W. Deem and Ramdas Pophale) SiO2 
 PCOD9208620
Probable space group: C 2/M
;
_chemical_formula_sum "Si O2"
_cell_formula_units_Z 48
_cell_length_a 14.898858
_cell_length_b 7.764527
_cell_length_c 16.636259
_cell_angle_alpha 90.000000
_cell_angle_beta 101.109244
_cell_angle_gamma 90.000000
_cell_volume 1888.462903
_symmetry_space_group_name_H-M "C 2/M"
_symmetry_group_IT_number 12
_symmetry_cell_setting 'monoclinic'
loop_
_space_group_symop_operation_xyz
x,y,z
-x,y,-z
-x,-y,-z
x,-y,z
1/2+x,1/2+y,z
1/2-x,1/2+y,-z
1/2-x,1/2-y,-z
1/2+x,1/2-y,z
loop_
_atom_site_type_symbol
_atom_site_label
_atom_site_fract_x
_atom_site_fract_y
_atom_site_fract_z
Si Si1 0.109283 0.701377 0.944998
Si Si2 0.606006 0.699393 0.438845
Si Si3 0.720046 0.701488 0.612133
Si Si4 0.277522 0.790842 0.881175
Si Si5 0.055288 0.288234 0.183066
Si Si6 0.940458 0.302150 0.313121
O O1 0.097825 0.500000 0.960482
O O2 0.176535 0.721859 0.879818
O O3 0.009993 0.765113 0.902464
O O4 0.164211 0.772018 0.030570
O O5 0.583984 0.500000 0.449383
O O6 0.658497 0.767478 0.526570
O O7 0.681435 0.712938 0.380765
O O8 0.513014 0.790606 0.398629
O O9 0.737999 0.500000 0.603180
O O10 0.655316 0.719996 0.678001
O O11 0.340679 0.737979 0.817273
O O12 0.271407 0.000000 0.880912
O O13 0.056376 0.500000 0.187221
O O14 0.000546 0.224733 0.251144
O O15 0.921183 0.500000 0.291577
#
# Coordination Sequence:
#
# PCOD9208620 Si02
#       6
#     8   8   8   8   8   8
#     4   9  17  32  54  76  99 131 172 215 256 300
#     4  10  21  38  59  81 105 136 177 222 265 312
#     4  10  21  38  59  81 105 136 177 222 265 312
#     4   9  17  32  54  76  99 131 172 215 256 300
#     4   9  19  34  51  74 104 139 174 206 250 309
#     4  11  22  35  53  79 112 145 176 214 262 317
#
# _framework density 25.417496
#
# number of rings (size 3 to 8) (size 9 to 14) (size 15 to 20)
#    0.000    2.333    0.000    2.500    0.000    7.333 
#    0.000    7.500    0.000    4.000    0.000    0.000 
#    0.000    0.000    0.000    0.000    0.000    0.000 
#
# Total GULP energy -134172.166952 kJ/mol
# GULP energy per Si atom -5590.506956 kJ/mol
# Density = 2.535965 g / cm^3
# Si number density = 25.417496 Si / 1000 Ang^3
#
#
#
# Elastic Constant Matrix: (Units=GPa)
#
#
# Indices 1 2 3 4 5 6 
#
# 1 168.3913 2.1267 23.8848 0.0000 -26.6367 0.0000
# 2 2.1267 45.9734 -3.5910 0.0000 -1.3767 0.0000
# 3 23.8848 -3.5910 56.4037 0.0000 -19.4557 0.0000
# 4 0.0000 0.0000 0.0000 12.2222 0.0000 -11.2626
# 5 -26.6367 -1.3767 -19.4557 0.0000 47.0646 0.0000
# 6 0.0000 0.0000 0.0000 -11.2626 0.0000 14.4841
#
#
#
# Elastic Compliance Matrix: (Units=1/GPa)
#
#
# Indices 1 2 3 4 5 6 
#
# 1 0.006677 -0.000360 -0.001808 0.000000 0.003021 0.000000
# 2 -0.000360 0.021961 0.001985 0.000000 0.001259 0.000000
# 3 -0.001808 0.001985 0.021330 0.000000 0.007852 0.000000
# 4 0.000000 0.000000 0.000000 0.288627 0.000000 0.224431
# 5 0.003021 0.001259 0.007852 0.000000 0.026240 0.000000
# 6 0.000000 0.000000 0.000000 0.224431 0.000000 0.243554
#
#
# Mechanical properties :
#
#
# Convention : Reuss Voigt Hill
#
# Bulk Modulus (GPa) = 20.16049 35.06772 27.61410
# Shear Modulus (GPa) = 7.99628 31.31072 19.65350
#
# Velocity S-wave (km/s) = 1.77561 3.51359 2.78371
# Velocity P-wave (km/s) = 3.48607 5.50337 4.60650
#
# Compressibility (1/GPa) = 0.04960196
#
# Stress axis : x y z
#
# Youngs Moduli (GPa) = 149.75680 45.53503 46.88243
#
# Poissons Ratio (x) = 0.01638 0.08479
# Poissons Ratio (y) = 0.05387 -0.09306
# Poissons Ratio (z) = 0.27083 -0.09038
#
# Static dielectric constant tensor:
#      x y z
#    x 1.952090 0.000000 -0.033990 
#    y 0.000000 1.919360 0.000000 
#    z -0.033990 0.000000 2.133580 
# 
# From -- ./inp_files/267666.got.cif
#   From: 2010.05.17/outbox.cif.g08.bks.cpg/sg12_134_cif.got.tgz:267666.got - 2010.06.03 13:09:07.
