data_PCOD9208074
_publ_section_title
;
Structure prediction by ZEFSAII (Michael W. Deem and Ramdas Pophale) SiO2 
 PCOD9208074
Probable space group: C 2/M
;
_chemical_formula_sum "Si O2"
_cell_formula_units_Z 58
_cell_length_a 11.912683
_cell_length_b 18.264953
_cell_length_c 14.050518
_cell_angle_alpha 90.000000
_cell_angle_beta 99.644667
_cell_angle_gamma 90.000000
_cell_volume 3013.965305
_symmetry_space_group_name_H-M "C 2/M"
_symmetry_group_IT_number 12
_symmetry_cell_setting 'monoclinic'
loop_
_space_group_symop_operation_xyz
x,y,z
-x,y,-z
-x,-y,-z
x,-y,z
1/2+x,1/2+y,z
1/2-x,1/2+y,-z
1/2-x,1/2-y,-z
1/2+x,1/2-y,z
loop_
_atom_site_type_symbol
_atom_site_label
_atom_site_fract_x
_atom_site_fract_y
_atom_site_fract_z
Si Si1 0.673042 0.814112 0.749954
Si Si2 0.500000 0.500000 0.000000
Si Si3 0.146528 0.192194 0.386801
Si Si4 0.724141 0.583300 0.563290
Si Si5 0.453291 0.583185 0.289498
Si Si6 0.405232 0.683270 0.125446
Si Si7 0.140731 0.857324 0.082424
Si Si8 0.459881 0.850992 0.600589
O O1 0.751878 0.790601 0.671986
O O2 0.632574 0.745513 0.807230
O O3 0.753365 0.859818 0.832091
O O4 0.564340 0.853653 0.688696
O O5 0.415441 0.435397 0.945967
O O6 0.193140 0.144912 0.481573
O O7 0.085088 0.266975 0.407629
O O8 0.054753 0.139179 0.324298
O O9 0.713387 0.500000 0.523589
O O10 0.637010 0.589551 0.638238
O O11 0.852951 0.599059 0.612794
O O12 0.494306 0.500000 0.290785
O O13 0.397532 0.607162 0.182349
O O14 0.538130 0.690351 0.114749
O O15 0.335748 0.677560 0.017837
O O16 0.500000 0.870697 0.500000
#
# Coordination Sequence:
#
# PCOD9208074 Si02
#       8
#     8   2   8   8   8   8   8   8
#     4  12  22  40  59  98 126 169 206 258 323 374
#     4   8  20  40  64  92 122 160 210 260 320 360
#     4  12  23  39  65  91 125 159 222 265 315 374
#     4  11  25  44  60  87 128 171 211 261 318 386
#     4  11  22  38  65  93 123 163 210 268 321 374
#     4  10  21  37  61  92 127 159 205 257 317 378
#     4  10  22  39  64  93 132 163 205 268 316 384
#     4  12  24  39  62  89 125 169 212 256 314 380
#
# _framework density 19.243751
#
# number of rings (size 3 to 8) (size 9 to 14) (size 15 to 20)
#    0.000    1.103    4.138    3.310    3.862    1.379 
#    2.483    0.000    0.000    0.000    0.000    1.931 
#    0.000    0.000    0.000    0.000    0.000    0.000 
#
# Total GULP energy -161784.157199 kJ/mol
# GULP energy per Si atom -5578.764041 kJ/mol
# Density = 1.919995 g / cm^3
# Si number density = 19.243751 Si / 1000 Ang^3
#
#
#
# Elastic Constant Matrix: (Units=GPa)
#
#
# Indices 1 2 3 4 5 6 
#
# 1 84.1373 23.1672 38.1867 0.0000 13.2044 0.0000
# 2 23.1672 62.9077 18.0464 0.0000 -3.7520 0.0000
# 3 38.1867 18.0464 113.0405 0.0000 9.6262 0.0000
# 4 0.0000 0.0000 0.0000 15.2134 0.0000 -2.7499
# 5 13.2044 -3.7520 9.6262 0.0000 44.9663 0.0000
# 6 0.0000 0.0000 0.0000 -2.7499 0.0000 12.8701
#
#
#
# Elastic Compliance Matrix: (Units=1/GPa)
#
#
# Indices 1 2 3 4 5 6 
#
# 1 0.015778 -0.004852 -0.004203 0.000000 -0.004138 0.000000
# 2 -0.004852 0.018329 -0.001567 0.000000 0.003290 0.000000
# 3 -0.004203 -0.001567 0.010616 0.000000 -0.001169 0.000000
# 4 0.000000 0.000000 0.000000 0.068372 0.000000 0.014609
# 5 -0.004138 0.003290 -0.001169 0.000000 0.023979 0.000000
# 6 0.000000 0.000000 0.000000 0.014609 0.000000 0.080821
#
#
# Mechanical properties :
#
#
# Convention : Reuss Voigt Hill
#
# Bulk Modulus (GPa) = 42.59150 46.54290 44.56720
# Shear Modulus (GPa) = 20.24569 26.65564 23.45066
#
# Velocity S-wave (km/s) = 3.24707 3.72581 3.49465
# Velocity P-wave (km/s) = 6.01986 6.53815 6.28435
#
# Compressibility (1/GPa) = 0.02347886
#
# Stress axis : x y z
#
# Youngs Moduli (GPa) = 63.37774 54.55862 94.19703
#
# Poissons Ratio (x) = 0.26471 0.39593
# Poissons Ratio (y) = 0.30750 0.14763
# Poissons Ratio (z) = 0.26639 0.08551
#
# Static dielectric constant tensor:
#      x y z
#    x 1.688440 0.000000 0.012770 
#    y 0.000000 1.658250 0.000000 
#    z 0.012770 0.000000 1.714630 
# 
# From -- ./inp_files/206197.got.cif
#   From: 2010.05.17/outbox.cif.g08.bks.cpg/sg12_104_cif.got.tgz:206197.got - 2010.06.03 13:09:07.
