data_PCOD9208709
_publ_section_title
;
Structure prediction by ZEFSAII (Michael W. Deem and Ramdas Pophale) SiO2 
 PCOD9208709
Probable space group: C 2/M
;
_chemical_formula_sum "Si O2"
_cell_formula_units_Z 52
_cell_length_a 5.410050
_cell_length_b 24.501456
_cell_length_c 20.235769
_cell_angle_alpha 90.000000
_cell_angle_beta 114.125433
_cell_angle_gamma 90.000000
_cell_volume 2448.039898
_symmetry_space_group_name_H-M "C 2/M"
_symmetry_group_IT_number 12
_symmetry_cell_setting 'monoclinic'
loop_
_space_group_symop_operation_xyz
x,y,z
-x,y,-z
-x,-y,-z
x,-y,z
1/2+x,1/2+y,z
1/2-x,1/2+y,-z
1/2-x,1/2-y,-z
1/2+x,1/2-y,z
loop_
_atom_site_type_symbol
_atom_site_label
_atom_site_fract_x
_atom_site_fract_y
_atom_site_fract_z
Si Si1 0.187064 0.736988 0.754138
Si Si2 0.128410 0.434906 0.207736
Si Si3 0.190462 0.566312 0.960759
Si Si4 0.117294 0.779737 0.405743
Si Si5 0.500000 0.631142 0.500000
Si Si6 0.988135 0.437184 0.577959
Si Si7 0.730936 0.388109 0.274690
O O1 0.490776 0.757081 0.794304
O O2 0.047297 0.776207 0.682202
O O3 0.194430 0.674432 0.732257
O O4 0.186197 0.500000 0.214140
O O5 0.415901 0.403850 0.231567
O O6 0.945913 0.420849 0.124105
O O7 0.942612 0.420985 0.251123
O O8 0.199244 0.500000 0.965591
O O9 0.500000 0.585712 0.000000
O O10 0.000000 0.585172 0.000000
O O11 0.923722 0.736533 0.422874
O O12 0.113509 0.830521 0.454337
O O13 0.292940 0.592414 0.439376
O O14 0.997035 0.500000 0.599628
O O15 0.000000 0.435692 0.500000
O O16 0.206093 0.403702 0.642777
#
# Coordination Sequence:
#
# PCOD9208709 Si02
#       7
#     8   8   8   8   4   8   8
#     4  10  21  38  59  85 112 145 195 263 325 382
#     4  11  23  40  64  95 131 175 210 238 295 372
#     4   9  17  32  58  93 133 167 198 240 287 345
#     4  10  22  37  58  85 107 130 178 248 326 387
#     4  12  25  38  66  78 108 144 201 262 340 382
#     4  11  27  43  58  81 113 160 218 269 309 360
#     4  12  25  42  64  85 124 167 213 263 315 371
#
# _framework density 21.241482999999999
#
# number of rings (size 3 to 8) (size 9 to 14) (size 15 to 20)
#    0.000    1.385    0.000    5.769    8.615    2.462 
#    0.000    0.000    0.000    0.000    0.000    0.000 
#    0.000   43.077    0.000    0.000    0.000    0.000 
#
# Total GULP energy -145164.079873 kJ/mol
# GULP energy per Si atom -5583.233841 kJ/mol
# Density = 2.119314 g / cm^3
# Si number density = 21.241483 Si / 1000 Ang^3
#
#
#
# Elastic Constant Matrix: (Units=GPa)
#
#
# Indices 1 2 3 4 5 6 
#
# 1 100.1224 19.6813 38.6697 0.0000 12.2519 0.0000
# 2 19.6813 76.1891 5.8554 0.0000 8.8077 0.0000
# 3 38.6697 5.8554 77.7154 0.0000 12.0028 0.0000
# 4 0.0000 0.0000 0.0000 24.1256 0.0000 17.2580
# 5 12.2519 8.8077 12.0028 0.0000 37.1245 0.0000
# 6 0.0000 0.0000 0.0000 17.2580 0.0000 -10.0047
#
#
#
# Elastic Compliance Matrix: (Units=1/GPa)
#
#
# Indices 1 2 3 4 5 6 
#
# 1 0.013059 -0.002712 -0.006029 0.000000 -0.001717 0.000000
# 2 -0.002712 0.014081 0.000701 0.000000 -0.002672 0.000000
# 3 -0.006029 0.000701 0.016349 0.000000 -0.003463 0.000000
# 4 0.000000 0.000000 0.000000 0.018554 0.000000 0.032006
# 5 -0.001717 -0.002672 -0.003463 0.000000 0.029257 0.000000
# 6 0.000000 0.000000 0.000000 0.032006 0.000000 -0.044743
#
#
# Mechanical properties :
#
#
# Convention : Reuss Voigt Hill
#
# Bulk Modulus (GPa) = 36.48159 42.49329 39.48744
# Shear Modulus (GPa) = 69.66437 22.90380 46.28408
#
# Velocity S-wave (km/s) = 5.73303 3.28725 4.67298
# Velocity P-wave (km/s) = 7.81252 5.86995 6.90984
#
# Compressibility (1/GPa) = 0.02741109
#
# Stress axis : x y z
#
# Youngs Moduli (GPa) = 76.57356 71.01881 61.16539
#
# Poissons Ratio (x) = 0.19258 0.36874
# Poissons Ratio (y) = 0.20764 -0.04288
# Poissons Ratio (z) = 0.46163 -0.04979
#
# Static dielectric constant tensor:
#      x y z
#    x 1.859150 0.000000 -0.016840 
#    y 0.000000 1.774200 0.000000 
#    z -0.016840 0.000000 1.762400 
# 
# From -- ./inp_files/298132.got.cif
#   From: 2010.05.17/outbox.cif.g08.bks.cpg/sg12_150_cif.got.tgz:298132.got - 2010.06.03 13:09:07.
