data_PCOD9208188
_publ_section_title
;
Structure prediction by ZEFSAII (Michael W. Deem and Ramdas Pophale) SiO2 
 PCOD9208188
Probable space group: C 2/M
;
_chemical_formula_sum "Si O2"
_cell_formula_units_Z 40
_cell_length_a 29.655106
_cell_length_b 7.994727
_cell_length_c 23.738825
_cell_angle_alpha 90.000000
_cell_angle_beta 161.524239
_cell_angle_gamma 90.000000
_cell_volume 1783.566434
_symmetry_space_group_name_H-M "C 2/M"
_symmetry_group_IT_number 12
_symmetry_cell_setting 'monoclinic'
loop_
_space_group_symop_operation_xyz
x,y,z
-x,y,-z
-x,-y,-z
x,-y,z
1/2+x,1/2+y,z
1/2-x,1/2+y,-z
1/2-x,1/2-y,-z
1/2+x,1/2-y,z
loop_
_atom_site_type_symbol
_atom_site_label
_atom_site_fract_x
_atom_site_fract_y
_atom_site_fract_z
Si Si1 0.849175 0.808244 0.168616
Si Si2 0.063596 0.200873 0.223838
Si Si3 0.808703 0.500000 0.327963
Si Si4 0.124127 0.318475 0.101196
Si Si5 0.392569 0.800050 0.596106
Si Si6 0.870693 0.500000 0.269794
O O1 0.819682 0.671088 0.181277
O O2 0.008985 0.788884 0.333207
O O3 0.821786 0.000000 0.152103
O O4 0.750000 0.750000 0.000000
O O5 0.225354 0.245977 0.396498
O O6 0.052857 0.255684 0.276190
O O7 0.049833 0.000000 0.204743
O O8 0.950419 0.278900 0.046991
O O9 0.723282 0.667881 0.238349
O O10 0.834450 0.500000 0.291772
O O11 0.959639 0.500000 0.536062
O O12 0.196485 0.500000 0.184235
O O13 0.000000 0.325461 0.000000
O O14 0.404396 0.000000 0.603158
#
# Coordination Sequence:
#
# PCOD9208188 Si02
#       6
#     8   8   4   8   8   4
#     4  12  25  43  70  99 135 176 224 284 344 407
#     4  10  21  37  62  96 135 176 214 274 342 411
#     4  11  27  50  74  94 141 187 232 289 336 400
#     4  11  25  42  69 102 133 176 228 275 339 413
#     4  10  21  38  62  96 137 172 217 274 344 408
#     4  11  28  50  70 104 132 183 243 284 339 403
#
# _framework density 22.426973
#
# number of rings (size 3 to 8) (size 9 to 14) (size 15 to 20)
#    0.000    1.200    3.000    1.500    5.600    4.000 
#    0.000    2.000    0.000    0.000    0.000    0.000 
#    0.000    0.000    0.000    0.000    0.000    0.000 
#
# Total GULP energy -112011.480877 kJ/mol
# GULP energy per Si atom -5600.574044 kJ/mol
# Density = 2.237593 g / cm^3
# Si number density = 22.426973 Si / 1000 Ang^3
#
#
#
# Elastic Constant Matrix: (Units=GPa)
#
#
# Indices 1 2 3 4 5 6 
#
# 1 59.9759 14.3723 -9.9986 0.0000 -3.0307 0.0000
# 2 14.3723 167.0907 27.8594 0.0000 1.3543 0.0000
# 3 -9.9986 27.8594 45.1245 0.0000 -1.4388 0.0000
# 4 0.0000 0.0000 0.0000 -80.1842 0.0000 -4.6862
# 5 -3.0307 1.3543 -1.4388 0.0000 27.1076 0.0000
# 6 0.0000 0.0000 0.0000 -4.6862 0.0000 29.2599
#
#
#
# Elastic Compliance Matrix: (Units=1/GPa)
#
#
# Indices 1 2 3 4 5 6 
#
# 1 0.018366 -0.002555 0.005726 0.000000 0.002485 0.000000
# 2 -0.002555 0.007035 -0.004938 0.000000 -0.000899 0.000000
# 3 0.005726 -0.004938 0.026552 0.000000 0.002296 0.000000
# 4 0.000000 0.000000 0.000000 -0.012356 0.000000 -0.001979
# 5 0.002485 -0.000899 0.002296 0.000000 0.037335 0.000000
# 6 0.000000 0.000000 0.000000 -0.001979 0.000000 0.033860
#
#
# Mechanical properties :
#
#
# Convention : Reuss Voigt Hill
#
# Bulk Modulus (GPa) = 20.65320 37.40634 29.02977
# Shear Modulus (GPa) = 38.32473 11.23388 24.77931
#
# Velocity S-wave (km/s) = 4.13833 2.24053 3.32759
# Velocity P-wave (km/s) = 5.66246 4.83825 5.26650
#
# Compressibility (1/GPa) = 0.04841865
#
# Stress axis : x y z
#
# Youngs Moduli (GPa) = 54.44953 142.14376 37.66255
#
# Poissons Ratio (x) = 0.36311 -0.21565
# Poissons Ratio (y) = 0.13909 0.18598
# Poissons Ratio (z) = -0.31177 0.70192
#
# Static dielectric constant tensor:
#      x y z
#    x 1.813510 0.000000 0.031610 
#    y 0.000000 2.045280 0.000000 
#    z 0.031610 0.000000 1.861360 
# 
# From -- ./inp_files/353144.got.cif
#   From: 2010.05.17/outbox.cif.g08.bks.cpg/sg12_177_cif.got.tgz:353144.got - 2010.06.03 13:09:07.
