data_PCOD9208167
_publ_section_title
;
Structure prediction by ZEFSAII (Michael W. Deem and Ramdas Pophale) SiO2 
 PCOD9208167
Probable space group: C 2/M
;
_chemical_formula_sum "Si O2"
_cell_formula_units_Z 64
_cell_length_a 28.189341
_cell_length_b 19.990743
_cell_length_c 13.622088
_cell_angle_alpha 90.000000
_cell_angle_beta 157.009875
_cell_angle_gamma 90.000000
_cell_volume 2998.190141
_symmetry_space_group_name_H-M "C 2/M"
_symmetry_group_IT_number 12
_symmetry_cell_setting 'monoclinic'
loop_
_space_group_symop_operation_xyz
x,y,z
-x,y,-z
-x,-y,-z
x,-y,z
1/2+x,1/2+y,z
1/2-x,1/2+y,-z
1/2-x,1/2-y,-z
1/2+x,1/2-y,z
loop_
_atom_site_type_symbol
_atom_site_label
_atom_site_fract_x
_atom_site_fract_y
_atom_site_fract_z
Si Si1 0.482909 0.424822 0.267709
Si Si2 0.896710 0.920414 0.884862
Si Si3 0.400940 0.215908 0.382879
Si Si4 0.827267 0.149802 0.125997
Si Si5 0.306595 0.823538 0.582614
Si Si6 0.740524 0.925616 0.146035
Si Si7 0.802770 0.685430 0.789153
Si Si8 0.958257 0.256894 0.712280
O O1 0.434898 0.500000 0.193586
O O2 0.432969 0.378725 0.259283
O O3 0.627225 0.428171 0.550691
O O4 0.444056 0.404456 0.084449
O O5 0.785877 0.873826 0.644216
O O6 0.868835 0.000000 0.828886
O O7 0.000000 0.907704 0.000000
O O8 0.500000 0.183900 0.500000
O O9 0.367487 0.287345 0.269460
O O10 0.454663 0.222435 0.592395
O O11 0.277133 0.175145 0.145676
O O12 0.770218 0.096099 0.091578
O O13 0.250000 0.750000 0.500000
O O14 0.333441 0.848338 0.743377
O O15 0.413032 0.808880 0.708882
O O16 0.675247 0.866436 0.080586
O O17 0.686196 0.000000 0.047645
O O18 0.658876 0.705780 0.511568
O O19 0.897406 0.747471 0.985997
#
# Coordination Sequence:
#
# PCOD9208167 Si02
#       8
#     8   8   8   8   8   8   8   8
#     4  10  21  37  62  93 127 170 219 273 328 387
#     4  10  21  40  66  97 134 176 224 277 336 398
#     4  11  23  37  60  89 129 169 214 270 326 391
#     4  11  22  37  59  91 127 173 216 268 327 386
#     4  10  23  40  62  95 129 171 215 272 327 391
#     4  11  22  39  62  93 133 172 216 269 324 393
#     4  11  24  42  67  97 130 171 220 268 336 389
#     4  11  24  43  65  94 133 170 216 275 328 393
#
# _framework density 21.346211
#
# number of rings (size 3 to 8) (size 9 to 14) (size 15 to 20)
#    0.000    1.375    1.250    4.125    1.750    8.500 
#    0.000    0.625    0.000    9.750    0.000    0.875 
#    0.000    0.000    0.000    0.000    0.000    0.000 
#
# Total GULP energy -178616.373808 kJ/mol
# GULP energy per Si atom -5581.761682 kJ/mol
# Density = 2.129763 g / cm^3
# Si number density = 21.346211 Si / 1000 Ang^3
#
#
#
# Elastic Constant Matrix: (Units=GPa)
#
#
# Indices 1 2 3 4 5 6 
#
# 1 118.7369 14.3355 12.4565 0.0000 -14.7971 0.0000
# 2 14.3355 70.5097 29.0608 0.0000 8.0868 0.0000
# 3 12.4565 29.0608 71.1569 0.0000 -10.7213 0.0000
# 4 0.0000 0.0000 0.0000 23.1914 0.0000 1.6207
# 5 -14.7971 8.0868 -10.7213 0.0000 35.6692 0.0000
# 6 0.0000 0.0000 0.0000 1.6207 0.0000 12.7315
#
#
#
# Elastic Compliance Matrix: (Units=1/GPa)
#
#
# Indices 1 2 3 4 5 6 
#
# 1 0.009256 -0.002392 0.000018 0.000000 0.004387 0.000000
# 2 -0.002392 0.019110 -0.008577 0.000000 -0.007903 0.000000
# 3 0.000018 -0.008577 0.018694 0.000000 0.007571 0.000000
# 4 0.000000 0.000000 0.000000 0.043507 0.000000 -0.005538
# 5 0.004387 -0.007903 0.007571 0.000000 0.033923 0.000000
# 6 0.000000 0.000000 0.000000 -0.005538 0.000000 0.079250
#
#
# Mechanical properties :
#
#
# Convention : Reuss Voigt Hill
#
# Bulk Modulus (GPa) = 39.74987 41.34547 40.54767
# Shear Modulus (GPa) = 21.36502 27.95513 24.66008
#
# Velocity S-wave (km/s) = 3.16710 3.62277 3.40257
# Velocity P-wave (km/s) = 5.66003 6.07539 5.87139
#
# Compressibility (1/GPa) = 0.02515731
#
# Stress axis : x y z
#
# Youngs Moduli (GPa) = 108.04144 52.32821 53.49372
#
# Poissons Ratio (x) = 0.12519 -0.00095
# Poissons Ratio (y) = 0.25847 0.45880
# Poissons Ratio (z) = -0.00193 0.44880
#
# Static dielectric constant tensor:
#      x y z
#    x 1.778070 0.000000 0.015250 
#    y 0.000000 1.840700 0.000000 
#    z 0.015250 0.000000 1.815290 
# 
# From -- ./inp_files/251940.got.cif
#   From: 2010.05.17/outbox.cif.g08.bks.cpg/sg12_126_cif.got.tgz:251940.got - 2010.06.03 13:09:07.
