data_PCOD9208110
_publ_section_title
;
Structure prediction by ZEFSAII (Michael W. Deem and Ramdas Pophale) SiO2 
 PCOD9208110
Probable space group: C 2/M
;
_chemical_formula_sum "Si O2"
_cell_formula_units_Z 48
_cell_length_a 28.438178
_cell_length_b 15.217785
_cell_length_c 5.738872
_cell_angle_alpha 90.000000
_cell_angle_beta 64.069691
_cell_angle_gamma 90.000000
_cell_volume 2233.557740
_symmetry_space_group_name_H-M "C 2/M"
_symmetry_group_IT_number 12
_symmetry_cell_setting 'monoclinic'
loop_
_space_group_symop_operation_xyz
x,y,z
-x,y,-z
-x,-y,-z
x,-y,z
1/2+x,1/2+y,z
1/2-x,1/2+y,-z
1/2-x,1/2-y,-z
1/2+x,1/2-y,z
loop_
_atom_site_type_symbol
_atom_site_label
_atom_site_fract_x
_atom_site_fract_y
_atom_site_fract_z
Si Si1 0.588870 0.742653 0.335415
Si Si2 0.627897 0.408333 0.567423
Si Si3 0.969555 0.598714 0.314657
Si Si4 0.794860 0.748919 0.100036
Si Si5 0.239512 0.100906 0.500654
Si Si6 0.957042 0.899270 0.887873
O O1 0.603207 0.669432 0.487312
O O2 0.569661 0.824493 0.529991
O O3 0.644643 0.763532 0.096163
O O4 0.548212 0.689820 0.254941
O O5 0.611593 0.500000 0.490281
O O6 0.689902 0.403927 0.435960
O O7 0.601069 0.406095 0.876999
O O8 0.947481 0.500000 0.327600
O O9 0.000000 0.594278 0.500000
O O10 0.000000 0.617230 0.000000
O O11 0.785417 0.844325 0.234244
O O12 0.781382 0.667763 0.302012
O O13 0.750000 0.750000 0.000000
O O14 0.255866 0.000000 0.513675
O O15 0.967602 0.000000 0.775937
O O16 0.000000 0.886239 0.000000
#
# Coordination Sequence:
#
# PCOD9208110 Si02
#       6
#     8   8   8   8   8   8
#     4  12  24  38  73  99 134 180 235 294 358 415
#     4  10  21  37  61  96 133 175 222 269 341 428
#     4  10  26  50  73  99 135 182 239 300 362 424
#     4  11  23  41  63 100 135 171 231 287 337 418
#     4  10  22  41  65  92 136 184 223 279 349 414
#     4  10  23  41  62  99 144 183 230 281 343 431
#
# _framework density 21.490376999999999
#
# number of rings (size 3 to 8) (size 9 to 14) (size 15 to 20)
#    0.000    1.500    3.333    0.500    4.667    2.000 
#    0.000    2.500    0.000    1.500    0.000    0.000 
#    0.000    0.000    0.000    0.000    0.000    0.000 
#
# Total GULP energy -133602.383033 kJ/mol
# GULP energy per Si atom -5566.765960 kJ/mol
# Density = 2.144146 g / cm^3
# Si number density = 21.490377 Si / 1000 Ang^3
#
#
#
# Elastic Constant Matrix: (Units=GPa)
#
#
# Indices 1 2 3 4 5 6 
#
# 1 76.0970 49.5206 39.8138 0.0000 -5.0771 0.0000
# 2 49.5206 194.1294 76.0541 0.0000 -13.6807 0.0000
# 3 39.8138 76.0541 126.5205 0.0000 -22.6494 0.0000
# 4 0.0000 0.0000 0.0000 34.4214 0.0000 9.5869
# 5 -5.0771 -13.6807 -22.6494 0.0000 30.9497 0.0000
# 6 0.0000 0.0000 0.0000 9.5869 0.0000 25.5183
#
#
#
# Elastic Compliance Matrix: (Units=1/GPa)
#
#
# Indices 1 2 3 4 5 6 
#
# 1 0.016950 -0.002923 -0.003809 0.000000 -0.001299 0.000000
# 2 -0.002923 0.007242 -0.003391 0.000000 0.000240 0.000000
# 3 -0.003809 -0.003391 0.012383 0.000000 0.006938 0.000000
# 4 0.000000 0.000000 0.000000 0.032447 0.000000 -0.012190
# 5 -0.001299 0.000240 0.006938 0.000000 0.037281 0.000000
# 6 0.000000 0.000000 0.000000 -0.012190 0.000000 0.043767
#
#
# Mechanical properties :
#
#
# Convention : Reuss Voigt Hill
#
# Bulk Modulus (GPa) = 61.24088 80.83597 71.03843
# Shear Modulus (GPa) = 28.44825 33.60178 31.02502
#
# Velocity S-wave (km/s) = 3.64231 3.95849 3.80369
# Velocity P-wave (km/s) = 6.80054 7.65438 7.24006
#
# Compressibility (1/GPa) = 0.01632896
#
# Stress axis : x y z
#
# Youngs Moduli (GPa) = 58.99873 138.08258 80.75734
#
# Poissons Ratio (x) = 0.40359 0.30763
# Poissons Ratio (y) = 0.17244 0.27381
# Poissons Ratio (z) = 0.22475 0.46817
#
# Static dielectric constant tensor:
#      x y z
#    x 1.873110 0.000000 0.005100 
#    y 0.000000 1.855430 0.000000 
#    z 0.005100 0.000000 1.913180 
# 
# From -- ./inp_files/31319.got.cif
#   From: 2010.05.17/outbox.cif.g08.bks.cpg/sg12_16_cif.got.tgz:31319.got - 2010.06.03 13:09:07.
