data_PCOD9208047
_publ_section_title
;
Structure prediction by ZEFSAII (Michael W. Deem and Ramdas Pophale) SiO2 
 PCOD9208047
Probable space group: C 2/M
;
_chemical_formula_sum "Si O2"
_cell_formula_units_Z 58
_cell_length_a 20.505384
_cell_length_b 24.751677
_cell_length_c 8.004419
_cell_angle_alpha 90.000000
_cell_angle_beta 138.293872
_cell_angle_gamma 90.000000
_cell_volume 2702.878576
_symmetry_space_group_name_H-M "C 2/M"
_symmetry_group_IT_number 12
_symmetry_cell_setting 'monoclinic'
loop_
_space_group_symop_operation_xyz
x,y,z
-x,y,-z
-x,-y,-z
x,-y,z
1/2+x,1/2+y,z
1/2-x,1/2+y,-z
1/2-x,1/2-y,-z
1/2+x,1/2-y,z
loop_
_atom_site_type_symbol
_atom_site_label
_atom_site_fract_x
_atom_site_fract_y
_atom_site_fract_z
Si Si1 0.548979 0.837047 0.769010
Si Si2 0.369353 0.209421 0.629668
Si Si3 0.110360 0.140363 0.786560
Si Si4 0.500000 0.000000 0.000000
Si Si5 0.183377 0.059989 0.675109
Si Si6 0.178131 0.753605 0.103913
Si Si7 0.968646 0.060546 0.113867
Si Si8 0.148029 0.594486 0.234165
O O1 0.500000 0.851477 0.500000
O O2 0.469402 0.802538 0.723588
O O3 0.643445 0.798538 0.935332
O O4 0.584784 0.886420 0.950753
O O5 0.292280 0.237891 0.360195
O O6 0.367864 0.245091 0.796703
O O7 0.337364 0.149024 0.629955
O O8 0.183590 0.111899 0.795894
O O9 0.000000 0.146861 0.500000
O O10 0.103890 0.096329 0.921054
O O11 0.141588 0.195562 0.930392
O O12 0.584011 0.047550 0.192271
O O13 0.069307 0.056132 0.409133
O O14 0.250265 0.072126 0.643385
O O15 0.211424 0.000000 0.796374
O O16 0.930788 0.000000 0.009563
O O17 0.000000 0.086462 0.000000
#
# Coordination Sequence:
#
# PCOD9208047 Si02
#       8
#     8   8   8   2   8   8   8   8
#     4  11  24  44  66  93 133 167 205 273 332 381
#     4  10  23  44  64  93 127 165 213 267 322 379
#     4  10  21  38  58  92 126 165 206 259 318 382
#     4  12  20  44  78  88 128 176 230 256 322 382
#     4  10  21  37  61  90 127 169 213 260 322 380
#     4  10  22  42  64  92 120 169 208 258 321 385
#     4   9  19  35  55  85 125 167 205 256 313 372
#     4  11  22  42  68  96 123 175 218 270 318 381
#
# _framework density 21.458604000000001
#
# number of rings (size 3 to 8) (size 9 to 14) (size 15 to 20)
#    0.000    1.793    2.069    2.069    3.862    3.310 
#   19.862    0.345    4.552    0.000    0.000    0.000 
#    0.000    0.000    0.000    0.000    0.000    0.000 
#
# Total GULP energy -161564.916747 kJ/mol
# GULP energy per Si atom -5571.204026 kJ/mol
# Density = 2.140976 g / cm^3
# Si number density = 21.458604 Si / 1000 Ang^3
#
#
#
# Elastic Constant Matrix: (Units=GPa)
#
#
# Indices 1 2 3 4 5 6 
#
# 1 41.3699 13.2195 -20.7057 0.0000 11.2044 0.0000
# 2 13.2195 104.5893 14.2544 0.0000 3.4704 0.0000
# 3 -20.7057 14.2544 44.8568 0.0000 -7.5849 0.0000
# 4 0.0000 0.0000 0.0000 3.0373 0.0000 -25.5308
# 5 11.2044 3.4704 -7.5849 0.0000 24.5067 0.0000
# 6 0.0000 0.0000 0.0000 -25.5308 0.0000 -13.8505
#
#
#
# Elastic Compliance Matrix: (Units=1/GPa)
#
#
# Indices 1 2 3 4 5 6 
#
# 1 0.038424 -0.006958 0.018090 0.000000 -0.010983 0.000000
# 2 -0.006958 0.011405 -0.006934 0.000000 -0.000580 0.000000
# 3 0.018090 -0.006934 0.033361 0.000000 0.003036 0.000000
# 4 0.000000 0.000000 0.000000 0.019961 0.000000 -0.036794
# 5 -0.010983 -0.000580 0.003036 0.000000 0.046849 0.000000
# 6 0.000000 0.000000 0.000000 -0.036794 0.000000 -0.004377
#
#
# Mechanical properties :
#
#
# Convention : Reuss Voigt Hill
#
# Bulk Modulus (GPa) = 10.91854 22.70581 16.81218
# Shear Modulus (GPa) = 29.80565 15.00855 22.40710
#
# Velocity S-wave (km/s) = 3.73095 2.64752 3.23492
# Velocity P-wave (km/s) = 4.86407 4.46654 4.66954
#
# Compressibility (1/GPa) = 0.09158731
#
# Stress axis : x y z
#
# Youngs Moduli (GPa) = 26.02513 87.68170 29.97557
#
# Poissons Ratio (x) = 0.61006 -0.54227
# Poissons Ratio (y) = 0.18108 0.20785
# Poissons Ratio (z) = -0.47081 0.60798
#
# Static dielectric constant tensor:
#      x y z
#    x 1.800220 0.000000 -0.006900 
#    y 0.000000 1.770300 0.000000 
#    z -0.006900 0.000000 1.797200 
# 
# From -- ./inp_files/90824.got.cif
#   From: 2010.05.17/outbox.cif.g08.bks.cpg/sg12_46_cif.got.tgz:90824.got - 2010.06.03 13:09:07.
