data_PCOD9208330
_publ_section_title
;
Structure prediction by ZEFSAII (Michael W. Deem and Ramdas Pophale) SiO2 
 PCOD9208330
Probable space group: C 2/M
;
_chemical_formula_sum "Si O2"
_cell_formula_units_Z 64
_cell_length_a 11.718687
_cell_length_b 17.646516
_cell_length_c 15.821713
_cell_angle_alpha 90.000000
_cell_angle_beta 92.159803
_cell_angle_gamma 90.000000
_cell_volume 3269.510976
_symmetry_space_group_name_H-M "C 2/M"
_symmetry_group_IT_number 12
_symmetry_cell_setting 'monoclinic'
loop_
_space_group_symop_operation_xyz
x,y,z
-x,y,-z
-x,-y,-z
x,-y,z
1/2+x,1/2+y,z
1/2-x,1/2+y,-z
1/2-x,1/2-y,-z
1/2+x,1/2-y,z
loop_
_atom_site_type_symbol
_atom_site_label
_atom_site_fract_x
_atom_site_fract_y
_atom_site_fract_z
Si Si1 0.733308 0.086868 0.853325
Si Si2 0.147754 0.081574 0.752411
Si Si3 0.142325 0.693113 0.255768
Si Si4 0.506752 0.626200 0.095798
Si Si5 0.014728 0.879231 0.405479
Si Si6 0.470464 0.805009 0.094974
Si Si7 0.738977 0.352797 0.320360
Si Si8 0.523583 0.197809 0.595872
O O1 0.860620 0.115058 0.878381
O O2 0.641945 0.147831 0.884171
O O3 0.725218 0.090347 0.751893
O O4 0.715931 0.000000 0.882453
O O5 0.242015 0.146324 0.750060
O O6 0.069152 0.088825 0.833359
O O7 0.066584 0.087050 0.668430
O O8 0.206311 0.000000 0.755431
O O9 0.178804 0.780317 0.273002
O O10 0.065947 0.681640 0.169896
O O11 0.067070 0.670936 0.335887
O O12 0.462641 0.713434 0.093794
O O13 0.500000 0.596422 0.000000
O O14 0.144691 0.887178 0.379221
O O15 0.000000 0.907945 0.500000
O O16 0.986633 0.789160 0.405340
O O17 0.500000 0.827672 0.000000
O O18 0.849945 0.324071 0.372080
O O19 0.500000 0.170706 0.500000
#
# Coordination Sequence:
#
# PCOD9208330 Si02
#       8
#     8   8   8   8   8   8   8   8
#     4  12  25  43  67  96 133 174 217 267 324 387
#     4  12  25  41  60  89 132 170 208 260 324 385
#     4  11  22  40  64  90 127 165 215 262 318 383
#     4  11  25  44  70  96 126 167 222 268 320 382
#     4  10  22  36  62  95 123 158 209 266 319 380
#     4  11  25  43  70  97 128 169 217 267 322 385
#     4  11  20  40  67  89 125 167 210 265 315 382
#     4  10  21  37  66  96 120 158 213 271 319 372
#
# _framework density 19.574791999999999
#
# number of rings (size 3 to 8) (size 9 to 14) (size 15 to 20)
#    0.000    1.000    5.000    1.875    3.500    4.500 
#    0.000    0.000    0.000    0.750    0.000    0.000 
#    0.000    0.000    0.000    0.000    0.000    0.000 
#
# Total GULP energy -178709.619086 kJ/mol
# GULP energy per Si atom -5584.675596 kJ/mol
# Density = 1.953024 g / cm^3
# Si number density = 19.574792 Si / 1000 Ang^3
#
#
#
# Elastic Constant Matrix: (Units=GPa)
#
#
# Indices 1 2 3 4 5 6 
#
# 1 83.4689 24.7313 46.8084 0.0000 -3.6920 0.0000
# 2 24.7313 70.3043 22.2882 0.0000 -13.0158 0.0000
# 3 46.8084 22.2882 170.8955 0.0000 -5.5295 0.0000
# 4 0.0000 0.0000 0.0000 34.6819 0.0000 -2.7733
# 5 -3.6920 -13.0158 -5.5295 0.0000 30.7143 0.0000
# 6 0.0000 0.0000 0.0000 -2.7733 0.0000 -7.9676
#
#
#
# Elastic Compliance Matrix: (Units=1/GPa)
#
#
# Indices 1 2 3 4 5 6 
#
# 1 0.015279 -0.004343 -0.003640 0.000000 -0.000659 0.000000
# 2 -0.004343 0.017248 -0.000845 0.000000 0.006635 0.000000
# 3 -0.003640 -0.000845 0.006974 0.000000 0.000460 0.000000
# 4 0.000000 0.000000 0.000000 0.028053 0.000000 -0.009764
# 5 -0.000659 0.006635 0.000460 0.000000 0.035373 0.000000
# 6 0.000000 0.000000 0.000000 -0.009764 0.000000 -0.122110
#
#
# Mechanical properties :
#
#
# Convention : Reuss Voigt Hill
#
# Bulk Modulus (GPa) = 45.77785 56.92494 51.35139
# Shear Modulus (GPa) = 868.76443 26.87510 447.81977
#
# Velocity S-wave (km/s) = 21.08984 3.70935 15.14168
# Velocity P-wave (km/s) = 24.82899 6.89127 18.22043
#
# Compressibility (1/GPa) = 0.02184463
#
# Stress axis : x y z
#
# Youngs Moduli (GPa) = 65.44759 57.97793 143.39735
#
# Poissons Ratio (x) = 0.25180 0.52196
# Poissons Ratio (y) = 0.28424 0.12121
# Poissons Ratio (z) = 0.23823 0.04901
#
# Static dielectric constant tensor:
#      x y z
#    x 1.646130 0.000000 0.000000 
#    y 0.000000 1.661130 0.000000 
#    z 0.000000 0.000000 1.709180 
# 
# From -- ./inp_files/206710.got.cif
#   From: 2010.05.17/outbox.cif.g08.bks.cpg/sg12_104_cif.got.tgz:206710.got - 2010.06.03 13:09:07.
