data_PCOD9208479
_publ_section_title
;
Structure prediction by ZEFSAII (Michael W. Deem and Ramdas Pophale) SiO2 
 PCOD9208479
Probable space group: C 2/M
;
_chemical_formula_sum "Si O2"
_cell_formula_units_Z 56
_cell_length_a 31.046463
_cell_length_b 8.519196
_cell_length_c 17.308980
_cell_angle_alpha 90.000000
_cell_angle_beta 134.278606
_cell_angle_gamma 90.000000
_cell_volume 3277.683493
_symmetry_space_group_name_H-M "C 2/M"
_symmetry_group_IT_number 12
_symmetry_cell_setting 'monoclinic'
loop_
_space_group_symop_operation_xyz
x,y,z
-x,y,-z
-x,-y,-z
x,-y,z
1/2+x,1/2+y,z
1/2-x,1/2+y,-z
1/2-x,1/2-y,-z
1/2+x,1/2-y,z
loop_
_atom_site_type_symbol
_atom_site_label
_atom_site_fract_x
_atom_site_fract_y
_atom_site_fract_z
Si Si1 0.698414 0.812081 0.607725
Si Si2 0.970916 0.689585 0.343472
Si Si3 0.489274 0.687208 0.200055
Si Si4 0.407116 0.809177 0.416155
Si Si5 0.555889 0.810807 0.016750
Si Si6 0.171030 0.312245 0.259651
Si Si7 0.629279 0.312018 0.371553
O O1 0.654873 0.757708 0.622867
O O2 0.763721 0.735356 0.689072
O O3 0.664357 0.767230 0.485968
O O4 0.704637 0.000000 0.619307
O O5 0.970360 0.500000 0.339040
O O6 0.962990 0.756078 0.248544
O O7 0.923065 0.739867 0.348974
O O8 0.036478 0.737682 0.459095
O O9 0.489170 0.500000 0.197508
O O10 0.559341 0.739837 0.283360
O O11 0.454214 0.750740 0.082081
O O12 0.407134 0.000000 0.416211
O O13 0.617902 0.762019 0.134960
O O14 0.554611 0.000000 0.013551
O O15 0.500000 0.756874 0.000000
O O16 0.167683 0.500000 0.264878
O O17 0.158912 0.234678 0.327532
O O18 0.631504 0.500000 0.384016
#
# Coordination Sequence:
#
# PCOD9208479 Si02
#       7
#     8   8   8   8   8   8   8
#     4  11  21  35  55  79 109 143 177 213 260 313
#     4   9  16  32  55  78 105 137 177 215 255 311
#     4  11  22  33  52  82 113 138 169 218 272 310
#     4   8  16  30  53  80 104 137 176 214 254 309
#     4  10  21  38  58  76  98 137 183 221 260 311
#     4  11  23  38  55  76 104 139 181 221 261 310
#     4  11  22  35  51  77 111 145 176 210 260 315
#
# _framework density 17.085235999999998
#
# number of rings (size 3 to 8) (size 9 to 14) (size 15 to 20)
#    0.000    1.857    2.857    3.000    0.000    2.571 
#    0.000    2.857    0.000    0.857    0.000    0.000 
#    0.000    0.000    0.000    0.000    0.000    0.000 
#
# Total GULP energy -156319.813496 kJ/mol
# GULP energy per Si atom -5582.850482 kJ/mol
# Density = 1.704635 g / cm^3
# Si number density = 17.085236 Si / 1000 Ang^3
#
#
#
# Elastic Constant Matrix: (Units=GPa)
#
#
# Indices 1 2 3 4 5 6 
#
# 1 130.0147 3.5436 62.0341 0.0000 -12.1205 0.0000
# 2 3.5436 12.5391 3.4054 0.0000 1.2166 0.0000
# 3 62.0341 3.4054 77.8130 0.0000 -6.1201 0.0000
# 4 0.0000 0.0000 0.0000 5.7520 0.0000 8.9462
# 5 -12.1205 1.2166 -6.1201 0.0000 31.6916 0.0000
# 6 0.0000 0.0000 0.0000 8.9462 0.0000 16.1161
#
#
#
# Elastic Compliance Matrix: (Units=1/GPa)
#
#
# Indices 1 2 3 4 5 6 
#
# 1 0.012696 -0.001209 -0.009832 0.000000 0.003003 0.000000
# 2 -0.001209 0.081287 -0.002920 0.000000 -0.004147 0.000000
# 3 -0.009832 -0.002920 0.020847 0.000000 0.000378 0.000000
# 4 0.000000 0.000000 0.000000 1.272535 0.000000 -0.706401
# 5 0.003003 -0.004147 0.000378 0.000000 0.032935 0.000000
# 6 0.000000 0.000000 0.000000 -0.706401 0.000000 0.454182
#
#
# Mechanical properties :
#
#
# Convention : Reuss Voigt Hill
#
# Bulk Modulus (GPa) = 11.50637 39.81477 25.66057
# Shear Modulus (GPa) = 2.58883 20.80418 11.69650
#
# Velocity S-wave (km/s) = 1.23229 3.49330 2.61932
# Velocity P-wave (km/s) = 2.96210 6.29484 4.91930
#
# Compressibility (1/GPa) = 0.08690838
#
# Stress axis : x y z
#
# Youngs Moduli (GPa) = 78.76795 12.30204 47.96831
#
# Poissons Ratio (x) = 0.01487 0.47163
# Poissons Ratio (y) = 0.09523 0.14006
# Poissons Ratio (z) = 0.77445 0.03592
#
# Static dielectric constant tensor:
#      x y z
#    x 1.585190 0.000000 0.003550 
#    y 0.000000 1.577210 0.000000 
#    z 0.003550 0.000000 1.547390 
# 
# From -- ./inp_files/249265.got.cif
#   From: 2010.05.17/outbox.cif.g08.bks.cpg/sg12_125_cif.got.tgz:249265.got - 2010.06.03 13:09:07.
