data_PCOD9208847
_publ_section_title
;
Structure prediction by ZEFSAII (Michael W. Deem and Ramdas Pophale) SiO2 
 PCOD9208847
Probable space group: C 2/M
;
_chemical_formula_sum "Si O2"
_cell_formula_units_Z 64
_cell_length_a 24.289426
_cell_length_b 13.875820
_cell_length_c 15.069593
_cell_angle_alpha 90.000000
_cell_angle_beta 141.461930
_cell_angle_gamma 90.000000
_cell_volume 3164.386542
_symmetry_space_group_name_H-M "C 2/M"
_symmetry_group_IT_number 12
_symmetry_cell_setting 'monoclinic'
loop_
_space_group_symop_operation_xyz
x,y,z
-x,y,-z
-x,-y,-z
x,-y,z
1/2+x,1/2+y,z
1/2-x,1/2+y,-z
1/2-x,1/2-y,-z
1/2+x,1/2-y,z
loop_
_atom_site_type_symbol
_atom_site_label
_atom_site_fract_x
_atom_site_fract_y
_atom_site_fract_z
Si Si1 0.399692 0.386710 0.880029
Si Si2 0.374225 0.387026 0.171208
Si Si3 0.155798 0.206974 0.366750
Si Si4 0.420487 0.607269 0.571291
Si Si5 0.602355 0.740814 0.624188
Si Si6 0.071415 0.607838 0.213963
Si Si7 0.864247 0.392227 0.903360
Si Si8 0.288494 0.299831 0.893107
O O1 0.402299 0.500000 0.868454
O O2 0.349946 0.335618 0.737977
O O3 0.352158 0.364175 0.911869
O O4 0.500000 0.348653 0.000000
O O5 0.348275 0.500000 0.143219
O O6 0.476984 0.383445 0.271288
O O7 0.379962 0.335660 0.274036
O O8 0.314179 0.328171 0.025852
O O9 0.250000 0.250000 0.500000
O O10 0.135061 0.125258 0.411228
O O11 0.090782 0.298457 0.296318
O O12 0.408774 0.500000 0.519482
O O13 0.393808 0.684529 0.463944
O O14 0.500000 0.776564 0.500000
O O15 0.684747 0.813085 0.739915
O O16 0.092428 0.500000 0.275216
O O17 0.127580 0.620505 0.193148
O O18 0.967328 0.608990 0.061500
O O19 0.828739 0.500000 0.875898
O O20 0.813646 0.308817 0.892434
#
# Coordination Sequence:
#
# PCOD9208847 Si02
#       8
#     8   8   8   8   8   8   8   8
#     4  11  23  39  61  91 128 162 194 238 293 357
#     4  10  21  39  64  90 115 146 195 259 314 357
#     4  12  23  35  52  86 122 161 201 239 287 351
#     4  10  21  38  60  84 116 158 199 244 302 361
#     4  10  23  42  60  84 118 156 200 253 310 356
#     4   9  18  34  52  76 117 162 194 232 278 334
#     4   9  18  32  55  84 114 152 197 235 279 341
#     4  12  21  36  62  94 121 156 198 245 300 358
#
# _framework density 20.225089000000001
#
# number of rings (size 3 to 8) (size 9 to 14) (size 15 to 20)
#    0.000    1.625    1.250    5.250    0.000    5.500 
#    0.000    0.000    0.000    1.500    0.000    3.500 
#    0.000    0.000    0.000    0.000    0.000    0.000 
#
# Total GULP energy -178646.193173 kJ/mol
# GULP energy per Si atom -5582.693537 kJ/mol
# Density = 2.017906 g / cm^3
# Si number density = 20.225089 Si / 1000 Ang^3
#
#
#
# Elastic Constant Matrix: (Units=GPa)
#
#
# Indices 1 2 3 4 5 6 
#
# 1 32.4603 7.1138 14.4788 0.0000 2.4796 0.0000
# 2 7.1138 56.4733 22.8659 0.0000 7.5483 0.0000
# 3 14.4788 22.8659 100.7770 0.0000 0.7276 0.0000
# 4 0.0000 0.0000 0.0000 75.7082 0.0000 -12.6032
# 5 2.4796 7.5483 0.7276 0.0000 23.9907 0.0000
# 6 0.0000 0.0000 0.0000 -12.6032 0.0000 8.7296
#
#
#
# Elastic Compliance Matrix: (Units=1/GPa)
#
#
# Indices 1 2 3 4 5 6 
#
# 1 0.033390 -0.002110 -0.004299 0.000000 -0.002657 0.000000
# 2 -0.002110 0.020536 -0.004312 0.000000 -0.006113 0.000000
# 3 -0.004299 -0.004312 0.011509 0.000000 0.001452 0.000000
# 4 0.000000 0.000000 0.000000 0.017387 0.000000 0.025103
# 5 -0.002657 -0.006113 0.001452 0.000000 0.043837 0.000000
# 6 0.000000 0.000000 0.000000 0.025103 0.000000 0.150794
#
#
# Mechanical properties :
#
#
# Convention : Reuss Voigt Hill
#
# Bulk Modulus (GPa) = 22.73174 30.95862 26.84518
# Shear Modulus (GPa) = 15.94592 31.36917 23.65754
#
# Velocity S-wave (km/s) = 2.81093 3.94255 3.42382
# Velocity P-wave (km/s) = 4.66893 6.00543 5.37885
#
# Compressibility (1/GPa) = 0.04399135
#
# Stress axis : x y z
#
# Youngs Moduli (GPa) = 29.94919 48.69412 86.89197
#
# Poissons Ratio (x) = 0.10275 0.37357
# Poissons Ratio (y) = 0.06320 0.37471
# Poissons Ratio (z) = 0.12876 0.20998
#
# Static dielectric constant tensor:
#      x y z
#    x 1.715190 0.000000 0.017180 
#    y 0.000000 1.723730 0.000000 
#    z 0.017180 0.000000 1.687650 
# 
# From -- ./inp_files/240702.got.cif
#   From: 2010.05.17/outbox.cif.g08.bks.cpg/sg12_121_cif.got.tgz:240702.got - 2010.06.03 13:09:07.
