data_PCOD9208622
_publ_section_title
;
Structure prediction by ZEFSAII (Michael W. Deem and Ramdas Pophale) SiO2 
 PCOD9208622
Probable space group: C 2/M
;
_chemical_formula_sum "Si O2"
_cell_formula_units_Z 56
_cell_length_a 26.134596
_cell_length_b 8.130701
_cell_length_c 16.282899
_cell_angle_alpha 90.000000
_cell_angle_beta 124.474804
_cell_angle_gamma 90.000000
_cell_volume 2852.334286
_symmetry_space_group_name_H-M "C 2/M"
_symmetry_group_IT_number 12
_symmetry_cell_setting 'monoclinic'
loop_
_space_group_symop_operation_xyz
x,y,z
-x,y,-z
-x,-y,-z
x,-y,z
1/2+x,1/2+y,z
1/2-x,1/2+y,-z
1/2-x,1/2-y,-z
1/2+x,1/2-y,z
loop_
_atom_site_type_symbol
_atom_site_label
_atom_site_fract_x
_atom_site_fract_y
_atom_site_fract_z
Si Si1 0.968110 0.700154 0.054020
Si Si2 0.741659 0.692512 0.356530
Si Si3 0.518398 0.199218 0.277816
Si Si4 0.276816 0.307288 0.211246
Si Si5 0.664156 0.201095 0.002547
Si Si6 0.343370 0.695375 0.574995
Si Si7 0.612769 0.803663 0.781896
O O1 0.969185 0.500000 0.053288
O O2 0.003146 0.747841 0.169697
O O3 0.896204 0.747899 0.998811
O O4 0.000000 0.760794 0.000000
O O5 0.733166 0.500000 0.332246
O O6 0.750857 0.779637 0.278473
O O7 0.684900 0.751190 0.362677
O O8 0.802665 0.719374 0.467796
O O9 0.584177 0.268385 0.364646
O O10 0.458365 0.254186 0.276160
O O11 0.521900 0.000000 0.283703
O O12 0.281776 0.500000 0.200685
O O13 0.226968 0.236539 0.100891
O O14 0.345045 0.236321 0.257413
O O15 0.666470 0.000000 0.003816
O O16 0.649328 0.257245 0.896603
O O17 0.332002 0.500000 0.558562
O O18 0.609402 0.000000 0.786496
#
# Coordination Sequence:
#
# PCOD9208622 Si02
#       7
#     8   8   8   8   8   8   8
#     4   8  14  25  44  74 107 138 176 216 251 301
#     4  10  22  39  57  79 107 139 174 215 267 324
#     4   9  18  32  55  80 104 142 181 215 262 315
#     4  11  21  32  53  82 109 139 181 228 270 306
#     4   8  16  29  46  74 108 143 181 218 258 306
#     4  10  21  38  59  81 107 136 171 218 271 322
#     4   9  18  35  53  75 110 148 185 218 256 314
#
# _framework density 19.633044000000002
#
# number of rings (size 3 to 8) (size 9 to 14) (size 15 to 20)
#    0.000    2.714    0.000    3.429    2.000    2.286 
#    0.000    1.429    0.000    6.429    0.000    0.000 
#    0.000    0.000    0.000    0.000    0.000    0.000 
#
# Total GULP energy -156172.617503 kJ/mol
# GULP energy per Si atom -5577.593482 kJ/mol
# Density = 1.958836 g / cm^3
# Si number density = 19.633044 Si / 1000 Ang^3
#
#
#
# Elastic Constant Matrix: (Units=GPa)
#
#
# Indices 1 2 3 4 5 6 
#
# 1 79.3295 0.4608 26.8712 0.0000 16.4205 0.0000
# 2 0.4608 9.6708 -3.6872 0.0000 1.6463 0.0000
# 3 26.8712 -3.6872 33.4583 0.0000 21.1681 0.0000
# 4 0.0000 0.0000 0.0000 9.9449 0.0000 4.7469
# 5 16.4205 1.6463 21.1681 0.0000 26.2814 0.0000
# 6 0.0000 0.0000 0.0000 4.7469 0.0000 15.6360
#
#
#
# Elastic Compliance Matrix: (Units=1/GPa)
#
#
# Indices 1 2 3 4 5 6 
#
# 1 0.017823 -0.007987 -0.017262 0.000000 0.003268 0.000000
# 2 -0.007987 0.128019 0.045755 0.000000 -0.039882 0.000000
# 3 -0.017262 0.045755 0.089277 0.000000 -0.063989 0.000000
# 4 0.000000 0.000000 0.000000 0.117595 0.000000 -0.035701
# 5 0.003268 -0.039882 -0.063989 0.000000 0.090045 0.000000
# 6 0.000000 0.000000 0.000000 -0.035701 0.000000 0.074793
#
#
# Mechanical properties :
#
#
# Convention : Reuss Voigt Hill
#
# Bulk Modulus (GPa) = 3.62146 18.86089 11.24118
# Shear Modulus (GPa) = 8.79379 16.96006 12.87692
#
# Velocity S-wave (km/s) = 2.11868 2.94233 2.56379
# Velocity P-wave (km/s) = 2.79886 4.60115 3.80817
#
# Compressibility (1/GPa) = 0.27613143
#
# Stress axis : x y z
#
# Youngs Moduli (GPa) = 56.10859 7.81135 11.20104
#
# Poissons Ratio (x) = 0.06239 0.19335
# Poissons Ratio (y) = 0.44813 -0.51250
# Poissons Ratio (z) = 0.96852 -0.35741
#
# Static dielectric constant tensor:
#      x y z
#    x 1.703980 0.000000 0.004710 
#    y 0.000000 1.692890 0.000000 
#    z 0.004710 0.000000 1.667210 
# 
# From -- ./inp_files/291968.got.cif
#   From: 2010.05.17/outbox.cif.g08.bks.cpg/sg12_146_cif.got.tgz:291968.got - 2010.06.03 13:09:07.
