data_PCOD9208496
_publ_section_title
;
Structure prediction by ZEFSAII (Michael W. Deem and Ramdas Pophale) SiO2 
 PCOD9208496
Probable space group: C 2/M
;
_chemical_formula_sum "Si O2"
_cell_formula_units_Z 56
_cell_length_a 24.950878
_cell_length_b 7.685122
_cell_length_c 14.224317
_cell_angle_alpha 90.000000
_cell_angle_beta 56.734676
_cell_angle_gamma 90.000000
_cell_volume 2280.587568
_symmetry_space_group_name_H-M "C 2/M"
_symmetry_group_IT_number 12
_symmetry_cell_setting 'monoclinic'
loop_
_space_group_symop_operation_xyz
x,y,z
-x,y,-z
-x,-y,-z
x,-y,z
1/2+x,1/2+y,z
1/2-x,1/2+y,-z
1/2-x,1/2-y,-z
1/2+x,1/2-y,z
loop_
_atom_site_type_symbol
_atom_site_label
_atom_site_fract_x
_atom_site_fract_y
_atom_site_fract_z
Si Si1 0.238596 0.705064 0.705307
Si Si2 0.043587 0.205378 0.762123
Si Si3 0.343355 0.696664 0.467403
Si Si4 0.678959 0.199224 0.195628
Si Si5 0.429860 0.798620 0.549299
Si Si6 0.402064 0.207656 0.890504
Si Si7 0.398890 0.789219 0.106845
O O1 0.233941 0.500000 0.690056
O O2 0.280801 0.779436 0.577992
O O3 0.272889 0.720893 0.774341
O O4 0.167983 0.777535 0.785339
O O5 0.109253 0.282775 0.654239
O O6 0.047171 0.241959 0.869741
O O7 0.975693 0.267198 0.786443
O O8 0.046116 0.000000 0.743450
O O9 0.327440 0.500000 0.452217
O O10 0.391032 0.691431 0.510809
O O11 0.611837 0.197212 0.316736
O O12 0.655821 0.278473 0.118835
O O13 0.700582 0.000000 0.160949
O O14 0.500000 0.729890 0.500000
O O15 0.434813 0.000000 0.510979
O O16 0.391514 0.000000 0.902414
O O17 0.401525 0.275489 0.997576
O O18 0.397844 0.000000 0.103016
#
# Coordination Sequence:
#
# PCOD9208496 Si02
#       7
#     8   8   8   8   8   8   8
#     4   9  19  37  57  79 109 143 178 215 262 320
#     4  11  23  37  55  81 109 139 179 225 271 315
#     4   9  19  34  51  74 106 139 171 213 264 316
#     4   9  18  32  52  79 109 139 174 218 263 311
#     4   9  16  27  46  73 103 136 174 213 255 307
#     4  10  21  38  58  80 108 142 179 219 266 319
#     4  10  22  39  58  78 104 143 185 222 263 315
#
# _framework density 24.555074000000001
#
# number of rings (size 3 to 8) (size 9 to 14) (size 15 to 20)
#    0.000    2.429    0.000    1.714    0.000    7.143 
#    0.000    2.857    0.000    0.000    0.000    0.000 
#    0.000    0.000    0.000    0.000    0.000    0.000 
#
# Total GULP energy -156275.519515 kJ/mol
# GULP energy per Si atom -5581.268554 kJ/mol
# Density = 2.449919 g / cm^3
# Si number density = 24.555074 Si / 1000 Ang^3
#
#
#
# Elastic Constant Matrix: (Units=GPa)
#
#
# Indices 1 2 3 4 5 6 
#
# 1 88.6719 -6.0155 10.2017 0.0000 13.1595 0.0000
# 2 -6.0155 49.8738 -2.8234 -0.0002 2.7092 0.0000
# 3 10.2017 -2.8234 66.9941 0.0000 12.1164 0.0000
# 4 0.0000 -0.0002 0.0000 47.8709 0.0000 17.8552
# 5 13.1595 2.7092 12.1164 0.0000 41.2979 0.0000
# 6 0.0000 0.0000 0.0000 17.8552 0.0000 23.0453
#
#
#
# Elastic Compliance Matrix: (Units=1/GPa)
#
#
# Indices 1 2 3 4 5 6 
#
# 1 0.012050 0.001587 -0.001114 0.000000 -0.003617 0.000000
# 2 0.001587 0.020415 0.001006 0.000000 -0.002140 0.000000
# 3 -0.001114 0.001006 0.015932 0.000000 -0.004385 0.000000
# 4 0.000000 0.000000 0.000000 0.029380 0.000000 -0.022763
# 5 -0.003617 -0.002140 -0.004385 0.000000 0.026794 0.000000
# 6 0.000000 0.000000 0.000000 -0.022763 0.000000 0.061029
#
#
# Mechanical properties :
#
#
# Convention : Reuss Voigt Hill
#
# Bulk Modulus (GPa) = 19.47252 23.14063 21.30657
# Shear Modulus (GPa) = 27.81473 36.05462 31.93468
#
# Velocity S-wave (km/s) = 3.36928 3.83602 3.61020
# Velocity P-wave (km/s) = 4.80452 5.39115 5.10627
#
# Compressibility (1/GPa) = 0.05135443
#
# Stress axis : x y z
#
# Youngs Moduli (GPa) = 82.98672 48.98311 62.76756
#
# Poissons Ratio (x) = -0.07773 0.06992
# Poissons Ratio (y) = -0.13169 -0.06313
# Poissons Ratio (z) = 0.09244 -0.04927
#
# Static dielectric constant tensor:
#      x y z
#    x 1.917950 0.000000 -0.016170 
#    y 0.000000 1.930200 0.000000 
#    z -0.016170 0.000000 2.064330 
# 
# From -- ./inp_files/243660.got.cif
#   From: 2010.05.17/outbox.cif.g08.bks.cpg/sg12_122_cif.got.tgz:243660.got - 2010.06.03 13:09:07.
