data_PCOD9208108
_publ_section_title
;
Structure prediction by ZEFSAII (Michael W. Deem and Ramdas Pophale) SiO2 
 PCOD9208108
Probable space group: C 2/M
;
_chemical_formula_sum "Si O2"
_cell_formula_units_Z 32
_cell_length_a 5.261956
_cell_length_b 28.440565
_cell_length_c 11.248733
_cell_angle_alpha 90.000000
_cell_angle_beta 114.040731
_cell_angle_gamma 90.000000
_cell_volume 1537.381369
_symmetry_space_group_name_H-M "C 2/M"
_symmetry_group_IT_number 12
_symmetry_cell_setting 'monoclinic'
loop_
_space_group_symop_operation_xyz
x,y,z
-x,y,-z
-x,-y,-z
x,-y,z
1/2+x,1/2+y,z
1/2-x,1/2+y,-z
1/2-x,1/2-y,-z
1/2+x,1/2-y,z
loop_
_atom_site_type_symbol
_atom_site_label
_atom_site_fract_x
_atom_site_fract_y
_atom_site_fract_z
Si Si1 0.298496 0.132310 0.270765
Si Si2 0.794035 0.553944 0.610589
Si Si3 0.682408 0.898895 0.147970
Si Si4 0.176190 0.768934 0.353540
O O1 0.446407 0.088342 0.364563
O O2 0.501366 0.137251 0.195310
O O3 0.272154 0.178176 0.347009
O O4 0.986089 0.119807 0.173055
O O5 0.500000 0.570724 0.500000
O O6 0.837575 0.500000 0.585184
O O7 0.770667 0.558948 0.749351
O O8 0.500000 0.911605 0.000000
O O9 0.250000 0.750000 0.500000
O O10 0.345701 0.737842 0.291358
#
# Coordination Sequence:
#
# PCOD9208108 Si02
#       4
#     8   8   8   8
#     4  10  22  41  65  96 134 171 217 278 329 380
#     4   9  22  41  65  99 136 172 217 272 333 392
#     4  10  22  41  67  94 132 182 223 264 323 396
#     4  10  21  37  61  96 130 163 217 270 325 391
#
# _framework density 20.814612
#
# number of rings (size 3 to 8) (size 9 to 14) (size 15 to 20)
#    1.500    0.750    0.000    2.250    0.000    6.500 
#    0.000    3.750    0.000   15.000    0.000    0.000 
#    0.000    0.000    0.000    0.000    0.000    0.000 
#
# Total GULP energy -89068.798124 kJ/mol
# GULP energy per Si atom -5566.799883 kJ/mol
# Density = 2.076724 g / cm^3
# Si number density = 20.814612 Si / 1000 Ang^3
#
#
#
# Elastic Constant Matrix: (Units=GPa)
#
#
# Indices 1 2 3 4 5 6 
#
# 1 178.6706 49.9577 36.7969 0.0000 15.0324 0.0000
# 2 49.9577 87.2144 19.5503 0.0000 12.2766 0.0000
# 3 36.7969 19.5503 118.8471 0.0000 28.1950 0.0000
# 4 0.0000 0.0000 0.0000 13.7215 0.0000 12.0152
# 5 15.0324 12.2766 28.1950 0.0000 31.1311 0.0000
# 6 0.0000 0.0000 0.0000 12.0152 0.0000 87.5112
#
#
#
# Elastic Compliance Matrix: (Units=1/GPa)
#
#
# Indices 1 2 3 4 5 6 
#
# 1 0.006939 -0.003566 -0.001402 0.000000 -0.000675 0.000000
# 2 -0.003566 0.014085 -0.000387 0.000000 -0.003482 0.000000
# 3 -0.001402 -0.000387 0.011100 0.000000 -0.009224 0.000000
# 4 0.000000 0.000000 0.000000 0.082838 0.000000 -0.011374
# 5 -0.000675 -0.003482 -0.009224 0.000000 0.042175 0.000000
# 6 0.000000 0.000000 0.000000 -0.011374 0.000000 0.012989
#
#
# Mechanical properties :
#
#
# Convention : Reuss Voigt Hill
#
# Bulk Modulus (GPa) = 46.69406 66.37131 56.53269
# Shear Modulus (GPa) = 26.59943 45.03457 35.81700
#
# Velocity S-wave (km/s) = 3.57868 4.65650 4.15271
# Velocity P-wave (km/s) = 6.28951 7.80172 7.08607
#
# Compressibility (1/GPa) = 0.02141600
#
# Stress axis : x y z
#
# Youngs Moduli (GPa) = 144.10471 70.99536 90.08976
#
# Poissons Ratio (x) = 0.25315 0.12629
# Poissons Ratio (y) = 0.51384 0.03485
# Poissons Ratio (z) = 0.20201 0.02747
#
# Static dielectric constant tensor:
#      x y z
#    x 2.033170 0.000000 0.152240 
#    y 0.000000 1.753660 0.000000 
#    z 0.152240 0.000000 1.885610 
# 
# From -- ./inp_files/114888.got.cif
#   From: 2010.05.17/outbox.cif.g08.bks.cpg/sg12_58_cif.got.tgz:114888.got - 2010.06.03 13:09:07.
