data_PCOD9208538
_publ_section_title
;
Structure prediction by ZEFSAII (Michael W. Deem and Ramdas Pophale) SiO2 
 PCOD9208538
Probable space group: C 2/M
;
_chemical_formula_sum "Si O2"
_cell_formula_units_Z 56
_cell_length_a 25.762965
_cell_length_b 7.385295
_cell_length_c 15.760928
_cell_angle_alpha 90.000000
_cell_angle_beta 121.464129
_cell_angle_gamma 90.000000
_cell_volume 2557.865856
_symmetry_space_group_name_H-M "C 2/M"
_symmetry_group_IT_number 12
_symmetry_cell_setting 'monoclinic'
loop_
_space_group_symop_operation_xyz
x,y,z
-x,y,-z
-x,-y,-z
x,-y,z
1/2+x,1/2+y,z
1/2-x,1/2+y,-z
1/2-x,1/2-y,-z
1/2+x,1/2-y,z
loop_
_atom_site_type_symbol
_atom_site_label
_atom_site_fract_x
_atom_site_fract_y
_atom_site_fract_z
Si Si1 0.607564 0.714153 0.776468
Si Si2 0.166420 0.218786 0.003207
Si Si3 0.840307 0.219061 0.550495
Si Si4 0.531764 0.000000 0.161858
Si Si5 0.473353 0.281818 0.694399
Si Si6 0.905498 0.500000 0.953076
Si Si7 0.272538 0.783966 0.204240
Si Si8 0.774268 0.793234 0.659849
O O1 0.603185 0.500000 0.783353
O O2 0.537855 0.776010 0.708474
O O3 0.656343 0.743879 0.744260
O O4 0.639122 0.783455 0.890229
O O5 0.127737 0.320369 0.041881
O O6 0.235301 0.272006 0.088104
O O7 0.161401 0.000000 0.002655
O O8 0.910470 0.263837 0.593057
O O9 0.819934 0.282660 0.627550
O O10 0.791124 0.293316 0.443192
O O11 0.833884 0.000000 0.543489
O O12 0.531062 0.175798 0.220948
O O13 0.585490 0.000000 0.139554
O O14 0.470138 0.000000 0.055367
O O15 0.473393 0.500000 0.706292
O O16 0.239688 0.709911 0.260337
O O17 0.268187 0.000000 0.205380
O O18 0.794953 0.000000 0.691839
#
# Coordination Sequence:
#
# PCOD9208538 Si02
#       8
#     8   8   8   4   8   4   8   8
#     4  10  21  38  58  83 113 154 200 240 290 344
#     4  10  22  40  58  84 120 158 196 243 296 344
#     4   9  19  37  61  83 114 152 186 237 297 353
#     4  11  24  38  58  92 118 159 199 238 293 351
#     4  10  22  40  61  86 117 158 198 239 292 354
#     4  11  24  38  58  90 123 152 201 243 289 354
#     4  10  22  36  58  84 116 156 192 246 300 342
#     4   9  19  37  57  87 116 144 190 237 298 356
#
# _framework density 21.893250999999999
#
# number of rings (size 3 to 8) (size 9 to 14) (size 15 to 20)
#    0.000    2.143    1.429    0.429    6.000    1.143 
#    0.000    2.143    0.000    4.286    0.000    0.000 
#    0.000    0.000    0.000    0.000    0.000    0.000 
#
# Total GULP energy -156204.767075 kJ/mol
# GULP energy per Si atom -5578.741681 kJ/mol
# Density = 2.184342 g / cm^3
# Si number density = 21.893251 Si / 1000 Ang^3
#
#
#
# Elastic Constant Matrix: (Units=GPa)
#
#
# Indices 1 2 3 4 5 6 
#
# 1 91.3220 -5.1585 18.2190 0.0000 19.5394 0.0000
# 2 -5.1585 71.9974 -6.6100 0.0000 3.5661 0.0000
# 3 18.2190 -6.6100 47.9675 0.0000 12.6048 0.0000
# 4 0.0000 0.0000 0.0000 21.5989 0.0000 -10.4231
# 5 19.5394 3.5661 12.6048 0.0000 35.6580 0.0000
# 6 0.0000 0.0000 0.0000 -10.4231 0.0000 33.3562
#
#
#
# Elastic Compliance Matrix: (Units=1/GPa)
#
#
# Indices 1 2 3 4 5 6 
#
# 1 0.012935 0.000933 -0.003194 0.000000 -0.006052 0.000000
# 2 0.000933 0.014309 0.002346 0.000000 -0.002772 0.000000
# 3 -0.003194 0.002346 0.024237 0.000000 -0.007052 0.000000
# 4 0.000000 0.000000 0.000000 0.054520 0.000000 0.017036
# 5 -0.006052 -0.002772 -0.007052 0.000000 0.034131 0.000000
# 6 0.000000 0.000000 0.000000 0.017036 0.000000 0.035303
#
#
# Mechanical properties :
#
#
# Convention : Reuss Voigt Hill
#
# Bulk Modulus (GPa) = 19.36079 24.90978 22.13529
# Shear Modulus (GPa) = 25.97655 31.77838 28.87746
#
# Velocity S-wave (km/s) = 3.44831 3.81401 3.63576
# Velocity P-wave (km/s) = 4.97161 5.54960 5.26854
#
# Compressibility (1/GPa) = 0.05165079
#
# Stress axis : x y z
#
# Youngs Moduli (GPa) = 77.30866 69.88659 41.25944
#
# Poissons Ratio (x) = -0.06523 0.13178
# Poissons Ratio (y) = -0.07215 -0.09678
# Poissons Ratio (z) = 0.24692 -0.16393
#
# Static dielectric constant tensor:
#      x y z
#    x 1.829730 0.000000 0.014930 
#    y 0.000000 1.879420 0.000000 
#    z 0.014930 0.000000 1.803970 
# 
# From -- ./inp_files/239056.got.cif
#   From: 2010.05.17/outbox.cif.g08.bks.cpg/sg12_120_cif.got.tgz:239056.got - 2010.06.03 13:09:07.
