data_PCOD9208100
_publ_section_title
;
Structure prediction by ZEFSAII (Michael W. Deem and Ramdas Pophale) SiO2 
 PCOD9208100
Probable space group: C 2/M
;
_chemical_formula_sum "Si O2"
_cell_formula_units_Z 40
_cell_length_a 22.028530
_cell_length_b 8.875589
_cell_length_c 11.097001
_cell_angle_alpha 90.000000
_cell_angle_beta 121.396169
_cell_angle_gamma 90.000000
_cell_volume 1851.976287
_symmetry_space_group_name_H-M "C 2/M"
_symmetry_group_IT_number 12
_symmetry_cell_setting 'monoclinic'
loop_
_space_group_symop_operation_xyz
x,y,z
-x,y,-z
-x,-y,-z
x,-y,z
1/2+x,1/2+y,z
1/2-x,1/2+y,-z
1/2-x,1/2-y,-z
1/2+x,1/2-y,z
loop_
_atom_site_type_symbol
_atom_site_label
_atom_site_fract_x
_atom_site_fract_y
_atom_site_fract_z
Si Si1 0.917105 0.679892 0.412270
Si Si2 0.207325 0.178817 0.845375
Si Si3 0.904988 0.180888 0.650664
Si Si4 0.953982 0.170645 0.075860
Si Si5 0.165614 0.322556 0.191016
O O1 0.912784 0.500000 0.399800
O O2 0.870097 0.752726 0.258316
O O3 0.886518 0.739321 0.507497
O O4 0.000000 0.725039 0.500000
O O5 0.256243 0.208976 0.778396
O O6 0.202869 0.000000 0.856397
O O7 0.250000 0.250000 0.000000
O O8 0.856532 0.233053 0.712284
O O9 0.986838 0.223641 0.768638
O O10 0.902228 0.000000 0.637011
O O11 0.930135 0.000000 0.080119
O O12 0.888515 0.274533 0.972032
O O13 0.000000 0.161166 0.000000
O O14 0.157854 0.500000 0.206327
#
# Coordination Sequence:
#
# PCOD9208100 Si02
#       5
#     8   8   8   8   8
#     4  11  26  46  68  96 130 170 218 271 328 388
#     4  11  26  46  68  96 131 174 220 266 325 390
#     4  10  21  38  63  95 129 169 215 263 322 387
#     4   8  16  31  53  87 125 163 206 251 308 375
#     4  10  21  37  61  94 129 167 213 266 321 379
#
# _framework density 21.598549999999999
#
# number of rings (size 3 to 8) (size 9 to 14) (size 15 to 20)
#    0.000    2.000    0.000    3.600    2.800   10.000 
#    0.000    0.000    0.000    0.000    0.000    0.000 
#    0.000    0.000    0.000    0.000    0.000    0.000 
#
# Total GULP energy -111816.444690 kJ/mol
# GULP energy per Si atom -5590.822234 kJ/mol
# Density = 2.154939 g / cm^3
# Si number density = 21.598550 Si / 1000 Ang^3
#
#
#
# Elastic Constant Matrix: (Units=GPa)
#
#
# Indices 1 2 3 4 5 6 
#
# 1 106.7958 47.1947 43.8708 0.0000 13.3712 0.0000
# 2 47.1947 56.2203 44.9955 0.0000 16.2517 0.0000
# 3 43.8708 44.9955 143.6800 0.0000 15.1827 0.0000
# 4 0.0000 0.0000 0.0000 34.5913 0.0000 3.5367
# 5 13.3712 16.2517 15.1827 0.0000 34.3937 0.0000
# 6 0.0000 0.0000 0.0000 3.5367 0.0000 23.5711
#
#
#
# Elastic Compliance Matrix: (Units=1/GPa)
#
#
# Indices 1 2 3 4 5 6 
#
# 1 0.014964 -0.011938 -0.000852 0.000000 0.000199 0.000000
# 2 -0.011938 0.035771 -0.006568 0.000000 -0.009362 0.000000
# 3 -0.000852 -0.006568 0.009350 0.000000 -0.000693 0.000000
# 4 0.000000 0.000000 0.000000 0.029359 0.000000 -0.004405
# 5 0.000199 -0.009362 -0.000693 0.000000 0.033727 0.000000
# 6 0.000000 0.000000 0.000000 -0.004405 0.000000 0.043086
#
#
# Mechanical properties :
#
#
# Convention : Reuss Voigt Hill
#
# Bulk Modulus (GPa) = 46.79284 64.31311 55.55297
# Shear Modulus (GPa) = 23.57422 29.88691 26.73056
#
# Velocity S-wave (km/s) = 3.30733 3.72391 3.52178
# Velocity P-wave (km/s) = 6.02465 6.95207 6.50491
#
# Compressibility (1/GPa) = 0.02137079
#
# Stress axis : x y z
#
# Youngs Moduli (GPa) = 66.82710 27.95534 106.95142
#
# Poissons Ratio (x) = 0.33372 0.09109
# Poissons Ratio (y) = 0.79776 0.70246
# Poissons Ratio (z) = 0.05691 0.18361
#
# Static dielectric constant tensor:
#      x y z
#    x 1.816550 0.000000 -0.009640 
#    y 0.000000 1.717060 0.000000 
#    z -0.009640 0.000000 1.800130 
# 
# From -- ./inp_files/172573.got.cif
#   From: 2010.05.17/outbox.cif.g08.bks.cpg/sg12_87_cif.got.tgz:172573.got - 2010.06.03 13:09:07.
