data_PCOD9208580
_publ_section_title
;
Structure prediction by ZEFSAII (Michael W. Deem and Ramdas Pophale) SiO2 
 PCOD9208580
Probable space group: C 2/M
;
_chemical_formula_sum "Si O2"
_cell_formula_units_Z 64
_cell_length_a 20.594588
_cell_length_b 25.171727
_cell_length_c 9.905687
_cell_angle_alpha 90.000000
_cell_angle_beta 137.891551
_cell_angle_gamma 90.000000
_cell_volume 3443.283949
_symmetry_space_group_name_H-M "C 2/M"
_symmetry_group_IT_number 12
_symmetry_cell_setting 'monoclinic'
loop_
_space_group_symop_operation_xyz
x,y,z
-x,y,-z
-x,-y,-z
x,-y,z
1/2+x,1/2+y,z
1/2-x,1/2+y,-z
1/2-x,1/2-y,-z
1/2+x,1/2-y,z
loop_
_atom_site_type_symbol
_atom_site_label
_atom_site_fract_x
_atom_site_fract_y
_atom_site_fract_z
Si Si1 0.814933 0.750880 0.464332
Si Si2 0.962421 0.558712 0.594915
Si Si3 0.898197 0.134314 0.523189
Si Si4 0.620683 0.365839 0.818067
Si Si5 0.994944 0.323448 0.658133
Si Si6 0.238286 0.940541 0.188278
Si Si7 0.402455 0.561674 0.776209
Si Si8 0.329980 0.252456 0.007590
O O1 0.750000 0.750000 0.500000
O O2 0.873968 0.806366 0.538489
O O3 0.896511 0.705198 0.561126
O O4 0.732146 0.747414 0.223079
O O5 0.982169 0.500000 0.687924
O O6 0.000236 0.614664 0.709800
O O7 0.847984 0.566331 0.401729
O O8 0.000000 0.555905 0.500000
O O9 0.856987 0.133157 0.307029
O O10 0.866498 0.094314 0.591868
O O11 0.010275 0.117065 0.673879
O O12 0.618871 0.307643 0.879871
O O13 0.699256 0.399493 0.019498
O O14 0.000000 0.320253 0.500000
O O15 0.088992 0.292646 0.857297
O O16 0.175576 0.936448 0.226147
O O17 0.226698 0.000000 0.113864
O O18 0.421200 0.500000 0.767375
O O19 0.500000 0.582999 0.000000
O O20 0.250000 0.250000 0.000000
#
# Coordination Sequence:
#
# PCOD9208580 Si02
#       8
#     8   8   8   8   8   8   8   8
#     4  12  27  41  61  94 126 165 211 259 316 386
#     4   9  20  36  59  93 121 151 207 266 301 349
#     4  11  23  38  57  87 127 155 201 258 308 369
#     4  11  22  38  61  88 120 159 204 258 307 372
#     4  11  21  40  66  92 127 169 206 255 318 376
#     4  10  21  38  62  90 120 163 213 252 306 376
#     4  10  21  38  58  86 123 166 204 243 310 382
#     4  12  23  41  66  87 124 170 207 247 319 385
#
# _framework density 18.586908000000001
#
# number of rings (size 3 to 8) (size 9 to 14) (size 15 to 20)
#    0.000    1.250    5.000    0.750    5.250    1.000 
#    0.000    1.250    0.000    0.750    0.000    0.875 
#    0.000    0.500    0.000    0.000    0.000    0.000 
#
# Total GULP energy -178351.223763 kJ/mol
# GULP energy per Si atom -5573.475743 kJ/mol
# Density = 1.854460 g / cm^3
# Si number density = 18.586908 Si / 1000 Ang^3
#
#
#
# Elastic Constant Matrix: (Units=GPa)
#
#
# Indices 1 2 3 4 5 6 
#
# 1 79.7528 15.3616 25.4687 0.0000 3.7130 0.0000
# 2 15.3616 134.3183 38.0898 0.0000 -2.3477 0.0000
# 3 25.4687 38.0898 76.2709 0.0000 -6.5236 0.0000
# 4 0.0000 0.0000 0.0000 34.8142 0.0000 12.2914
# 5 3.7130 -2.3477 -6.5236 0.0000 32.0883 0.0000
# 6 0.0000 0.0000 0.0000 12.2914 0.0000 44.8236
#
#
#
# Elastic Compliance Matrix: (Units=1/GPa)
#
#
# Indices 1 2 3 4 5 6 
#
# 1 0.014266 -0.000306 -0.004838 0.000000 -0.002657 0.000000
# 2 -0.000306 0.008682 -0.004250 0.000000 -0.000193 0.000000
# 3 -0.004838 -0.004250 0.017169 0.000000 0.003739 0.000000
# 4 0.000000 0.000000 0.000000 0.031803 0.000000 -0.008721
# 5 -0.002657 -0.000193 0.003739 0.000000 0.032218 0.000000
# 6 0.000000 0.000000 0.000000 -0.008721 0.000000 0.024701
#
#
# Mechanical properties :
#
#
# Convention : Reuss Voigt Hill
#
# Bulk Modulus (GPa) = 46.88541 49.79801 48.34171
# Shear Modulus (GPa) = 32.31283 36.44004 34.37643
#
# Velocity S-wave (km/s) = 4.17402 4.43258 4.30524
# Velocity P-wave (km/s) = 6.96489 7.28335 7.12590
#
# Compressibility (1/GPa) = 0.02132860
#
# Stress axis : x y z
#
# Youngs Moduli (GPa) = 70.09437 115.18287 58.24406
#
# Poissons Ratio (x) = 0.03525 0.28180
# Poissons Ratio (y) = 0.02145 0.24754
# Poissons Ratio (z) = 0.33914 0.48954
#
# Static dielectric constant tensor:
#      x y z
#    x 1.403760 0.000000 0.140430 
#    y 0.000000 0.913490 0.000000 
#    z 0.140430 0.000000 1.564460 
# 
# From -- ./inp_files/90671.got.cif
#   From: 2010.05.17/outbox.cif.g08.bks.cpg/sg12_46_cif.got.tgz:90671.got - 2010.06.03 13:09:07.
