data_PCOD9208644
_publ_section_title
;
Structure prediction by ZEFSAII (Michael W. Deem and Ramdas Pophale) SiO2 
 PCOD9208644
Probable space group: C 2/M
;
_chemical_formula_sum "Si O2"
_cell_formula_units_Z 56
_cell_length_a 20.525724
_cell_length_b 8.954078
_cell_length_c 26.866862
_cell_angle_alpha 90.000000
_cell_angle_beta 39.907367
_cell_angle_gamma 90.000000
_cell_volume 3167.857511
_symmetry_space_group_name_H-M "C 2/M"
_symmetry_group_IT_number 12
_symmetry_cell_setting 'monoclinic'
loop_
_space_group_symop_operation_xyz
x,y,z
-x,y,-z
-x,-y,-z
x,-y,z
1/2+x,1/2+y,z
1/2-x,1/2+y,-z
1/2-x,1/2-y,-z
1/2+x,1/2-y,z
loop_
_atom_site_type_symbol
_atom_site_label
_atom_site_fract_x
_atom_site_fract_y
_atom_site_fract_z
Si Si1 0.304793 0.677998 0.823834
Si Si2 0.403872 0.678352 0.091114
Si Si3 0.558431 0.823586 0.825211
Si Si4 0.668488 0.823607 0.084156
Si Si5 0.681641 0.821710 0.496566
Si Si6 0.002615 0.678696 0.669290
Si Si7 0.165660 0.320666 0.660761
O O1 0.301885 0.500000 0.826874
O O2 0.197731 0.742336 0.868369
O O3 0.326249 0.743896 0.865896
O O4 0.397725 0.735156 0.735471
O O5 0.391018 0.500000 0.096116
O O6 0.424465 0.730209 0.135264
O O7 0.500000 0.718967 0.000000
O O8 0.443177 0.807537 0.873717
O O9 0.629781 0.779591 0.736970
O O10 0.575488 0.000000 0.825628
O O11 0.688881 0.000000 0.078498
O O12 0.750000 0.750000 0.000000
O O13 0.750000 0.750000 0.500000
O O14 0.567148 0.788844 0.581524
O O15 0.730367 0.755095 0.418266
O O16 0.693523 0.000000 0.490169
O O17 0.984796 0.500000 0.682541
O O18 0.076132 0.717315 0.673343
O O19 0.176507 0.500000 0.651858
#
# Coordination Sequence:
#
# PCOD9208644 Si02
#       7
#     8   8   8   8   8   8   8
#     4  12  24  37  58  85 113 149 191 234 282 337
#     4  11  25  43  61  81 109 148 192 238 286 341
#     4  10  21  38  59  82 113 149 185 231 284 338
#     4  11  22  38  58  83 115 146 182 232 287 337
#     4   9  17  28  47  77 113 150 184 226 276 328
#     4   9  17  33  53  78 115 152 185 227 281 330
#     4   9  17  32  53  80 114 150 183 225 282 334
#
# _framework density 17.677562000000002
#
# number of rings (size 3 to 8) (size 9 to 14) (size 15 to 20)
#    0.000    1.857    1.429    4.286    0.000    8.000 
#    0.000    0.000    0.000    0.857    0.000    6.000 
#    0.000    0.000    0.000    0.000    0.000    0.000 
#
# Total GULP energy -156308.748332 kJ/mol
# GULP energy per Si atom -5582.455298 kJ/mol
# Density = 1.763733 g / cm^3
# Si number density = 17.677562 Si / 1000 Ang^3
#
#
#
# Elastic Constant Matrix: (Units=GPa)
#
#
# Indices 1 2 3 4 5 6 
#
# 1 141.3904 133.1540 201.6780 0.0000 47.1504 -0.0003
# 2 133.1540 180.1258 245.2768 0.0000 46.5422 -0.0005
# 3 201.6780 245.2768 471.1292 -0.0001 98.0921 -0.0002
# 4 0.0000 0.0000 -0.0001 32.6557 0.0000 1.1828
# 5 47.1504 46.5422 98.0921 0.0000 55.6533 0.0000
# 6 -0.0003 -0.0005 -0.0002 1.1828 0.0000 26.8914
#
#
#
# Elastic Compliance Matrix: (Units=1/GPa)
#
#
# Indices 1 2 3 4 5 6 
#
# 1 0.026122 -0.014520 -0.002438 0.000000 -0.005691 0.000000
# 2 -0.014520 0.027357 -0.009202 0.000000 0.005641 0.000000
# 3 -0.002438 -0.009202 0.009359 0.000000 -0.006735 0.000000
# 4 0.000000 0.000000 0.000000 0.030671 0.000000 -0.001349
# 5 -0.005691 0.005641 -0.006735 0.000000 0.029943 0.000000
# 6 0.000000 0.000000 0.000000 -0.001349 0.000000 0.037246
#
#
# Mechanical properties :
#
#
# Convention : Reuss Voigt Hill
#
# Bulk Modulus (GPa) = 95.06147 216.98474 156.02311
# Shear Modulus (GPa) = 23.09216 37.20919 30.15067
#
# Velocity S-wave (km/s) = 3.61820 4.59288 4.13436
# Velocity P-wave (km/s) = 8.44672 12.29383 10.54717
#
# Compressibility (1/GPa) = 0.01051951
#
# Stress axis : x y z
#
# Youngs Moduli (GPa) = 38.28204 36.55342 106.84956
#
# Poissons Ratio (x) = 0.53074 0.26050
# Poissons Ratio (y) = 0.55584 0.98319
# Poissons Ratio (z) = 0.09333 0.33635
#
# Static dielectric constant tensor:
#      x y z
#    x 1.587360 0.000000 0.018350 
#    y 0.000000 1.589710 0.000000 
#    z 0.018350 0.000000 1.634190 
# 
# From -- ./inp_files/362998.got.cif
#   From: 2010.05.17/outbox.cif.g08.bks.cpg/sg12_182_cif.got.tgz:362998.got - 2010.06.03 13:09:07.
