data_PCOD9208096
_publ_section_title
;
Structure prediction by ZEFSAII (Michael W. Deem and Ramdas Pophale) SiO2 
 PCOD9208096
Probable space group: C 2/M
;
_chemical_formula_sum "Si O2"
_cell_formula_units_Z 40
_cell_length_a 15.024580
_cell_length_b 18.927120
_cell_length_c 21.037399
_cell_angle_alpha 90.000000
_cell_angle_beta 161.684399
_cell_angle_gamma 90.000000
_cell_volume 1879.989987
_symmetry_space_group_name_H-M "C 2/M"
_symmetry_group_IT_number 12
_symmetry_cell_setting 'monoclinic'
loop_
_space_group_symop_operation_xyz
x,y,z
-x,y,-z
-x,-y,-z
x,-y,z
1/2+x,1/2+y,z
1/2-x,1/2+y,-z
1/2-x,1/2-y,-z
1/2+x,1/2-y,z
loop_
_atom_site_type_symbol
_atom_site_label
_atom_site_fract_x
_atom_site_fract_y
_atom_site_fract_z
Si Si1 0.796828 0.846553 0.234935
Si Si2 0.607137 0.081592 0.369894
Si Si3 0.135669 0.682395 0.697952
Si Si4 0.520208 0.853702 0.178407
Si Si5 0.423077 0.689491 0.762458
O O1 0.848141 0.762070 0.264164
O O2 0.744594 0.861468 0.274348
O O3 0.077803 0.887124 0.404538
O O4 0.500000 0.864405 0.000000
O O5 0.381601 0.127006 0.257184
O O6 0.550730 0.093181 0.256842
O O7 0.594195 0.000000 0.378367
O O8 0.370393 0.676273 0.801908
O O9 0.846815 0.671011 0.462260
O O10 0.548850 0.774115 0.225686
O O11 0.205887 0.851273 0.935596
#
# Coordination Sequence:
#
# PCOD9208096 Si02
#       5
#     8   8   8   8   8
#     4  11  23  39  67  97 122 162 215 269 309 362
#     4  12  26  41  60  92 136 173 203 252 320 386
#     4  10  21  39  64  96 123 160 212 263 311 365
#     4  10  21  37  61  94 122 161 205 262 319 359
#     4   9  19  38  65  91 121 155 213 268 303 359
#
# _framework density 21.276710000000001
#
# number of rings (size 3 to 8) (size 9 to 14) (size 15 to 20)
#    0.000    1.600    2.000    2.400    8.400    2.000 
#    0.000    7.000    0.000    0.000    0.000    0.000 
#    0.000    0.000    0.000    0.000    0.000    0.000 
#
# Total GULP energy -111815.036531 kJ/mol
# GULP energy per Si atom -5590.751827 kJ/mol
# Density = 2.122828 g / cm^3
# Si number density = 21.276710 Si / 1000 Ang^3
#
#
#
# Elastic Constant Matrix: (Units=GPa)
#
#
# Indices 1 2 3 4 5 6 
#
# 1 48.7051 28.8036 -7.4112 -0.0880 4.3583 -0.0028
# 2 28.8036 66.2757 -7.9307 -0.1810 2.8512 0.0058
# 3 -7.4112 -7.9307 56.8324 0.0408 -2.7823 0.0146
# 4 -0.0880 -0.1810 0.0408 1.4191 -0.0133 -6.7479
# 5 4.3583 2.8512 -2.7823 -0.0133 33.0689 0.0108
# 6 -0.0028 0.0058 0.0146 -6.7479 0.0108 19.0062
#
#
#
# Elastic Compliance Matrix: (Units=1/GPa)
#
#
# Indices 1 2 3 4 5 6 
#
# 1 0.028057 -0.011861 0.001881 -0.000271 -0.002517 -0.000088
# 2 -0.011861 0.020395 0.001297 -0.002595 -0.000087 -0.000930
# 3 0.001881 0.001297 0.018078 0.000431 0.001161 0.000138
# 4 -0.000271 -0.002595 0.000431 -1.023332 0.000002 -0.363321
# 5 -0.002517 -0.000087 0.001161 0.000002 0.030677 -0.000018
# 6 -0.000088 -0.000930 0.000138 -0.363321 -0.000018 -0.076378
#
#
# Mechanical properties :
#
#
# Convention : Reuss Voigt Hill
#
# Bulk Modulus (GPa) = 20.34002 22.08184 21.21093
# Shear Modulus (GPa) = -5.16130 21.25561 8.04715
#
# Velocity S-wave (km/s) = -1.55919 3.16414 1.94688
# Velocity P-wave (km/s) = 2.51776 4.87339 3.87873
#
# Compressibility (1/GPa) = 0.04916417
#
# Stress axis : x y z
#
# Youngs Moduli (GPa) = 35.64153 49.03091 55.31475
#
# Poissons Ratio (x) = 0.58156 -0.10402
# Poissons Ratio (y) = 0.42275 -0.07175
# Poissons Ratio (z) = -0.06703 -0.06360
#
# Static dielectric constant tensor:
#      x y z
#    x 1.802760 0.000000 -0.017620 
#    y 0.000000 1.702610 -0.000080 
#    z -0.017620 -0.000080 1.813170 
# 
# From -- ./inp_files/60857.got.cif
#   From: 2010.05.17/outbox.cif.g08.bks.cpg/sg12_31_cif.got.tgz:60857.got - 2010.06.03 13:09:07.
