data_PCOD9208023
_publ_section_title
;
Structure prediction by ZEFSAII (Michael W. Deem and Ramdas Pophale) SiO2 
 PCOD9208023
Probable space group: C 2/M
;
_chemical_formula_sum "Si O2"
_cell_formula_units_Z 42
_cell_length_a 18.983231
_cell_length_b 7.629916
_cell_length_c 15.323476
_cell_angle_alpha 90.000000
_cell_angle_beta 49.699246
_cell_angle_gamma 90.000000
_cell_volume 1692.692411
_symmetry_space_group_name_H-M "C 2/M"
_symmetry_group_IT_number 12
_symmetry_cell_setting 'monoclinic'
loop_
_space_group_symop_operation_xyz
x,y,z
-x,y,-z
-x,-y,-z
x,-y,z
1/2+x,1/2+y,z
1/2-x,1/2+y,-z
1/2-x,1/2-y,-z
1/2+x,1/2-y,z
loop_
_atom_site_type_symbol
_atom_site_label
_atom_site_fract_x
_atom_site_fract_y
_atom_site_fract_z
Si Si1 0.349506 0.789813 0.571659
Si Si2 0.500000 0.500000 0.500000
Si Si3 0.157829 0.800077 0.955759
Si Si4 0.954382 0.299224 0.318179
Si Si5 0.138790 0.789190 0.785238
Si Si6 0.150225 0.200479 0.157231
O O1 0.419112 0.655831 0.561262
O O2 0.371583 0.762396 0.450869
O O3 0.243838 0.744220 0.676423
O O4 0.364126 0.000000 0.578709
O O5 0.118035 0.720675 0.899225
O O6 0.269737 0.799884 0.855757
O O7 0.123245 0.000000 0.990069
O O8 0.143759 0.724155 0.063520
O O9 0.980381 0.500000 0.307774
O O10 0.926219 0.265445 0.241601
O O11 0.045886 0.197635 0.273327
O O12 0.134015 0.000000 0.794331
O O13 0.182940 0.000000 0.126320
#
# Coordination Sequence:
#
# PCOD9208023 Si02
#       6
#     8   2   8   8   8   8
#     4  10  25  43  63  98 131 162 205 260 313 368
#     4  12  26  40  72  94 128 168 212 252 312 384
#     4   9  20  39  61  88 119 157 202 260 313 360
#     4  11  24  40  61  88 126 164 204 252 307 373
#     4  10  22  41  64  86 122 164 206 257 312 369
#     4  10  21  37  61  89 120 158 206 254 310 370
#
# _framework density 24.812543000000002
#
# number of rings (size 3 to 8) (size 9 to 14) (size 15 to 20)
#    0.000    1.905    0.000    2.000    6.667    2.286 
#    0.000    3.810    0.000    0.000    0.000    0.000 
#    0.000    0.000    0.000    0.000    0.000    0.000 
#
# Total GULP energy -117172.038032 kJ/mol
# GULP energy per Si atom -5579.620859 kJ/mol
# Density = 2.475607 g / cm^3
# Si number density = 24.812543 Si / 1000 Ang^3
#
#
#
# Elastic Constant Matrix: (Units=GPa)
#
#
# Indices 1 2 3 4 5 6 
#
# 1 106.9239 13.2321 27.6463 0.0001 10.8817 -0.0001
# 2 13.2321 57.9649 -5.2373 0.0002 1.2669 -0.0002
# 3 27.6463 -5.2373 53.4063 0.0001 22.4084 -0.0001
# 4 0.0001 0.0002 0.0001 8.4042 -0.0001 -5.9536
# 5 10.8817 1.2669 22.4084 -0.0001 53.5602 0.0001
# 6 -0.0001 -0.0002 -0.0001 -5.9536 0.0001 31.6284
#
#
#
# Elastic Compliance Matrix: (Units=1/GPa)
#
#
# Indices 1 2 3 4 5 6 
#
# 1 0.011348 -0.003175 -0.006368 0.000000 0.000434 0.000000
# 2 -0.003175 0.018377 0.004072 0.000000 -0.001493 0.000000
# 3 -0.006368 0.004072 0.026584 0.000000 -0.009925 0.000000
# 4 0.000000 0.000000 0.000000 0.137296 0.000000 0.025844
# 5 0.000434 -0.001493 -0.009925 0.000000 0.022770 0.000000
# 6 0.000000 0.000000 0.000000 0.025844 0.000000 0.036482
#
#
# Mechanical properties :
#
#
# Convention : Reuss Voigt Hill
#
# Bulk Modulus (GPa) = 22.04169 32.17526 27.10848
# Shear Modulus (GPa) = 17.92625 30.89548 24.41086
#
# Velocity S-wave (km/s) = 2.69079 3.53250 3.13998
# Velocity P-wave (km/s) = 4.30771 5.44368 4.90867
#
# Compressibility (1/GPa) = 0.04536857
#
# Stress axis : x y z
#
# Youngs Moduli (GPa) = 88.12388 54.41508 37.61613
#
# Poissons Ratio (x) = 0.17278 0.23952
# Poissons Ratio (y) = 0.27981 -0.15319
# Poissons Ratio (z) = 0.56114 -0.22160
#
# Static dielectric constant tensor:
#      x y z
#    x 1.945360 0.000000 0.027650 
#    y 0.000000 1.945490 0.000000 
#    z 0.027650 0.000000 2.052170 
# 
# From -- ./inp_files/221413.got.cif
#   From: 2010.05.17/outbox.cif.g08.bks.cpg/sg12_111_cif.got.tgz:221413.got - 2010.06.03 13:09:07.
