data_PCOD9208979
_publ_section_title
;
Structure prediction by ZEFSAII (Michael W. Deem and Ramdas Pophale) SiO2 
 PCOD9208979
Probable space group: C 2/M
;
_chemical_formula_sum "Si O2"
_cell_formula_units_Z 64
_cell_length_a 15.059784
_cell_length_b 7.993680
_cell_length_c 28.263084
_cell_angle_alpha 90.000000
_cell_angle_beta 129.309664
_cell_angle_gamma 90.000000
_cell_volume 2632.548476
_symmetry_space_group_name_H-M "C 2/M"
_symmetry_group_IT_number 12
_symmetry_cell_setting 'monoclinic'
loop_
_space_group_symop_operation_xyz
x,y,z
-x,y,-z
-x,-y,-z
x,-y,z
1/2+x,1/2+y,z
1/2-x,1/2+y,-z
1/2-x,1/2-y,-z
1/2+x,1/2-y,z
loop_
_atom_site_type_symbol
_atom_site_label
_atom_site_fract_x
_atom_site_fract_y
_atom_site_fract_z
Si Si1 0.879263 0.299304 0.055093
Si Si2 0.602562 0.696137 0.648725
Si Si3 0.152652 0.801208 0.852070
Si Si4 0.889678 0.691768 0.902476
Si Si5 0.628580 0.295976 0.551888
Si Si6 0.634249 0.797881 0.398952
Si Si7 0.300285 0.687381 0.775454
Si Si8 0.562827 0.194587 0.269161
O O1 0.887095 0.500000 0.058073
O O2 0.900545 0.232438 0.114831
O O3 0.982230 0.235894 0.056289
O O4 0.750000 0.250000 0.000000
O O5 0.623084 0.500000 0.661740
O O6 0.653061 0.746829 0.614883
O O7 0.466039 0.726709 0.602274
O O8 0.670328 0.785984 0.713528
O O9 0.282909 0.733840 0.895019
O O10 0.071715 0.716948 0.786292
O O11 0.155005 0.000000 0.844037
O O12 0.900576 0.500000 0.922718
O O13 0.842639 0.695780 0.832293
O O14 0.500000 0.234019 0.500000
O O15 0.626048 0.500000 0.548286
O O16 0.733221 0.240403 0.553764
O O17 0.595238 0.749134 0.332515
O O18 0.631255 0.000000 0.401803
O O19 0.316224 0.500000 0.798601
O O20 0.373419 0.714494 0.752368
O O21 0.594970 0.000000 0.276660
#
# Coordination Sequence:
#
# PCOD9208979 Si02
#       8
#     8   8   8   8   8   8   8   8
#     4  11  24  43  65  88 121 164 205 255 302 351
#     4  11  22  38  60  88 120 157 197 244 301 359
#     4  11  23  40  63  93 122 157 201 247 298 359
#     4  10  23  42  64  90 125 162 197 243 303 359
#     4   9  19  38  61  83 114 159 204 246 299 359
#     4  10  21  38  60  88 120 157 199 245 297 360
#     4  12  23  36  61  92 122 157 198 245 296 357
#     4  11  21  37  60  88 123 160 194 238 302 361
#
# _framework density 24.311045
#
# number of rings (size 3 to 8) (size 9 to 14) (size 15 to 20)
#    0.000    1.375    2.500    3.375    0.000    5.500 
#    0.000    2.500    0.000    2.625    0.000    0.000 
#    0.000    0.000    0.000    0.000    0.000    0.000 
#
# Total GULP energy -179001.489143 kJ/mol
# GULP energy per Si atom -5593.796536 kJ/mol
# Density = 2.425571 g / cm^3
# Si number density = 24.311045 Si / 1000 Ang^3
#
#
#
# Elastic Constant Matrix: (Units=GPa)
#
#
# Indices 1 2 3 4 5 6 
#
# 1 141.9677 -0.0502 4.5958 0.0000 33.7391 0.0000
# 2 -0.0502 40.2507 -1.8596 0.0000 -1.1314 0.0000
# 3 4.5958 -1.8596 65.0570 0.0000 29.7900 0.0000
# 4 0.0000 0.0000 0.0000 14.0122 0.0000 7.8099
# 5 33.7391 -1.1314 29.7900 0.0000 47.3617 0.0000
# 6 0.0000 0.0000 0.0000 7.8099 0.0000 22.9193
#
#
#
# Elastic Compliance Matrix: (Units=1/GPa)
#
#
# Indices 1 2 3 4 5 6 
#
# 1 0.008932 -0.000076 0.003204 0.000000 -0.008380 0.000000
# 2 -0.000076 0.024879 0.000589 0.000000 0.000278 0.000000
# 3 0.003204 0.000589 0.022754 0.000000 -0.016580 0.000000
# 4 0.000000 0.000000 0.000000 0.088099 0.000000 -0.030020
# 5 -0.008380 0.000278 -0.016580 0.000000 0.037519 0.000000
# 6 0.000000 0.000000 0.000000 -0.030020 0.000000 0.053861
#
#
# Mechanical properties :
#
#
# Convention : Reuss Voigt Hill
#
# Bulk Modulus (GPa) = 15.62544 28.07194 21.84869
# Shear Modulus (GPa) = 20.00460 33.16458 26.58459
#
# Velocity S-wave (km/s) = 2.87167 3.69748 3.31043
# Velocity P-wave (km/s) = 4.17571 5.45899 4.85989
#
# Compressibility (1/GPa) = 0.06399818
#
# Stress axis : x y z
#
# Youngs Moduli (GPa) = 111.96254 40.19412 43.94864
#
# Poissons Ratio (x) = 0.00307 -0.14081
# Poissons Ratio (y) = 0.00855 -0.02589
# Poissons Ratio (z) = -0.35872 -0.02368
#
# Static dielectric constant tensor:
#      x y z
#    x 1.955500 0.000000 0.057080 
#    y 0.000000 1.867380 0.000000 
#    z 0.057080 0.000000 1.949640 
# 
# From -- ./inp_files/359744.got.cif
#   From: 2010.05.17/outbox.cif.g08.bks.cpg/sg12_180_cif.got.tgz:359744.got - 2010.06.03 13:09:07.
