data_PCOD9208633
_publ_section_title
;
Structure prediction by ZEFSAII (Michael W. Deem and Ramdas Pophale) SiO2 
 PCOD9208633
Probable space group: C 2/M
;
_chemical_formula_sum "Si O2"
_cell_formula_units_Z 32
_cell_length_a 10.699568
_cell_length_b 18.154551
_cell_length_c 11.577153
_cell_angle_alpha 90.000000
_cell_angle_beta 38.671600
_cell_angle_gamma 90.000000
_cell_volume 1405.184312
_symmetry_space_group_name_H-M "C 2/M"
_symmetry_group_IT_number 12
_symmetry_cell_setting 'monoclinic'
loop_
_space_group_symop_operation_xyz
x,y,z
-x,y,-z
-x,-y,-z
x,-y,z
1/2+x,1/2+y,z
1/2-x,1/2+y,-z
1/2-x,1/2-y,-z
1/2+x,1/2-y,z
loop_
_atom_site_type_symbol
_atom_site_label
_atom_site_fract_x
_atom_site_fract_y
_atom_site_fract_z
Si Si1 0.741895 0.000000 0.468227
Si Si2 0.234999 0.355732 0.617869
Si Si3 0.370322 0.698430 0.748242
Si Si4 0.264155 0.154748 0.905474
Si Si5 0.259557 0.000000 0.793915
O O1 0.795327 0.928621 0.503954
O O2 0.501624 0.000000 0.625029
O O3 0.816335 0.000000 0.283051
O O4 0.398455 0.296368 0.456706
O O5 0.270784 0.357598 0.729353
O O6 0.001618 0.344212 0.764189
O O7 0.252726 0.776119 0.826660
O O8 0.351375 0.672055 0.893349
O O9 0.207507 0.076466 0.893826
#
# Coordination Sequence:
#
# PCOD9208633 Si02
#       5
#     4   8   8   8   4
#     4   9  20  37  58  86 112 148 195 227 277 342
#     4  10  21  38  59  81 114 151 183 234 282 325
#     4  10  22  36  59  88 112 146 190 230 278 339
#     4  10  21  39  58  84 115 147 189 231 278 333
#     4   9  20  38  60  81 113 153 187 232 279 331
#
# _framework density 22.772812999999999
#
# number of rings (size 3 to 8) (size 9 to 14) (size 15 to 20)
#    0.000    2.250    0.000    1.500    0.000   14.000 
#    0.000    8.750    0.000    0.000    0.000    0.000 
#    0.000    0.000    0.000    0.000    0.000    0.000 
#
# Total GULP energy -89379.834196 kJ/mol
# GULP energy per Si atom -5586.239637 kJ/mol
# Density = 2.272098 g / cm^3
# Si number density = 22.772813 Si / 1000 Ang^3
#
#
#
# Elastic Constant Matrix: (Units=GPa)
#
#
# Indices 1 2 3 4 5 6 
#
# 1 106.2131 33.4536 26.4774 0.0000 6.7629 -0.0002
# 2 33.4536 111.0036 23.6817 -0.0004 33.6831 0.0005
# 3 26.4774 23.6817 106.0769 -0.0007 5.9398 -0.0003
# 4 0.0000 -0.0004 -0.0007 29.1109 -0.0002 7.0341
# 5 6.7629 33.6831 5.9398 -0.0002 46.2049 0.0007
# 6 -0.0002 0.0005 -0.0003 7.0341 0.0007 17.5488
#
#
#
# Elastic Compliance Matrix: (Units=1/GPa)
#
#
# Indices 1 2 3 4 5 6 
#
# 1 0.010852 -0.003118 -0.002066 0.000000 0.000950 0.000000
# 2 -0.003118 0.012960 -0.001623 0.000000 -0.008782 0.000000
# 3 -0.002066 -0.001623 0.010296 0.000000 0.000162 0.000000
# 4 0.000000 0.000000 0.000000 0.038035 0.000000 -0.015246
# 5 0.000950 -0.008782 0.000162 0.000000 0.027885 -0.000001
# 6 0.000000 0.000000 0.000000 -0.015246 -0.000001 0.063095
#
#
# Mechanical properties :
#
#
# Convention : Reuss Voigt Hill
#
# Bulk Modulus (GPa) = 48.79620 54.50212 51.64916
# Shear Modulus (GPa) = 27.23792 34.55163 30.89478
#
# Velocity S-wave (km/s) = 3.46218 3.89939 3.68727
# Velocity P-wave (km/s) = 6.12014 6.65271 6.39198
#
# Compressibility (1/GPa) = 0.02049340
#
# Stress axis : x y z
#
# Youngs Moduli (GPa) = 92.15268 77.16239 97.12467
#
# Poissons Ratio (x) = 0.24059 0.20063
# Poissons Ratio (y) = 0.28733 0.15765
# Poissons Ratio (z) = 0.19036 0.12525
#
# Static dielectric constant tensor:
#      x y z
#    x 1.842440 0.000000 -0.022920 
#    y 0.000000 1.859530 0.000000 
#    z -0.022920 0.000000 1.827070 
# 
# From -- ./inp_files/46459.got.cif
#   From: 2010.05.17/outbox.cif.g08.bks.cpg/sg12_24_cif.got.tgz:46459.got - 2010.06.03 13:09:07.
