data_PCOD9208949
_publ_section_title
;
Structure prediction by ZEFSAII (Michael W. Deem and Ramdas Pophale) SiO2 
 PCOD9208949
Probable space group: C 2/M
;
_chemical_formula_sum "Si O2"
_cell_formula_units_Z 48
_cell_length_a 27.343106
_cell_length_b 8.920949
_cell_length_c 11.719916
_cell_angle_alpha 90.000000
_cell_angle_beta 121.886326
_cell_angle_gamma 90.000000
_cell_volume 2427.398651
_symmetry_space_group_name_H-M "C 2/M"
_symmetry_group_IT_number 12
_symmetry_cell_setting 'monoclinic'
loop_
_space_group_symop_operation_xyz
x,y,z
-x,y,-z
-x,-y,-z
x,-y,z
1/2+x,1/2+y,z
1/2-x,1/2+y,-z
1/2-x,1/2-y,-z
1/2+x,1/2-y,z
loop_
_atom_site_type_symbol
_atom_site_label
_atom_site_fract_x
_atom_site_fract_y
_atom_site_fract_z
Si Si1 0.410594 0.179337 0.121907
Si Si2 0.761983 0.824033 0.325324
Si Si3 0.871673 0.819498 0.590213
Si Si4 0.305917 0.324611 0.125398
Si Si5 0.478010 0.180256 0.597795
Si Si6 0.362877 0.320998 0.836073
O O1 0.362079 0.242930 0.147309
O O2 0.472747 0.219130 0.249496
O O3 0.405617 0.000000 0.111819
O O4 0.397322 0.245715 0.981424
O O5 0.806767 0.772182 0.476961
O O6 0.796993 0.813678 0.249763
O O7 0.703563 0.731758 0.241581
O O8 0.747276 0.000000 0.324664
O O9 0.918268 0.751516 0.562676
O O10 0.884867 0.778322 0.737112
O O11 0.872689 0.000000 0.581864
O O12 0.308538 0.500000 0.097425
O O13 0.250000 0.250000 0.000000
O O14 0.500000 0.228463 0.500000
O O15 0.471889 0.000000 0.587550
O O16 0.365534 0.500000 0.850916
#
# Coordination Sequence:
#
# PCOD9208949 Si02
#       6
#     8   8   8   8   8   8
#     4  11  23  39  60  87 121 157 198 246 296 352
#     4  10  21  38  60  87 121 157 196 243 296 353
#     4  10  23  41  61  88 119 156 200 244 294 353
#     4  11  21  34  57  88 120 153 193 239 294 352
#     4  10  23  43  65  89 116 152 198 246 296 352
#     4  11  23  38  59  88 121 157 199 244 295 353
#
# _framework density 19.774255
#
# number of rings (size 3 to 8) (size 9 to 14) (size 15 to 20)
#    0.000    1.500    1.667    3.000    0.000    5.000 
#    0.000    3.333    0.000    0.000    0.000    0.000 
#    0.000    0.000    0.000    0.000    0.000    0.000 
#
# Total GULP energy -134177.976045 kJ/mol
# GULP energy per Si atom -5590.749002 kJ/mol
# Density = 1.972925 g / cm^3
# Si number density = 19.774255 Si / 1000 Ang^3
#
#
#
# Elastic Constant Matrix: (Units=GPa)
#
#
# Indices 1 2 3 4 5 6 
#
# 1 66.9105 16.2397 36.1812 0.0000 -2.1155 0.0000
# 2 16.2397 41.3955 38.0886 0.0000 1.2747 0.0000
# 3 36.1812 38.0886 115.5470 0.0000 1.6813 0.0000
# 4 0.0000 0.0000 0.0000 18.7095 0.0000 -2.7678
# 5 -2.1155 1.2747 1.6813 0.0000 30.9744 0.0000
# 6 0.0000 0.0000 0.0000 -2.7678 0.0000 26.1910
#
#
#
# Elastic Compliance Matrix: (Units=1/GPa)
#
#
# Indices 1 2 3 4 5 6 
#
# 1 0.018284 -0.002775 -0.004834 0.000000 0.001625 0.000000
# 2 -0.002775 0.035115 -0.010691 0.000000 -0.001054 0.000000
# 3 -0.004834 -0.010691 0.013702 0.000000 -0.000634 0.000000
# 4 0.000000 0.000000 0.000000 0.054298 0.000000 0.005738
# 5 0.001625 -0.001054 -0.000634 0.000000 0.032474 0.000000
# 6 0.000000 0.000000 0.000000 0.005738 0.000000 0.038787
#
#
# Mechanical properties :
#
#
# Convention : Reuss Voigt Hill
#
# Bulk Modulus (GPa) = 32.78620 44.98578 38.88599
# Shear Modulus (GPa) = 20.88315 24.06454 22.47384
#
# Velocity S-wave (km/s) = 3.25326 3.49228 3.37489
# Velocity P-wave (km/s) = 5.54327 6.24984 5.90713
#
# Compressibility (1/GPa) = 0.03050063
#
# Stress axis : x y z
#
# Youngs Moduli (GPa) = 54.69163 28.47759 72.98396
#
# Poissons Ratio (x) = 0.07903 0.35282
# Poissons Ratio (y) = 0.15177 0.78028
# Poissons Ratio (z) = 0.26439 0.30446
#
# Static dielectric constant tensor:
#      x y z
#    x 1.666580 0.000000 -0.020020 
#    y 0.000000 1.663250 0.000000 
#    z -0.020020 0.000000 1.710390 
# 
# From -- ./inp_files/179747.got.cif
#   From: 2010.05.17/outbox.cif.g08.bks.cpg/sg12_90_cif.got.tgz:179747.got - 2010.06.03 13:09:07.
