data_PCOD9208245
_publ_section_title
;
Structure prediction by ZEFSAII (Michael W. Deem and Ramdas Pophale) SiO2 
 PCOD9208245
Probable space group: C 2/M
;
_chemical_formula_sum "Si O2"
_cell_formula_units_Z 52
_cell_length_a 16.179752
_cell_length_b 20.156544
_cell_length_c 9.275688
_cell_angle_alpha 90.000000
_cell_angle_beta 59.889216
_cell_angle_gamma 90.000000
_cell_volume 2616.849792
_symmetry_space_group_name_H-M "C 2/M"
_symmetry_group_IT_number 12
_symmetry_cell_setting 'monoclinic'
loop_
_space_group_symop_operation_xyz
x,y,z
-x,y,-z
-x,-y,-z
x,-y,z
1/2+x,1/2+y,z
1/2-x,1/2+y,-z
1/2-x,1/2-y,-z
1/2+x,1/2-y,z
loop_
_atom_site_type_symbol
_atom_site_label
_atom_site_fract_x
_atom_site_fract_y
_atom_site_fract_z
Si Si1 0.662623 0.079014 0.055012
Si Si2 0.613727 0.074916 0.415533
Si Si3 0.649706 0.671833 0.514199
Si Si4 0.543038 0.422990 0.805706
Si Si5 0.500000 0.144127 0.000000
Si Si6 0.870311 0.311256 0.365579
Si Si7 0.868373 0.076871 0.734610
O O1 0.652487 0.102692 0.229208
O O2 0.579257 0.103816 0.022135
O O3 0.651626 0.000000 0.074942
O O4 0.767341 0.092300 0.899518
O O5 0.500000 0.069215 0.500000
O O6 0.627477 0.124555 0.534734
O O7 0.652069 0.000000 0.408006
O O8 0.622754 0.627694 0.678184
O O9 0.761927 0.687754 0.403568
O O10 0.604894 0.744494 0.569490
O O11 0.618686 0.627519 0.406861
O O12 0.576829 0.500000 0.779209
O O13 0.454746 0.418916 0.771438
O O14 0.500000 0.407101 0.000000
O O15 0.441680 0.184148 0.169994
O O16 0.864505 0.000000 0.685387
#
# Coordination Sequence:
#
# PCOD9208245 Si02
#       7
#     8   8   8   8   4   8   8
#     4  10  21  37  63  95 127 160 206 260 318 380
#     4  10  21  38  58  88 126 163 203 252 308 374
#     4  11  24  44  61  91 126 169 215 262 310 375
#     4  10  23  42  67  97 126 163 216 270 323 375
#     4  12  21  42  62  90 129 168 206 262 310 382
#     4  11  26  41  63  91 129 167 216 258 314 378
#     4  10  21  41  67  97 126 163 212 264 316 378
#
# _framework density 19.871220999999998
#
# number of rings (size 3 to 8) (size 9 to 14) (size 15 to 20)
#    0.000    1.538    3.077    1.154    3.231    4.308 
#    0.000    0.769    0.000    0.000    0.000    0.000 
#    0.000    0.000    0.000    0.000    0.000    0.000 
#
# Total GULP energy -145180.197241 kJ/mol
# GULP energy per Si atom -5583.853740 kJ/mol
# Density = 1.982599 g / cm^3
# Si number density = 19.871221 Si / 1000 Ang^3
#
#
#
# Elastic Constant Matrix: (Units=GPa)
#
#
# Indices 1 2 3 4 5 6 
#
# 1 37.0977 17.3897 30.7393 0.0000 -3.2573 0.0000
# 2 17.3897 87.5534 67.1079 0.0000 12.3975 0.0000
# 3 30.7393 67.1079 147.6703 0.0000 6.7096 0.0000
# 4 0.0000 0.0000 0.0000 38.0787 0.0000 3.8868
# 5 -3.2573 12.3975 6.7096 0.0000 37.5545 0.0000
# 6 0.0000 0.0000 0.0000 3.8868 0.0000 1.2528
#
#
#
# Elastic Compliance Matrix: (Units=1/GPa)
#
#
# Indices 1 2 3 4 5 6 
#
# 1 0.033633 -0.002821 -0.005942 0.000000 0.004910 0.000000
# 2 -0.002821 0.018515 -0.007600 0.000000 -0.004999 0.000000
# 3 -0.005942 -0.007600 0.011465 0.000000 -0.000055 0.000000
# 4 0.000000 0.000000 0.000000 0.038431 0.000000 -0.119229
# 5 0.004910 -0.004999 -0.000055 0.000000 0.028714 0.000000
# 6 0.000000 0.000000 0.000000 -0.119229 0.000000 1.168092
#
#
# Mechanical properties :
#
#
# Convention : Reuss Voigt Hill
#
# Bulk Modulus (GPa) = 32.37578 55.86612 44.12095
# Shear Modulus (GPa) = 3.72614 25.84950 14.78782
#
# Velocity S-wave (km/s) = 1.37085 3.61064 2.73093
# Velocity P-wave (km/s) = 4.33979 6.74963 5.67412
#
# Compressibility (1/GPa) = 0.03088729
#
# Stress axis : x y z
#
# Youngs Moduli (GPa) = 29.73268 54.01141 87.22286
#
# Poissons Ratio (x) = 0.15235 0.51831
# Poissons Ratio (y) = 0.08387 0.66286
# Poissons Ratio (z) = 0.17668 0.41046
#
# Static dielectric constant tensor:
#      x y z
#    x 1.695260 0.000000 -0.004740 
#    y 0.000000 1.697360 0.000000 
#    z -0.004740 0.000000 1.718930 
# 
# From -- ./inp_files/77962.got.cif
#   From: 2010.05.17/outbox.cif.g08.bks.cpg/sg12_39_cif.got.tgz:77962.got - 2010.06.03 13:09:07.
