data_PCOD9208892
_publ_section_title
;
Structure prediction by ZEFSAII (Michael W. Deem and Ramdas Pophale) SiO2 
 PCOD9208892
Probable space group: C 2/M
;
_chemical_formula_sum "Si O2"
_cell_formula_units_Z 40
_cell_length_a 27.888018
_cell_length_b 8.850284
_cell_length_c 9.136970
_cell_angle_alpha 90.000000
_cell_angle_beta 109.114712
_cell_angle_gamma 90.000000
_cell_volume 2130.819949
_symmetry_space_group_name_H-M "C 2/M"
_symmetry_group_IT_number 12
_symmetry_cell_setting 'monoclinic'
loop_
_space_group_symop_operation_xyz
x,y,z
-x,y,-z
-x,-y,-z
x,-y,z
1/2+x,1/2+y,z
1/2-x,1/2+y,-z
1/2-x,1/2-y,-z
1/2+x,1/2-y,z
loop_
_atom_site_type_symbol
_atom_site_label
_atom_site_fract_x
_atom_site_fract_y
_atom_site_fract_z
Si Si1 0.847046 0.682151 0.267858
Si Si2 0.251180 0.681142 0.339331
Si Si3 0.051230 0.180997 0.136550
Si Si4 0.147538 0.318005 0.067684
Si Si5 0.549844 0.817842 0.458412
O O1 0.841367 0.500000 0.269549
O O2 0.799605 0.757464 0.300371
O O3 0.899284 0.722243 0.402005
O O4 0.849761 0.725445 0.100105
O O5 0.253539 0.500000 0.351070
O O6 0.250000 0.750000 0.500000
O O7 0.199684 0.722506 0.201760
O O8 0.099914 0.243944 0.100013
O O9 0.050202 0.245091 0.299313
O O10 0.053463 0.000000 0.143296
O O11 0.000000 0.226452 0.000000
O O12 0.141924 0.500000 0.069027
O O13 0.500000 0.773112 0.500000
O O14 0.548896 0.000000 0.441494
#
# Coordination Sequence:
#
# PCOD9208892 Si02
#       5
#     8   8   8   8   8
#     4  10  21  38  60  86 114 146 189 237 283 333
#     4  11  23  38  58  85 116 151 190 232 281 335
#     4  11  24  39  57  85 118 150 186 231 283 336
#     4  10  22  40  61  84 112 150 193 233 277 335
#     4  10  21  38  61  86 112 148 192 234 279 334
#
# _framework density 18.772117000000001
#
# number of rings (size 3 to 8) (size 9 to 14) (size 15 to 20)
#    0.000    1.600    0.000    4.200    0.000   11.600 
#    0.000    0.000    0.000    0.000    0.000    0.000 
#    0.000    0.000    0.000    0.000    0.000    0.000 
#
# Total GULP energy -111843.950465 kJ/mol
# GULP energy per Si atom -5592.197523 kJ/mol
# Density = 1.872939 g / cm^3
# Si number density = 18.772117 Si / 1000 Ang^3
#
#
#
# Elastic Constant Matrix: (Units=GPa)
#
#
# Indices 1 2 3 4 5 6 
#
# 1 238.2182 68.7960 146.2028 0.0000 -2.2734 0.0000
# 2 68.7960 29.6949 66.4430 0.0000 2.5999 0.0000
# 3 146.2028 66.4430 238.6889 0.0000 -1.6163 0.0000
# 4 0.0000 0.0000 0.0000 28.1002 0.0000 -1.4633
# 5 -2.2734 2.5999 -1.6163 0.0000 41.4869 0.0000
# 6 0.0000 0.0000 0.0000 -1.4633 0.0000 29.2282
#
#
#
# Elastic Compliance Matrix: (Units=1/GPa)
#
#
# Indices 1 2 3 4 5 6 
#
# 1 0.013122 -0.033708 0.001365 0.000000 0.002885 0.000000
# 2 -0.033708 0.177703 -0.028915 0.000000 -0.014110 0.000000
# 3 0.001365 -0.028915 0.011418 0.000000 0.002332 0.000000
# 4 0.000000 0.000000 0.000000 0.035680 0.000000 0.001786
# 5 0.002885 -0.014110 0.002332 0.000000 0.025237 0.000000
# 6 0.000000 0.000000 0.000000 0.001786 0.000000 0.034303
#
#
# Mechanical properties :
#
#
# Convention : Reuss Voigt Hill
#
# Bulk Modulus (GPa) = 12.54275 118.83171 65.68723
# Shear Modulus (GPa) = 11.19681 34.77376 22.98529
#
# Velocity S-wave (km/s) = 2.44490 4.30864 3.50299
# Velocity P-wave (km/s) = 3.82964 9.39107 7.17141
#
# Compressibility (1/GPa) = 0.07972735
#
# Stress axis : x y z
#
# Youngs Moduli (GPa) = 76.20627 5.62736 87.57900
#
# Poissons Ratio (x) = 0.18969 -0.11954
# Poissons Ratio (y) = 2.56876 2.53236
# Poissons Ratio (z) = -0.10402 0.16272
#
# Static dielectric constant tensor:
#      x y z
#    x 1.608600 0.000000 0.015820 
#    y 0.000000 1.633770 0.000000 
#    z 0.015820 0.000000 1.618930 
# 
# From -- ./inp_files/92724.got.cif
#   From: 2010.05.17/outbox.cif.g08.bks.cpg/sg12_47_cif.got.tgz:92724.got - 2010.06.03 13:09:07.
