data_PCOD9208415
_publ_section_title
;
Structure prediction by ZEFSAII (Michael W. Deem and Ramdas Pophale) SiO2 
 PCOD9208415
Probable space group: C 2/M
;
_chemical_formula_sum "Si O2"
_cell_formula_units_Z 56
_cell_length_a 18.464743
_cell_length_b 8.599537
_cell_length_c 19.372691
_cell_angle_alpha 90.000000
_cell_angle_beta 103.921303
_cell_angle_gamma 90.000000
_cell_volume 2985.799899
_symmetry_space_group_name_H-M "C 2/M"
_symmetry_group_IT_number 12
_symmetry_cell_setting 'monoclinic'
loop_
_space_group_symop_operation_xyz
x,y,z
-x,y,-z
-x,-y,-z
x,-y,z
1/2+x,1/2+y,z
1/2-x,1/2+y,-z
1/2-x,1/2-y,-z
1/2+x,1/2-y,z
loop_
_atom_site_type_symbol
_atom_site_label
_atom_site_fract_x
_atom_site_fract_y
_atom_site_fract_z
Si Si1 0.667220 0.686387 0.497507
Si Si2 0.509589 0.813338 0.206060
Si Si3 0.296058 0.310979 0.346868
Si Si4 0.847990 0.811651 0.208264
Si Si5 0.438342 0.686573 0.929349
Si Si6 0.872126 0.312543 0.651211
Si Si7 0.723346 0.186598 0.067427
O O1 0.667617 0.500000 0.494439
O O2 0.750000 0.750000 0.500000
O O3 0.655450 0.733704 0.574617
O O4 0.617249 0.750398 0.423985
O O5 0.426582 0.755114 0.202103
O O6 0.538586 0.748363 0.140215
O O7 0.564851 0.762925 0.280538
O O8 0.510929 0.000000 0.203548
O O9 0.294923 0.500000 0.344708
O O10 0.327016 0.257749 0.280670
O O11 0.210057 0.262251 0.340350
O O12 0.782838 0.767747 0.139952
O O13 0.852607 0.000000 0.209679
O O14 0.436264 0.500000 0.927510
O O15 0.357839 0.749853 0.932379
O O16 0.500000 0.735037 0.000000
O O17 0.871111 0.500000 0.648025
O O18 0.720753 0.000000 0.064450
O O19 0.750000 0.250000 0.000000
#
# Coordination Sequence:
#
# PCOD9208415 Si02
#       7
#     8   8   8   8   8   8   8
#     4   9  16  28  50  79 107 138 179 227 278 331
#     4  11  23  38  57  82 112 147 187 231 278 328
#     4   8  15  31  54  76 101 137 180 223 269 325
#     4  10  21  38  57  78 109 148 186 226 276 330
#     4  11  24  41  61  86 115 147 184 227 276 332
#     4   9  18  34  54  77 107 142 182 228 277 331
#     4  11  23  39  61  87 115 149 186 227 276 328
#
# _framework density 18.755443
#
# number of rings (size 3 to 8) (size 9 to 14) (size 15 to 20)
#    0.000    2.143    0.000    4.286    0.000    9.143 
#    0.000    4.286    0.000    4.286    0.000    0.000 
#    0.000    0.000    0.000    0.000    0.000    0.000 
#
# Total GULP energy -156297.866651 kJ/mol
# GULP energy per Si atom -5582.066666 kJ/mol
# Density = 1.871275 g / cm^3
# Si number density = 18.755443 Si / 1000 Ang^3
#
#
#
# Elastic Constant Matrix: (Units=GPa)
#
#
# Indices 1 2 3 4 5 6 
#
# 1 145.5375 32.6056 111.3306 0.0000 -1.7208 0.0000
# 2 32.6056 28.1394 49.4571 0.0000 3.3995 0.0000
# 3 111.3306 49.4571 231.2241 0.0000 -1.9773 0.0000
# 4 0.0000 0.0000 0.0000 32.1984 0.0000 0.3344
# 5 -1.7208 3.3995 -1.9773 0.0000 33.5415 0.0000
# 6 0.0000 0.0000 0.0000 0.3344 0.0000 28.8531
#
#
#
# Elastic Compliance Matrix: (Units=1/GPa)
#
#
# Indices 1 2 3 4 5 6 
#
# 1 0.011453 -0.005939 -0.004236 0.000000 0.000940 0.000000
# 2 -0.005939 0.061474 -0.010350 0.000000 -0.007145 0.000000
# 3 -0.004236 -0.010350 0.008590 0.000000 0.001338 0.000000
# 4 0.000000 0.000000 0.000000 0.031061 0.000000 -0.000360
# 5 0.000940 -0.007145 0.001338 0.000000 0.030665 0.000000
# 6 0.000000 0.000000 0.000000 -0.000360 0.000000 0.034663
#
#
# Mechanical properties :
#
#
# Convention : Reuss Voigt Hill
#
# Bulk Modulus (GPa) = 24.71238 87.96526 56.33882
# Shear Modulus (GPa) = 21.51041 33.01912 27.26477
#
# Velocity S-wave (km/s) = 3.39025 4.20039 3.81688
# Velocity P-wave (km/s) = 5.34133 8.39806 7.03766
#
# Compressibility (1/GPa) = 0.04046555
#
# Stress axis : x y z
#
# Youngs Moduli (GPa) = 87.31100 16.26707 116.41802
#
# Poissons Ratio (x) = 0.09661 0.49317
# Poissons Ratio (y) = 0.51856 1.20495
# Poissons Ratio (z) = 0.36986 0.16837
#
# Static dielectric constant tensor:
#      x y z
#    x 1.648330 0.000000 0.020100 
#    y 0.000000 1.642740 0.000000 
#    z 0.020100 0.000000 1.672500 
# 
# From -- ./inp_files/275604.got.cif
#   From: 2010.05.17/outbox.cif.g08.bks.cpg/sg12_138_cif.got.tgz:275604.got - 2010.06.03 13:09:07.
