data_PCOD9208985
_publ_section_title
;
Structure prediction by ZEFSAII (Michael W. Deem and Ramdas Pophale) SiO2 
 PCOD9208985
Probable space group: C 2/M
;
_chemical_formula_sum "Si O2"
_cell_formula_units_Z 48
_cell_length_a 13.877327
_cell_length_b 17.768466
_cell_length_c 8.839910
_cell_angle_alpha 90.000000
_cell_angle_beta 98.332287
_cell_angle_gamma 90.000000
_cell_volume 2156.725859
_symmetry_space_group_name_H-M "C 2/M"
_symmetry_group_IT_number 12
_symmetry_cell_setting 'monoclinic'
loop_
_space_group_symop_operation_xyz
x,y,z
-x,y,-z
-x,-y,-z
x,-y,z
1/2+x,1/2+y,z
1/2-x,1/2+y,-z
1/2-x,1/2-y,-z
1/2+x,1/2-y,z
loop_
_atom_site_type_symbol
_atom_site_label
_atom_site_fract_x
_atom_site_fract_y
_atom_site_fract_z
Si Si1 0.715271 0.630042 0.526492
Si Si2 0.557722 0.582658 0.722943
Si Si3 0.785094 0.086598 0.970566
Si Si4 0.628857 0.860118 0.164043
Si Si5 0.518775 0.000000 0.259260
Si Si6 0.836545 0.500000 0.417381
Si Si7 0.386733 0.304666 0.756214
O O1 0.620483 0.594306 0.585745
O O2 0.790907 0.640488 0.681173
O O3 0.769018 0.572276 0.426285
O O4 0.675368 0.697568 0.413830
O O5 0.510112 0.500000 0.711984
O O6 0.482672 0.648815 0.736027
O O7 0.634937 0.583759 0.877319
O O8 0.825329 0.145395 0.859393
O O9 0.775711 0.000000 0.914427
O O10 0.686867 0.117022 0.026526
O O11 0.549978 0.924493 0.179435
O O12 0.589884 0.775540 0.164841
O O13 0.408669 0.000000 0.291919
O O14 0.589507 0.000000 0.422257
#
# Coordination Sequence:
#
# PCOD9208985 Si02
#       7
#     8   8   8   8   4   4   8
#     4  10  21  38  60  88 123 153 193 245 297 350
#     4  10  21  39  61  86 123 162 193 233 297 366
#     4  10  21  40  65  85 117 161 202 239 289 360
#     4  10  21  42  61  84 117 160 199 241 299 351
#     4   9  18  40  65  78 106 160 207 235 279 357
#     4   9  18  36  62  86 109 156 201 235 285 347
#     4  12  23  34  59  96 123 150 194 248 297 346
#
# _framework density 22.255958
#
# number of rings (size 3 to 8) (size 9 to 14) (size 15 to 20)
#    0.000    1.833    1.667    2.500    2.333    2.000 
#   18.000    0.000    0.000    1.000    0.000    0.000 
#    0.000    0.000    0.000    0.000    0.000    0.000 
#
# Total GULP energy -134173.262134 kJ/mol
# GULP energy per Si atom -5590.552589 kJ/mol
# Density = 2.220530 g / cm^3
# Si number density = 22.255958 Si / 1000 Ang^3
#
#
#
# Elastic Constant Matrix: (Units=GPa)
#
#
# Indices 1 2 3 4 5 6 
#
# 1 128.7320 71.0577 37.8768 0.0000 -44.2627 0.0000
# 2 71.0577 172.8443 31.0152 0.0000 -31.3989 0.0000
# 3 37.8768 31.0152 69.2665 0.0000 -9.1850 0.0000
# 4 0.0000 0.0000 0.0000 22.9577 0.0000 -1.4182
# 5 -44.2627 -31.3989 -9.1850 0.0000 40.2321 0.0000
# 6 0.0000 0.0000 0.0000 -1.4182 0.0000 18.7812
#
#
#
# Elastic Compliance Matrix: (Units=1/GPa)
#
#
# Indices 1 2 3 4 5 6 
#
# 1 0.015755 -0.003002 -0.005448 0.000000 0.013746 0.000000
# 2 -0.003002 0.007721 -0.001500 0.000000 0.002381 0.000000
# 3 -0.005448 -0.001500 0.017673 0.000000 -0.003130 0.000000
# 4 0.000000 0.000000 0.000000 0.043762 0.000000 0.003305
# 5 0.013746 0.002381 -0.003130 0.000000 0.041123 0.000000
# 6 0.000000 0.000000 0.000000 0.003305 0.000000 0.053494
#
#
# Mechanical properties :
#
#
# Convention : Reuss Voigt Hill
#
# Bulk Modulus (GPa) = 47.06228 72.30469 59.68349
# Shear Modulus (GPa) = 24.21175 31.78709 27.99942
#
# Velocity S-wave (km/s) = 3.30188 3.78332 3.55077
# Velocity P-wave (km/s) = 5.97732 7.18631 6.60951
#
# Compressibility (1/GPa) = 0.02124844
#
# Stress axis : x y z
#
# Youngs Moduli (GPa) = 63.47358 129.51007 56.58431
#
# Poissons Ratio (x) = 0.38880 0.30827
# Poissons Ratio (y) = 0.19056 0.08488
# Poissons Ratio (z) = 0.34580 0.19427
#
# Static dielectric constant tensor:
#      x y z
#    x 1.791840 0.000000 0.052550 
#    y 0.000000 1.785540 0.000000 
#    z 0.052550 0.000000 1.845370 
# 
# From -- ./inp_files/61767.got.cif
#   From: 2010.05.17/outbox.cif.g08.bks.cpg/sg12_31_cif.got.tgz:61767.got - 2010.06.03 13:09:07.
