data_PCOD9208391
_publ_section_title
;
Structure prediction by ZEFSAII (Michael W. Deem and Ramdas Pophale) SiO2 
 PCOD9208391
Probable space group: C 2/M
;
_chemical_formula_sum "Si O2"
_cell_formula_units_Z 56
_cell_length_a 34.451313
_cell_length_b 8.730455
_cell_length_c 12.738435
_cell_angle_alpha 90.000000
_cell_angle_beta 60.314858
_cell_angle_gamma 90.000000
_cell_volume 3328.576422
_symmetry_space_group_name_H-M "C 2/M"
_symmetry_group_IT_number 12
_symmetry_cell_setting 'monoclinic'
loop_
_space_group_symop_operation_xyz
x,y,z
-x,y,-z
-x,-y,-z
x,-y,z
1/2+x,1/2+y,z
1/2-x,1/2+y,-z
1/2-x,1/2-y,-z
1/2+x,1/2-y,z
loop_
_atom_site_type_symbol
_atom_site_label
_atom_site_fract_x
_atom_site_fract_y
_atom_site_fract_z
Si Si1 0.893403 0.184706 0.115520
Si Si2 0.042535 0.183539 0.159517
Si Si3 0.946416 0.316996 0.242411
Si Si4 0.107201 0.815547 0.486755
Si Si5 0.951870 0.683597 0.615663
Si Si6 0.297016 0.684053 0.314735
Si Si7 0.702724 0.315996 0.440848
O O1 0.920339 0.261563 0.174350
O O2 0.841484 0.230405 0.193160
O O3 0.895530 0.000000 0.127923
O O4 0.917435 0.220872 0.974069
O O5 0.050071 0.250274 0.264947
O O6 0.996608 0.252592 0.176211
O O7 0.038174 0.000000 0.171298
O O8 0.947269 0.500000 0.247365
O O9 0.921310 0.250181 0.377984
O O10 0.085919 0.752541 0.408890
O O11 0.158743 0.769351 0.436147
O O12 0.104554 0.000000 0.492617
O O13 0.948545 0.500000 0.622789
O O14 0.000000 0.723220 0.500000
O O15 0.294070 0.500000 0.316633
O O16 0.303049 0.731303 0.429049
O O17 0.249999 0.750897 0.340058
O O18 0.704923 0.500000 0.436459
#
# Coordination Sequence:
#
# PCOD9208391 Si02
#       7
#     8   8   8   8   8   8   8
#     4  10  21  38  56  79 110 147 186 220 262 324
#     4  11  23  38  58  78 105 148 189 222 264 320
#     4  12  23  34  52  81 114 146 180 221 272 320
#     4  11  21  36  58  80 109 145 183 223 267 320
#     4  11  23  38  56  81 110 139 179 230 275 316
#     4   9  17  32  53  78 110 141 173 217 267 318
#     4   9  18  32  52  80 109 138 175 219 267 318
#
# _framework density 16.824010000000001
#
# number of rings (size 3 to 8) (size 9 to 14) (size 15 to 20)
#    0.000    1.571    2.857    3.000    0.000    5.143 
#    0.000    0.000    0.000    0.857    0.000    0.000 
#    0.000    0.000    0.000    0.000    0.000    0.000 
#
# Total GULP energy -156384.315452 kJ/mol
# GULP energy per Si atom -5585.154123 kJ/mol
# Density = 1.678572 g / cm^3
# Si number density = 16.824010 Si / 1000 Ang^3
#
#
#
# Elastic Constant Matrix: (Units=GPa)
#
#
# Indices 1 2 3 4 5 6 
#
# 1 124.4268 37.8779 64.1848 0.0000 -36.2935 0.0000
# 2 37.8779 42.6031 41.2049 0.0000 -10.2345 0.0000
# 3 64.1848 41.2049 117.6934 0.0000 -24.8140 0.0000
# 4 0.0000 0.0000 0.0000 15.1680 0.0000 -6.0106
# 5 -36.2935 -10.2345 -24.8140 0.0000 24.7362 0.0000
# 6 0.0000 0.0000 0.0000 -6.0106 0.0000 24.2221
#
#
#
# Elastic Compliance Matrix: (Units=1/GPa)
#
#
# Indices 1 2 3 4 5 6 
#
# 1 0.017772 -0.008616 -0.002447 0.000000 0.020056 0.000000
# 2 -0.008616 0.039822 -0.010697 0.000000 -0.006896 0.000000
# 3 -0.002447 -0.010697 0.015074 0.000000 0.007105 0.000000
# 4 0.000000 0.000000 0.000000 0.073118 0.000000 0.018144
# 5 0.020056 -0.006896 0.007105 0.000000 0.074128 0.000000
# 6 0.000000 0.000000 0.000000 0.018144 0.000000 0.045787
#
#
# Mechanical properties :
#
#
# Convention : Reuss Voigt Hill
#
# Bulk Modulus (GPa) = 34.30737 63.47317 48.89027
# Shear Modulus (GPa) = 15.67700 22.25563 18.96631
#
# Velocity S-wave (km/s) = 3.05589 3.64105 3.36123
# Velocity P-wave (km/s) = 5.73476 7.44889 6.64731
#
# Compressibility (1/GPa) = 0.02914826
#
# Stress axis : x y z
#
# Youngs Moduli (GPa) = 56.26792 25.11156 66.33809
#
# Poissons Ratio (x) = 0.21637 0.16233
# Poissons Ratio (y) = 0.48482 0.70962
# Poissons Ratio (z) = 0.13769 0.26862
#
# Static dielectric constant tensor:
#      x y z
#    x 1.553170 0.000000 -0.015430 
#    y 0.000000 1.566720 0.000000 
#    z -0.015430 0.000000 1.551410 
# 
# From -- ./inp_files/187221.got.cif
#   From: 2010.05.17/outbox.cif.g08.bks.cpg/sg12_94_cif.got.tgz:187221.got - 2010.06.03 13:09:07.
