data_PCOD9208945
_publ_section_title
;
Structure prediction by ZEFSAII (Michael W. Deem and Ramdas Pophale) SiO2 
 PCOD9208945
Probable space group: C 2/M
;
_chemical_formula_sum "Si O2"
_cell_formula_units_Z 64
_cell_length_a 20.462890
_cell_length_b 8.627801
_cell_length_c 29.641557
_cell_angle_alpha 90.000000
_cell_angle_beta 141.266369
_cell_angle_gamma 90.000000
_cell_volume 3274.422382
_symmetry_space_group_name_H-M "C 2/M"
_symmetry_group_IT_number 12
_symmetry_cell_setting 'monoclinic'
loop_
_space_group_symop_operation_xyz
x,y,z
-x,y,-z
-x,-y,-z
x,-y,z
1/2+x,1/2+y,z
1/2-x,1/2+y,-z
1/2-x,1/2-y,-z
1/2+x,1/2-y,z
loop_
_atom_site_type_symbol
_atom_site_label
_atom_site_fract_x
_atom_site_fract_y
_atom_site_fract_z
Si Si1 0.893451 0.685937 0.968011
Si Si2 0.866050 0.314095 0.056503
Si Si3 0.737338 0.813159 0.725552
Si Si4 0.935643 0.685976 0.779704
Si Si5 0.480424 0.189016 0.438217
Si Si6 0.976103 0.182687 0.705829
Si Si7 0.633879 0.814774 0.441562
Si Si8 0.699350 0.816141 0.810041
O O1 0.876555 0.500000 0.954924
O O2 0.902155 0.724421 0.025338
O O3 0.797466 0.772924 0.893471
O O4 0.000000 0.724888 0.000000
O O5 0.860719 0.500000 0.057524
O O6 0.545823 0.239998 0.860888
O O7 0.750000 0.250000 0.000000
O O8 0.632605 0.765136 0.642277
O O9 0.723017 0.775215 0.770647
O O10 0.839883 0.737677 0.759509
O O11 0.746569 0.000000 0.727098
O O12 0.937891 0.500000 0.778117
O O13 0.924979 0.755994 0.724252
O O14 0.500000 0.240996 0.500000
O O15 0.570395 0.239648 0.451729
O O16 0.481445 0.000000 0.438946
O O17 0.098125 0.225412 0.772405
O O18 0.929111 0.264497 0.636614
O O19 0.960566 0.000000 0.693696
O O20 0.750000 0.750000 0.500000
O O21 0.638433 0.000000 0.446049
O O22 0.677710 0.000000 0.800542
#
# Coordination Sequence:
#
# PCOD9208945 Si02
#       8
#     8   8   8   8   8   8   8   8
#     4  10  21  38  60  87 119 158 206 256 308 373
#     4  10  22  39  59  84 118 157 199 251 314 370
#     4  10  21  39  62  90 125 164 205 250 306 372
#     4  11  24  41  62  91 125 161 203 262 319 369
#     4   9  19  38  64  91 124 164 201 243 298 357
#     4  12  25  42  64  90 122 167 214 257 310 370
#     4  11  23  42  66  96 131 166 206 257 308 366
#     4  11  22  39  62  90 124 162 206 260 314 370
#
# _framework density 19.545432000000002
#
# number of rings (size 3 to 8) (size 9 to 14) (size 15 to 20)
#    0.000    1.500    1.250    3.750    1.750    5.750 
#    0.000    0.000    0.000    1.875    0.000    0.000 
#    0.000    0.000    0.000    0.000    0.000    0.000 
#
# Total GULP energy -178916.657740 kJ/mol
# GULP energy per Si atom -5591.145554 kJ/mol
# Density = 1.950095 g / cm^3
# Si number density = 19.545432 Si / 1000 Ang^3
#
#
#
# Elastic Constant Matrix: (Units=GPa)
#
#
# Indices 1 2 3 4 5 6 
#
# 1 99.7369 22.6677 18.8316 0.0000 0.1010 -0.0001
# 2 22.6677 32.9288 10.5149 0.0000 -0.2090 -0.0003
# 3 18.8316 10.5149 84.9233 0.0000 -1.6702 0.0000
# 4 0.0000 0.0000 0.0000 32.3776 0.0000 3.9052
# 5 0.1010 -0.2090 -1.6702 0.0000 39.6363 0.0000
# 6 -0.0001 -0.0003 0.0000 3.9052 0.0000 29.2771
#
#
#
# Elastic Compliance Matrix: (Units=1/GPa)
#
#
# Indices 1 2 3 4 5 6 
#
# 1 0.012124 -0.007796 -0.001726 0.000000 -0.000145 0.000000
# 2 -0.007796 0.036631 -0.002805 0.000000 0.000095 0.000000
# 3 -0.001726 -0.002805 0.012516 0.000000 0.000517 0.000000
# 4 0.000000 0.000000 0.000000 0.031391 0.000000 -0.004187
# 5 -0.000145 0.000095 0.000517 0.000000 0.025252 0.000000
# 6 0.000000 0.000000 0.000000 -0.004187 0.000000 0.034715
#
#
# Mechanical properties :
#
#
# Convention : Reuss Voigt Hill
#
# Bulk Modulus (GPa) = 27.30951 35.73525 31.52238
# Shear Modulus (GPa) = 26.38682 31.29651 28.84167
#
# Velocity S-wave (km/s) = 3.67825 4.00586 3.84555
# Velocity P-wave (km/s) = 5.66057 6.30228 5.99003
#
# Compressibility (1/GPa) = 0.03661728
#
# Stress axis : x y z
#
# Youngs Moduli (GPa) = 82.47940 27.29897 79.90047
#
# Poissons Ratio (x) = 0.21282 0.13792
# Poissons Ratio (y) = 0.64300 0.22412
# Poissons Ratio (z) = 0.14237 0.07657
#
# Static dielectric constant tensor:
#      x y z
#    x 1.675210 0.000000 0.006080 
#    y 0.000000 1.669280 0.000000 
#    z 0.006080 0.000000 1.670850 
# 
# From -- ./inp_files/378364.got.cif
#   From: 2010.05.17/outbox.cif.g08.bks.cpg/sg12_190_cif.got.tgz:378364.got - 2010.06.03 13:09:07.
