data_PCOD9208638
_publ_section_title
;
Structure prediction by ZEFSAII (Michael W. Deem and Ramdas Pophale) SiO2 
 PCOD9208638
Probable space group: C 2/M
;
_chemical_formula_sum "Si O2"
_cell_formula_units_Z 56
_cell_length_a 8.693669
_cell_length_b 19.506068
_cell_length_c 25.321283
_cell_angle_alpha 90.000000
_cell_angle_beta 133.367003
_cell_angle_gamma 90.000000
_cell_volume 3121.585103
_symmetry_space_group_name_H-M "C 2/M"
_symmetry_group_IT_number 12
_symmetry_cell_setting 'monoclinic'
loop_
_space_group_symop_operation_xyz
x,y,z
-x,y,-z
-x,-y,-z
x,-y,z
1/2+x,1/2+y,z
1/2-x,1/2+y,-z
1/2-x,1/2-y,-z
1/2+x,1/2-y,z
loop_
_atom_site_type_symbol
_atom_site_label
_atom_site_fract_x
_atom_site_fract_y
_atom_site_fract_z
Si Si1 0.316923 0.826717 0.500000
Si Si2 0.754271 0.580130 0.784874
Si Si3 0.114775 0.080130 0.215126
Si Si4 0.929267 0.079950 0.372684
Si Si5 0.061470 0.420050 0.372684
Si Si6 0.523275 0.826274 0.918743
Si Si7 0.848305 0.826274 0.081258
O O1 0.500000 0.822936 0.500000
O O2 0.250000 0.750000 0.500000
O O3 0.399231 0.869489 0.569732
O O4 0.120303 0.869489 0.430268
O O5 0.813350 0.500000 0.799469
O O6 0.551913 0.588342 0.775956
O O7 0.683219 0.597976 0.709060
O O8 0.942357 0.625299 0.853049
O O9 0.346981 0.097975 0.290941
O O10 0.030160 0.125299 0.146951
O O11 0.115472 0.000000 0.200531
O O12 0.758782 0.083882 0.379391
O O13 0.000646 0.000000 0.385632
O O14 0.041883 0.500000 0.385633
O O15 0.334445 0.823945 0.917223
O O16 0.567918 0.750000 0.908959
O O17 0.731418 0.850063 0.000000
#
# Coordination Sequence:
#
# PCOD9208638 Si02
#       7
#     8   8   8   8   8   8   8
#     4  12  25  40  59  83 111 141 177 220 265 314
#     4   9  18  33  53  77 104 136 177 221 263 310
#     4   9  18  33  53  77 104 136 177 221 263 310
#     4  10  21  38  59  82 110 143 178 217 264 318
#     4  10  21  38  59  82 110 143 178 217 264 318
#     4   9  18  32  50  73 102 137 175 216 264 316
#     4   9  18  32  50  73 102 137 175 216 264 316
#
# _framework density 17.939603999999999
#
# number of rings (size 3 to 8) (size 9 to 14) (size 15 to 20)
#    0.000    2.286    0.000    2.571    0.000    6.286 
#    0.000    5.714    0.000    0.000    0.000    8.000 
#    0.000    0.000    0.000    0.000    0.000    0.000 
#
# Total GULP energy -156281.212855 kJ/mol
# GULP energy per Si atom -5581.471888 kJ/mol
# Density = 1.789877 g / cm^3
# Si number density = 17.939604 Si / 1000 Ang^3
#
#
#
# Elastic Constant Matrix: (Units=GPa)
#
#
# Indices 1 2 3 4 5 6 
#
# 1 52.4849 50.5842 63.4066 0.0003 -4.0659 0.0000
# 2 50.5842 109.4870 121.1287 -0.0006 -5.2271 0.0001
# 3 63.4066 121.1287 183.1294 -0.0010 -5.6146 0.0001
# 4 0.0003 -0.0006 -0.0010 141.0134 -0.0002 -8.3729
# 5 -4.0659 -5.2271 -5.6146 -0.0002 22.0902 0.0000
# 6 0.0000 0.0001 0.0001 -8.3729 0.0000 28.0158
#
#
#
# Elastic Compliance Matrix: (Units=1/GPa)
#
#
# Indices 1 2 3 4 5 6 
#
# 1 0.035897 -0.010424 -0.005449 0.000000 0.002755 0.000000
# 2 -0.010424 0.037200 -0.020948 0.000000 0.001559 0.000000
# 3 -0.005449 -0.020948 0.021186 0.000000 -0.000575 0.000000
# 4 0.000000 0.000000 0.000000 0.007220 0.000000 0.002158
# 5 0.002755 0.001559 -0.000575 0.000000 0.045999 0.000000
# 6 0.000000 0.000000 0.000000 0.002158 0.000000 0.036339
#
#
# Mechanical properties :
#
#
# Convention : Reuss Voigt Hill
#
# Bulk Modulus (GPa) = 48.45345 90.59337 69.52341
# Shear Modulus (GPa) = 18.91340 45.55597 32.23469
#
# Velocity S-wave (km/s) = 3.25049 5.04472 4.24352
# Velocity P-wave (km/s) = 6.41525 9.19462 7.92769
#
# Compressibility (1/GPa) = 0.02063837
#
# Stress axis : x y z
#
# Youngs Moduli (GPa) = 27.85769 26.88195 47.20188
#
# Poissons Ratio (x) = 0.28023 0.25721
# Poissons Ratio (y) = 0.29040 0.98879
# Poissons Ratio (z) = 0.15180 0.56313
#
# Static dielectric constant tensor:
#      x y z
#    x 1.606960 0.000000 0.000130 
#    y 0.000000 1.585720 0.000000 
#    z 0.000130 0.000000 1.605180 
# 
# From -- ./inp_files/257191.got.cif
#   From: 2010.05.17/outbox.cif.g08.bks.cpg/sg12_129_cif.got.tgz:257191.got - 2010.06.03 13:09:07.
