data_PCOD9208738
_publ_section_title
;
Structure prediction by ZEFSAII (Michael W. Deem and Ramdas Pophale) SiO2 
 PCOD9208738
Probable space group: C 2/M
;
_chemical_formula_sum "Si O2"
_cell_formula_units_Z 64
_cell_length_a 25.501121
_cell_length_b 8.079657
_cell_length_c 15.138519
_cell_angle_alpha 90.000000
_cell_angle_beta 70.006713
_cell_angle_gamma 90.000000
_cell_volume 2931.162661
_symmetry_space_group_name_H-M "C 2/M"
_symmetry_group_IT_number 12
_symmetry_cell_setting 'monoclinic'
loop_
_space_group_symop_operation_xyz
x,y,z
-x,y,-z
-x,-y,-z
x,-y,z
1/2+x,1/2+y,z
1/2-x,1/2+y,-z
1/2-x,1/2-y,-z
1/2+x,1/2-y,z
loop_
_atom_site_type_symbol
_atom_site_label
_atom_site_fract_x
_atom_site_fract_y
_atom_site_fract_z
Si Si1 0.609915 0.691248 0.101848
Si Si2 0.608621 0.194692 0.572962
Si Si3 0.992467 0.200539 0.106528
Si Si4 0.010770 0.812952 0.388005
Si Si5 0.127303 0.698121 0.750503
Si Si6 0.174901 0.306793 0.902393
Si Si7 0.793619 0.692533 0.829912
Si Si8 0.130124 0.699744 0.364402
O O1 0.610286 0.500000 0.130385
O O2 0.546460 0.752941 0.132434
O O3 0.654087 0.789137 0.134955
O O4 0.634421 0.704593 0.988717
O O5 0.541494 0.213664 0.619614
O O6 0.634521 0.267339 0.647505
O O7 0.626298 0.264854 0.467146
O O8 0.621465 0.000000 0.561733
O O9 0.934836 0.263246 0.179430
O O10 0.992085 0.000000 0.107176
O O11 0.000000 0.253976 0.000000
O O12 0.073391 0.747319 0.345384
O O13 0.000000 0.814006 0.500000
O O14 0.007624 0.000000 0.355840
O O15 0.133030 0.500000 0.740290
O O16 0.168051 0.752831 0.805411
O O17 0.158693 0.500000 0.917459
O O18 0.239076 0.287780 0.892624
O O19 0.778462 0.500000 0.832078
O O20 0.816933 0.755807 0.722439
O O21 0.131181 0.500000 0.366401
#
# Coordination Sequence:
#
# PCOD9208738 Si02
#       8
#     8   8   8   8   8   8   8   8
#     4  11  23  40  62  87 117 152 187 232 288 345
#     4   9  18  35  56  80 112 151 190 228 276 336
#     4  10  21  38  59  86 119 152 185 229 285 341
#     4   9  17  29  48  76 109 143 180 226 278 327
#     4  10  22  37  59  87 116 152 192 233 280 338
#     4  11  23  41  61  84 114 150 191 239 289 340
#     4  11  24  40  60  85 112 150 197 242 285 335
#     4   9  19  36  56  78 110 150 192 233 277 333
#
# _framework density 21.834340000000001
#
# number of rings (size 3 to 8) (size 9 to 14) (size 15 to 20)
#    0.000    2.000    1.250    1.875    1.750    4.750 
#    0.000    0.625    0.000    0.000    0.000    0.000 
#    0.000    0.000    0.000    0.000    0.000    0.000 
#
# Total GULP energy -178730.754847 kJ/mol
# GULP energy per Si atom -5585.336089 kJ/mol
# Density = 2.178464 g / cm^3
# Si number density = 21.834340 Si / 1000 Ang^3
#
#
#
# Elastic Constant Matrix: (Units=GPa)
#
#
# Indices 1 2 3 4 5 6 
#
# 1 62.7717 -3.8231 -0.0780 0.0000 8.2894 0.0000
# 2 -3.8231 20.7673 -1.8716 0.0000 -0.5354 0.0000
# 3 -0.0780 -1.8716 56.0957 0.0000 17.7682 0.0000
# 4 0.0000 0.0000 0.0000 12.0953 0.0000 -3.4796
# 5 8.2894 -0.5354 17.7682 0.0000 33.4842 0.0000
# 6 0.0000 0.0000 0.0000 -3.4796 0.0000 10.8669
#
#
#
# Elastic Compliance Matrix: (Units=1/GPa)
#
#
# Indices 1 2 3 4 5 6 
#
# 1 0.016785 0.003115 0.001716 0.000000 -0.005016 0.000000
# 2 0.003115 0.048876 0.001962 0.000000 -0.001031 0.000000
# 3 0.001716 0.001962 0.021660 0.000000 -0.011887 0.000000
# 4 0.000000 0.000000 0.000000 0.091065 0.000000 0.029159
# 5 -0.005016 -0.001031 -0.011887 0.000000 0.037398 0.000000
# 6 0.000000 0.000000 0.000000 0.029159 0.000000 0.101359
#
#
# Mechanical properties :
#
#
# Convention : Reuss Voigt Hill
#
# Bulk Modulus (GPa) = 9.91011 14.23215 12.07113
# Shear Modulus (GPa) = 14.82829 20.98311 17.90570
#
# Velocity S-wave (km/s) = 2.60883 3.10339 2.86679
# Velocity P-wave (km/s) = 3.69098 4.40156 4.06184
#
# Compressibility (1/GPa) = 0.10090705
#
# Stress axis : x y z
#
# Youngs Moduli (GPa) = 59.57691 20.45978 46.16872
#
# Poissons Ratio (x) = -0.06374 -0.07923
# Poissons Ratio (y) = -0.18560 -0.09056
# Poissons Ratio (z) = -0.10224 -0.04013
#
# Static dielectric constant tensor:
#      x y z
#    x 1.771320 0.000000 0.043390 
#    y 0.000000 1.751830 0.000000 
#    z 0.043390 0.000000 1.867100 
# 
# From -- ./inp_files/243905.got.cif
#   From: 2010.05.17/outbox.cif.g08.bks.cpg/sg12_122_cif.got.tgz:243905.got - 2010.06.03 13:09:07.
