data_PCOD9208089
_publ_section_title
;
Structure prediction by ZEFSAII (Michael W. Deem and Ramdas Pophale) SiO2 
 PCOD9208089
Probable space group: C 2/M
;
_chemical_formula_sum "Si O2"
_cell_formula_units_Z 32
_cell_length_a 9.927415
_cell_length_b 27.115378
_cell_length_c 7.687709
_cell_angle_alpha 90.000000
_cell_angle_beta 42.735935
_cell_angle_gamma 90.000000
_cell_volume 1404.351192
_symmetry_space_group_name_H-M "C 2/M"
_symmetry_group_IT_number 12
_symmetry_cell_setting 'monoclinic'
loop_
_space_group_symop_operation_xyz
x,y,z
-x,y,-z
-x,-y,-z
x,-y,z
1/2+x,1/2+y,z
1/2-x,1/2+y,-z
1/2-x,1/2-y,-z
1/2+x,1/2-y,z
loop_
_atom_site_type_symbol
_atom_site_label
_atom_site_fract_x
_atom_site_fract_y
_atom_site_fract_z
Si Si1 0.946895 0.444261 0.754172
Si Si2 0.905137 0.286165 0.764081
Si Si3 0.783793 0.355329 0.368786
Si Si4 0.351798 0.630729 0.898421
O O1 0.972445 0.500000 0.793401
O O2 0.000000 0.443063 0.500000
O O3 0.086404 0.404123 0.715527
O O4 0.722919 0.424336 0.993872
O O5 0.000000 0.264623 0.500000
O O6 0.086885 0.307386 0.705482
O O7 0.750000 0.250000 0.000000
O O8 0.771464 0.334621 0.853782
O O9 0.724113 0.355145 0.223535
O O10 0.583927 0.359811 0.670987
#
# Coordination Sequence:
#
# PCOD9208089 Si02
#       4
#     8   8   8   8
#     4  10  21  37  61  93 128 167 214 262 314 379
#     4  11  25  43  65  94 124 166 212 265 321 380
#     4  10  22  42  65  90 130 166 211 264 322 378
#     4  10  22  42  63  91 128 168 209 264 319 380
#
# _framework density 22.786322999999999
#
# number of rings (size 3 to 8) (size 9 to 14) (size 15 to 20)
#    0.000    1.750    0.000    6.000    3.500    8.000 
#    4.500    5.000    0.000    0.000    0.000    0.000 
#    0.000    0.000    0.000    0.000    0.000    0.000 
#
# Total GULP energy -89511.494309 kJ/mol
# GULP energy per Si atom -5594.468394 kJ/mol
# Density = 2.273446 g / cm^3
# Si number density = 22.786323 Si / 1000 Ang^3
#
#
#
# Elastic Constant Matrix: (Units=GPa)
#
#
# Indices 1 2 3 4 5 6 
#
# 1 104.0400 50.9677 51.3878 0.0000 -7.5335 0.0000
# 2 50.9677 116.9708 34.5830 0.0000 -10.9475 0.0000
# 3 51.3878 34.5830 163.2916 0.0000 -26.3337 0.0000
# 4 0.0000 0.0000 0.0000 37.2027 0.0000 -3.4014
# 5 -7.5335 -10.9475 -26.3337 0.0000 41.7088 0.0000
# 6 0.0000 0.0000 0.0000 -3.4014 0.0000 17.0130
#
#
#
# Elastic Compliance Matrix: (Units=1/GPa)
#
#
# Indices 1 2 3 4 5 6 
#
# 1 0.013696 -0.005056 -0.003401 0.000000 -0.001000 0.000000
# 2 -0.005056 0.011051 -0.000478 0.000000 0.001686 0.000000
# 3 -0.003401 -0.000478 0.007990 0.000000 0.004305 0.000000
# 4 0.000000 0.000000 0.000000 0.027380 0.000000 0.005474
# 5 -0.001000 0.001686 0.004305 0.000000 0.026956 0.000000
# 6 0.000000 0.000000 0.000000 0.005474 0.000000 0.059873
#
#
# Mechanical properties :
#
#
# Convention : Reuss Voigt Hill
#
# Bulk Modulus (GPa) = 67.25661 73.13104 70.19383
# Shear Modulus (GPa) = 29.45175 35.67583 32.56379
#
# Velocity S-wave (km/s) = 3.59906 3.96115 3.78444
# Velocity P-wave (km/s) = 6.84480 7.28593 7.06881
#
# Compressibility (1/GPa) = 0.01486843
#
# Stress axis : x y z
#
# Youngs Moduli (GPa) = 73.01584 90.48886 125.16377
#
# Poissons Ratio (x) = 0.45750 0.42563
# Poissons Ratio (y) = 0.36916 0.05977
# Poissons Ratio (z) = 0.24830 0.04321
#
# Static dielectric constant tensor:
#      x y z
#    x 1.885370 0.000000 0.010960 
#    y 0.000000 1.867050 0.000000 
#    z 0.010960 0.000000 1.883980 
# 
# From -- ./inp_files/51815.got.cif
#   From: 2010.05.17/outbox.cif.g08.bks.cpg/sg12_26_cif.got.tgz:51815.got - 2010.06.03 13:09:07.
