data_PCOD9208439
_publ_section_title
;
Structure prediction by ZEFSAII (Michael W. Deem and Ramdas Pophale) SiO2 
 PCOD9208439
Probable space group: C 2/M
;
_chemical_formula_sum "Si O2"
_cell_formula_units_Z 48
_cell_length_a 18.783913
_cell_length_b 10.662742
_cell_length_c 26.676409
_cell_angle_alpha 90.000000
_cell_angle_beta 25.475725
_cell_angle_gamma 90.000000
_cell_volume 2298.162371
_symmetry_space_group_name_H-M "C 2/M"
_symmetry_group_IT_number 12
_symmetry_cell_setting 'monoclinic'
loop_
_space_group_symop_operation_xyz
x,y,z
-x,y,-z
-x,-y,-z
x,-y,z
1/2+x,1/2+y,z
1/2-x,1/2+y,-z
1/2-x,1/2-y,-z
1/2+x,1/2-y,z
loop_
_atom_site_type_symbol
_atom_site_label
_atom_site_fract_x
_atom_site_fract_y
_atom_site_fract_z
Si Si1 0.729660 0.852670 0.134142
Si Si2 0.299097 0.144704 0.735758
Si Si3 0.179814 0.142964 0.360769
Si Si4 0.362878 0.361987 0.947716
Si Si5 0.307656 0.134180 0.496085
Si Si6 0.920184 0.773387 0.274992
O O1 0.771271 0.818948 0.164650
O O2 0.573796 0.775134 0.211097
O O3 0.682786 0.000000 0.166206
O O4 0.874475 0.842642 0.000190
O O5 0.278668 0.253548 0.707778
O O6 0.497770 0.139702 0.617731
O O7 0.246695 0.000000 0.756154
O O8 0.317611 0.159132 0.316297
O O9 0.000000 0.168349 0.500000
O O10 0.178968 0.000000 0.342095
O O11 0.285721 0.500000 0.990553
O O12 0.514859 0.352330 0.813596
O O13 0.250000 0.250000 0.000000
O O14 0.250000 0.250000 0.500000
O O15 0.205595 0.147285 0.611987
O O16 0.269419 0.000000 0.495930
#
# Coordination Sequence:
#
# PCOD9208439 Si02
#       6
#     8   8   8   8   8   8
#     4   9  18  36  60  84 110 147 189 231 279 336
#     4  10  21  38  57  81 115 153 188 232 285 342
#     4  11  24  39  57  85 118 156 193 236 288 342
#     4   9  19  35  58  86 115 146 189 236 285 336
#     4  11  22  34  54  85 116 149 189 234 288 339
#     4  11  20  36  58  86 117 148 189 238 285 338
#
# _framework density 20.886251000000001
#
# number of rings (size 3 to 8) (size 9 to 14) (size 15 to 20)
#    0.000    1.833    3.333    1.000    0.000    3.667 
#    0.000    1.667    0.000    4.000    0.000    0.000 
#    0.000    0.000    0.000    0.000    0.000    0.000 
#
# Total GULP energy -133872.113010 kJ/mol
# GULP energy per Si atom -5578.004709 kJ/mol
# Density = 2.083871 g / cm^3
# Si number density = 20.886251 Si / 1000 Ang^3
#
#
#
# Elastic Constant Matrix: (Units=GPa)
#
#
# Indices 1 2 3 4 5 6 
#
# 1 84.0841 56.9706 24.5352 -0.0007 16.0562 0.0001
# 2 56.9706 136.0557 20.3424 -0.0034 22.7979 0.0003
# 3 24.5352 20.3424 92.6853 -0.0049 40.7175 0.0009
# 4 -0.0007 -0.0034 -0.0049 17.3570 0.0016 5.5588
# 5 16.0562 22.7979 40.7175 0.0016 32.4287 0.0001
# 6 0.0001 0.0003 0.0009 5.5588 0.0001 34.1940
#
#
#
# Elastic Compliance Matrix: (Units=1/GPa)
#
#
# Indices 1 2 3 4 5 6 
#
# 1 0.017432 -0.006856 -0.003201 -0.000002 0.000208 0.000000
# 2 -0.006856 0.011144 0.002943 0.000004 -0.008134 -0.000001
# 3 -0.003201 0.002943 0.024985 0.000011 -0.031855 -0.000002
# 4 -0.000002 0.000004 0.000011 0.060778 -0.000019 -0.009881
# 5 0.000208 -0.008134 -0.031855 -0.000019 0.076449 0.000004
# 6 0.000000 -0.000001 -0.000002 -0.009881 0.000004 0.030851
#
#
# Mechanical properties :
#
#
# Convention : Reuss Voigt Hill
#
# Bulk Modulus (GPa) = 25.42472 57.39128 41.40800
# Shear Modulus (GPa) = 20.08207 30.86107 25.47157
#
# Velocity S-wave (km/s) = 3.10417 3.84810 3.49598
# Velocity P-wave (km/s) = 5.00471 6.87615 6.01368
#
# Compressibility (1/GPa) = 0.03933180
#
# Stress axis : x y z
#
# Youngs Moduli (GPa) = 57.36499 89.73702 40.02432
#
# Poissons Ratio (x) = 0.61520 0.12813
# Poissons Ratio (y) = 0.39327 -0.11777
# Poissons Ratio (z) = 0.18365 -0.26406
#
# Static dielectric constant tensor:
#      x y z
#    x 1.762650 0.000000 0.009240 
#    y 0.000000 1.740820 0.000000 
#    z 0.009240 0.000000 1.801500 
# 
# From -- ./inp_files/310207.got.cif
#   From: 2010.05.17/outbox.cif.g08.bks.cpg/sg12_156_cif.got.tgz:310207.got - 2010.06.03 13:09:07.
