data_PCOD9208525
_publ_section_title
;
Structure prediction by ZEFSAII (Michael W. Deem and Ramdas Pophale) SiO2 
 PCOD9208525
Probable space group: C 2/M
;
_chemical_formula_sum "Si O2"
_cell_formula_units_Z 64
_cell_length_a 33.374713
_cell_length_b 20.368900
_cell_length_c 16.407436
_cell_angle_alpha 90.000000
_cell_angle_beta 162.067907
_cell_angle_gamma 90.000000
_cell_volume 3434.162429
_symmetry_space_group_name_H-M "C 2/M"
_symmetry_group_IT_number 12
_symmetry_cell_setting 'monoclinic'
loop_
_space_group_symop_operation_xyz
x,y,z
-x,y,-z
-x,-y,-z
x,-y,z
1/2+x,1/2+y,z
1/2-x,1/2+y,-z
1/2-x,1/2-y,-z
1/2+x,1/2-y,z
loop_
_atom_site_type_symbol
_atom_site_label
_atom_site_fract_x
_atom_site_fract_y
_atom_site_fract_z
Si Si1 0.555933 0.840589 0.388282
Si Si2 0.773606 0.076367 0.900776
Si Si3 0.817625 0.678174 0.706149
Si Si4 0.321138 0.356952 0.154837
Si Si5 0.434450 0.578324 0.530487
Si Si6 0.080986 0.276027 0.735163
Si Si7 0.180920 0.578733 0.146738
Si Si8 0.094885 0.718536 0.291446
O O1 0.665925 0.879692 0.649592
O O2 0.501479 0.784195 0.343048
O O3 0.611090 0.810141 0.412431
O O4 0.437583 0.888623 0.133085
O O5 0.749871 0.000000 0.838279
O O6 0.773224 0.089748 0.997219
O O7 0.920838 0.093720 0.158095
O O8 0.819068 0.613946 0.765107
O O9 0.850577 0.670745 0.674379
O O10 0.681297 0.716223 0.450399
O O11 0.939432 0.722879 0.974311
O O12 0.411233 0.387507 0.398592
O O13 0.374606 0.296671 0.203500
O O14 0.204633 0.322937 0.978978
O O15 0.431227 0.500000 0.510349
O O16 0.316997 0.594119 0.364352
O O17 0.000000 0.299682 0.500000
O O18 0.166792 0.500000 0.124218
#
# Coordination Sequence:
#
# PCOD9208525 Si02
#       8
#     8   8   8   8   8   8   8   8
#     4  11  22  39  57  85 115 149 191 231 292 333
#     4  11  23  38  57  80 112 150 193 237 279 335
#     4   9  19  38  60  91 116 145 190 225 285 339
#     4  11  22  37  57  78 111 150 193 238 285 332
#     4  10  21  38  58  82 111 152 195 235 283 339
#     4  11  22  37  53  81 115 145 188 239 285 337
#     4  10  21  38  61  85 116 151 191 234 278 341
#     4   9  20  37  61  86 119 150 181 234 279 345
#
# _framework density 18.636275999999999
#
# number of rings (size 3 to 8) (size 9 to 14) (size 15 to 20)
#    0.000    1.750    2.500    1.875    0.000    6.000 
#    0.000    6.250    0.000    0.000    0.000    9.625 
#    0.000    0.000    0.000    0.000    0.000    0.000 
#
# Total GULP energy -178568.357627 kJ/mol
# GULP energy per Si atom -5580.261176 kJ/mol
# Density = 1.859386 g / cm^3
# Si number density = 18.636276 Si / 1000 Ang^3
#
#
#
# Elastic Constant Matrix: (Units=GPa)
#
#
# Indices 1 2 3 4 5 6 
#
# 1 123.5851 34.6572 31.7672 0.0000 -1.8784 0.0000
# 2 34.6572 32.0419 16.5821 0.0000 7.9108 0.0000
# 3 31.7672 16.5821 56.8989 0.0000 9.2014 0.0000
# 4 0.0000 0.0000 0.0000 20.7902 0.0000 2.2094
# 5 -1.8784 7.9108 9.2014 0.0000 25.9303 0.0000
# 6 0.0000 0.0000 0.0000 2.2094 0.0000 22.7051
#
#
#
# Elastic Compliance Matrix: (Units=1/GPa)
#
#
# Indices 1 2 3 4 5 6 
#
# 1 0.013141 -0.013548 -0.004467 0.000000 0.006670 0.000000
# 2 -0.013548 0.052297 -0.005239 0.000000 -0.015077 0.000000
# 3 -0.004467 -0.005239 0.022692 0.000000 -0.006778 0.000000
# 4 0.000000 0.000000 0.000000 0.048602 0.000000 -0.004729
# 5 0.006670 -0.015077 -0.006778 0.000000 0.046053 0.000000
# 6 0.000000 0.000000 0.000000 -0.004729 0.000000 0.044503
#
#
# Mechanical properties :
#
#
# Convention : Reuss Voigt Hill
#
# Bulk Modulus (GPa) = 24.02595 42.05990 33.04293
# Shear Modulus (GPa) = 17.38111 22.51973 19.95042
#
# Velocity S-wave (km/s) = 3.05724 3.47995 3.27542
# Velocity P-wave (km/s) = 5.03809 6.22612 5.66334
#
# Compressibility (1/GPa) = 0.04162166
#
# Stress axis : x y z
#
# Youngs Moduli (GPa) = 76.10041 19.12160 44.06916
#
# Poissons Ratio (x) = 0.25907 0.19685
# Poissons Ratio (y) = 1.03103 0.23086
# Poissons Ratio (z) = 0.33992 0.10017
#
# Static dielectric constant tensor:
#      x y z
#    x 1.644920 0.000000 0.019340 
#    y 0.000000 1.622490 0.000000 
#    z 0.019340 0.000000 1.719270 
# 
# From -- ./inp_files/251937.got.cif
#   From: 2010.05.17/outbox.cif.g08.bks.cpg/sg12_126_cif.got.tgz:251937.got - 2010.06.03 13:09:07.
