data_PCOD9208405
_publ_section_title
;
Structure prediction by ZEFSAII (Michael W. Deem and Ramdas Pophale) SiO2 
 PCOD9208405
Probable space group: C 2/M
;
_chemical_formula_sum "Si O2"
_cell_formula_units_Z 44
_cell_length_a 17.336738
_cell_length_b 27.626947
_cell_length_c 5.614238
_cell_angle_alpha 90.000000
_cell_angle_beta 56.301887
_cell_angle_gamma 90.000000
_cell_volume 2237.175304
_symmetry_space_group_name_H-M "C 2/M"
_symmetry_group_IT_number 12
_symmetry_cell_setting 'monoclinic'
loop_
_space_group_symop_operation_xyz
x,y,z
-x,y,-z
-x,-y,-z
x,-y,z
1/2+x,1/2+y,z
1/2-x,1/2+y,-z
1/2-x,1/2-y,-z
1/2+x,1/2-y,z
loop_
_atom_site_type_symbol
_atom_site_label
_atom_site_fract_x
_atom_site_fract_y
_atom_site_fract_z
Si Si1 0.621147 0.367540 0.146929
Si Si2 0.000000 0.914969 0.000000
Si Si3 0.807998 0.781451 0.709783
Si Si4 0.718804 0.859648 0.517740
Si Si5 0.056252 0.699289 0.656477
Si Si6 0.181604 0.055470 0.428640
O O1 0.620374 0.318594 0.294319
O O2 0.650082 0.414029 0.252558
O O3 0.528621 0.381172 0.169070
O O4 0.701020 0.357289 0.816582
O O5 0.092223 0.942952 0.760396
O O6 0.742571 0.817541 0.669924
O O7 0.870537 0.743424 0.463352
O O8 0.750000 0.750000 0.000000
O O9 0.620809 0.848431 0.566637
O O10 0.735442 0.912151 0.605873
O O11 0.000000 0.700505 0.500000
O O12 0.000000 0.701644 0.000000
O O13 0.204490 0.000000 0.340236
#
# Coordination Sequence:
#
# PCOD9208405 Si02
#       6
#     8   4   8   8   8   8
#     4  10  22  37  61  87 131 168 211 257 322 385
#     4  10  21  38  56  96 130 160 206 270 319 392
#     4  11  22  42  64  88 131 177 221 258 321 390
#     4  10  23  43  63  88 128 166 211 269 321 384
#     4  12  27  41  66  99 131 175 226 273 324 383
#     4  10  22  40  65  88 122 166 212 262 331 399
#
# _framework density 19.667659
#
# number of rings (size 3 to 8) (size 9 to 14) (size 15 to 20)
#    0.000    1.455    1.818    2.455    5.091    8.727 
#    6.545    0.000    0.000    1.091    0.000    0.000 
#    0.000    0.000    0.000    0.000    0.000    0.000 
#
# Total GULP energy -122797.182046 kJ/mol
# GULP energy per Si atom -5581.690093 kJ/mol
# Density = 1.962289 g / cm^3
# Si number density = 19.667659 Si / 1000 Ang^3
#
#
#
# Elastic Constant Matrix: (Units=GPa)
#
#
# Indices 1 2 3 4 5 6 
#
# 1 60.7020 52.2440 4.5837 0.0000 8.2496 0.0000
# 2 52.2440 159.5973 35.6615 0.0000 3.9439 0.0000
# 3 4.5837 35.6615 79.8453 0.0000 -1.1973 0.0000
# 4 0.0000 0.0000 0.0000 26.8608 0.0000 -1.0636
# 5 8.2496 3.9439 -1.1973 0.0000 26.2576 0.0000
# 6 0.0000 0.0000 0.0000 -1.0636 0.0000 4.8262
#
#
#
# Elastic Compliance Matrix: (Units=1/GPa)
#
#
# Indices 1 2 3 4 5 6 
#
# 1 0.024300 -0.008294 0.002215 0.000000 -0.006288 0.000000
# 2 -0.008294 0.009829 -0.003899 0.000000 0.000952 0.000000
# 3 0.002215 -0.003899 0.014147 0.000000 0.000535 0.000000
# 4 0.000000 0.000000 0.000000 0.037557 0.000000 0.008277
# 5 -0.006288 0.000952 0.000535 0.000000 0.039941 0.000000
# 6 0.000000 0.000000 0.000000 0.008277 0.000000 0.209028
#
#
# Mechanical properties :
#
#
# Convention : Reuss Voigt Hill
#
# Bulk Modulus (GPa) = 35.31290 53.90257 44.60774
# Shear Modulus (GPa) = 13.72883 25.43260 19.58072
#
# Velocity S-wave (km/s) = 2.64491 3.59990 3.15870
# Velocity P-wave (km/s) = 5.22697 6.68919 6.00277
#
# Compressibility (1/GPa) = 0.02831827
#
# Stress axis : x y z
#
# Youngs Moduli (GPa) = 41.15303 101.74395 70.68810
#
# Poissons Ratio (x) = 0.84387 -0.15658
# Poissons Ratio (y) = 0.34132 0.27564
# Poissons Ratio (z) = -0.09116 0.39674
#
# Static dielectric constant tensor:
#      x y z
#    x 1.755040 0.000000 0.039390 
#    y 0.000000 1.663300 0.000000 
#    z 0.039390 0.000000 1.739200 
# 
# From -- ./inp_files/12124.got.cif
#   From: 2010.05.17/outbox.cif.g08.bks.cpg/sg12_7_cif.got.tgz:12124.got - 2010.06.03 13:09:07.
