data_PCOD9208244
_publ_section_title
;
Structure prediction by ZEFSAII (Michael W. Deem and Ramdas Pophale) SiO2 
 PCOD9208244
Probable space group: C 2/M
;
_chemical_formula_sum "Si O2"
_cell_formula_units_Z 48
_cell_length_a 19.309994
_cell_length_b 13.430769
_cell_length_c 12.355412
_cell_angle_alpha 90.000000
_cell_angle_beta 140.704202
_cell_angle_gamma 90.000000
_cell_volume 2029.393559
_symmetry_space_group_name_H-M "C 2/M"
_symmetry_group_IT_number 12
_symmetry_cell_setting 'monoclinic'
loop_
_space_group_symop_operation_xyz
x,y,z
-x,y,-z
-x,-y,-z
x,-y,z
1/2+x,1/2+y,z
1/2-x,1/2+y,-z
1/2-x,1/2-y,-z
1/2+x,1/2-y,z
loop_
_atom_site_type_symbol
_atom_site_label
_atom_site_fract_x
_atom_site_fract_y
_atom_site_fract_z
Si Si1 0.016267 0.390888 0.772219
Si Si2 0.609763 0.804797 0.671458
Si Si3 0.235936 0.110180 0.899132
Si Si4 0.227735 0.197340 0.293258
Si Si5 0.107104 0.889020 0.959819
Si Si6 0.116524 0.808099 0.377987
O O1 0.969808 0.500000 0.733224
O O2 0.060323 0.374752 0.703345
O O3 0.932305 0.303824 0.698219
O O4 0.135444 0.384449 0.972764
O O5 0.500000 0.751550 0.500000
O O6 0.682968 0.711771 0.795500
O O7 0.675838 0.858421 0.655648
O O8 0.205034 0.113250 0.990171
O O9 0.197038 0.000000 0.815553
O O10 0.180043 0.157816 0.347659
O O11 0.296027 0.295565 0.418525
O O12 0.130596 0.186617 0.087072
O O13 0.997044 0.868166 0.757554
O O14 0.100646 0.000000 0.998248
#
# Coordination Sequence:
#
# PCOD9208244 Si02
#       6
#     8   8   8   8   8   8
#     4  11  22  39  64  91 126 170 216 266 324 388
#     4  12  21  39  64  95 124 167 214 273 330 392
#     4  10  21  37  63  95 126 162 214 276 329 388
#     4  11  24  39  65  94 134 175 220 266 336 399
#     4  11  22  41  70 101 129 170 226 281 335 392
#     4  11  24  44  59  95 142 177 210 277 340 398
#
# _framework density 23.652387000000001
#
# number of rings (size 3 to 8) (size 9 to 14) (size 15 to 20)
#    0.000    1.000    5.000    2.000    0.000    2.667 
#    0.000    4.167    0.000    5.000    0.000    0.000 
#    0.000    0.000    0.000    0.000    0.000    0.000 
#
# Total GULP energy -133618.318201 kJ/mol
# GULP energy per Si atom -5567.429925 kJ/mol
# Density = 2.359855 g / cm^3
# Si number density = 23.652387 Si / 1000 Ang^3
#
#
#
# Elastic Constant Matrix: (Units=GPa)
#
#
# Indices 1 2 3 4 5 6 
#
# 1 63.9337 6.5440 2.3545 0.0000 12.3687 0.0000
# 2 6.5440 112.5122 30.9708 0.0000 -0.8744 0.0000
# 3 2.3545 30.9708 82.3993 0.0000 2.5661 0.0000
# 4 0.0000 0.0000 0.0000 4.7399 0.0000 4.9192
# 5 12.3687 -0.8744 2.5661 0.0000 32.7431 0.0000
# 6 0.0000 0.0000 0.0000 4.9192 0.0000 3.7151
#
#
#
# Elastic Compliance Matrix: (Units=1/GPa)
#
#
# Indices 1 2 3 4 5 6 
#
# 1 0.016996 -0.001071 0.000118 0.000000 -0.006458 0.000000
# 2 -0.001071 0.009991 -0.003755 0.000000 0.000966 0.000000
# 3 0.000118 -0.003755 0.013582 0.000000 -0.001209 0.000000
# 4 0.000000 0.000000 0.000000 -0.563855 0.000000 0.746591
# 5 -0.006458 0.000966 -0.001209 0.000000 0.033101 0.000000
# 6 0.000000 0.000000 0.000000 0.746591 0.000000 -0.719380
#
#
# Mechanical properties :
#
#
# Convention : Reuss Voigt Hill
#
# Bulk Modulus (GPa) = 32.09975 37.62044 34.86009
# Shear Modulus (GPa) = -4.20251 22.83801 9.31775
#
# Velocity S-wave (km/s) = -1.33441 3.11073 1.98696
# Velocity P-wave (km/s) = 3.35063 5.37050 4.47599
#
# Compressibility (1/GPa) = 0.03115289
#
# Stress axis : x y z
#
# Youngs Moduli (GPa) = 58.83784 100.08693 73.62901
#
# Poissons Ratio (x) = 0.10722 -0.00870
# Poissons Ratio (y) = 0.06303 0.27646
# Poissons Ratio (z) = -0.00695 0.37581
#
# Static dielectric constant tensor:
#      x y z
#    x 1.909980 0.000000 -0.021470 
#    y 0.000000 1.880300 0.000000 
#    z -0.021470 0.000000 2.130060 
# 
# From -- ./inp_files/167650.got.cif
#   From: 2010.05.17/outbox.cif.g08.bks.cpg/sg12_84_cif.got.tgz:167650.got - 2010.06.03 13:09:07.
