data_PCOD9208163
_publ_section_title
;
Structure prediction by ZEFSAII (Michael W. Deem and Ramdas Pophale) SiO2 
 PCOD9208163
Probable space group: C 2/M
;
_chemical_formula_sum "Si O2"
_cell_formula_units_Z 48
_cell_length_a 18.509952
_cell_length_b 14.471348
_cell_length_c 9.037745
_cell_angle_alpha 90.000000
_cell_angle_beta 92.466761
_cell_angle_gamma 90.000000
_cell_volume 2418.642843
_symmetry_space_group_name_H-M "C 2/M"
_symmetry_group_IT_number 12
_symmetry_cell_setting 'monoclinic'
loop_
_space_group_symop_operation_xyz
x,y,z
-x,y,-z
-x,-y,-z
x,-y,z
1/2+x,1/2+y,z
1/2-x,1/2+y,-z
1/2-x,1/2-y,-z
1/2+x,1/2-y,z
loop_
_atom_site_type_symbol
_atom_site_label
_atom_site_fract_x
_atom_site_fract_y
_atom_site_fract_z
Si Si1 0.628566 0.600868 0.353611
Si Si2 0.715528 0.165402 0.587307
Si Si3 0.675640 0.226818 0.912259
Si Si4 0.574016 0.198274 0.418892
Si Si5 0.926799 0.392706 0.899284
Si Si6 0.085906 0.105134 0.005392
O O1 0.598686 0.500000 0.395605
O O2 0.714710 0.600733 0.390219
O O3 0.593889 0.692108 0.423981
O O4 0.615067 0.611468 0.176180
O O5 0.750000 0.250000 0.500000
O O6 0.691481 0.195492 0.748288
O O7 0.641690 0.142200 0.494904
O O8 0.625404 0.317580 0.913233
O O9 0.750000 0.250000 0.000000
O O10 0.635868 0.148406 0.003700
O O11 0.500000 0.181992 0.500000
O O12 0.566862 0.166666 0.248961
O O13 0.914258 0.500000 0.861932
O O14 0.000000 0.385479 0.000000
O O15 0.098659 0.000000 0.954043
O O16 0.000000 0.121286 0.000000
#
# Coordination Sequence:
#
# PCOD9208163 Si02
#       6
#     8   8   8   8   8   8
#     4  10  21  40  62  91 129 168 208 254 315 382
#     4  10  22  40  60  90 129 170 208 250 320 379
#     4  12  21  39  67  92 124 164 213 267 309 374
#     4  11  23  41  66  96 129 167 209 266 325 383
#     4  11  25  44  66  93 122 165 220 267 317 378
#     4  10  21  37  62  93 125 161 207 259 311 367
#
# _framework density 19.845841
#
# number of rings (size 3 to 8) (size 9 to 14) (size 15 to 20)
#    0.000    1.333    3.333    2.500    2.333    2.667 
#    0.000    3.333    0.000    0.000    0.000    0.000 
#    0.000    0.000    0.000    0.000    0.000    0.000 
#
# Total GULP energy -134044.230616 kJ/mol
# GULP energy per Si atom -5585.176276 kJ/mol
# Density = 1.980067 g / cm^3
# Si number density = 19.845841 Si / 1000 Ang^3
#
#
#
# Elastic Constant Matrix: (Units=GPa)
#
#
# Indices 1 2 3 4 5 6 
#
# 1 111.3392 35.3941 29.5058 0.0000 3.6795 0.0000
# 2 35.3941 97.0280 16.8912 0.0000 -0.0916 0.0000
# 3 29.5058 16.8912 93.9143 0.0000 -3.8504 0.0000
# 4 0.0000 0.0000 0.0000 -13.4366 0.0000 12.1452
# 5 3.6795 -0.0916 -3.8504 0.0000 34.0143 0.0000
# 6 0.0000 0.0000 0.0000 12.1452 0.0000 21.1475
#
#
#
# Elastic Compliance Matrix: (Units=1/GPa)
#
#
# Indices 1 2 3 4 5 6 
#
# 1 0.010895 -0.003478 -0.002859 0.000000 -0.001512 0.000000
# 2 -0.003478 0.011751 -0.001009 0.000000 0.000294 0.000000
# 3 -0.002859 -0.001009 0.011795 0.000000 0.001642 0.000000
# 4 0.000000 0.000000 0.000000 -0.048991 0.000000 0.028136
# 5 -0.001512 0.000294 0.001642 0.000000 0.029750 0.000000
# 6 0.000000 0.000000 0.000000 0.028136 0.000000 0.031128
#
#
# Mechanical properties :
#
#
# Convention : Reuss Voigt Hill
#
# Bulk Modulus (GPa) = 50.63609 51.76264 51.19936
# Shear Modulus (GPa) = 73.96240 23.04441 48.50340
#
# Velocity S-wave (km/s) = 6.11141 3.41129 4.94905
# Velocity P-wave (km/s) = 8.68155 6.45406 7.64932
#
# Compressibility (1/GPa) = 0.01974876
#
# Stress axis : x y z
#
# Youngs Moduli (GPa) = 91.78622 85.10011 84.78094
#
# Poissons Ratio (x) = 0.29597 0.24242
# Poissons Ratio (y) = 0.31922 0.08552
# Poissons Ratio (z) = 0.26245 0.08585
#
# Static dielectric constant tensor:
#      x y z
#    x 1.687480 0.000000 0.036510 
#    y 0.000000 1.710060 0.000000 
#    z 0.036510 0.000000 1.657940 
# 
# From -- ./inp_files/73582.got.cif
#   From: 2010.05.17/outbox.cif.g08.bks.cpg/sg12_37_cif.got.tgz:73582.got - 2010.06.03 13:09:07.
