data_PCOD9208607
_publ_section_title
;
Structure prediction by ZEFSAII (Michael W. Deem and Ramdas Pophale) SiO2 
 PCOD9208607
Probable space group: C 2/M
;
_chemical_formula_sum "Si O2"
_cell_formula_units_Z 64
_cell_length_a 15.604517
_cell_length_b 9.208772
_cell_length_c 26.156097
_cell_angle_alpha 90.000000
_cell_angle_beta 126.812019
_cell_angle_gamma 90.000000
_cell_volume 3009.148813
_symmetry_space_group_name_H-M "C 2/M"
_symmetry_group_IT_number 12
_symmetry_cell_setting 'monoclinic'
loop_
_space_group_symop_operation_xyz
x,y,z
-x,y,-z
-x,-y,-z
x,-y,z
1/2+x,1/2+y,z
1/2-x,1/2+y,-z
1/2-x,1/2-y,-z
1/2+x,1/2-y,z
loop_
_atom_site_type_symbol
_atom_site_label
_atom_site_fract_x
_atom_site_fract_y
_atom_site_fract_z
Si Si1 0.702446 0.836118 0.850296
Si Si2 0.069208 0.333144 0.905223
Si Si3 0.067328 0.833179 0.602538
Si Si4 0.125731 0.335526 0.034836
Si Si5 0.358172 0.827175 0.556640
Si Si6 0.878301 0.827353 0.782362
Si Si7 0.671597 0.666197 0.749278
Si Si8 0.192739 0.673441 0.344000
O O1 0.648897 0.839493 0.886399
O O2 0.815387 0.760963 0.902348
O O3 0.632258 0.737501 0.787405
O O4 0.711354 0.000000 0.834113
O O5 0.031473 0.500000 0.902035
O O6 0.973558 0.234386 0.850939
O O7 0.128596 0.281106 0.977486
O O8 0.095975 0.832627 0.673218
O O9 0.179137 0.787852 0.614684
O O10 0.960589 0.736936 0.562892
O O11 0.044284 0.000000 0.578883
O O12 0.170000 0.500000 0.053021
O O13 0.000000 0.339861 0.000000
O O14 0.250000 0.750000 0.500000
O O15 0.357013 0.802120 0.617865
O O16 0.353002 0.000000 0.546971
O O17 0.770493 0.767952 0.769795
O O18 0.870339 0.757552 0.722839
O O19 0.881570 0.000000 0.780285
O O20 0.705383 0.500000 0.769646
O O21 0.188854 0.500000 0.331356
#
# Coordination Sequence:
#
# PCOD9208607 Si02
#       8
#     8   8   8   8   8   8   8   8
#     4  11  23  36  55  84 116 150 193 247 296 348
#     4  10  22  38  55  81 118 155 191 238 299 359
#     4   9  20  40  64  89 121 161 208 254 303 363
#     4  10  21  38  59  78 104 151 200 241 295 361
#     4  11  24  41  64  93 127 165 207 252 303 361
#     4  11  22  36  60  91 118 149 196 248 295 351
#     4  10  21  39  61  84 117 157 195 240 300 363
#     4   9  21  42  64  88 124 171 207 246 309 373
#
# _framework density 21.268473
#
# number of rings (size 3 to 8) (size 9 to 14) (size 15 to 20)
#    0.000    1.875    0.000    4.125    1.750    6.750 
#    0.000    2.500    0.000    0.000    0.000    0.000 
#    0.000    0.000    0.000    0.000    0.000    0.000 
#
# Total GULP energy -178696.405355 kJ/mol
# GULP energy per Si atom -5584.262667 kJ/mol
# Density = 2.122007 g / cm^3
# Si number density = 21.268473 Si / 1000 Ang^3
#
#
#
# Elastic Constant Matrix: (Units=GPa)
#
#
# Indices 1 2 3 4 5 6 
#
# 1 49.3487 14.7830 -1.7963 0.0000 9.4851 0.0000
# 2 14.7830 84.7578 31.4940 0.0000 9.4694 0.0000
# 3 -1.7963 31.4940 45.4477 0.0000 3.5543 0.0000
# 4 0.0000 0.0000 0.0000 27.7955 0.0000 -1.3913
# 5 9.4851 9.4694 3.5543 0.0000 33.7182 0.0000
# 6 0.0000 0.0000 0.0000 -1.3913 0.0000 23.2722
#
#
#
# Elastic Compliance Matrix: (Units=1/GPa)
#
#
# Indices 1 2 3 4 5 6 
#
# 1 0.023088 -0.005263 0.004993 0.000000 -0.005543 0.000000
# 2 -0.005263 0.017469 -0.012146 0.000000 -0.002145 0.000000
# 3 0.004993 -0.012146 0.030714 0.000000 -0.001231 0.000000
# 4 0.000000 0.000000 0.000000 0.036085 0.000000 0.002157
# 5 -0.005543 -0.002145 -0.001231 0.000000 0.031949 0.000000
# 6 0.000000 0.000000 0.000000 0.002157 0.000000 0.043099
#
#
# Mechanical properties :
#
#
# Convention : Reuss Voigt Hill
#
# Bulk Modulus (GPa) = 21.53361 29.83509 25.68435
# Shear Modulus (GPa) = 22.45033 25.96207 24.20620
#
# Velocity S-wave (km/s) = 3.25248 3.49762 3.37727
# Velocity P-wave (km/s) = 4.92458 5.51085 5.22594
#
# Compressibility (1/GPa) = 0.04643902
#
# Stress axis : x y z
#
# Youngs Moduli (GPa) = 43.31321 57.24425 32.55887
#
# Poissons Ratio (x) = 0.30127 -0.16257
# Poissons Ratio (y) = 0.22795 0.39545
# Poissons Ratio (z) = -0.21626 0.69528
#
# Static dielectric constant tensor:
#      x y z
#    x 1.839800 0.000000 -0.035340 
#    y 0.000000 1.746400 0.000000 
#    z -0.035340 0.000000 1.772710 
# 
# From -- ./inp_files/375662.got.cif
#   From: 2010.05.17/outbox.cif.g08.bks.cpg/sg12_188_cif.got.tgz:375662.got - 2010.06.03 13:09:07.
