data_PCOD9208631
_publ_section_title
;
Structure prediction by ZEFSAII (Michael W. Deem and Ramdas Pophale) SiO2 
 PCOD9208631
Probable space group: C 2/M
;
_chemical_formula_sum "Si O2"
_cell_formula_units_Z 40
_cell_length_a 16.076911
_cell_length_b 13.581596
_cell_length_c 9.758675
_cell_angle_alpha 90.000000
_cell_angle_beta 92.407851
_cell_angle_gamma 90.000000
_cell_volume 2128.926434
_symmetry_space_group_name_H-M "C 2/M"
_symmetry_group_IT_number 12
_symmetry_cell_setting 'monoclinic'
loop_
_space_group_symop_operation_xyz
x,y,z
-x,y,-z
-x,-y,-z
x,-y,z
1/2+x,1/2+y,z
1/2-x,1/2+y,-z
1/2-x,1/2-y,-z
1/2+x,1/2-y,z
loop_
_atom_site_type_symbol
_atom_site_label
_atom_site_fract_x
_atom_site_fract_y
_atom_site_fract_z
Si Si1 0.755492 0.614514 0.618249
Si Si2 0.279134 0.776366 0.155270
Si Si3 0.047923 0.614317 0.864939
Si Si4 0.938411 0.695451 0.622589
Si Si5 0.150948 0.887068 0.330488
O O1 0.757609 0.500000 0.658148
O O2 0.727127 0.683435 0.741798
O O3 0.848111 0.649933 0.583209
O O4 0.696558 0.624237 0.481449
O O5 0.371608 0.819520 0.155495
O O6 0.217443 0.856421 0.219432
O O7 0.250000 0.750000 0.000000
O O8 0.073182 0.500000 0.876557
O O9 0.982284 0.629696 0.739622
O O10 0.000000 0.642117 0.000000
O O11 0.921014 0.805446 0.676920
O O12 0.000000 0.699658 0.500000
O O13 0.124336 0.000000 0.313852
#
# Coordination Sequence:
#
# PCOD9208631 Si02
#       5
#     8   8   8   8   8
#     4  10  21  38  59  84 114 151 193 233 277 334
#     4  11  22  38  60  83 113 149 190 235 279 337
#     4  11  23  38  57  83 114 146 182 230 286 336
#     4  11  21  35  57  86 116 143 183 235 282 329
#     4  10  21  38  59  81 112 154 193 229 276 337
#
# _framework density 18.788813000000001
#
# number of rings (size 3 to 8) (size 9 to 14) (size 15 to 20)
#    0.000    1.400    0.000    8.400    0.000    6.800 
#    0.000    1.000    0.000    2.400    0.000    0.000 
#    0.000    0.000    0.000    0.000    0.000    0.000 
#
# Total GULP energy -111779.305578 kJ/mol
# GULP energy per Si atom -5588.965279 kJ/mol
# Density = 1.874605 g / cm^3
# Si number density = 18.788813 Si / 1000 Ang^3
#
#
#
# Elastic Constant Matrix: (Units=GPa)
#
#
# Indices 1 2 3 4 5 6 
#
# 1 73.0306 28.3011 20.4008 0.0000 -30.2243 0.0000
# 2 28.3011 84.9181 23.5111 0.0000 -25.9934 0.0000
# 3 20.4008 23.5111 74.7380 0.0000 -26.1799 0.0000
# 4 0.0000 0.0000 0.0000 20.1917 0.0000 3.1857
# 5 -30.2243 -25.9934 -26.1799 0.0000 30.7858 0.0000
# 6 0.0000 0.0000 0.0000 3.1857 0.0000 20.5797
#
#
#
# Elastic Compliance Matrix: (Units=1/GPa)
#
#
# Indices 1 2 3 4 5 6 
#
# 1 0.023427 -0.001088 0.002396 0.000000 0.024118 0.000000
# 2 -0.001088 0.015940 -0.000537 0.000000 0.011934 0.000000
# 3 0.002396 -0.000537 0.019313 0.000000 0.018322 0.000000
# 4 0.000000 0.000000 0.000000 0.050765 0.000000 -0.007858
# 5 0.024118 0.011934 0.018322 0.000000 0.081818 0.000000
# 6 0.000000 0.000000 0.000000 -0.007858 0.000000 0.049808
#
#
# Mechanical properties :
#
#
# Convention : Reuss Voigt Hill
#
# Bulk Modulus (GPa) = 16.60546 41.90142 29.25344
# Shear Modulus (GPa) = 19.26007 25.00969 22.13488
#
# Velocity S-wave (km/s) = 3.20516 3.65238 3.43605
# Velocity P-wave (km/s) = 4.74916 6.33531 5.59869
#
# Compressibility (1/GPa) = 0.06022116
#
# Stress axis : x y z
#
# Youngs Moduli (GPa) = 42.68600 62.73368 51.77813
#
# Poissons Ratio (x) = 0.06828 -0.12406
# Poissons Ratio (y) = 0.04646 0.02782
# Poissons Ratio (z) = -0.10228 0.03370
#
# Static dielectric constant tensor:
#      x y z
#    x 1.618600 0.000000 0.020560 
#    y 0.000000 1.646510 0.000000 
#    z 0.020560 0.000000 1.607100 
# 
# From -- ./inp_files/59083.got.cif
#   From: 2010.05.17/outbox.cif.g08.bks.cpg/sg12_30_cif.got.tgz:59083.got - 2010.06.03 13:09:07.
