data_PCOD9208820
_publ_section_title
;
Structure prediction by ZEFSAII (Michael W. Deem and Ramdas Pophale) SiO2 
 PCOD9208820
Probable space group: C 2/M
;
_chemical_formula_sum "Si O2"
_cell_formula_units_Z 44
_cell_length_a 7.974171
_cell_length_b 34.544506
_cell_length_c 7.708020
_cell_angle_alpha 90.000000
_cell_angle_beta 74.829680
_cell_angle_gamma 90.000000
_cell_volume 2049.288774
_symmetry_space_group_name_H-M "C 2/M"
_symmetry_group_IT_number 12
_symmetry_cell_setting 'monoclinic'
loop_
_space_group_symop_operation_xyz
x,y,z
-x,y,-z
-x,-y,-z
x,-y,z
1/2+x,1/2+y,z
1/2-x,1/2+y,-z
1/2-x,1/2-y,-z
1/2+x,1/2-y,z
loop_
_atom_site_type_symbol
_atom_site_label
_atom_site_fract_x
_atom_site_fract_y
_atom_site_fract_z
Si Si1 0.876122 0.131347 0.772097
Si Si2 0.138093 0.293582 0.201531
Si Si3 0.760223 0.212401 0.789532
Si Si4 0.000000 0.933082 0.500000
Si Si5 0.240353 0.375835 0.173160
Si Si6 0.183334 0.541975 0.348817
O O1 0.852207 0.173742 0.697635
O O2 0.874684 0.095975 0.641152
O O3 0.063940 0.128003 0.809599
O O4 0.738317 0.127021 0.964866
O O5 0.175913 0.254026 0.292781
O O6 0.154312 0.336750 0.270975
O O7 0.941505 0.290157 0.195388
O O8 0.270088 0.290621 0.999200
O O9 0.860754 0.955279 0.417359
O O10 0.178523 0.418191 0.243130
O O11 0.193351 0.500000 0.252915
O O12 0.000000 0.541600 0.500000
#
# Coordination Sequence:
#
# PCOD9208820 Si02
#       6
#     8   8   8   4   8   8
#     4   9  18  33  54  80 109 146 182 227 271 325
#     4   9  16  26  46  75 106 141 181 224 263 320
#     4   9  16  26  45  75 107 143 180 219 266 315
#     4  10  21  38  60  82 114 146 182 226 279 340
#     4   9  18  34  55  80 108 143 186 230 274 324
#     4  10  22  40  61  83 111 145 183 228 282 339
#
# _framework density 21.470865
#
# number of rings (size 3 to 8) (size 9 to 14) (size 15 to 20)
#    0.000    2.727    0.000    1.364    2.545    4.364 
#    0.000    8.182    2.000    5.455    0.000    0.000 
#    0.000    0.000    0.000    0.000    0.000    0.000 
#
# Total GULP energy -122537.582530 kJ/mol
# GULP energy per Si atom -5569.890115 kJ/mol
# Density = 2.142200 g / cm^3
# Si number density = 21.470865 Si / 1000 Ang^3
#
#
#
# Elastic Constant Matrix: (Units=GPa)
#
#
# Indices 1 2 3 4 5 6 
#
# 1 36.7569 34.0038 4.7413 0.0000 -10.7443 0.0000
# 2 34.0038 242.0651 34.4646 0.0000 -8.7874 0.0000
# 3 4.7413 34.4646 23.6594 0.0000 -4.5054 0.0000
# 4 0.0000 0.0000 0.0000 -15.6372 0.0000 14.5356
# 5 -10.7443 -8.7874 -4.5054 0.0000 13.1647 0.0000
# 6 0.0000 0.0000 0.0000 14.5356 0.0000 24.2000
#
#
#
# Elastic Compliance Matrix: (Units=1/GPa)
#
#
# Indices 1 2 3 4 5 6 
#
# 1 0.040669 -0.005378 0.005692 0.000000 0.031550 0.000000
# 2 -0.005378 0.005934 -0.008181 0.000000 -0.003228 0.000000
# 3 0.005692 -0.008181 0.056575 0.000000 0.018546 0.000000
# 4 0.000000 0.000000 0.000000 -0.041038 0.000000 0.024649
# 5 0.031550 -0.003228 0.018546 0.000000 0.105903 0.000000
# 6 0.000000 0.000000 0.000000 0.024649 0.000000 0.026517
#
#
# Mechanical properties :
#
#
# Convention : Reuss Voigt Hill
#
# Bulk Modulus (GPa) = 11.43592 49.87788 30.65690
# Shear Modulus (GPa) = 20.88177 19.63028 20.25603
#
# Velocity S-wave (km/s) = 3.12198 3.02698 3.07485
# Velocity P-wave (km/s) = 4.28176 5.95800 5.18802
#
# Compressibility (1/GPa) = 0.08744379
#
# Stress axis : x y z
#
# Youngs Moduli (GPa) = 24.58873 168.51351 17.67560
#
# Poissons Ratio (x) = 0.90627 -0.10061
# Poissons Ratio (y) = 0.13224 0.14461
# Poissons Ratio (z) = -0.13996 1.37866
#
# Static dielectric constant tensor:
#      x y z
#    x 1.774820 0.000000 -0.002370 
#    y 0.000000 1.823990 0.000000 
#    z -0.002370 0.000000 1.902590 
# 
# From -- ./inp_files/41625.got.cif
#   From: 2010.05.17/outbox.cif.g08.bks.cpg/sg12_21_cif.got.tgz:41625.got - 2010.06.03 13:09:07.
