data_PCOD9208938
_publ_section_title
;
Structure prediction by ZEFSAII (Michael W. Deem and Ramdas Pophale) SiO2 
 PCOD9208938
Probable space group: C 2/M
;
_chemical_formula_sum "Si O2"
_cell_formula_units_Z 64
_cell_length_a 28.431647
_cell_length_b 8.197051
_cell_length_c 17.059065
_cell_angle_alpha 90.000000
_cell_angle_beta 126.393462
_cell_angle_gamma 90.000000
_cell_volume 3200.294849
_symmetry_space_group_name_H-M "C 2/M"
_symmetry_group_IT_number 12
_symmetry_cell_setting 'monoclinic'
loop_
_space_group_symop_operation_xyz
x,y,z
-x,y,-z
-x,-y,-z
x,-y,z
1/2+x,1/2+y,z
1/2-x,1/2+y,-z
1/2-x,1/2-y,-z
1/2+x,1/2-y,z
loop_
_atom_site_type_symbol
_atom_site_label
_atom_site_fract_x
_atom_site_fract_y
_atom_site_fract_z
Si Si1 0.232132 0.803245 0.333329
Si Si2 0.643296 0.694803 0.794193
Si Si3 0.433035 0.802631 0.427206
Si Si4 0.880349 0.303671 0.053534
Si Si5 0.498843 0.803124 0.088667
Si Si6 0.112783 0.194879 0.295307
Si Si7 0.266648 0.197662 0.845962
Si Si8 0.859627 0.697176 0.506305
O O1 0.173474 0.742188 0.317359
O O2 0.232661 0.754813 0.242902
O O3 0.292452 0.745205 0.432543
O O4 0.232092 0.000000 0.337799
O O5 0.645493 0.500000 0.800399
O O6 0.597515 0.745421 0.682374
O O7 0.626339 0.759509 0.862474
O O8 0.707419 0.754282 0.830139
O O9 0.500000 0.747704 0.500000
O O10 0.395346 0.747658 0.465042
O O11 0.432756 0.000000 0.426947
O O12 0.880714 0.500000 0.047946
O O13 0.940806 0.242900 0.075736
O O14 0.824106 0.244859 0.948994
O O15 0.557184 0.756823 0.192485
O O16 0.495976 0.000000 0.083618
O O17 0.500000 0.744171 0.000000
O O18 0.111898 0.245888 0.384963
O O19 0.113223 0.000000 0.291125
O O20 0.266517 0.000000 0.845915
O O21 0.859484 0.500000 0.505677
#
# Coordination Sequence:
#
# PCOD9208938 Si02
#       8
#     8   8   8   8   8   8   8   8
#     4  10  21  38  60  87 118 156 196 239 295 350
#     4  11  23  38  59  91 123 152 190 241 300 349
#     4  10  22  40  63  87 116 157 199 239 287 347
#     4  10  22  39  61  86 116 156 200 241 284 346
#     4  10  22  42  65  87 114 155 203 242 284 343
#     4  11  24  38  58  89 123 154 190 243 302 350
#     4  10  21  38  61  89 118 152 196 244 292 343
#     4  10  21  39  61  86 117 155 200 241 283 347
#
# _framework density 19.998158
#
# number of rings (size 3 to 8) (size 9 to 14) (size 15 to 20)
#    0.000    1.750    1.250    2.250    1.750    5.000 
#    0.000    0.000    0.000    0.000    0.000    0.000 
#    0.000    0.000    0.000    0.000    0.000    0.000 
#
# Total GULP energy -178873.340760 kJ/mol
# GULP energy per Si atom -5589.791899 kJ/mol
# Density = 1.995264 g / cm^3
# Si number density = 19.998158 Si / 1000 Ang^3
#
#
#
# Elastic Constant Matrix: (Units=GPa)
#
#
# Indices 1 2 3 4 5 6 
#
# 1 39.6684 4.8110 43.4339 0.0000 19.2772 0.0000
# 2 4.8110 5.4384 3.5112 0.0000 5.9336 0.0000
# 3 43.4339 3.5112 170.6036 0.0000 9.9012 0.0000
# 4 0.0000 0.0000 0.0000 37.8535 0.0000 -10.2897
# 5 19.2772 5.9336 9.9012 0.0000 41.8144 0.0000
# 6 0.0000 0.0000 0.0000 -10.2897 0.0000 27.8314
#
#
#
# Elastic Compliance Matrix: (Units=1/GPa)
#
#
# Indices 1 2 3 4 5 6 
#
# 1 0.047060 -0.016362 -0.010666 0.000000 -0.016848 0.000000
# 2 -0.016362 0.224505 0.000970 0.000000 -0.024544 0.000000
# 3 -0.010666 0.000970 0.008395 0.000000 0.002792 0.000000
# 4 0.000000 0.000000 0.000000 0.029369 0.000000 0.010858
# 5 -0.016848 -0.024544 0.002792 0.000000 0.034504 0.000000
# 6 0.000000 0.000000 0.000000 0.010858 0.000000 0.039945
#
#
# Mechanical properties :
#
#
# Convention : Reuss Voigt Hill
#
# Bulk Modulus (GPa) = 4.38900 35.46916 19.92908
# Shear Modulus (GPa) = 9.76862 32.43015 21.09939
#
# Velocity S-wave (km/s) = 2.21255 4.03135 3.25170
# Velocity P-wave (km/s) = 2.95409 6.28043 4.90767
#
# Compressibility (1/GPa) = 0.22784227
#
# Stress axis : x y z
#
# Youngs Moduli (GPa) = 21.24968 4.45425 119.11717
#
# Poissons Ratio (x) = 0.07288 1.27055
# Poissons Ratio (y) = 0.34768 -0.11549
# Poissons Ratio (z) = 0.22666 -0.00432
#
# Static dielectric constant tensor:
#      x y z
#    x 1.705210 0.000000 0.017950 
#    y 0.000000 1.703540 0.000000 
#    z 0.017950 0.000000 1.651550 
# 
# From -- ./inp_files/249969.got.cif
#   From: 2010.05.17/outbox.cif.g08.bks.cpg/sg12_125_cif.got.tgz:249969.got - 2010.06.03 13:09:07.
