data_PCOD9208520
_publ_section_title
;
Structure prediction by ZEFSAII (Michael W. Deem and Ramdas Pophale) SiO2 
 PCOD9208520
Probable space group: C 2/M
;
_chemical_formula_sum "Si O2"
_cell_formula_units_Z 32
_cell_length_a 21.592502
_cell_length_b 13.048504
_cell_length_c 18.145807
_cell_angle_alpha 90.000000
_cell_angle_beta 19.272022
_cell_angle_gamma 90.000000
_cell_volume 1687.424324
_symmetry_space_group_name_H-M "C 2/M"
_symmetry_group_IT_number 12
_symmetry_cell_setting 'monoclinic'
loop_
_space_group_symop_operation_xyz
x,y,z
-x,y,-z
-x,-y,-z
x,-y,z
1/2+x,1/2+y,z
1/2-x,1/2+y,-z
1/2-x,1/2-y,-z
1/2+x,1/2-y,z
loop_
_atom_site_type_symbol
_atom_site_label
_atom_site_fract_x
_atom_site_fract_y
_atom_site_fract_z
Si Si1 0.589505 0.115501 0.597221
Si Si2 0.125954 0.730769 0.285526
Si Si3 0.437608 0.117498 0.932978
Si Si4 0.488544 0.327528 0.096970
O O1 0.489678 0.195179 0.654987
O O2 0.812398 0.126361 0.336574
O O3 0.534916 0.000000 0.636348
O O4 0.527294 0.129827 0.751181
O O5 0.222909 0.842213 0.169257
O O6 0.000000 0.725586 0.500000
O O7 0.309989 0.659027 0.090672
O O8 0.453199 0.000000 0.938598
O O9 0.534681 0.203157 0.875011
O O10 0.500000 0.362994 0.000000
#
# Coordination Sequence:
#
# PCOD9208520 Si02
#       4
#     8   8   8   8
#     4  11  21  38  59  83 111 147 186 227 274 328
#     4  10  21  38  58  81 116 144 185 226 278 321
#     4   9  21  38  59  83 111 145 186 227 276 328
#     4  10  21  38  58  81 116 144 185 226 278 321
#
# _framework density 18.963813999999999
#
# number of rings (size 3 to 8) (size 9 to 14) (size 15 to 20)
#    1.500    0.500    2.500    1.500    0.000    3.000 
#    0.000    1.250    0.000    0.000    0.000    0.000 
#    0.000    0.000    0.000    0.000    0.000    0.000 
#
# Total GULP energy -89089.403698 kJ/mol
# GULP energy per Si atom -5568.087731 kJ/mol
# Density = 1.892065 g / cm^3
# Si number density = 18.963814 Si / 1000 Ang^3
#
#
#
# Elastic Constant Matrix: (Units=GPa)
#
#
# Indices 1 2 3 4 5 6 
#
# 1 26.9221 -2.5010 17.1050 0.0015 4.3058 -0.0005
# 2 -2.5010 45.3142 -12.1737 0.0004 5.8902 0.0015
# 3 17.1050 -12.1737 86.1115 -0.0008 -9.0164 0.0016
# 4 0.0015 0.0004 -0.0008 9.2798 -0.0015 -19.9567
# 5 4.3058 5.8902 -9.0164 -0.0015 15.4380 0.0015
# 6 -0.0005 0.0015 0.0016 -19.9567 0.0015 2.8176
#
#
#
# Elastic Compliance Matrix: (Units=1/GPa)
#
#
# Indices 1 2 3 4 5 6 
#
# 1 0.047933 0.002304 -0.011384 -0.000003 -0.020896 0.000004
# 2 0.002304 0.023851 0.002017 0.000002 -0.008564 0.000002
# 3 -0.011384 0.002017 0.015350 0.000002 0.011370 -0.000001
# 4 -0.000003 0.000002 0.000002 -0.007572 0.000006 -0.053629
# 5 -0.020896 -0.008564 0.011370 0.000006 0.080511 -0.000005
# 6 0.000004 0.000002 -0.000001 -0.053629 -0.000005 -0.024937
#
#
# Mechanical properties :
#
#
# Convention : Reuss Voigt Hill
#
# Bulk Modulus (GPa) = 13.69708 18.13425 15.91566
# Shear Modulus (GPa) = 28.80239 15.90159 22.35199
#
# Velocity S-wave (km/s) = 3.90142 2.89887 3.43689
# Velocity P-wave (km/s) = 5.24720 4.55937 4.91534
#
# Compressibility (1/GPa) = 0.07300826
#
# Stress axis : x y z
#
# Youngs Moduli (GPa) = 20.86246 41.92783 65.14748
#
# Poissons Ratio (x) = -0.09659 0.74161
# Poissons Ratio (y) = -0.04806 -0.13143
# Poissons Ratio (z) = 0.23749 -0.08459
#
# Static dielectric constant tensor:
#      x y z
#    x 1.615860 0.000000 -0.004550 
#    y 0.000000 1.676080 0.000000 
#    z -0.004550 0.000000 1.648700 
# 
# From -- ./inp_files/70277.got.cif
#   From: 2010.05.17/outbox.cif.g08.bks.cpg/sg12_36_cif.got.tgz:70277.got - 2010.06.03 13:09:07.
