data_PCOD9208501
_publ_section_title
;
Structure prediction by ZEFSAII (Michael W. Deem and Ramdas Pophale) SiO2 
 PCOD9208501
Probable space group: C 2/M
;
_chemical_formula_sum "Si O2"
_cell_formula_units_Z 64
_cell_length_a 23.889613
_cell_length_b 13.168348
_cell_length_c 17.084808
_cell_angle_alpha 90.000000
_cell_angle_beta 152.934379
_cell_angle_gamma 90.000000
_cell_volume 2445.524943
_symmetry_space_group_name_H-M "C 2/M"
_symmetry_group_IT_number 12
_symmetry_cell_setting 'monoclinic'
loop_
_space_group_symop_operation_xyz
x,y,z
-x,y,-z
-x,-y,-z
x,-y,z
1/2+x,1/2+y,z
1/2-x,1/2+y,-z
1/2-x,1/2-y,-z
1/2+x,1/2-y,z
loop_
_atom_site_type_symbol
_atom_site_label
_atom_site_fract_x
_atom_site_fract_y
_atom_site_fract_z
Si Si1 0.897087 0.380749 0.264155
Si Si2 0.846477 0.879327 0.131031
Si Si3 0.979861 0.610423 0.833891
Si Si4 0.230267 0.114437 0.797527
Si Si5 0.766135 0.328982 0.253721
Si Si6 0.612694 0.612425 0.385652
Si Si7 0.863656 0.324007 0.528828
Si Si8 0.991502 0.833694 0.901156
O O1 0.919070 0.500000 0.275866
O O2 0.865480 0.369674 0.316366
O O3 0.011836 0.323521 0.369009
O O4 0.774344 0.344553 0.065760
O O5 0.847799 0.851784 0.224236
O O6 0.974934 0.867697 0.247020
O O7 0.827232 0.000000 0.111288
O O8 0.953390 0.500000 0.837487
O O9 0.902357 0.621433 0.657337
O O10 0.964084 0.712523 0.864134
O O11 0.126441 0.610976 0.997466
O O12 0.219179 0.206351 0.723356
O O13 0.196635 0.000000 0.729651
O O14 0.773609 0.369362 0.351308
O O15 0.633095 0.349267 0.050744
O O16 0.653983 0.500000 0.461087
O O17 0.681032 0.712174 0.500600
O O18 0.597502 0.617317 0.273168
O O19 0.000000 0.869644 0.000000
#
# Coordination Sequence:
#
# PCOD9208501 Si02
#       8
#     8   8   8   8   8   8   8   8
#     4  11  21  34  54  84 120 152 181 218 271 333
#     4   9  16  29  53  79 104 141 185 222 257 311
#     4   9  18  35  58  83 110 142 181 225 276 333
#     4   9  17  32  55  80 108 146 188 226 266 319
#     4  11  23  35  53  84 117 147 183 228 278 327
#     4  10  21  38  58  80 109 148 192 229 267 323
#     4  11  22  34  54  85 120 151 175 216 278 340
#     4  10  22  40  62  83 105 140 190 242 279 317
#
# _framework density 26.170248999999998
#
# number of rings (size 3 to 8) (size 9 to 14) (size 15 to 20)
#    0.000    2.000    2.500    1.500    0.000    3.500 
#    0.000    2.500    0.000    5.250    0.000    0.000 
#    0.000    0.000    0.000    0.000    0.000    0.000 
#
# Total GULP energy -179016.657643 kJ/mol
# GULP energy per Si atom -5594.270551 kJ/mol
# Density = 2.611068 g / cm^3
# Si number density = 26.170249 Si / 1000 Ang^3
#
#
#
# Elastic Constant Matrix: (Units=GPa)
#
#
# Indices 1 2 3 4 5 6 
#
# 1 93.5180 8.6510 28.6767 0.0000 -10.0638 0.0000
# 2 8.6510 121.5645 6.0622 0.0000 -4.9645 0.0000
# 3 28.6767 6.0622 50.8955 0.0000 2.8785 0.0000
# 4 0.0000 0.0000 0.0000 1.7433 0.0000 0.8503
# 5 -10.0638 -4.9645 2.8785 0.0000 48.1108 0.0000
# 6 0.0000 0.0000 0.0000 0.8503 0.0000 -17.8740
#
#
#
# Elastic Compliance Matrix: (Units=1/GPa)
#
#
# Indices 1 2 3 4 5 6 
#
# 1 0.013444 -0.000441 -0.007705 0.000000 0.003228 0.000000
# 2 -0.000441 0.008330 -0.000790 0.000000 0.000815 0.000000
# 3 -0.007705 -0.000790 0.024261 0.000000 -0.003145 0.000000
# 4 0.000000 0.000000 0.000000 0.560608 0.000000 0.026668
# 5 0.003228 0.000815 -0.003145 0.000000 0.021733 0.000000
# 6 0.000000 0.000000 0.000000 0.026668 0.000000 -0.054679
#
#
# Mechanical properties :
#
#
# Convention : Reuss Voigt Hill
#
# Bulk Modulus (GPa) = 35.50607 39.19529 37.35068
# Shear Modulus (GPa) = 8.32007 21.23523 14.77765
#
# Velocity S-wave (km/s) = 1.78497 2.85164 2.37886
# Velocity P-wave (km/s) = 4.22433 5.08449 4.67424
#
# Compressibility (1/GPa) = 0.02816420
#
# Stress axis : x y z
#
# Youngs Moduli (GPa) = 74.38312 120.04638 41.21783
#
# Poissons Ratio (x) = 0.05290 0.31758
# Poissons Ratio (y) = 0.03278 0.03256
# Poissons Ratio (z) = 0.57312 0.09484
#
# Static dielectric constant tensor:
#      x y z
#    x 2.048350 0.000000 0.053130 
#    y 0.000000 2.028730 0.000000 
#    z 0.053130 0.000000 2.066690 
# 
# From -- ./inp_files/290147.got.cif
#   From: 2010.05.17/outbox.cif.g08.bks.cpg/sg12_146_cif.got.tgz:290147.got - 2010.06.03 13:09:07.
