data_PCOD9208037
_publ_section_title
;
Structure prediction by ZEFSAII (Michael W. Deem and Ramdas Pophale) SiO2 
 PCOD9208037
Probable space group: C 2/M
;
_chemical_formula_sum "Si O2"
_cell_formula_units_Z 56
_cell_length_a 21.377474
_cell_length_b 13.184169
_cell_length_c 18.940509
_cell_angle_alpha 90.000000
_cell_angle_beta 30.075315
_cell_angle_gamma 90.000000
_cell_volume 2675.211294
_symmetry_space_group_name_H-M "C 2/M"
_symmetry_group_IT_number 12
_symmetry_cell_setting 'monoclinic'
loop_
_space_group_symop_operation_xyz
x,y,z
-x,y,-z
-x,-y,-z
x,-y,z
1/2+x,1/2+y,z
1/2-x,1/2+y,-z
1/2-x,1/2-y,-z
1/2+x,1/2-y,z
loop_
_atom_site_type_symbol
_atom_site_label
_atom_site_fract_x
_atom_site_fract_y
_atom_site_fract_z
Si Si1 0.530069 0.264004 0.620182
Si Si2 0.859702 0.753695 0.129354
Si Si3 0.881937 0.618226 0.669674
Si Si4 0.132921 0.885145 0.113972
Si Si5 0.372798 0.816528 0.963013
Si Si6 0.878935 0.386031 0.359423
Si Si7 0.729748 0.616677 0.366097
O O1 0.423966 0.189481 0.693670
O O2 0.471900 0.346286 0.729446
O O3 0.621984 0.191912 0.575351
O O4 0.599852 0.323293 0.490069
O O5 0.747482 0.835223 0.233254
O O6 0.828154 0.680738 0.225496
O O7 0.859689 0.683127 0.059477
O O8 0.000000 0.796557 0.000000
O O9 0.865788 0.500000 0.704954
O O10 0.000000 0.622689 0.500000
O O11 0.133160 0.802605 0.051886
O O12 0.114346 0.000000 0.109164
O O13 0.261197 0.872314 0.031713
O O14 0.498878 0.860849 0.806753
O O15 0.887606 0.500000 0.379207
O O16 0.768118 0.381754 0.411148
O O17 0.722880 0.500000 0.350137
#
# Coordination Sequence:
#
# PCOD9208037 Si02
#       7
#     8   8   8   8   8   8   8
#     4  11  21  41  65  93 124 163 213 271 319 374
#     4  12  24  44  66  92 133 173 212 264 319 384
#     4  11  24  44  68  94 127 172 220 265 317 382
#     4  10  21  37  61  90 122 156 203 264 323 372
#     4  10  21  38  59  91 121 164 206 254 315 383
#     4  10  21  38  63  92 124 166 211 261 318 382
#     4  11  24  40  63  94 130 168 213 262 321 384
#
# _framework density 20.932925000000001
#
# number of rings (size 3 to 8) (size 9 to 14) (size 15 to 20)
#    0.000    1.286    4.286    1.714    0.000    2.286 
#    0.000    0.714    0.000    0.857    0.000    0.000 
#    0.000    0.000    0.000    0.000    0.000    0.000 
#
# Total GULP energy -156434.491866 kJ/mol
# GULP energy per Si atom -5586.946138 kJ/mol
# Density = 2.088528 g / cm^3
# Si number density = 20.932925 Si / 1000 Ang^3
#
#
#
# Elastic Constant Matrix: (Units=GPa)
#
#
# Indices 1 2 3 4 5 6 
#
# 1 46.6553 16.0129 5.1769 0.0000 -10.1053 0.0000
# 2 16.0129 136.5512 34.1144 0.0000 -19.9538 0.0000
# 3 5.1769 34.1144 81.7844 0.0000 -11.0793 0.0000
# 4 0.0000 0.0000 0.0000 15.9817 0.0000 3.5630
# 5 -10.1053 -19.9538 -11.0793 0.0000 25.1381 0.0000
# 6 0.0000 0.0000 0.0000 3.5630 0.0000 13.5752
#
#
#
# Elastic Compliance Matrix: (Units=1/GPa)
#
#
# Indices 1 2 3 4 5 6 
#
# 1 0.023780 -0.001641 0.000317 0.000000 0.008397 0.000000
# 2 -0.001641 0.009012 -0.002952 0.000000 0.005193 0.000000
# 3 0.000317 -0.002952 0.013973 0.000000 0.003943 0.000000
# 4 0.000000 0.000000 0.000000 0.066460 0.000000 -0.017443
# 5 0.008397 0.005193 0.003943 0.000000 0.049015 0.000000
# 6 0.000000 0.000000 0.000000 -0.017443 0.000000 0.078242
#
#
# Mechanical properties :
#
#
# Convention : Reuss Voigt Hill
#
# Bulk Modulus (GPa) = 26.16902 41.73324 33.95113
# Shear Modulus (GPa) = 19.10057 24.91811 22.00934
#
# Velocity S-wave (km/s) = 3.02398 3.45393 3.24608
# Velocity P-wave (km/s) = 4.97203 5.99050 5.50487
#
# Compressibility (1/GPa) = 0.03821312
#
# Stress axis : x y z
#
# Youngs Moduli (GPa) = 42.05130 110.96411 71.56874
#
# Poissons Ratio (x) = 0.18207 -0.02266
# Poissons Ratio (y) = 0.06900 0.21125
# Poissons Ratio (z) = -0.01331 0.32754
#
# Static dielectric constant tensor:
#      x y z
#    x 1.763550 0.000000 -0.015300 
#    y 0.000000 1.716890 0.000000 
#    z -0.015300 0.000000 1.777360 
# 
# From -- ./inp_files/325133.got.cif
#   From: 2010.05.17/outbox.cif.g08.bks.cpg/sg12_163_cif.got.tgz:325133.got - 2010.06.03 13:09:07.
