data_PCOD9208056
_publ_section_title
;
Structure prediction by ZEFSAII (Michael W. Deem and Ramdas Pophale) SiO2 
 PCOD9208056
Probable space group: C 2/M
;
_chemical_formula_sum "Si O2"
_cell_formula_units_Z 58
_cell_length_a 14.485395
_cell_length_b 22.972960
_cell_length_c 9.142298
_cell_angle_alpha 90.000000
_cell_angle_beta 92.652674
_cell_angle_gamma 90.000000
_cell_volume 3039.044446
_symmetry_space_group_name_H-M "C 2/M"
_symmetry_group_IT_number 12
_symmetry_cell_setting 'monoclinic'
loop_
_space_group_symop_operation_xyz
x,y,z
-x,y,-z
-x,-y,-z
x,-y,z
1/2+x,1/2+y,z
1/2-x,1/2+y,-z
1/2-x,1/2-y,-z
1/2+x,1/2-y,z
loop_
_atom_site_type_symbol
_atom_site_label
_atom_site_fract_x
_atom_site_fract_y
_atom_site_fract_z
Si Si1 0.500000 0.500000 0.000000
Si Si2 0.087501 0.436059 0.397949
Si Si3 0.480445 0.183164 0.671657
Si Si4 0.642872 0.270903 0.156416
Si Si5 0.590348 0.403436 0.192924
Si Si6 0.431560 0.647486 0.364386
Si Si7 0.292319 0.433584 0.523994
Si Si8 0.142013 0.741262 0.819114
O O1 0.429058 0.448935 0.934508
O O2 0.093567 0.500000 0.325555
O O3 0.068973 0.378498 0.302714
O O4 0.182882 0.427391 0.493293
O O5 0.000000 0.438129 0.500000
O O6 0.500000 0.189154 0.500000
O O7 0.417264 0.234285 0.733331
O O8 0.579299 0.189122 0.755809
O O9 0.612456 0.337852 0.147681
O O10 0.750316 0.266794 0.205997
O O11 0.630626 0.246190 0.992400
O O12 0.494770 0.397418 0.277869
O O13 0.670253 0.423588 0.309926
O O14 0.500000 0.668182 0.500000
O O15 0.346684 0.612883 0.429327
O O16 0.395528 0.700519 0.263624
O O17 0.317161 0.500000 0.483174
#
# Coordination Sequence:
#
# PCOD9208056 Si02
#       8
#     2   8   8   8   8   8   8   8
#     4  12  24  40  58  84 122 170 216 234 318 384
#     4   9  20  39  62  90 124 160 203 259 318 367
#     4  11  23  38  64  98 120 166 208 262 321 373
#     4  11  25  41  62  89 130 168 209 260 317 381
#     4  11  23  37  60  88 123 165 206 260 306 382
#     4  10  21  37  61  91 124 159 205 264 320 376
#     4  10  21  38  59  91 123 159 204 263 320 369
#     4  11  23  41  61  90 126 171 207 256 321 375
#
# _framework density 19.084947
#
# number of rings (size 3 to 8) (size 9 to 14) (size 15 to 20)
#    0.000    1.517    2.069    2.483    6.759    1.379 
#    0.000    0.000    0.000    1.655    0.000    0.000 
#    0.000    0.000    0.000    0.000    0.000    0.000 
#
# Total GULP energy -161646.459563 kJ/mol
# GULP energy per Si atom -5574.015847 kJ/mol
# Density = 1.904151 g / cm^3
# Si number density = 19.084947 Si / 1000 Ang^3
#
#
#
# Elastic Constant Matrix: (Units=GPa)
#
#
# Indices 1 2 3 4 5 6 
#
# 1 122.0683 42.7578 49.5787 0.0000 17.9997 0.0000
# 2 42.7578 136.6440 36.9766 0.0000 16.2009 0.0000
# 3 49.5787 36.9766 57.5627 0.0000 16.4618 0.0000
# 4 0.0000 0.0000 0.0000 0.7472 0.0000 14.9981
# 5 17.9997 16.2009 16.4618 0.0000 31.1431 0.0000
# 6 0.0000 0.0000 0.0000 14.9981 0.0000 24.0028
#
#
#
# Elastic Compliance Matrix: (Units=1/GPa)
#
#
# Indices 1 2 3 4 5 6 
#
# 1 0.012837 -0.001160 -0.009851 0.000000 -0.001609 0.000000
# 2 -0.001160 0.009058 -0.004316 0.000000 -0.001760 0.000000
# 3 -0.009851 -0.004316 0.031053 0.000000 -0.008476 0.000000
# 4 0.000000 0.000000 0.000000 -0.115951 0.000000 0.072452
# 5 -0.001609 -0.001760 -0.008476 0.000000 0.038435 0.000000
# 6 0.000000 0.000000 0.000000 0.072452 0.000000 -0.003610
#
#
# Mechanical properties :
#
#
# Convention : Reuss Voigt Hill
#
# Bulk Modulus (GPa) = 44.85559 63.87790 54.36675
# Shear Modulus (GPa) = 504.67360 23.64274 264.15817
#
# Velocity S-wave (km/s) = 16.27911 3.52350 11.77762
# Velocity P-wave (km/s) = 19.41392 7.07788 14.61158
#
# Compressibility (1/GPa) = 0.02229376
#
# Stress axis : x y z
#
# Youngs Moduli (GPa) = 77.90121 110.40042 32.20289
#
# Poissons Ratio (x) = 0.12811 0.31723
# Poissons Ratio (y) = 0.09040 0.13898
# Poissons Ratio (z) = 0.76740 0.47646
#
# Static dielectric constant tensor:
#      x y z
#    x 1.662660 0.000000 -0.007340 
#    y 0.000000 1.693270 0.000000 
#    z -0.007340 0.000000 1.663060 
# 
# From -- ./inp_files/65395.got.cif
#   From: 2010.05.17/outbox.cif.g08.bks.cpg/sg12_33_cif.got.tgz:65395.got - 2010.06.03 13:09:07.
