data_PCOD9208380
_publ_section_title
;
Structure prediction by ZEFSAII (Michael W. Deem and Ramdas Pophale) SiO2 
 PCOD9208380
Probable space group: C 2/M
;
_chemical_formula_sum "Si O2"
_cell_formula_units_Z 56
_cell_length_a 15.935761
_cell_length_b 9.194046
_cell_length_c 24.906354
_cell_angle_alpha 90.000000
_cell_angle_beta 49.569956
_cell_angle_gamma 90.000000
_cell_volume 2777.713663
_symmetry_space_group_name_H-M "C 2/M"
_symmetry_group_IT_number 12
_symmetry_cell_setting 'monoclinic'
loop_
_space_group_symop_operation_xyz
x,y,z
-x,y,-z
-x,-y,-z
x,-y,z
1/2+x,1/2+y,z
1/2-x,1/2+y,-z
1/2-x,1/2-y,-z
1/2+x,1/2-y,z
loop_
_atom_site_type_symbol
_atom_site_label
_atom_site_fract_x
_atom_site_fract_y
_atom_site_fract_z
Si Si1 0.888414 0.664841 0.538471
Si Si2 0.606667 0.325253 0.921223
Si Si3 0.557521 0.328444 0.312420
Si Si4 0.334257 0.672447 0.849175
Si Si5 0.149183 0.659451 0.566289
Si Si6 0.755835 0.174211 0.675745
Si Si7 0.554548 0.324368 0.818626
O O1 0.883704 0.500000 0.564275
O O2 0.904659 0.639238 0.469337
O O3 0.788824 0.754259 0.605119
O O4 0.000000 0.755150 0.500000
O O5 0.617662 0.500000 0.919456
O O6 0.718205 0.254861 0.897736
O O7 0.583385 0.287803 0.868425
O O8 0.500000 0.282190 0.000000
O O9 0.533098 0.500000 0.328241
O O10 0.615395 0.304743 0.231227
O O11 0.442836 0.242373 0.361887
O O12 0.644370 0.289315 0.323679
O O13 0.314422 0.500000 0.864064
O O14 0.430314 0.715191 0.851494
O O15 0.178923 0.500000 0.575649
O O16 0.250000 0.750000 0.500000
O O17 0.644349 0.244614 0.744470
O O18 0.747307 0.000000 0.676799
O O19 0.564376 0.500000 0.807924
#
# Coordination Sequence:
#
# PCOD9208380 Si02
#       7
#     8   8   8   8   8   8   8
#     4  10  21  38  56  76 105 147 195 240 295 361
#     4  10  22  41  65  95 129 162 199 247 300 357
#     4  10  21  38  58  82 116 154 198 252 304 359
#     4  10  22  41  63  90 123 163 207 249 300 363
#     4  11  24  39  56  79 113 155 201 251 306 361
#     4  11  22  36  59  87 114 147 196 254 303 354
#     4  10  22  40  63  89 123 164 202 242 299 366
#
# _framework density 20.160464999999999
#
# number of rings (size 3 to 8) (size 9 to 14) (size 15 to 20)
#    0.000    1.714    2.857    0.857    2.000    4.000 
#    0.000    0.000    0.000    0.000    0.000    0.000 
#    0.000    0.000    0.000    0.000    0.000    0.000 
#
# Total GULP energy -156033.928946 kJ/mol
# GULP energy per Si atom -5572.640319 kJ/mol
# Density = 2.011458 g / cm^3
# Si number density = 20.160465 Si / 1000 Ang^3
#
#
#
# Elastic Constant Matrix: (Units=GPa)
#
#
# Indices 1 2 3 4 5 6 
#
# 1 68.5007 19.0608 27.5858 0.0000 -28.3431 0.0000
# 2 19.0608 54.7382 51.1825 0.0000 -24.4338 0.0001
# 3 27.5858 51.1825 122.4296 0.0000 -32.5276 0.0000
# 4 0.0000 0.0000 0.0000 26.5420 0.0000 -11.5987
# 5 -28.3431 -24.4338 -32.5276 0.0000 37.0409 0.0000
# 6 0.0000 0.0001 0.0000 -11.5987 0.0000 26.8481
#
#
#
# Elastic Compliance Matrix: (Units=1/GPa)
#
#
# Indices 1 2 3 4 5 6 
#
# 1 0.021401 0.000359 -0.000728 0.000000 0.015972 0.000000
# 2 0.000359 0.034245 -0.010855 0.000000 0.013331 0.000000
# 3 -0.000728 -0.010855 0.014112 0.000000 0.004675 0.000000
# 4 0.000000 0.000000 0.000000 0.046444 0.000000 0.020064
# 5 0.015972 0.013331 0.004675 0.000000 0.052118 0.000000
# 6 0.000000 0.000000 0.000000 0.020064 0.000000 0.045915
#
#
# Mechanical properties :
#
#
# Convention : Reuss Voigt Hill
#
# Bulk Modulus (GPa) = 21.13812 49.03630 35.08721
# Shear Modulus (GPa) = 19.80564 27.94217 23.87391
#
# Velocity S-wave (km/s) = 3.13773 3.72693 3.44495
# Velocity P-wave (km/s) = 4.86156 6.54949 5.76761
#
# Compressibility (1/GPa) = 0.04730789
#
# Stress axis : x y z
#
# Youngs Moduli (GPa) = 46.72740 29.20166 70.86108
#
# Poissons Ratio (x) = -0.01047 0.05161
# Poissons Ratio (y) = -0.01676 0.76920
# Poissons Ratio (z) = 0.03403 0.31699
#
# Static dielectric constant tensor:
#      x y z
#    x 1.253230 0.000000 0.020550 
#    y 0.000000 1.792540 0.000000 
#    z 0.020550 0.000000 1.665440 
# 
# From -- ./inp_files/377659.got.cif
#   From: 2010.05.17/outbox.cif.g08.bks.cpg/sg12_189_cif.got.tgz:377659.got - 2010.06.03 13:09:07.
