data_PCOD9208200
_publ_section_title
;
Structure prediction by ZEFSAII (Michael W. Deem and Ramdas Pophale) SiO2 
 PCOD9208200
Probable space group: C 2/M
;
_chemical_formula_sum "Si O2"
_cell_formula_units_Z 48
_cell_length_a 11.413187
_cell_length_b 17.296079
_cell_length_c 11.309245
_cell_angle_alpha 90.000000
_cell_angle_beta 101.373153
_cell_angle_gamma 90.000000
_cell_volume 2188.645485
_symmetry_space_group_name_H-M "C 2/M"
_symmetry_group_IT_number 12
_symmetry_cell_setting 'monoclinic'
loop_
_space_group_symop_operation_xyz
x,y,z
-x,y,-z
-x,-y,-z
x,-y,z
1/2+x,1/2+y,z
1/2-x,1/2+y,-z
1/2-x,1/2-y,-z
1/2+x,1/2-y,z
loop_
_atom_site_type_symbol
_atom_site_label
_atom_site_fract_x
_atom_site_fract_y
_atom_site_fract_z
Si Si1 0.504716 0.909035 0.639588
Si Si2 0.202700 0.701733 0.699647
Si Si3 0.158154 0.086910 0.418664
Si Si4 0.896371 0.126365 0.326606
Si Si5 0.133091 0.255253 0.062504
Si Si6 0.160490 0.586019 0.179537
O O1 0.500000 0.885048 0.500000
O O2 0.604670 0.859019 0.725998
O O3 0.386527 0.899356 0.695309
O O4 0.531795 0.000000 0.644958
O O5 0.254125 0.656562 0.596938
O O6 0.133392 0.782341 0.668516
O O7 0.313542 0.716556 0.808380
O O8 0.132073 0.089746 0.552030
O O9 0.032769 0.105501 0.329980
O O10 0.200913 0.000000 0.396800
O O11 0.803481 0.093095 0.214417
O O12 0.116342 0.345396 0.089669
O O13 0.250000 0.250000 0.000000
O O14 0.000000 0.225676 0.000000
O O15 0.123219 0.500000 0.138147
#
# Coordination Sequence:
#
# PCOD9208200 Si02
#       6
#     8   8   8   8   8   8
#     4  10  21  37  63 101 140 170 202 253 321 403
#     4  11  24  37  66  89 126 164 217 266 321 387
#     4  11  22  38  59  90 132 171 203 249 314 392
#     4  10  22  35  60  91 129 168 206 245 302 395
#     4  11  26  46  68  92 123 167 227 289 338 380
#     4  10  21  39  66  92 125 164 209 262 326 395
#
# _framework density 21.931373000000001
#
# number of rings (size 3 to 8) (size 9 to 14) (size 15 to 20)
#    0.000    1.500    0.000    5.000   11.667    1.667 
#    0.000    1.667    0.000    2.500    0.000    0.000 
#    0.000    0.000    0.000    0.000    0.000    0.000 
#
# Total GULP energy -133954.843511 kJ/mol
# GULP energy per Si atom -5581.451813 kJ/mol
# Density = 2.188146 g / cm^3
# Si number density = 21.931373 Si / 1000 Ang^3
#
#
#
# Elastic Constant Matrix: (Units=GPa)
#
#
# Indices 1 2 3 4 5 6 
#
# 1 85.2956 19.6924 14.4156 0.0000 14.3935 0.0000
# 2 19.6924 109.1561 33.6748 0.0000 -3.8861 0.0000
# 3 14.4156 33.6748 46.1129 0.0000 14.5656 0.0000
# 4 0.0000 0.0000 0.0000 101.8913 0.0000 49.8179
# 5 14.3935 -3.8861 14.5656 0.0000 46.8902 0.0000
# 6 0.0000 0.0000 0.0000 49.8179 0.0000 57.1161
#
#
#
# Elastic Compliance Matrix: (Units=1/GPa)
#
#
# Indices 1 2 3 4 5 6 
#
# 1 0.013068 -0.002060 -0.001397 0.000000 -0.003748 0.000000
# 2 -0.002060 0.012891 -0.010320 0.000000 0.004906 0.000000
# 3 -0.001397 -0.010320 0.033035 0.000000 -0.010688 0.000000
# 4 0.000000 0.000000 0.000000 0.017112 0.000000 -0.014925
# 5 -0.003748 0.004906 -0.010688 0.000000 0.026204 0.000000
# 6 0.000000 0.000000 0.000000 -0.014925 0.000000 0.030526
#
#
# Mechanical properties :
#
#
# Convention : Reuss Voigt Hill
#
# Bulk Modulus (GPa) = 31.80604 41.79226 36.79915
# Shear Modulus (GPa) = 29.26204 52.69831 40.98018
#
# Velocity S-wave (km/s) = 3.65671 4.90723 4.32738
# Velocity P-wave (km/s) = 5.68882 7.15578 6.46405
#
# Compressibility (1/GPa) = 0.03144057
#
# Stress axis : x y z
#
# Youngs Moduli (GPa) = 76.52199 77.57249 30.27105
#
# Poissons Ratio (x) = 0.15980 0.04229
# Poissons Ratio (y) = 0.15764 0.31239
# Poissons Ratio (z) = 0.10690 0.80053
#
# Static dielectric constant tensor:
#      x y z
#    x 1.917810 0.000000 0.014420 
#    y 0.000000 1.802710 0.000000 
#    z 0.014420 0.000000 1.828650 
# 
# From -- ./inp_files/131745.got.cif
#   From: 2010.05.17/outbox.cif.g08.bks.cpg/sg12_66_cif.got.tgz:131745.got - 2010.06.03 13:09:07.
