data_PCOD9208753
_publ_section_title
;
Structure prediction by ZEFSAII (Michael W. Deem and Ramdas Pophale) SiO2 
 PCOD9208753
Probable space group: C 2/M
;
_chemical_formula_sum "Si O2"
_cell_formula_units_Z 64
_cell_length_a 21.072852
_cell_length_b 31.080537
_cell_length_c 9.144890
_cell_angle_alpha 90.000000
_cell_angle_beta 35.493768
_cell_angle_gamma 90.000000
_cell_volume 3477.587937
_symmetry_space_group_name_H-M "C 2/M"
_symmetry_group_IT_number 12
_symmetry_cell_setting 'monoclinic'
loop_
_space_group_symop_operation_xyz
x,y,z
-x,y,-z
-x,-y,-z
x,-y,z
1/2+x,1/2+y,z
1/2-x,1/2+y,-z
1/2-x,1/2-y,-z
1/2+x,1/2-y,z
loop_
_atom_site_type_symbol
_atom_site_label
_atom_site_fract_x
_atom_site_fract_y
_atom_site_fract_z
Si Si1 0.910734 0.756568 0.778770
Si Si2 0.077980 0.951686 0.478525
Si Si3 0.726271 0.311314 0.192848
Si Si4 0.940562 0.911626 0.957210
Si Si5 0.013833 0.449482 0.143047
Si Si6 0.220942 0.550830 0.264520
Si Si7 0.973188 0.180358 0.223928
Si Si8 0.295945 0.907467 0.025795
O O1 0.853056 0.792815 0.785215
O O2 0.000000 0.735764 0.500000
O O3 0.969932 0.780637 0.799094
O O4 0.822534 0.723999 0.011380
O O5 0.000000 0.932204 0.500000
O O6 0.001269 0.949886 0.760676
O O7 0.107089 0.000000 0.379578
O O8 0.186268 0.925643 0.305879
O O9 0.651979 0.317843 0.479025
O O10 0.780273 0.356534 0.048880
O O11 0.972460 0.865167 0.829367
O O12 0.813458 0.922776 0.179327
O O13 0.000000 0.909829 0.000000
O O14 0.048321 0.500000 0.080528
O O15 0.895429 0.446390 0.438611
O O16 0.100561 0.422500 0.074172
O O17 0.000000 0.436277 0.000000
O O18 0.249880 0.500000 0.200507
O O19 0.207402 0.570964 0.128457
O O20 0.000000 0.184051 0.000000
#
# Coordination Sequence:
#
# PCOD9208753 Si02
#       8
#     8   8   8   8   8   8   8   8
#     4   9  20  38  61  87 116 149 191 241 297 366
#     4  11  22  35  56  90 121 152 197 245 293 350
#     4  10  21  38  61  88 116 150 194 245 297 356
#     4  11  23  37  58  89 123 157 193 242 299 356
#     4  10  24  42  58  79 113 161 207 250 298 347
#     4  11  23  39  58  84 117 157 206 248 292 353
#     4  10  21  38  59  87 121 155 191 236 304 365
#     4  12  22  38  62  85 117 156 199 250 296 347
#
# _framework density 18.403559999999999
#
# number of rings (size 3 to 8) (size 9 to 14) (size 15 to 20)
#    0.000    1.500    2.500    2.625    1.750    3.500 
#    0.000    1.875    0.000    0.000    0.000    0.000 
#    0.000    0.000    0.000    0.000    0.000    0.000 
#
# Total GULP energy -178378.965206 kJ/mol
# GULP energy per Si atom -5574.342663 kJ/mol
# Density = 1.836167 g / cm^3
# Si number density = 18.403560 Si / 1000 Ang^3
#
#
#
# Elastic Constant Matrix: (Units=GPa)
#
#
# Indices 1 2 3 4 5 6 
#
# 1 85.5322 39.1054 40.6074 0.0000 -13.6455 0.0000
# 2 39.1054 89.3610 48.4000 0.0000 -8.1113 0.0000
# 3 40.6074 48.4000 96.1779 0.0000 -9.8277 0.0000
# 4 0.0000 0.0000 0.0000 16.5756 0.0000 1.2091
# 5 -13.6455 -8.1113 -9.8277 0.0000 25.4701 0.0000
# 6 0.0000 0.0000 0.0000 1.2091 0.0000 19.0708
#
#
#
# Elastic Compliance Matrix: (Units=1/GPa)
#
#
# Indices 1 2 3 4 5 6 
#
# 1 0.016669 -0.004501 -0.004171 0.000000 0.005887 0.000000
# 2 -0.004501 0.016696 -0.006460 0.000000 0.000413 0.000000
# 3 -0.004171 -0.006460 0.015585 0.000000 0.001722 0.000000
# 4 0.000000 0.000000 0.000000 0.060610 0.000000 -0.003843
# 5 0.005887 0.000413 0.001722 0.000000 0.043212 0.000000
# 6 0.000000 0.000000 0.000000 -0.003843 0.000000 0.052680
#
#
# Mechanical properties :
#
#
# Convention : Reuss Voigt Hill
#
# Bulk Modulus (GPa) = 53.51300 58.58850 56.05075
# Shear Modulus (GPa) = 20.66588 21.75385 21.20986
#
# Velocity S-wave (km/s) = 3.35465 3.44182 3.39851
# Velocity P-wave (km/s) = 6.64421 6.90647 6.77661
#
# Compressibility (1/GPa) = 0.01868705
#
# Stress axis : x y z
#
# Youngs Moduli (GPa) = 59.99191 59.89309 64.16350
#
# Poissons Ratio (x) = 0.26957 0.26764
# Poissons Ratio (y) = 0.27002 0.41447
# Poissons Ratio (z) = 0.25024 0.38689
#
# Static dielectric constant tensor:
#      x y z
#    x 1.637360 0.000000 0.040460 
#    y 0.000000 1.632410 0.000000 
#    z 0.040460 0.000000 1.680850 
# 
# From -- ./inp_files/80711.got.cif
#   From: 2010.05.17/outbox.cif.g08.bks.cpg/sg12_41_cif.got.tgz:80711.got - 2010.06.03 13:09:07.
