data_PCOD9208097
_publ_section_title
;
Structure prediction by ZEFSAII (Michael W. Deem and Ramdas Pophale) SiO2 
 PCOD9208097
Probable space group: C 2/M
;
_chemical_formula_sum "Si O2"
_cell_formula_units_Z 56
_cell_length_a 19.512251
_cell_length_b 14.892134
_cell_length_c 15.013932
_cell_angle_alpha 90.000000
_cell_angle_beta 141.195394
_cell_angle_gamma 90.000000
_cell_volume 2733.979195
_symmetry_space_group_name_H-M "C 2/M"
_symmetry_group_IT_number 12
_symmetry_cell_setting 'monoclinic'
loop_
_space_group_symop_operation_xyz
x,y,z
-x,y,-z
-x,-y,-z
x,-y,z
1/2+x,1/2+y,z
1/2-x,1/2+y,-z
1/2-x,1/2-y,-z
1/2+x,1/2-y,z
loop_
_atom_site_type_symbol
_atom_site_label
_atom_site_fract_x
_atom_site_fract_y
_atom_site_fract_z
Si Si1 0.202321 0.275733 0.265750
Si Si2 0.270758 0.100871 0.433563
Si Si3 0.130049 0.893926 0.471170
Si Si4 0.473097 0.905734 0.867339
Si Si5 0.981845 0.397623 0.374317
Si Si6 0.827186 0.310237 0.966581
Si Si7 0.405430 0.713312 0.214413
O O1 0.228186 0.177838 0.326079
O O2 0.306595 0.340492 0.386915
O O3 0.105283 0.321775 0.223939
O O4 0.166909 0.276221 0.128099
O O5 0.210134 0.114548 0.466315
O O6 0.402486 0.107875 0.561793
O O7 0.244024 0.000000 0.376240
O O8 0.015795 0.843253 0.337146
O O9 0.115328 0.000000 0.474439
O O10 0.419253 0.000000 0.786722
O O11 0.500000 0.910142 0.000000
O O12 0.587996 0.891410 0.936804
O O13 0.938649 0.500000 0.316599
O O14 0.000000 0.388950 0.500000
O O15 0.915703 0.310646 0.273959
O O16 0.702160 0.334777 0.856868
O O17 0.871749 0.235762 0.079307
#
# Coordination Sequence:
#
# PCOD9208097 Si02
#       7
#     8   8   8   8   8   8   8
#     4  11  20  39  65  92 123 160 206 266 312 371
#     4  10  21  37  61  94 123 153 202 259 316 367
#     4  11  24  39  62  95 127 164 208 260 318 375
#     4   9  19  35  57  86 119 156 202 249 296 361
#     4  10  21  38  64  93 118 152 205 259 309 366
#     4  10  24  39  60  87 125 168 210 248 311 373
#     4  11  23  42  60  87 128 168 203 256 312 377
#
# _framework density 20.482963999999999
#
# number of rings (size 3 to 8) (size 9 to 14) (size 15 to 20)
#    0.000    1.714    1.429    2.571    2.000    1.714 
#    0.000    3.571    0.000    6.429    0.000    0.000 
#    0.000    0.000    0.000    0.000    0.000    0.000 
#
# Total GULP energy -156299.856388 kJ/mol
# GULP energy per Si atom -5582.137728 kJ/mol
# Density = 2.043634 g / cm^3
# Si number density = 20.482964 Si / 1000 Ang^3
#
#
#
# Elastic Constant Matrix: (Units=GPa)
#
#
# Indices 1 2 3 4 5 6 
#
# 1 73.6800 20.0610 23.1249 0.0000 18.1141 0.0000
# 2 20.0610 92.9978 43.2914 0.0000 -1.2356 0.0000
# 3 23.1249 43.2914 87.6889 0.0000 5.0143 0.0000
# 4 0.0000 0.0000 0.0000 18.2367 0.0000 9.2503
# 5 18.1141 -1.2356 5.0143 0.0000 38.1600 0.0000
# 6 0.0000 0.0000 0.0000 9.2503 0.0000 16.1888
#
#
#
# Elastic Compliance Matrix: (Units=1/GPa)
#
#
# Indices 1 2 3 4 5 6 
#
# 1 0.017050 -0.002462 -0.002835 0.000000 -0.007801 0.000000
# 2 -0.002462 0.014388 -0.006597 0.000000 0.002501 0.000000
# 3 -0.002835 -0.006597 0.015460 0.000000 -0.000899 0.000000
# 4 0.000000 0.000000 0.000000 0.077214 0.000000 -0.044120
# 5 -0.007801 0.002501 -0.000899 0.000000 0.030107 0.000000
# 6 0.000000 0.000000 0.000000 -0.044120 0.000000 0.086982
#
#
# Mechanical properties :
#
#
# Convention : Reuss Voigt Hill
#
# Bulk Modulus (GPa) = 43.27065 47.48013 45.37539
# Shear Modulus (GPa) = 18.33565 25.70972 22.02269
#
# Velocity S-wave (km/s) = 2.99518 3.54669 3.28254
# Velocity P-wave (km/s) = 5.75608 6.32476 6.04711
#
# Compressibility (1/GPa) = 0.02311035
#
# Stress axis : x y z
#
# Youngs Moduli (GPa) = 58.65086 69.50080 64.68323
#
# Poissons Ratio (x) = 0.17111 0.18337
# Poissons Ratio (y) = 0.14440 0.42673
# Poissons Ratio (z) = 0.16627 0.45851
#
# Static dielectric constant tensor:
#      x y z
#    x 1.776700 0.000000 0.000280 
#    y 0.000000 1.710330 0.000000 
#    z 0.000280 0.000000 1.730010 
# 
# From -- ./inp_files/233726.got.cif
#   From: 2010.05.17/outbox.cif.g08.bks.cpg/sg12_117_cif.got.tgz:233726.got - 2010.06.03 13:09:07.
