data_PCOD9208585
_publ_section_title
;
Structure prediction by ZEFSAII (Michael W. Deem and Ramdas Pophale) SiO2 
 PCOD9208585
Probable space group: C 2/M
;
_chemical_formula_sum "Si O2"
_cell_formula_units_Z 44
_cell_length_a 15.749755
_cell_length_b 25.055793
_cell_length_c 11.304512
_cell_angle_alpha 90.000000
_cell_angle_beta 152.204086
_cell_angle_gamma 90.000000
_cell_volume 2080.276812
_symmetry_space_group_name_H-M "C 2/M"
_symmetry_group_IT_number 12
_symmetry_cell_setting 'monoclinic'
loop_
_space_group_symop_operation_xyz
x,y,z
-x,y,-z
-x,-y,-z
x,-y,z
1/2+x,1/2+y,z
1/2-x,1/2+y,-z
1/2-x,1/2-y,-z
1/2+x,1/2-y,z
loop_
_atom_site_type_symbol
_atom_site_label
_atom_site_fract_x
_atom_site_fract_y
_atom_site_fract_z
Si Si1 0.317850 0.000000 0.903924
Si Si2 0.491468 0.500000 0.680517
Si Si3 0.957212 0.741526 0.167142
Si Si4 0.268648 0.324141 0.436854
Si Si5 0.502054 0.400970 0.139516
Si Si6 0.000000 0.406936 0.000000
Si Si7 0.683713 0.823207 0.796991
O O1 0.167184 0.000000 0.612991
O O2 0.190519 0.000000 0.862797
O O3 0.442647 0.052477 0.035326
O O4 0.468377 0.449211 0.735473
O O5 0.867189 0.695187 0.133556
O O6 0.108154 0.715534 0.272592
O O7 0.057682 0.785860 0.375420
O O8 0.807486 0.773242 0.908046
O O9 0.342652 0.356948 0.642002
O O10 0.174537 0.368607 0.238297
O O11 0.500000 0.415921 0.000000
O O12 0.311096 0.373950 0.939953
O O13 0.500000 0.829308 0.500000
#
# Coordination Sequence:
#
# PCOD9208585 Si02
#       7
#     4   4   8   8   8   4   8
#     4  10  24  44  67  93 132 156 207 280 324 379
#     4  11  23  46  64  94 121 160 212 267 327 386
#     4   9  21  38  57  92 128 165 211 257 305 380
#     4  10  21  38  63  94 127 166 211 256 318 375
#     4  11  23  42  66  89 126 171 211 262 319 380
#     4  11  22  40  68  98 122 168 208 267 324 388
#     4  10  21  38  58  86 127 167 207 258 308 362
#
# _framework density 21.151032000000001
#
# number of rings (size 3 to 8) (size 9 to 14) (size 15 to 20)
#    0.000    1.818    1.818    1.364    5.091    0.000 
#    3.273    0.455    0.000    0.000    0.000    0.000 
#    0.000    0.000    0.000    0.000    0.000    0.000 
#
# Total GULP energy -122760.494445 kJ/mol
# GULP energy per Si atom -5580.022475 kJ/mol
# Density = 2.110289 g / cm^3
# Si number density = 21.151032 Si / 1000 Ang^3
#
#
#
# Elastic Constant Matrix: (Units=GPa)
#
#
# Indices 1 2 3 4 5 6 
#
# 1 45.9132 6.5858 -5.5868 0.0000 2.0326 0.0000
# 2 6.5858 66.1512 19.0224 0.0000 -2.6389 0.0000
# 3 -5.5868 19.0224 89.9996 0.0000 4.7542 0.0000
# 4 0.0000 0.0000 0.0000 19.2093 0.0000 0.6253
# 5 2.0326 -2.6389 4.7542 0.0000 31.3265 0.0000
# 6 0.0000 0.0000 0.0000 0.6253 0.0000 14.3365
#
#
#
# Elastic Compliance Matrix: (Units=1/GPa)
#
#
# Indices 1 2 3 4 5 6 
#
# 1 0.022551 -0.002938 0.002128 0.000000 -0.002034 0.000000
# 2 -0.002938 0.016589 -0.003803 0.000000 0.002165 0.000000
# 3 0.002128 -0.003803 0.012169 0.000000 -0.002305 0.000000
# 4 0.000000 0.000000 0.000000 0.052132 0.000000 -0.002274
# 5 -0.002034 0.002165 -0.002305 0.000000 0.032586 0.000000
# 6 0.000000 0.000000 0.000000 -0.002274 0.000000 0.069851
#
#
# Mechanical properties :
#
#
# Convention : Reuss Voigt Hill
#
# Bulk Modulus (GPa) = 23.76261 26.90075 25.33168
# Shear Modulus (GPa) = 21.82144 25.11061 23.46602
#
# Velocity S-wave (km/s) = 3.21549 3.44932 3.33445
# Velocity P-wave (km/s) = 5.00449 5.34881 5.17951
#
# Compressibility (1/GPa) = 0.04208292
#
# Stress axis : x y z
#
# Youngs Moduli (GPa) = 44.34448 60.27941 82.17681
#
# Poissons Ratio (x) = 0.17712 -0.17490
# Poissons Ratio (y) = 0.13029 0.31253
# Poissons Ratio (z) = -0.09438 0.22925
#
# Static dielectric constant tensor:
#      x y z
#    x 1.778180 0.000000 0.008550 
#    y 0.000000 1.779410 0.000000 
#    z 0.008550 0.000000 1.794190 
# 
# From -- ./inp_files/149574.got.cif
#   From: 2010.05.17/outbox.cif.g08.bks.cpg/sg12_75_cif.got.tgz:149574.got - 2010.06.03 13:09:07.
