data_PCOD9208744
_publ_section_title
;
Structure prediction by ZEFSAII (Michael W. Deem and Ramdas Pophale) SiO2 
 PCOD9208744
Probable space group: C 2/M
;
_chemical_formula_sum "Si O2"
_cell_formula_units_Z 56
_cell_length_a 22.258574
_cell_length_b 14.763448
_cell_length_c 7.589378
_cell_angle_alpha 90.000000
_cell_angle_beta 111.457919
_cell_angle_gamma 90.000000
_cell_volume 2321.104707
_symmetry_space_group_name_H-M "C 2/M"
_symmetry_group_IT_number 12
_symmetry_cell_setting 'monoclinic'
loop_
_space_group_symop_operation_xyz
x,y,z
-x,y,-z
-x,-y,-z
x,-y,z
1/2+x,1/2+y,z
1/2-x,1/2+y,-z
1/2-x,1/2-y,-z
1/2+x,1/2-y,z
loop_
_atom_site_type_symbol
_atom_site_label
_atom_site_fract_x
_atom_site_fract_y
_atom_site_fract_z
Si Si1 0.670965 0.602934 0.360189
Si Si2 0.442273 0.897783 0.797965
Si Si3 0.912939 0.787407 0.241172
Si Si4 0.694831 0.892729 0.413492
Si Si5 0.791452 0.899300 0.008053
Si Si6 0.452865 0.295017 0.677334
Si Si7 0.149863 0.393331 0.769255
O O1 0.654753 0.500000 0.401698
O O2 0.732452 0.644735 0.533790
O O3 0.697374 0.596627 0.190182
O O4 0.607116 0.663213 0.284397
O O5 0.367608 0.878476 0.777468
O O6 0.454986 0.813476 0.687551
O O7 0.441075 0.000000 0.720903
O O8 0.500000 0.896642 0.000000
O O9 0.934106 0.817886 0.458036
O O10 0.902393 0.679361 0.227037
O O11 0.974002 0.820513 0.191425
O O12 0.843973 0.830507 0.132520
O O13 0.668289 0.873520 0.583282
O O14 0.707289 0.000000 0.422726
O O15 0.716165 0.878736 0.948891
O O16 0.803577 0.000000 0.094245
O O17 0.132308 0.500000 0.765575
#
# Coordination Sequence:
#
# PCOD9208744 Si02
#       7
#     8   8   8   8   8   8   8
#     4   9  20  40  64  89 114 154 207 251 299 355
#     4  10  21  38  59  86 122 158 195 244 296 348
#     4  11  23  38  55  89 127 158 199 245 294 358
#     4   8  15  34  62  88 115 150 198 249 296 350
#     4   9  20  39  65  90 115 152 201 256 304 351
#     4  11  25  38  57  87 122 164 203 240 297 361
#     4   9  17  36  63  88 118 157 198 242 298 360
#
# _framework density 24.126442999999998
#
# number of rings (size 3 to 8) (size 9 to 14) (size 15 to 20)
#    0.000    2.429    1.429    2.143    2.000    2.286 
#    0.000    5.714    0.000    3.429    0.000    0.000 
#    0.000    0.000    0.000    0.000    0.000    0.000 
#
# Total GULP energy -156222.564113 kJ/mol
# GULP energy per Si atom -5579.377290 kJ/mol
# Density = 2.407153 g / cm^3
# Si number density = 24.126443 Si / 1000 Ang^3
#
#
#
# Elastic Constant Matrix: (Units=GPa)
#
#
# Indices 1 2 3 4 5 6 
#
# 1 133.4243 43.8504 32.3777 0.0000 38.9395 0.0000
# 2 43.8504 73.1788 21.9837 0.0000 27.2933 0.0000
# 3 32.3777 21.9837 77.2458 0.0000 36.7756 0.0000
# 4 0.0000 0.0000 0.0000 24.6231 0.0000 11.5205
# 5 38.9395 27.2933 36.7756 0.0000 36.7334 0.0000
# 6 0.0000 0.0000 0.0000 11.5205 0.0000 21.6994
#
#
#
# Elastic Compliance Matrix: (Units=1/GPa)
#
#
# Indices 1 2 3 4 5 6 
#
# 1 0.011456 -0.003083 0.001465 0.000000 -0.011320 0.000000
# 2 -0.003083 0.019989 0.002137 0.000000 -0.013723 0.000000
# 3 0.001465 0.002137 0.025257 0.000000 -0.028427 0.000000
# 4 0.000000 0.000000 0.000000 0.054034 0.000000 -0.028688
# 5 -0.011320 -0.013723 -0.028427 0.000000 0.077879 0.000000
# 6 0.000000 0.000000 0.000000 -0.028688 0.000000 0.061315
#
#
# Mechanical properties :
#
#
# Convention : Reuss Voigt Hill
#
# Bulk Modulus (GPa) = 17.31893 53.36361 35.34127
# Shear Modulus (GPa) = 18.64698 28.98698 23.81698
#
# Velocity S-wave (km/s) = 2.78310 3.46997 3.14534
# Velocity P-wave (km/s) = 4.18587 6.18228 5.27930
#
# Compressibility (1/GPa) = 0.05774027
#
# Stress axis : x y z
#
# Youngs Moduli (GPa) = 87.28706 50.02785 39.59290
#
# Poissons Ratio (x) = 0.15423 -0.05800
# Poissons Ratio (y) = 0.26910 -0.08461
# Poissons Ratio (z) = -0.12787 -0.10691
#
# Static dielectric constant tensor:
#      x y z
#    x 2.077370 0.000000 0.010030 
#    y 0.000000 1.905750 0.000000 
#    z 0.010030 0.000000 1.988260 
# 
# From -- ./inp_files/96979.got.cif
#   From: 2010.05.17/outbox.cif.g08.bks.cpg/sg12_49_cif.got.tgz:96979.got - 2010.06.03 13:09:07.
