data_PCOD9208864
_publ_section_title
;
Structure prediction by ZEFSAII (Michael W. Deem and Ramdas Pophale) SiO2 
 PCOD9208864
Probable space group: C 2/M
;
_chemical_formula_sum "Si O2"
_cell_formula_units_Z 48
_cell_length_a 32.808525
_cell_length_b 8.711711
_cell_length_c 16.411694
_cell_angle_alpha 90.000000
_cell_angle_beta 32.861105
_cell_angle_gamma 90.000000
_cell_volume 2545.228922
_symmetry_space_group_name_H-M "C 2/M"
_symmetry_group_IT_number 12
_symmetry_cell_setting 'monoclinic'
loop_
_space_group_symop_operation_xyz
x,y,z
-x,y,-z
-x,-y,-z
x,-y,z
1/2+x,1/2+y,z
1/2-x,1/2+y,-z
1/2-x,1/2-y,-z
1/2+x,1/2-y,z
loop_
_atom_site_type_symbol
_atom_site_label
_atom_site_fract_x
_atom_site_fract_y
_atom_site_fract_z
Si Si1 0.813051 0.683969 0.453967
Si Si2 0.057058 0.316944 0.294766
Si Si3 0.602671 0.316908 0.386224
Si Si4 0.396212 0.684712 0.955574
Si Si5 0.728065 0.184813 0.292525
Si Si6 0.525867 0.314665 0.865930
O O1 0.811079 0.500000 0.453562
O O2 0.750000 0.750000 0.500000
O O3 0.794958 0.730197 0.577368
O O4 0.894631 0.743317 0.291021
O O5 0.054009 0.500000 0.305877
O O6 0.102854 0.249884 0.294511
O O7 0.090865 0.264399 0.152482
O O8 0.972927 0.249886 0.445541
O O9 0.597327 0.500000 0.392108
O O10 0.673711 0.263832 0.318901
O O11 0.399718 0.500000 0.938557
O O12 0.462017 0.728273 0.907901
O O13 0.314779 0.721924 0.129088
O O14 0.719371 0.000000 0.300338
O O15 0.533083 0.500000 0.852989
O O16 0.500000 0.269410 0.000000
#
# Coordination Sequence:
#
# PCOD9208864 Si02
#       6
#     8   8   8   8   8   8
#     4  11  23  39  61  88 118 153 193 238 287 340
#     4  11  22  38  60  85 116 152 192 239 290 343
#     4  11  22  38  61  87 115 150 194 239 287 344
#     4  10  21  38  60  85 116 153 193 237 285 342
#     4  10  22  40  60  85 118 154 192 236 288 342
#     4  10  21  39  62  87 117 154 193 235 288 344
#
# _framework density 18.858815
#
# number of rings (size 3 to 8) (size 9 to 14) (size 15 to 20)
#    0.000    1.500    0.000    6.500    0.000    9.000 
#    0.000    1.667    0.000    0.000    0.000    0.000 
#    0.000    0.000    0.000    0.000    0.000    0.000 
#
# Total GULP energy -134215.842905 kJ/mol
# GULP energy per Si atom -5592.326788 kJ/mol
# Density = 1.881589 g / cm^3
# Si number density = 18.858815 Si / 1000 Ang^3
#
#
#
# Elastic Constant Matrix: (Units=GPa)
#
#
# Indices 1 2 3 4 5 6 
#
# 1 178.9469 74.5025 121.4887 0.0000 -9.6006 0.0000
# 2 74.5025 79.1097 73.0652 0.0003 -0.7503 0.0000
# 3 121.4887 73.0652 173.1814 0.0001 9.2691 0.0000
# 4 0.0000 0.0003 0.0001 27.0539 0.0000 -6.1855
# 5 -9.6006 -0.7503 9.2691 0.0000 37.0739 0.0000
# 6 0.0000 0.0000 0.0000 -6.1855 0.0000 26.6647
#
#
#
# Elastic Compliance Matrix: (Units=1/GPa)
#
#
# Indices 1 2 3 4 5 6 
#
# 1 0.012951 -0.005756 -0.006923 0.000000 0.004968 0.000000
# 2 -0.005756 0.023527 -0.005913 0.000000 0.000464 0.000000
# 3 -0.006923 -0.005913 0.013407 0.000000 -0.005264 0.000000
# 4 0.000000 0.000000 0.000000 0.039033 0.000000 0.009055
# 5 0.004968 0.000464 -0.005264 0.000000 0.029585 0.000000
# 6 0.000000 0.000000 0.000000 0.009055 0.000000 0.039603
#
#
# Mechanical properties :
#
#
# Convention : Reuss Voigt Hill
#
# Bulk Modulus (GPa) = 78.72908 107.70562 93.21735
# Shear Modulus (GPa) = 25.05948 28.97061 27.01505
#
# Velocity S-wave (km/s) = 3.64922 3.92367 3.78893
# Velocity P-wave (km/s) = 7.71964 8.81830 8.28720
#
# Compressibility (1/GPa) = 0.01270179
#
# Stress axis : x y z
#
# Youngs Moduli (GPa) = 77.21272 42.50434 74.58628
#
# Poissons Ratio (x) = 0.24465 0.51636
# Poissons Ratio (y) = 0.44443 0.44103
# Poissons Ratio (z) = 0.53454 0.25133
#
# Static dielectric constant tensor:
#      x y z
#    x 1.625820 0.000000 0.005900 
#    y 0.000000 1.637100 0.000000 
#    z 0.005900 0.000000 1.621940 
# 
# From -- ./inp_files/244760.got.cif
#   From: 2010.05.17/outbox.cif.g08.bks.cpg/sg12_123_cif.got.tgz:244760.got - 2010.06.03 13:09:07.
