data_PCOD9208412
_publ_section_title
;
Structure prediction by ZEFSAII (Michael W. Deem and Ramdas Pophale) SiO2 
 PCOD9208412
Probable space group: C 2/M
;
_chemical_formula_sum "Si O2"
_cell_formula_units_Z 56
_cell_length_a 14.978023
_cell_length_b 7.547390
_cell_length_c 22.045441
_cell_angle_alpha 90.000000
_cell_angle_beta 122.155400
_cell_angle_gamma 90.000000
_cell_volume 2109.853474
_symmetry_space_group_name_H-M "C 2/M"
_symmetry_group_IT_number 12
_symmetry_cell_setting 'monoclinic'
loop_
_space_group_symop_operation_xyz
x,y,z
-x,y,-z
-x,-y,-z
x,-y,z
1/2+x,1/2+y,z
1/2-x,1/2+y,-z
1/2-x,1/2-y,-z
1/2+x,1/2-y,z
loop_
_atom_site_type_symbol
_atom_site_label
_atom_site_fract_x
_atom_site_fract_y
_atom_site_fract_z
Si Si1 0.690245 0.787225 0.121417
Si Si2 0.917752 0.709124 0.231786
Si Si3 0.916375 0.294303 0.546228
Si Si4 0.871216 0.797260 0.029907
Si Si5 0.219344 0.214515 0.395827
Si Si6 0.359694 0.783049 0.343014
Si Si7 0.440728 0.798028 0.818449
O O1 0.810102 0.729038 0.155064
O O2 0.648256 0.714817 0.170788
O O3 0.686560 0.000000 0.121765
O O4 0.621527 0.726373 0.039823
O O5 0.938277 0.500000 0.246825
O O6 0.882988 0.784270 0.284132
O O7 0.014042 0.785340 0.227155
O O8 0.920313 0.500000 0.530576
O O9 0.882244 0.282020 0.604861
O O10 0.819017 0.219882 0.472890
O O11 0.034661 0.226600 0.582510
O O12 0.958472 0.694352 0.099525
O O13 0.888399 0.000000 0.053003
O O14 0.750000 0.750000 0.000000
O O15 0.254603 0.269019 0.341129
O O16 0.213706 0.000000 0.395910
O O17 0.358991 0.000000 0.341366
O O18 0.409720 0.000000 0.793902
#
# Coordination Sequence:
#
# PCOD9208412 Si02
#       7
#     8   8   8   8   8   8   8
#     4  11  23  39  59  84 113 145 182 227 277 327
#     4  10  21  38  57  77 106 147 188 227 269 326
#     4   9  17  31  53  79 107 140 180 224 273 328
#     4  12  23  37  61  88 114 143 179 226 278 328
#     4   9  17  31  52  79 109 139 177 228 275 320
#     4   9  18  33  54  77 104 144 189 222 266 325
#     4  10  22  39  58  81 111 145 182 226 277 327
#
# _framework density 26.542127000000001
#
# number of rings (size 3 to 8) (size 9 to 14) (size 15 to 20)
#    0.000    2.000    1.429    2.571    0.000    5.714 
#    0.000    3.571    0.000    3.429    0.000    0.000 
#    0.000    0.000    0.000    0.000    0.000    0.000 
#
# Total GULP energy -156646.686537 kJ/mol
# GULP energy per Si atom -5594.524519 kJ/mol
# Density = 2.648172 g / cm^3
# Si number density = 26.542127 Si / 1000 Ang^3
#
#
#
# Elastic Constant Matrix: (Units=GPa)
#
#
# Indices 1 2 3 4 5 6 
#
# 1 190.2580 0.0181 14.9228 0.0000 -19.1802 0.0000
# 2 0.0181 100.7200 -1.5038 0.0000 0.1156 0.0000
# 3 14.9228 -1.5038 72.6449 0.0000 -13.5858 0.0000
# 4 0.0000 0.0000 0.0000 13.4205 0.0000 0.1766
# 5 -19.1802 0.1156 -13.5858 0.0000 54.8594 0.0000
# 6 0.0000 0.0000 0.0000 0.1766 0.0000 16.5758
#
#
#
# Elastic Compliance Matrix: (Units=1/GPa)
#
#
# Indices 1 2 3 4 5 6 
#
# 1 0.005493 -0.000015 -0.000807 0.000000 0.001721 0.000000
# 2 -0.000015 0.009932 0.000214 0.000000 0.000027 0.000000
# 3 -0.000807 0.000214 0.014557 0.000000 0.003322 0.000000
# 4 0.000000 0.000000 0.000000 0.074523 0.000000 -0.000794
# 5 0.001721 0.000027 0.003322 0.000000 0.019653 0.000000
# 6 0.000000 0.000000 0.000000 -0.000794 0.000000 0.060337
#
#
# Mechanical properties :
#
#
# Convention : Reuss Voigt Hill
#
# Bulk Modulus (GPa) = 34.76425 43.38857 39.07641
# Shear Modulus (GPa) = 25.60170 40.31686 32.95928
#
# Velocity S-wave (km/s) = 3.10912 3.90163 3.52770
# Velocity P-wave (km/s) = 5.10049 6.05636 5.59886
#
# Compressibility (1/GPa) = 0.02876518
#
# Stress axis : x y z
#
# Youngs Moduli (GPa) = 182.05757 100.68797 68.69491
#
# Poissons Ratio (x) = 0.00151 0.05543
# Poissons Ratio (y) = 0.00273 -0.01468
# Poissons Ratio (z) = 0.14689 -0.02151
#
# Static dielectric constant tensor:
#      x y z
#    x 2.081590 0.000000 -0.030090 
#    y 0.000000 1.969430 0.000000 
#    z -0.030090 0.000000 2.283340 
# 
# From -- ./inp_files/337875.got.cif
#   From: 2010.05.17/outbox.cif.g08.bks.cpg/sg12_169_cif.got.tgz:337875.got - 2010.06.03 13:09:07.
