data_PCOD9208981
_publ_section_title
;
Structure prediction by ZEFSAII (Michael W. Deem and Ramdas Pophale) SiO2 
 PCOD9208981
Probable space group: C 2/M
;
_chemical_formula_sum "Si O2"
_cell_formula_units_Z 48
_cell_length_a 30.877355
_cell_length_b 13.851758
_cell_length_c 15.664075
_cell_angle_alpha 90.000000
_cell_angle_beta 158.942571
_cell_angle_gamma 90.000000
_cell_volume 2407.194668
_symmetry_space_group_name_H-M "C 2/M"
_symmetry_group_IT_number 12
_symmetry_cell_setting 'monoclinic'
loop_
_space_group_symop_operation_xyz
x,y,z
-x,y,-z
-x,-y,-z
x,-y,z
1/2+x,1/2+y,z
1/2-x,1/2+y,-z
1/2-x,1/2-y,-z
1/2+x,1/2-y,z
loop_
_atom_site_type_symbol
_atom_site_label
_atom_site_fract_x
_atom_site_fract_y
_atom_site_fract_z
Si Si1 0.559967 0.390378 0.410438
Si Si2 0.362573 0.887172 0.715507
Si Si3 0.815839 0.201790 0.928144
Si Si4 0.262543 0.109568 0.913670
Si Si5 0.132524 0.385596 0.713076
Si Si6 0.286676 0.746022 0.429910
O O1 0.579661 0.500000 0.416366
O O2 0.629037 0.383852 0.628146
O O3 0.621003 0.314520 0.458548
O O4 0.419857 0.366612 0.154289
O O5 0.346704 0.827663 0.598768
O O6 0.281142 0.830334 0.634390
O O7 0.328516 0.000000 0.644510
O O8 0.500000 0.882961 0.000000
O O9 0.837928 0.310634 0.001538
O O10 0.690182 0.168029 0.739260
O O11 0.803889 0.204837 0.804562
O O12 0.306102 0.000000 0.978919
O O13 0.277907 0.128662 0.041789
O O14 0.124355 0.500000 0.679931
O O15 0.000000 0.353169 0.500000
#
# Coordination Sequence:
#
# PCOD9208981 Si02
#       6
#     8   8   8   8   8   8
#     4  10  21  38  60  88 121 157 201 247 294 350
#     4  10  21  40  64  89 118 154 196 238 289 361
#     4  11  22  37  63  87 120 157 206 247 296 352
#     4   9  21  39  57  82 116 159 203 246 298 342
#     4  10  22  39  58  85 122 160 204 255 301 343
#     4  10  22  39  60  90 123 154 191 243 302 354
#
# _framework density 19.940223
#
# number of rings (size 3 to 8) (size 9 to 14) (size 15 to 20)
#    0.000    2.000    0.000    2.500    4.667    2.667 
#    0.000    3.333    0.000    5.500    0.000    0.000 
#    0.000    0.000    0.000    0.000    0.000    0.000 
#
# Total GULP energy -133985.787081 kJ/mol
# GULP energy per Si atom -5582.741128 kJ/mol
# Density = 1.989484 g / cm^3
# Si number density = 19.940223 Si / 1000 Ang^3
#
#
#
# Elastic Constant Matrix: (Units=GPa)
#
#
# Indices 1 2 3 4 5 6 
#
# 1 56.7059 39.7249 25.2957 0.0000 -11.8584 0.0000
# 2 39.7249 112.5954 47.6845 0.0000 -17.9171 0.0000
# 3 25.2957 47.6845 66.4509 0.0000 -7.4666 0.0000
# 4 0.0000 0.0000 0.0000 26.1432 0.0000 -1.8636
# 5 -11.8584 -17.9171 -7.4666 0.0000 31.2980 0.0000
# 6 0.0000 0.0000 0.0000 -1.8636 0.0000 25.1784
#
#
#
# Elastic Compliance Matrix: (Units=1/GPa)
#
#
# Indices 1 2 3 4 5 6 
#
# 1 0.024967 -0.006090 -0.004586 0.000000 0.004879 0.000000
# 2 -0.006090 0.015147 -0.008052 0.000000 0.004443 0.000000
# 3 -0.004586 -0.008052 0.022461 0.000000 -0.000988 0.000000
# 4 0.000000 0.000000 0.000000 0.038454 0.000000 0.002846
# 5 0.004879 0.004443 -0.000988 0.000000 0.036107 0.000000
# 6 0.000000 0.000000 0.000000 0.002846 0.000000 0.039927
#
#
# Mechanical properties :
#
#
# Convention : Reuss Voigt Hill
#
# Bulk Modulus (GPa) = 39.80889 51.24028 45.52459
# Shear Modulus (GPa) = 22.43235 24.72706 23.57970
#
# Velocity S-wave (km/s) = 3.35771 3.52527 3.44251
# Velocity P-wave (km/s) = 5.91944 6.50559 6.21943
#
# Compressibility (1/GPa) = 0.02512002
#
# Stress axis : x y z
#
# Youngs Moduli (GPa) = 40.05236 66.01978 44.52130
#
# Poissons Ratio (x) = 0.40208 0.20416
# Poissons Ratio (y) = 0.24393 0.35848
# Poissons Ratio (z) = 0.18367 0.53158
#
# Static dielectric constant tensor:
#      x y z
#    x 1.677090 0.000000 -0.008300 
#    y 0.000000 1.711960 0.000000 
#    z -0.008300 0.000000 1.726710 
# 
# From -- ./inp_files/204861.got.cif
#   From: 2010.05.17/outbox.cif.g08.bks.cpg/sg12_103_cif.got.tgz:204861.got - 2010.06.03 13:09:07.
