data_PCOD9208422
_publ_section_title
;
Structure prediction by ZEFSAII (Michael W. Deem and Ramdas Pophale) SiO2 
 PCOD9208422
Probable space group: C 2/M
;
_chemical_formula_sum "Si O2"
_cell_formula_units_Z 48
_cell_length_a 21.824278
_cell_length_b 13.440238
_cell_length_c 11.306949
_cell_angle_alpha 90.000000
_cell_angle_beta 121.204073
_cell_angle_gamma 90.000000
_cell_volume 2836.773616
_symmetry_space_group_name_H-M "C 2/M"
_symmetry_group_IT_number 12
_symmetry_cell_setting 'monoclinic'
loop_
_space_group_symop_operation_xyz
x,y,z
-x,y,-z
-x,-y,-z
x,-y,z
1/2+x,1/2+y,z
1/2-x,1/2+y,-z
1/2-x,1/2-y,-z
1/2+x,1/2-y,z
loop_
_atom_site_type_symbol
_atom_site_label
_atom_site_fract_x
_atom_site_fract_y
_atom_site_fract_z
Si Si1 0.082776 0.118048 0.582780
Si Si2 0.359526 0.699124 0.116081
Si Si3 0.785758 0.382666 0.144154
Si Si4 0.140476 0.800887 0.397034
Si Si5 0.500000 0.615168 0.859542
Si Si6 0.285762 0.882667 0.427367
O O1 0.125114 0.151698 0.740766
O O2 0.125111 0.151683 0.509459
O O3 0.000000 0.156868 0.500000
O O4 0.078301 0.000000 0.578320
O O5 0.340625 0.813561 0.126067
O O6 0.430278 0.673602 0.113860
O O7 0.292278 0.650008 0.981778
O O8 0.796301 0.500000 0.136019
O O9 0.790679 0.363544 0.290679
O O10 0.069726 0.826406 0.253305
O O11 0.207726 0.850002 0.397234
O O12 0.159374 0.686449 0.444822
O O13 0.500002 0.500000 0.812676
O O14 0.500000 0.609090 0.000000
O O15 0.296314 0.000000 0.456597
#
# Coordination Sequence:
#
# PCOD9208422 Si02
#       6
#     8   8   8   8   8   8
#     4  11  20  32  53  83 115 142 172 229 285 324
#     4  11  21  35  57  83 111 143 184 228 275 326
#     4  10  21  38  57  79 111 149 187 224 268 326
#     4  11  21  35  57  83 111 143 184 228 275 326
#     4  11  22  37  60  85 110 143 181 228 280 326
#     4  10  21  38  57  79 111 149 187 224 268 326
#
# _framework density 16.920631
#
# number of rings (size 3 to 8) (size 9 to 14) (size 15 to 20)
#    0.000    1.333    3.333    4.000    0.000    2.667 
#    0.000    0.833    0.000    4.000    0.000    0.000 
#    0.000    0.000    0.000    0.000    0.000    0.000 
#
# Total GULP energy -133920.258800 kJ/mol
# GULP energy per Si atom -5580.010783 kJ/mol
# Density = 1.688212 g / cm^3
# Si number density = 16.920631 Si / 1000 Ang^3
#
#
#
# Elastic Constant Matrix: (Units=GPa)
#
#
# Indices 1 2 3 4 5 6 
#
# 1 88.6173 66.4818 50.5925 0.0000 12.1436 0.0000
# 2 66.4818 144.5606 58.0023 0.0000 8.9613 0.0000
# 3 50.5925 58.0023 78.2084 0.0000 -1.1557 0.0000
# 4 0.0000 0.0000 0.0000 27.8963 0.0000 -4.2669
# 5 12.1436 8.9613 -1.1557 0.0000 27.2058 0.0000
# 6 0.0000 0.0000 0.0000 -4.2669 0.0000 23.8283
#
#
#
# Elastic Compliance Matrix: (Units=1/GPa)
#
#
# Indices 1 2 3 4 5 6 
#
# 1 0.022858 -0.005669 -0.010712 0.000000 -0.008790 0.000000
# 2 -0.005669 0.011610 -0.004966 0.000000 -0.001505 0.000000
# 3 -0.010712 -0.004966 0.023508 0.000000 0.007416 0.000000
# 4 0.000000 0.000000 0.000000 0.036857 0.000000 0.006600
# 5 -0.008790 -0.001505 0.007416 0.000000 0.041491 0.000000
# 6 0.000000 0.000000 0.000000 0.006600 0.000000 0.043149
#
#
# Mechanical properties :
#
#
# Convention : Reuss Voigt Hill
#
# Bulk Modulus (GPa) = 65.43304 73.50439 69.46872
# Shear Modulus (GPa) = 22.00123 24.87340 23.43731
#
# Velocity S-wave (km/s) = 3.60982 3.83822 3.72577
# Velocity P-wave (km/s) = 7.49193 7.94843 7.72355
#
# Compressibility (1/GPa) = 0.01528280
#
# Stress axis : x y z
#
# Youngs Moduli (GPa) = 43.74895 86.13048 42.53856
#
# Poissons Ratio (x) = 0.48828 0.45567
# Poissons Ratio (y) = 0.24802 0.21123
# Poissons Ratio (z) = 0.46864 0.42769
#
# Static dielectric constant tensor:
#      x y z
#    x 1.569740 0.000000 -0.002040 
#    y 0.000000 1.561590 0.000000 
#    z -0.002040 0.000000 1.571680 
# 
# From -- ./inp_files/158047.got.cif
#   From: 2010.05.17/outbox.cif.g08.bks.cpg/sg12_80_cif.got.tgz:158047.got - 2010.06.03 13:09:07.
