data_PCOD9208799
_publ_section_title
;
Structure prediction by ZEFSAII (Michael W. Deem and Ramdas Pophale) SiO2 
 PCOD9208799
Probable space group: C 2/M
;
_chemical_formula_sum "Si O2"
_cell_formula_units_Z 44
_cell_length_a 15.151026
_cell_length_b 18.069652
_cell_length_c 11.777465
_cell_angle_alpha 90.000000
_cell_angle_beta 137.276254
_cell_angle_gamma 90.000000
_cell_volume 2187.613461
_symmetry_space_group_name_H-M "C 2/M"
_symmetry_group_IT_number 12
_symmetry_cell_setting 'monoclinic'
loop_
_space_group_symop_operation_xyz
x,y,z
-x,y,-z
-x,-y,-z
x,-y,z
1/2+x,1/2+y,z
1/2-x,1/2+y,-z
1/2-x,1/2-y,-z
1/2+x,1/2-y,z
loop_
_atom_site_type_symbol
_atom_site_label
_atom_site_fract_x
_atom_site_fract_y
_atom_site_fract_z
Si Si1 0.610485 0.623004 0.509941
Si Si2 0.804675 0.917321 0.647523
Si Si3 0.000000 0.847676 0.000000
Si Si4 0.179820 0.259157 0.051439
Si Si5 0.130848 0.708970 0.564924
Si Si6 0.150234 0.419135 0.107291
O O1 0.500000 0.604570 0.500000
O O2 0.608284 0.587429 0.383960
O O3 0.601084 0.711568 0.480878
O O4 0.748271 0.598487 0.695227
O O5 0.696961 0.852087 0.547671
O O6 0.749272 0.000000 0.602470
O O7 0.892558 0.898570 0.839704
O O8 0.054534 0.792017 0.954561
O O9 0.271971 0.232799 0.241825
O O10 0.156307 0.346395 0.037359
O O11 0.250000 0.250000 0.000000
O O12 0.000000 0.679869 0.500000
O O13 0.186581 0.500000 0.093557
O O14 0.000000 0.423242 0.000000
#
# Coordination Sequence:
#
# PCOD9208799 Si02
#       6
#     8   8   4   8   8   8
#     4  10  22  40  64  92 121 160 207 250 303 362
#     4  11  23  39  61  89 124 161 199 249 305 359
#     4  10  23  40  59  86 120 162 206 244 289 368
#     4  10  21  38  60  85 117 161 203 239 294 363
#     4   9  21  39  60  87 115 154 203 249 294 359
#     4  10  21  38  59  90 125 153 197 258 309 351
#
# _framework density 20.113242
#
# number of rings (size 3 to 8) (size 9 to 14) (size 15 to 20)
#    0.000    2.000    0.909    1.364    7.636    3.273 
#    0.000    3.636    0.000    0.000    0.000    0.000 
#    0.000    0.000    0.000    0.000    0.000    0.000 
#
# Total GULP energy -122667.540198 kJ/mol
# GULP energy per Si atom -5575.797282 kJ/mol
# Density = 2.006746 g / cm^3
# Si number density = 20.113242 Si / 1000 Ang^3
#
#
#
# Elastic Constant Matrix: (Units=GPa)
#
#
# Indices 1 2 3 4 5 6 
#
# 1 101.2776 58.8705 9.9162 0.0000 -5.6479 0.0000
# 2 58.8705 140.6938 5.9305 0.0000 -9.3018 0.0000
# 3 9.9162 5.9305 21.9666 0.0000 9.9150 0.0000
# 4 0.0000 0.0000 0.0000 30.7038 0.0000 -4.1612
# 5 -5.6479 -9.3018 9.9150 0.0000 25.7062 0.0000
# 6 0.0000 0.0000 0.0000 -4.1612 0.0000 21.0828
#
#
#
# Elastic Compliance Matrix: (Units=1/GPa)
#
#
# Indices 1 2 3 4 5 6 
#
# 1 0.013752 -0.005246 -0.006416 0.000000 0.003598 0.000000
# 2 -0.005246 0.009558 -0.001517 0.000000 0.002891 0.000000
# 3 -0.006416 -0.001517 0.060193 0.000000 -0.025175 0.000000
# 4 0.000000 0.000000 0.000000 0.033464 0.000000 0.006605
# 5 0.003598 0.002891 -0.025175 0.000000 0.050448 0.000000
# 6 0.000000 0.000000 0.000000 0.006605 0.000000 0.048736
#
#
# Mechanical properties :
#
#
# Convention : Reuss Voigt Hill
#
# Bulk Modulus (GPa) = 17.49930 45.93025 31.71478
# Shear Modulus (GPa) = 19.11634 28.11329 23.61482
#
# Velocity S-wave (km/s) = 3.08626 3.74271 3.43022
# Velocity P-wave (km/s) = 4.62809 6.44690 5.61167
#
# Compressibility (1/GPa) = 0.05714514
#
# Stress axis : x y z
#
# Youngs Moduli (GPa) = 72.71663 104.62655 16.61330
#
# Poissons Ratio (x) = 0.54887 0.10658
# Poissons Ratio (y) = 0.38147 0.02521
# Poissons Ratio (z) = 0.46652 0.15874
#
# Static dielectric constant tensor:
#      x y z
#    x 1.695470 0.000000 0.036340 
#    y 0.000000 1.754860 0.000000 
#    z 0.036340 0.000000 1.733380 
# 
# From -- ./inp_files/145805.got.cif
#   From: 2010.05.17/outbox.cif.g08.bks.cpg/sg12_73_cif.got.tgz:145805.got - 2010.06.03 13:09:07.
