data_PCOD9208988
_publ_section_title
;
Structure prediction by ZEFSAII (Michael W. Deem and Ramdas Pophale) SiO2 
 PCOD9208988
Probable space group: C 2/M
;
_chemical_formula_sum "Si O2"
_cell_formula_units_Z 56
_cell_length_a 25.857155
_cell_length_b 8.647771
_cell_length_c 13.677517
_cell_angle_alpha 90.000000
_cell_angle_beta 67.808505
_cell_angle_gamma 90.000000
_cell_volume 2831.840393
_symmetry_space_group_name_H-M "C 2/M"
_symmetry_group_IT_number 12
_symmetry_cell_setting 'monoclinic'
loop_
_space_group_symop_operation_xyz
x,y,z
-x,y,-z
-x,-y,-z
x,-y,z
1/2+x,1/2+y,z
1/2-x,1/2+y,-z
1/2-x,1/2-y,-z
1/2+x,1/2-y,z
loop_
_atom_site_type_symbol
_atom_site_label
_atom_site_fract_x
_atom_site_fract_y
_atom_site_fract_z
Si Si1 0.141776 0.312848 0.230591
Si Si2 0.082624 0.315133 0.691705
Si Si3 0.436765 0.317188 0.080077
Si Si4 0.843203 0.686466 0.004508
Si Si5 0.482829 0.188504 0.620975
Si Si6 0.246527 0.314933 0.774117
Si Si7 0.202101 0.816072 0.603919
O O1 0.144023 0.500000 0.233731
O O2 0.190541 0.245345 0.262888
O O3 0.079626 0.262695 0.305614
O O4 0.154049 0.264360 0.109984
O O5 0.086785 0.500000 0.681447
O O6 0.073403 0.267745 0.810437
O O7 0.029931 0.262312 0.664672
O O8 0.141115 0.243010 0.616399
O O9 0.427634 0.500000 0.100947
O O10 0.394492 0.255109 0.028817
O O11 0.500000 0.292089 0.000000
O O12 0.847473 0.500000 0.003283
O O13 0.787213 0.729823 0.103378
O O14 0.500000 0.237851 0.500000
O O15 0.482433 0.000000 0.622292
O O16 0.245722 0.500000 0.765903
O O17 0.214922 0.243766 0.704049
O O18 0.250000 0.750000 0.500000
O O19 0.203362 0.000000 0.601641
#
# Coordination Sequence:
#
# PCOD9208988 Si02
#       7
#     8   8   8   8   8   8   8
#     4  10  21  38  62  91 123 168 215 257 311 374
#     4  11  22  40  66  94 126 164 209 260 314 375
#     4  11  23  37  58  89 125 166 212 261 316 373
#     4  10  21  38  60  88 123 163 211 258 314 384
#     4   9  20  38  61  90 122 161 209 255 306 370
#     4  11  23  40  62  93 128 164 208 258 314 376
#     4  12  26  44  67  95 128 165 209 260 315 377
#
# _framework density 19.775124999999999
#
# number of rings (size 3 to 8) (size 9 to 14) (size 15 to 20)
#    0.000    1.429    1.429    3.857    2.000    3.429 
#    0.000    1.429    0.000    2.143    0.000    0.000 
#    0.000    0.000    0.000    0.000    0.000    0.000 
#
# Total GULP energy -156580.736123 kJ/mol
# GULP energy per Si atom -5592.169147 kJ/mol
# Density = 1.973012 g / cm^3
# Si number density = 19.775125 Si / 1000 Ang^3
#
#
#
# Elastic Constant Matrix: (Units=GPa)
#
#
# Indices 1 2 3 4 5 6 
#
# 1 130.9571 24.0454 19.7604 0.0000 -23.3206 0.0000
# 2 24.0454 34.3363 26.3588 0.0000 -13.4643 0.0000
# 3 19.7604 26.3588 75.6329 0.0000 -20.2438 0.0000
# 4 0.0000 0.0000 0.0000 21.5802 0.0000 -5.8257
# 5 -23.3206 -13.4643 -20.2438 0.0000 32.0086 0.0000
# 6 0.0000 0.0000 0.0000 -5.8257 0.0000 28.7189
#
#
#
# Elastic Compliance Matrix: (Units=1/GPa)
#
#
# Indices 1 2 3 4 5 6 
#
# 1 0.009380 -0.005091 0.000698 0.000000 0.005134 0.000000
# 2 -0.005091 0.045127 -0.012410 0.000000 0.007425 0.000000
# 3 0.000698 -0.012410 0.019385 0.000000 0.007548 0.000000
# 4 0.000000 0.000000 0.000000 0.049023 0.000000 0.009945
# 5 0.005134 0.007425 0.007548 0.000000 0.042879 0.000000
# 6 0.000000 0.000000 0.000000 0.009945 0.000000 0.036838
#
#
# Mechanical properties :
#
#
# Convention : Reuss Voigt Hill
#
# Bulk Modulus (GPa) = 24.82315 42.36174 33.59244
# Shear Modulus (GPa) = 20.02675 27.84564 23.93620
#
# Velocity S-wave (km/s) = 3.18579 3.75656 3.48288
# Velocity P-wave (km/s) = 5.11002 6.34696 5.76178
#
# Compressibility (1/GPa) = 0.04028498
#
# Stress axis : x y z
#
# Youngs Moduli (GPa) = 106.61220 22.15967 51.58712
#
# Poissons Ratio (x) = 0.11282 -0.03599
# Poissons Ratio (y) = 0.54279 0.64019
# Poissons Ratio (z) = -0.07439 0.27500
#
# Static dielectric constant tensor:
#      x y z
#    x 1.665860 0.000000 -0.007080 
#    y 0.000000 1.669210 0.000000 
#    z -0.007080 0.000000 1.688220 
# 
# From -- ./inp_files/238346.got.cif
#   From: 2010.05.17/outbox.cif.g08.bks.cpg/sg12_120_cif.got.tgz:238346.got - 2010.06.03 13:09:07.
