data_PCOD9208447
_publ_section_title
;
Structure prediction by ZEFSAII (Michael W. Deem and Ramdas Pophale) SiO2 
 PCOD9208447
Probable space group: C 2/M
;
_chemical_formula_sum "Si O2"
_cell_formula_units_Z 56
_cell_length_a 31.549939
_cell_length_b 8.585487
_cell_length_c 12.189758
_cell_angle_alpha 90.000000
_cell_angle_beta 63.191145
_cell_angle_gamma 90.000000
_cell_volume 2946.962530
_symmetry_space_group_name_H-M "C 2/M"
_symmetry_group_IT_number 12
_symmetry_cell_setting 'monoclinic'
loop_
_space_group_symop_operation_xyz
x,y,z
-x,y,-z
-x,-y,-z
x,-y,z
1/2+x,1/2+y,z
1/2-x,1/2+y,-z
1/2-x,1/2-y,-z
1/2+x,1/2-y,z
loop_
_atom_site_type_symbol
_atom_site_label
_atom_site_fract_x
_atom_site_fract_y
_atom_site_fract_z
Si Si1 0.535317 0.816040 0.812249
Si Si2 0.660391 0.688236 0.289096
Si Si3 0.296060 0.686513 0.383238
Si Si4 0.646253 0.813492 0.068860
Si Si5 0.434960 0.315651 0.994195
Si Si6 0.730190 0.187646 0.819262
Si Si7 0.385779 0.688199 0.427681
O O1 0.485322 0.727087 0.879819
O O2 0.566455 0.764816 0.672561
O O3 0.526541 0.000000 0.823130
O O4 0.563870 0.768495 0.889213
O O5 0.660658 0.500000 0.284151
O O6 0.640865 0.753501 0.198335
O O7 0.715254 0.740886 0.238374
O O8 0.630391 0.733420 0.431262
O O9 0.294225 0.500000 0.384710
O O10 0.250000 0.750000 0.500000
O O11 0.294153 0.748448 0.262086
O O12 0.342952 0.732955 0.395466
O O13 0.607162 0.742543 0.033570
O O14 0.642666 0.000000 0.070393
O O15 0.698026 0.767665 0.960565
O O16 0.431624 0.500000 0.016200
O O17 0.730822 0.000000 0.811367
O O18 0.390448 0.500000 0.418483
#
# Coordination Sequence:
#
# PCOD9208447 Si02
#       7
#     8   8   8   8   8   8   8
#     4  11  22  38  63  93 121 146 183 240 295 341
#     4  10  21  39  58  79 116 160 200 237 281 343
#     4  11  21  34  55  82 115 151 190 237 285 338
#     4  11  23  38  59  87 117 149 195 247 292 336
#     4  11  22  40  64  88 117 152 191 232 286 352
#     4  10  21  38  57  82 116 155 196 241 289 341
#     4  10  21  38  58  83 118 159 197 234 284 349
#
# _framework density 19.002616
#
# number of rings (size 3 to 8) (size 9 to 14) (size 15 to 20)
#    0.000    1.429    1.429    5.571    0.000    5.714 
#    0.000    0.714    0.000    4.286    0.000    0.000 
#    0.000    0.000    0.000    0.000    0.000    0.000 
#
# Total GULP energy -156545.023342 kJ/mol
# GULP energy per Si atom -5590.893691 kJ/mol
# Density = 1.895937 g / cm^3
# Si number density = 19.002616 Si / 1000 Ang^3
#
#
#
# Elastic Constant Matrix: (Units=GPa)
#
#
# Indices 1 2 3 4 5 6 
#
# 1 44.7997 4.7173 31.0851 0.0000 2.7715 0.0000
# 2 4.7173 19.7812 7.2375 0.0000 -1.9471 0.0000
# 3 31.0851 7.2375 107.5647 0.0000 -5.9067 0.0000
# 4 0.0000 0.0000 0.0000 27.4546 0.0000 3.7174
# 5 2.7715 -1.9471 -5.9067 0.0000 22.3155 0.0000
# 6 0.0000 0.0000 0.0000 3.7174 0.0000 28.2131
#
#
#
# Elastic Compliance Matrix: (Units=1/GPa)
#
#
# Indices 1 2 3 4 5 6 
#
# 1 0.029025 -0.004450 -0.008430 0.000000 -0.006224 0.000000
# 2 -0.004450 0.052806 -0.002013 0.000000 0.004627 0.000000
# 3 -0.008430 -0.002013 0.012092 0.000000 0.004072 0.000000
# 4 0.000000 0.000000 0.000000 0.037085 0.000000 -0.004886
# 5 -0.006224 0.004627 0.004072 0.000000 0.047067 0.000000
# 6 0.000000 0.000000 0.000000 -0.004886 0.000000 0.036088
#
#
# Mechanical properties :
#
#
# Convention : Reuss Voigt Hill
#
# Bulk Modulus (GPa) = 15.59170 28.69173 22.14171
# Shear Modulus (GPa) = 18.84456 24.20368 21.52412
#
# Velocity S-wave (km/s) = 3.15252 3.57277 3.36920
# Velocity P-wave (km/s) = 4.63400 5.67020 5.17809
#
# Compressibility (1/GPa) = 0.06413668
#
# Stress axis : x y z
#
# Youngs Moduli (GPa) = 34.45342 18.93715 82.69905
#
# Poissons Ratio (x) = 0.08427 0.69717
# Poissons Ratio (y) = 0.15331 0.16647
# Poissons Ratio (z) = 0.29045 0.03812
#
# Static dielectric constant tensor:
#      x y z
#    x 1.639960 0.000000 -0.015940 
#    y 0.000000 1.642160 0.000000 
#    z -0.015940 0.000000 1.656300 
# 
# From -- ./inp_files/180839.got.cif
#   From: 2010.05.17/outbox.cif.g08.bks.cpg/sg12_91_cif.got.tgz:180839.got - 2010.06.03 13:09:07.
