data_PCOD9208961
_publ_section_title
;
Structure prediction by ZEFSAII (Michael W. Deem and Ramdas Pophale) SiO2 
 PCOD9208961
Probable space group: C 2/M
;
_chemical_formula_sum "Si O2"
_cell_formula_units_Z 56
_cell_length_a 8.770548
_cell_length_b 28.635320
_cell_length_c 11.625432
_cell_angle_alpha 90.000000
_cell_angle_beta 67.838778
_cell_angle_gamma 90.000000
_cell_volume 2704.008128
_symmetry_space_group_name_H-M "C 2/M"
_symmetry_group_IT_number 12
_symmetry_cell_setting 'monoclinic'
loop_
_space_group_symop_operation_xyz
x,y,z
-x,y,-z
-x,-y,-z
x,-y,z
1/2+x,1/2+y,z
1/2-x,1/2+y,-z
1/2-x,1/2-y,-z
1/2+x,1/2-y,z
loop_
_atom_site_type_symbol
_atom_site_label
_atom_site_fract_x
_atom_site_fract_y
_atom_site_fract_z
Si Si1 0.312918 0.055056 0.735810
Si Si2 0.252433 0.197775 0.861369
Si Si3 0.505270 0.857230 0.628793
Si Si4 0.386198 0.302225 0.861369
Si Si5 0.451271 0.444944 0.735811
Si Si6 0.865937 0.857230 0.628793
Si Si7 0.674055 0.943455 0.000000
O O1 0.449318 0.088740 0.645001
O O2 0.298398 0.068042 0.874849
O O3 0.137793 0.063023 0.724414
O O4 0.352498 0.000000 0.716580
O O5 0.376492 0.168683 0.748093
O O6 0.322852 0.250000 0.854295
O O7 0.073982 0.199013 0.852035
O O8 0.222709 0.179293 1.000000
O O9 0.500000 0.839160 0.500000
O O10 0.686229 0.852309 0.627541
O O11 0.375415 0.331317 0.748093
O O12 0.430922 0.500000 0.716580
O O13 0.405682 0.411260 0.645001
O O14 0.326753 0.431958 0.874849
O O15 0.000000 0.839160 0.500000
O O16 0.664218 0.000000 0.000000
O O17 0.500000 0.925261 0.000000
#
# Coordination Sequence:
#
# PCOD9208961 Si02
#       7
#     8   8   8   8   8   8   8
#     4  10  21  38  60  87 123 167 214 264 319 377
#     4  10  22  43  71 101 132 165 206 257 316 380
#     4  12  26  43  64  92 129 170 217 265 319 382
#     4  10  22  43  71 101 132 165 206 257 316 380
#     4  10  21  38  60  87 123 167 214 264 319 377
#     4  12  26  43  64  92 129 170 217 265 319 382
#     4   9  17  31  53  83 116 153 202 257 311 365
#
# _framework density 20.709997000000001
#
# number of rings (size 3 to 8) (size 9 to 14) (size 15 to 20)
#    0.000    1.571    0.000    4.714    2.000    6.286 
#    0.000    2.857    0.000    0.000    0.000    0.000 
#    0.000    0.000    0.000    0.000    0.000    0.000 
#
# Total GULP energy -156607.485109 kJ/mol
# GULP energy per Si atom -5593.124468 kJ/mol
# Density = 2.066286 g / cm^3
# Si number density = 20.709997 Si / 1000 Ang^3
#
#
#
# Elastic Constant Matrix: (Units=GPa)
#
#
# Indices 1 2 3 4 5 6 
#
# 1 145.3861 42.9257 80.6201 0.0000 0.3525 0.0000
# 2 42.9257 64.1818 59.4560 0.0000 1.1622 0.0000
# 3 80.6201 59.4560 170.8137 0.0000 1.4352 0.0000
# 4 0.0000 0.0000 0.0000 14.8593 0.0000 -1.4490
# 5 0.3525 1.1622 1.4352 0.0000 34.9661 0.0000
# 6 0.0000 0.0000 0.0000 -1.4490 0.0000 35.4688
#
#
#
# Elastic Compliance Matrix: (Units=1/GPa)
#
#
# Indices 1 2 3 4 5 6 
#
# 1 0.009780 -0.003345 -0.003453 0.000000 0.000154 0.000000
# 2 -0.003345 0.024146 -0.006822 0.000000 -0.000489 0.000000
# 3 -0.003453 -0.006822 0.009860 0.000000 -0.000143 0.000000
# 4 0.000000 0.000000 0.000000 0.067567 0.000000 0.002760
# 5 0.000154 -0.000489 -0.000143 0.000000 0.028620 0.000000
# 6 0.000000 0.000000 0.000000 0.002760 0.000000 0.028307
#
#
# Mechanical properties :
#
#
# Convention : Reuss Voigt Hill
#
# Bulk Modulus (GPa) = 60.43592 82.93170 71.68381
# Shear Modulus (GPa) = 24.87123 30.21748 27.54435
#
# Velocity S-wave (km/s) = 3.46920 3.82393 3.65088
# Velocity P-wave (km/s) = 6.72997 7.72190 7.24294
#
# Compressibility (1/GPa) = 0.01654645
#
# Stress axis : x y z
#
# Youngs Moduli (GPa) = 102.24612 41.41397 101.42240
#
# Poissons Ratio (x) = 0.13854 0.35021
# Poissons Ratio (y) = 0.34204 0.69188
# Poissons Ratio (z) = 0.35305 0.28252
#
# Static dielectric constant tensor:
#      x y z
#    x 1.689390 0.000000 0.003360 
#    y 0.000000 1.768340 0.000000 
#    z 0.003360 0.000000 1.737150 
# 
# From -- ./inp_files/125589.got.cif
#   From: 2010.05.17/outbox.cif.g08.bks.cpg/sg12_63_cif.got.tgz:125589.got - 2010.06.03 13:09:07.
