data_PCOD9208248
_publ_section_title
;
Structure prediction by ZEFSAII (Michael W. Deem and Ramdas Pophale) SiO2 
 PCOD9208248
Probable space group: C 2/M
;
_chemical_formula_sum "Si O2"
_cell_formula_units_Z 56
_cell_length_a 21.700090
_cell_length_b 14.853817
_cell_length_c 14.026071
_cell_angle_alpha 90.000000
_cell_angle_beta 31.802327
_cell_angle_gamma 90.000000
_cell_volume 2382.529402
_symmetry_space_group_name_H-M "C 2/M"
_symmetry_group_IT_number 12
_symmetry_cell_setting 'monoclinic'
loop_
_space_group_symop_operation_xyz
x,y,z
-x,y,-z
-x,-y,-z
x,-y,z
1/2+x,1/2+y,z
1/2-x,1/2+y,-z
1/2-x,1/2-y,-z
1/2+x,1/2-y,z
loop_
_atom_site_type_symbol
_atom_site_label
_atom_site_fract_x
_atom_site_fract_y
_atom_site_fract_z
Si Si1 0.419016 0.102284 0.292737
Si Si2 0.387462 0.259238 0.208208
Si Si3 0.814083 0.652113 0.029243
Si Si4 0.400773 0.606690 0.559555
Si Si5 0.540874 0.398505 0.723988
Si Si6 0.769767 0.135430 0.066141
Si Si7 0.222291 0.399595 0.331890
O O1 0.347972 0.172317 0.320318
O O2 0.554313 0.130567 0.114647
O O3 0.376996 0.106171 0.457524
O O4 0.404712 0.000000 0.277639
O O5 0.425073 0.334051 0.235428
O O6 0.302898 0.313834 0.249614
O O7 0.500000 0.230551 0.000000
O O8 0.784043 0.611035 0.965071
O O9 0.723423 0.619196 0.228026
O O10 0.791209 0.757764 0.045464
O O11 0.500000 0.644826 0.500000
O O12 0.424648 0.500000 0.518133
O O13 0.414867 0.642367 0.434411
O O14 0.587360 0.500000 0.677012
O O15 0.400414 0.403364 0.902674
O O16 0.693948 0.107368 0.257441
O O17 0.277636 0.500000 0.272246
#
# Coordination Sequence:
#
# PCOD9208248 Si02
#       7
#     8   8   8   8   8   8   8
#     4  11  26  46  67  96 139 184 226 271 334 414
#     4  12  24  45  72  98 130 174 225 288 342 392
#     4  11  23  42  66  99 142 185 221 268 333 407
#     4  10  21  37  63  95 129 174 224 277 330 384
#     4  11  22  39  66 101 132 167 221 281 341 393
#     4  11  23  39  67 103 138 177 222 274 338 398
#     4  11  25  45  70 101 134 177 229 283 341 400
#
# _framework density 23.504432000000001
#
# number of rings (size 3 to 8) (size 9 to 14) (size 15 to 20)
#    0.000    1.000    4.286    1.714    2.000    3.143 
#    2.571    1.429    0.000    0.000    0.000    0.000 
#    0.000    0.000    0.000    0.000    0.000    0.000 
#
# Total GULP energy -156758.891456 kJ/mol
# GULP energy per Si atom -5598.531838 kJ/mol
# Density = 2.345094 g / cm^3
# Si number density = 23.504432 Si / 1000 Ang^3
#
#
#
# Elastic Constant Matrix: (Units=GPa)
#
#
# Indices 1 2 3 4 5 6 
#
# 1 92.2278 23.5844 28.9359 0.0000 31.3312 0.0000
# 2 23.5844 107.2415 -1.1520 0.0000 16.0430 0.0000
# 3 28.9359 -1.1520 103.5988 0.0000 29.6929 0.0000
# 4 0.0000 0.0000 0.0000 12.3020 0.0000 9.2238
# 5 31.3312 16.0430 29.6929 0.0000 45.8910 0.0000
# 6 0.0000 0.0000 0.0000 9.2238 0.0000 -7.0174
#
#
#
# Elastic Compliance Matrix: (Units=1/GPa)
#
#
# Indices 1 2 3 4 5 6 
#
# 1 0.014697 -0.002029 -0.001786 0.000000 -0.008169 0.000000
# 2 -0.002029 0.010275 0.001612 0.000000 -0.003250 0.000000
# 3 -0.001786 0.001612 0.012254 0.000000 -0.007273 0.000000
# 4 0.000000 0.000000 0.000000 0.040940 0.000000 0.053812
# 5 -0.008169 -0.003250 -0.007273 0.000000 0.033210 0.000000
# 6 0.000000 0.000000 0.000000 0.053812 0.000000 -0.071771
#
#
# Mechanical properties :
#
#
# Convention : Reuss Voigt Hill
#
# Bulk Modulus (GPa) = 30.46964 45.08940 37.77952
# Shear Modulus (GPa) = 90.99046 27.01510 59.00278
#
# Velocity S-wave (km/s) = 6.22865 3.39390 5.01571
# Velocity P-wave (km/s) = 8.04485 5.88074 7.04637
#
# Compressibility (1/GPa) = 0.03281955
#
# Stress axis : x y z
#
# Youngs Moduli (GPa) = 68.04006 97.32832 81.60613
#
# Poissons Ratio (x) = 0.19751 0.14577
# Poissons Ratio (y) = 0.13807 -0.13159
# Poissons Ratio (z) = 0.12154 -0.15694
#
# Static dielectric constant tensor:
#      x y z
#    x 1.877510 0.000000 0.007630 
#    y 0.000000 1.896810 0.000000 
#    z 0.007630 0.000000 1.861640 
# 
# From -- ./inp_files/240910.got.cif
#   From: 2010.05.17/outbox.cif.g08.bks.cpg/sg12_121_cif.got.tgz:240910.got - 2010.06.03 13:09:07.
