data_PCOD9208425
_publ_section_title
;
Structure prediction by ZEFSAII (Michael W. Deem and Ramdas Pophale) SiO2 
 PCOD9208425
Probable space group: C 2/M
;
_chemical_formula_sum "Si O2"
_cell_formula_units_Z 42
_cell_length_a 4.934650
_cell_length_b 13.039752
_cell_length_c 30.539648
_cell_angle_alpha 90.000000
_cell_angle_beta 104.144503
_cell_angle_gamma 90.000000
_cell_volume 1905.545276
_symmetry_space_group_name_H-M "C 2/M"
_symmetry_group_IT_number 12
_symmetry_cell_setting 'monoclinic'
loop_
_space_group_symop_operation_xyz
x,y,z
-x,y,-z
-x,-y,-z
x,-y,z
1/2+x,1/2+y,z
1/2-x,1/2+y,-z
1/2-x,1/2-y,-z
1/2+x,1/2-y,z
loop_
_atom_site_type_symbol
_atom_site_label
_atom_site_fract_x
_atom_site_fract_y
_atom_site_fract_z
Si Si1 0.168815 0.821624 0.645178
Si Si2 0.581143 0.000000 0.286704
Si Si3 0.500000 0.500000 0.000000
Si Si4 0.008789 0.000000 0.772757
Si Si5 0.438819 0.317635 0.837761
Si Si6 0.318226 0.320386 0.058541
Si Si7 0.641472 0.678809 0.547412
O O1 0.372088 0.723192 0.648151
O O2 0.146914 0.870084 0.595540
O O3 0.300078 0.900867 0.683892
O O4 0.247378 0.000000 0.271589
O O5 0.704050 0.000000 0.242526
O O6 0.364341 0.410429 0.026529
O O7 0.975550 0.901499 0.802177
O O8 0.622085 0.217966 0.832305
O O9 0.563713 0.353753 0.889205
O O10 0.506466 0.221729 0.052679
O O11 0.500000 0.625357 0.500000
O O12 0.447356 0.780277 0.547208
#
# Coordination Sequence:
#
# PCOD9208425 Si02
#       7
#     8   4   2   4   8   8   8
#     4  10  21  38  57  79 114 151 180 226 286 333
#     4  12  26  38  57  88 116 143 192 234 278 356
#     4  12  22  38  64  88 128 166 188 232 288 332
#     4  12  25  40  60  87 111 146 194 239 286 342
#     4  10  22  42  64  86 116 151 192 243 289 332
#     4  10  23  40  60  90 121 154 198 237 279 340
#     4   8  14  27  50  76 101 137 182 221 264 323
#
# _framework density 22.040935999999999
#
# number of rings (size 3 to 8) (size 9 to 14) (size 15 to 20)
#    0.000    1.905    0.000    3.429    0.000    6.095 
#    0.000    6.190    0.000    0.000    0.000   14.667 
#    0.000    0.000    0.000    0.000    0.000    0.000 
#
# Total GULP energy -117157.601599 kJ/mol
# GULP energy per Si atom -5578.933409 kJ/mol
# Density = 2.199077 g / cm^3
# Si number density = 22.040936 Si / 1000 Ang^3
#
#
#
# Elastic Constant Matrix: (Units=GPa)
#
#
# Indices 1 2 3 4 5 6 
#
# 1 72.8445 -6.4393 -4.8192 0.0000 0.2973 0.0000
# 2 -6.4393 57.8062 36.6753 0.0000 3.6135 0.0000
# 3 -4.8192 36.6753 92.7992 0.0000 -7.7346 0.0000
# 4 0.0000 0.0000 0.0000 -526.4332 0.0000 -93.6177
# 5 0.2973 3.6135 -7.7346 0.0000 35.3189 0.0000
# 6 0.0000 0.0000 0.0000 -93.6177 0.0000 0.3693
#
#
#
# Elastic Compliance Matrix: (Units=1/GPa)
#
#
# Indices 1 2 3 4 5 6 
#
# 1 0.013868 0.001490 0.000111 0.000000 -0.000245 0.000000
# 2 0.001490 0.023953 -0.009773 0.000000 -0.004603 0.000000
# 3 0.000111 -0.009773 0.015001 0.000000 0.004284 0.000000
# 4 0.000000 0.000000 0.000000 -0.000041 0.000000 -0.010450
# 5 -0.000245 -0.004603 0.004284 0.000000 0.029725 0.000000
# 6 0.000000 0.000000 0.000000 -0.010450 0.000000 0.058762
#
#
# Mechanical properties :
#
#
# Convention : Reuss Voigt Hill
#
# Bulk Modulus (GPa) = 27.41383 30.47594 28.94489
# Shear Modulus (GPa) = 29.45122 -84.94680 -27.74779
#
# Velocity S-wave (km/s) = 3.65938 -6.21483 -3.55198
# Velocity P-wave (km/s) = 5.50631 6.13530 1.91343
#
# Compressibility (1/GPa) = 0.03647793
#
# Stress axis : x y z
#
# Youngs Moduli (GPa) = 72.10894 41.74774 66.66140
#
# Poissons Ratio (x) = -0.06219 -0.00740
# Poissons Ratio (y) = -0.10742 0.65148
# Poissons Ratio (z) = -0.00801 0.40800
#
# Static dielectric constant tensor:
#      x y z
#    x 1.756920 0.000000 0.018010 
#    y 0.000000 1.749860 0.000000 
#    z 0.018010 0.000000 1.856750 
# 
# From -- ./inp_files/371361.got.cif
#   From: 2010.05.17/outbox.cif.g08.bks.cpg/sg12_186_cif.got.tgz:371361.got - 2010.06.03 13:09:07.
