data_PCOD9208271
_publ_section_title
;
Structure prediction by ZEFSAII (Michael W. Deem and Ramdas Pophale) SiO2 
 PCOD9208271
Probable space group: C 2/M
;
_chemical_formula_sum "Si O2"
_cell_formula_units_Z 52
_cell_length_a 28.340448
_cell_length_b 9.610948
_cell_length_c 28.729082
_cell_angle_alpha 90.000000
_cell_angle_beta 15.877935
_cell_angle_gamma 90.000000
_cell_volume 2140.883535
_symmetry_space_group_name_H-M "C 2/M"
_symmetry_group_IT_number 12
_symmetry_cell_setting 'monoclinic'
loop_
_space_group_symop_operation_xyz
x,y,z
-x,y,-z
-x,-y,-z
x,-y,z
1/2+x,1/2+y,z
1/2-x,1/2+y,-z
1/2-x,1/2-y,-z
1/2+x,1/2-y,z
loop_
_atom_site_type_symbol
_atom_site_label
_atom_site_fract_x
_atom_site_fract_y
_atom_site_fract_z
Si Si1 0.465889 0.845434 0.933286
Si Si2 0.669294 0.340899 0.805931
Si Si3 0.094373 0.342733 0.538624
Si Si4 0.881808 0.346124 0.307316
Si Si5 0.611363 0.792052 0.178082
Si Si6 0.622334 0.662008 0.321111
Si Si7 0.661508 0.500000 0.094162
O O1 0.593926 0.728184 0.830891
O O2 0.471353 0.842520 0.872207
O O3 0.531695 0.000000 0.884683
O O4 0.281801 0.832070 0.132644
O O5 0.728613 0.500000 0.745183
O O6 0.805730 0.241650 0.701978
O O7 0.500000 0.342472 0.000000
O O8 0.132818 0.500000 0.488045
O O9 0.250372 0.273412 0.418961
O O10 0.940456 0.344137 0.722245
O O11 0.033202 0.246271 0.554489
O O12 0.800510 0.500000 0.380679
O O13 0.964641 0.333539 0.279209
O O14 0.613108 0.625481 0.176145
O O15 0.774692 0.877218 0.003463
O O16 0.583724 0.500000 0.366068
#
# Coordination Sequence:
#
# PCOD9208271 Si02
#       7
#     8   8   8   8   8   8   4
#     4   9  20  36  62  90 118 154 202 248 297 359
#     4   9  17  34  57  90 124 154 189 246 306 357
#     4  12  26  41  59  88 124 163 205 249 301 359
#     4  11  24  42  61  86 123 166 206 245 298 363
#     4  11  24  42  64  91 127 157 201 251 302 355
#     4  10  21  37  64  90 120 157 200 249 303 360
#     4  10  24  40  66  96 118 152 206 256 302 348
#
# _framework density 24.289037
#
# number of rings (size 3 to 8) (size 9 to 14) (size 15 to 20)
#    0.000    1.692    1.538    1.846    7.538    3.077 
#    0.000    0.769    0.000    4.615    0.000    0.000 
#    0.000    0.000    0.000    0.000    0.000    0.000 
#
# Total GULP energy -145037.163824 kJ/mol
# GULP energy per Si atom -5578.352455 kJ/mol
# Density = 2.423375 g / cm^3
# Si number density = 24.289037 Si / 1000 Ang^3
#
#
#
# Elastic Constant Matrix: (Units=GPa)
#
#
# Indices 1 2 3 4 5 6 
#
# 1 113.2974 50.4869 3.9216 0.0021 -6.0537 -0.0034
# 2 50.4869 252.4959 15.8623 -0.0455 -16.8134 0.0157
# 3 3.9216 15.8623 46.1846 -0.0588 10.3071 0.0268
# 4 0.0021 -0.0455 -0.0588 6.5970 0.0110 13.2386
# 5 -6.0537 -16.8134 10.3071 0.0110 32.8510 0.0049
# 6 -0.0034 0.0157 0.0268 13.2386 0.0049 22.3664
#
#
#
# Elastic Compliance Matrix: (Units=1/GPa)
#
#
# Indices 1 2 3 4 5 6 
#
# 1 0.009718 -0.001853 -0.000405 0.000145 0.000969 -0.000083
# 2 -0.001853 0.004636 -0.002031 -0.000071 0.002669 0.000041
# 3 -0.000405 -0.002031 0.024334 -0.001435 -0.008748 0.000823
# 4 0.000145 -0.000071 -0.001435 -0.807086 0.000639 0.477714
# 5 0.000969 0.002669 -0.008748 0.000639 0.034730 -0.000377
# 6 -0.000083 0.000041 0.000823 0.477714 -0.000377 -0.238048
#
#
# Mechanical properties :
#
#
# Convention : Reuss Voigt Hill
#
# Bulk Modulus (GPa) = 33.21022 61.39105 47.30063
# Shear Modulus (GPa) = -5.24603 35.14335 14.94866
#
# Velocity S-wave (km/s) = -1.47123 3.80792 2.48352
# Velocity P-wave (km/s) = 3.28886 6.68309 5.26689
#
# Compressibility (1/GPa) = 0.03011121
#
# Stress axis : x y z
#
# Youngs Moduli (GPa) = 102.90300 215.69218 41.09450
#
# Poissons Ratio (x) = 0.39970 0.01663
# Poissons Ratio (y) = 0.19069 0.08345
# Poissons Ratio (z) = 0.04165 0.43799
#
# Static dielectric constant tensor:
#      x y z
#    x 1.889610 0.000000 0.012920 
#    y 0.000000 1.912740 0.000020 
#    z 0.012920 0.000020 2.028150 
# 
# From -- ./inp_files/384746.got.cif
#   From: 2010.05.17/outbox.cif.g08.bks.cpg/sg12_193_cif.got.tgz:384746.got - 2010.06.03 13:09:07.
