data_PCOD9208389
_publ_section_title
;
Structure prediction by ZEFSAII (Michael W. Deem and Ramdas Pophale) SiO2 
 PCOD9208389
Probable space group: C 2/M
;
_chemical_formula_sum "Si O2"
_cell_formula_units_Z 56
_cell_length_a 14.965176
_cell_length_b 23.904713
_cell_length_c 8.513996
_cell_angle_alpha 90.000000
_cell_angle_beta 116.977433
_cell_angle_gamma 90.000000
_cell_volume 2714.355977
_symmetry_space_group_name_H-M "C 2/M"
_symmetry_group_IT_number 12
_symmetry_cell_setting 'monoclinic'
loop_
_space_group_symop_operation_xyz
x,y,z
-x,y,-z
-x,-y,-z
x,-y,z
1/2+x,1/2+y,z
1/2-x,1/2+y,-z
1/2-x,1/2-y,-z
1/2+x,1/2-y,z
loop_
_atom_site_type_symbol
_atom_site_label
_atom_site_fract_x
_atom_site_fract_y
_atom_site_fract_z
Si Si1 0.897055 0.151344 0.784363
Si Si2 0.697238 0.826359 0.525900
Si Si3 0.880317 0.438525 0.396361
Si Si4 0.339368 0.253138 0.202086
Si Si5 0.041607 0.726464 0.178814
Si Si6 0.576616 0.624095 0.704540
Si Si7 0.299758 0.435368 0.955306
O O1 0.813109 0.162318 0.585881
O O2 0.917940 0.214355 0.857365
O O3 0.849853 0.108144 0.870561
O O4 0.997937 0.130415 0.786233
O O5 0.652314 0.886505 0.527473
O O6 0.686730 0.786618 0.671430
O O7 0.635175 0.799351 0.339312
O O8 0.847171 0.500000 0.427761
O O9 0.819285 0.431189 0.182408
O O10 0.000000 0.438361 0.500000
O O11 0.447300 0.233503 0.219154
O O12 0.365496 0.316955 0.269981
O O13 0.250000 0.250000 0.000000
O O14 0.000000 0.691846 0.000000
O O15 0.500000 0.610743 0.500000
O O16 0.660145 0.581806 0.840628
O O17 0.329170 0.500000 0.949475
#
# Coordination Sequence:
#
# PCOD9208389 Si02
#       7
#     8   8   8   8   8   8   8
#     4  10  21  38  56  78 111 149 188 234 281 329
#     4  11  21  36  57  82 110 147 191 229 279 349
#     4   9  18  35  59  85 110 138 183 240 284 326
#     4  11  21  34  54  80 111 147 189 236 285 341
#     4  11  21  33  51  78 112 146 182 228 284 342
#     4  11  23  37  54  82 120 153 184 234 296 342
#     4  10  21  38  61  84 108 149 199 236 276 341
#
# _framework density 20.631043999999999
#
# number of rings (size 3 to 8) (size 9 to 14) (size 15 to 20)
#    0.000    1.571    0.000    8.143    0.000    2.571 
#    0.000    0.000    0.000    0.429    0.000    0.000 
#    0.000    0.000    0.000    0.000    0.000    0.000 
#
# Total GULP energy -156074.895223 kJ/mol
# GULP energy per Si atom -5574.103401 kJ/mol
# Density = 2.058409 g / cm^3
# Si number density = 20.631044 Si / 1000 Ang^3
#
#
#
# Elastic Constant Matrix: (Units=GPa)
#
#
# Indices 1 2 3 4 5 6 
#
# 1 59.2849 21.3877 21.4974 0.0000 25.8242 0.0000
# 2 21.3877 107.5471 57.9162 0.0000 18.7251 0.0000
# 3 21.4974 57.9162 172.9350 0.0000 39.8746 0.0000
# 4 0.0000 0.0000 0.0000 -15.6133 0.0000 5.4374
# 5 25.8242 18.7251 39.8746 0.0000 35.4747 0.0000
# 6 0.0000 0.0000 0.0000 5.4374 0.0000 12.9504
#
#
#
# Elastic Compliance Matrix: (Units=1/GPa)
#
#
# Indices 1 2 3 4 5 6 
#
# 1 0.025699 -0.002929 0.002353 0.000000 -0.019807 0.000000
# 2 -0.002929 0.011821 -0.003574 0.000000 -0.000090 0.000000
# 3 0.002353 -0.003574 0.008972 0.000000 -0.009912 0.000000
# 4 0.000000 0.000000 0.000000 -0.055877 0.000000 0.023461
# 5 -0.019807 -0.000090 -0.009912 0.000000 0.053797 0.000000
# 6 0.000000 0.000000 0.000000 0.023461 0.000000 0.067367
#
#
# Mechanical properties :
#
#
# Convention : Reuss Voigt Hill
#
# Bulk Modulus (GPa) = 26.18327 60.15218 43.16772
# Shear Modulus (GPa) = 37.64781 22.49339 30.07060
#
# Velocity S-wave (km/s) = 4.27642 3.30550 3.82192
# Velocity P-wave (km/s) = 6.09118 6.61724 6.35965
#
# Compressibility (1/GPa) = 0.03819233
#
# Stress axis : x y z
#
# Youngs Moduli (GPa) = 38.91210 84.59396 111.45333
#
# Poissons Ratio (x) = 0.24782 -0.26230
# Poissons Ratio (y) = 0.11399 0.39834
# Poissons Ratio (z) = -0.09158 0.30234
#
# Static dielectric constant tensor:
#      x y z
#    x 1.770710 0.000000 0.038410 
#    y 0.000000 1.742200 0.000000 
#    z 0.038410 0.000000 1.855060 
# 
# From -- ./inp_files/65935.got.cif
#   From: 2010.05.17/outbox.cif.g08.bks.cpg/sg12_33_cif.got.tgz:65935.got - 2010.06.03 13:09:07.
