data_PCOD9208198
_publ_section_title
;
Structure prediction by ZEFSAII (Michael W. Deem and Ramdas Pophale) SiO2 
 PCOD9208198
Probable space group: C 2/M
;
_chemical_formula_sum "Si O2"
_cell_formula_units_Z 56
_cell_length_a 18.362961
_cell_length_b 13.912518
_cell_length_c 9.091741
_cell_angle_alpha 90.000000
_cell_angle_beta 112.516463
_cell_angle_gamma 90.000000
_cell_volume 2145.651293
_symmetry_space_group_name_H-M "C 2/M"
_symmetry_group_IT_number 12
_symmetry_cell_setting 'monoclinic'
loop_
_space_group_symop_operation_xyz
x,y,z
-x,y,-z
-x,-y,-z
x,-y,z
1/2+x,1/2+y,z
1/2-x,1/2+y,-z
1/2-x,1/2-y,-z
1/2+x,1/2-y,z
loop_
_atom_site_type_symbol
_atom_site_label
_atom_site_fract_x
_atom_site_fract_y
_atom_site_fract_z
Si Si1 0.771429 0.616013 0.556269
Si Si2 0.623993 0.390195 0.230255
Si Si3 0.197420 0.110053 0.802012
Si Si4 0.092152 0.616190 0.534608
Si Si5 0.480203 0.657759 0.318087
Si Si6 0.426367 0.212581 0.018467
Si Si7 0.692852 0.112393 0.887770
O O1 0.775624 0.500000 0.571151
O O2 0.705714 0.631913 0.378058
O O3 0.735258 0.653026 0.682472
O O4 0.858589 0.650864 0.571867
O O5 0.628697 0.500000 0.170042
O O6 0.553925 0.393097 0.297122
O O7 0.600762 0.304545 0.100386
O O8 0.103878 0.107189 0.732074
O O9 0.224732 0.000000 0.824495
O O10 0.225177 0.150232 0.982376
O O11 0.096294 0.500000 0.531613
O O12 0.148416 0.652738 0.711238
O O13 0.000000 0.632888 0.500000
O O14 0.500000 0.679561 0.500000
O O15 0.461724 0.744855 0.195679
O O16 0.361861 0.136115 0.014943
O O17 0.500000 0.162181 0.000000
O O18 0.699463 0.000000 0.859150
#
# Coordination Sequence:
#
# PCOD9208198 Si02
#       7
#     8   8   8   8   8   8   8
#     4   9  18  35  60  94 132 165 215 271 323 395
#     4  10  21  40  66  97 136 180 217 265 327 391
#     4  10  21  37  63 100 134 171 222 270 324 394
#     4   9  19  37  63  93 124 166 220 278 334 387
#     4  11  22  39  64  97 140 180 219 268 323 388
#     4  10  25  43  63  95 135 170 227 274 327 400
#     4  10  23  44  68  93 125 171 224 281 337 389
#
# _framework density 26.099301000000001
#
# number of rings (size 3 to 8) (size 9 to 14) (size 15 to 20)
#    0.000    2.143    1.429    0.429    2.000    6.286 
#    0.000    5.000    0.000    0.000    0.000    0.000 
#    0.000    0.000    0.000    0.000    0.000    0.000 
#
# Total GULP energy -156442.528893 kJ/mol
# GULP energy per Si atom -5587.233175 kJ/mol
# Density = 2.603990 g / cm^3
# Si number density = 26.099301 Si / 1000 Ang^3
#
#
#
# Elastic Constant Matrix: (Units=GPa)
#
#
# Indices 1 2 3 4 5 6 
#
# 1 229.8031 24.3625 62.8922 0.0000 -13.9578 0.0000
# 2 24.3625 72.8656 6.6289 0.0000 -3.3183 0.0000
# 3 62.8922 6.6289 122.9344 0.0000 15.6694 0.0000
# 4 0.0000 0.0000 0.0000 12.9675 0.0000 -8.5833
# 5 -13.9578 -3.3183 15.6694 0.0000 44.1463 0.0000
# 6 0.0000 0.0000 0.0000 -8.5833 0.0000 13.2048
#
#
#
# Elastic Compliance Matrix: (Units=1/GPa)
#
#
# Indices 1 2 3 4 5 6 
#
# 1 0.005517 -0.001439 -0.003093 0.000000 0.002734 0.000000
# 2 -0.001439 0.014245 -0.000116 0.000000 0.000657 0.000000
# 3 -0.003093 -0.000116 0.010316 0.000000 -0.004648 0.000000
# 4 0.000000 0.000000 0.000000 0.135350 0.000000 0.087979
# 5 0.002734 0.000657 -0.004648 0.000000 0.025216 0.000000
# 6 0.000000 0.000000 0.000000 0.087979 0.000000 0.132917
#
#
# Mechanical properties :
#
#
# Convention : Reuss Voigt Hill
#
# Bulk Modulus (GPa) = 48.11807 68.15225 58.13516
# Shear Modulus (GPa) = 14.71527 36.17837 25.44682
#
# Velocity S-wave (km/s) = 2.37706 3.72719 3.12589
# Velocity P-wave (km/s) = 5.10005 6.68520 5.94569
#
# Compressibility (1/GPa) = 0.02078221
#
# Stress axis : x y z
#
# Youngs Moduli (GPa) = 181.26921 70.19828 96.94077
#
# Poissons Ratio (x) = 0.10099 0.29986
# Poissons Ratio (y) = 0.26077 0.01124
# Poissons Ratio (z) = 0.56070 0.00814
#
# Static dielectric constant tensor:
#      x y z
#    x 2.065120 0.000000 -0.001680 
#    y 0.000000 2.036470 0.000000 
#    z -0.001680 0.000000 2.124580 
# 
# From -- ./inp_files/76015.got.cif
#   From: 2010.05.17/outbox.cif.g08.bks.cpg/sg12_39_cif.got.tgz:76015.got - 2010.06.03 13:09:07.
