data_PCOD9208571
_publ_section_title
;
Structure prediction by ZEFSAII (Michael W. Deem and Ramdas Pophale) SiO2 
 PCOD9208571
Probable space group: C 2/M
;
_chemical_formula_sum "Si O2"
_cell_formula_units_Z 64
_cell_length_a 14.944444
_cell_length_b 17.017154
_cell_length_c 12.572359
_cell_angle_alpha 90.000000
_cell_angle_beta 73.436290
_cell_angle_gamma 90.000000
_cell_volume 3064.623246
_symmetry_space_group_name_H-M "C 2/M"
_symmetry_group_IT_number 12
_symmetry_cell_setting 'monoclinic'
loop_
_space_group_symop_operation_xyz
x,y,z
-x,y,-z
-x,-y,-z
x,-y,z
1/2+x,1/2+y,z
1/2-x,1/2+y,-z
1/2-x,1/2-y,-z
1/2+x,1/2-y,z
loop_
_atom_site_type_symbol
_atom_site_label
_atom_site_fract_x
_atom_site_fract_y
_atom_site_fract_z
Si Si1 0.394124 0.813738 0.006992
Si Si2 0.413506 0.088888 0.589086
Si Si3 0.268490 0.818931 0.244940
Si Si4 0.789031 0.349586 0.819494
Si Si5 0.093183 0.909442 0.235873
Si Si6 0.568543 0.593717 0.576662
Si Si7 0.605951 0.376584 0.988728
Si Si8 0.229330 0.408385 0.555137
O O1 0.330007 0.845492 0.123894
O O2 0.393993 0.718529 0.010904
O O3 0.500000 0.838593 0.000000
O O4 0.344696 0.833254 0.911246
O O5 0.500000 0.130792 0.500000
O O6 0.365447 0.117769 0.712548
O O7 0.334412 0.088480 0.526372
O O8 0.445292 0.000000 0.603495
O O9 0.249730 0.727787 0.228124
O O10 0.168166 0.860250 0.274207
O O11 0.310130 0.850639 0.340792
O O12 0.694647 0.397644 0.884238
O O13 0.989085 0.879642 0.299887
O O14 0.097521 0.000000 0.268564
O O15 0.119983 0.903255 0.104468
O O16 0.500000 0.606624 0.500000
O O17 0.583300 0.500000 0.583391
O O18 0.670526 0.624731 0.517170
O O19 0.500000 0.403037 0.000000
O O20 0.237313 0.500000 0.591758
#
# Coordination Sequence:
#
# PCOD9208571 Si02
#       8
#     8   8   8   8   8   8   8   8
#     4  10  21  39  63  86 118 158 194 249 312 354
#     4  10  25  47  64  82 118 164 206 255 305 347
#     4  11  20  38  62  91 123 153 198 251 294 354
#     4  11  22  42  63  90 121 153 205 252 302 359
#     4  11  20  33  55  86 125 160 192 233 294 362
#     4   9  17  30  50  81 118 151 181 223 282 350
#     4  10  21  38  58  85 120 161 192 238 307 361
#     4  10  21  39  62  87 122 163 199 240 300 358
#
# _framework density 20.883482000000001
#
# number of rings (size 3 to 8) (size 9 to 14) (size 15 to 20)
#    0.000    1.750    3.750    1.125    3.500    1.250 
#    2.250    0.000    0.000    1.875    0.000    0.000 
#    0.000    0.000    0.000    0.000    0.000    0.000 
#
# Total GULP energy -178347.286243 kJ/mol
# GULP energy per Si atom -5573.352695 kJ/mol
# Density = 2.083595 g / cm^3
# Si number density = 20.883482 Si / 1000 Ang^3
#
#
#
# Elastic Constant Matrix: (Units=GPa)
#
#
# Indices 1 2 3 4 5 6 
#
# 1 70.2823 1.9054 25.3092 0.0000 -27.6214 0.0000
# 2 1.9054 21.0190 21.6757 0.0000 -13.1827 0.0000
# 3 25.3092 21.6757 135.2924 0.0000 -43.5506 0.0000
# 4 0.0000 0.0000 0.0000 19.0566 0.0000 -9.2397
# 5 -27.6214 -13.1827 -43.5506 0.0000 34.6004 0.0000
# 6 0.0000 0.0000 0.0000 -9.2397 0.0000 8.2177
#
#
#
# Elastic Compliance Matrix: (Units=1/GPa)
#
#
# Indices 1 2 3 4 5 6 
#
# 1 0.023247 0.011895 0.001981 0.000000 0.025583 0.000000
# 2 0.011895 0.069881 -0.003016 0.000000 0.032325 0.000000
# 3 0.001981 -0.003016 0.012849 0.000000 0.016605 0.000000
# 4 0.000000 0.000000 0.000000 0.115371 0.000000 0.129720
# 5 0.025583 0.032325 0.016605 0.000000 0.082540 0.000000
# 6 0.000000 0.000000 0.000000 0.129720 0.000000 0.267542
#
#
# Mechanical properties :
#
#
# Convention : Reuss Voigt Hill
#
# Bulk Modulus (GPa) = 7.83103 36.04160 21.93632
# Shear Modulus (GPa) = 8.44201 24.22183 16.33192
#
# Velocity S-wave (km/s) = 2.01276 3.40936 2.79955
# Velocity P-wave (km/s) = 3.02649 5.72662 4.58006
#
# Compressibility (1/GPa) = 0.12769711
#
# Stress axis : x y z
#
# Youngs Moduli (GPa) = 43.01658 14.30996 77.82580
#
# Poissons Ratio (x) = -0.17022 -0.15413
# Poissons Ratio (y) = -0.51169 0.23472
# Poissons Ratio (z) = -0.08519 0.04316
#
# Static dielectric constant tensor:
#      x y z
#    x 1.806710 0.000000 -0.020150 
#    y 0.000000 1.774700 0.000000 
#    z -0.020150 0.000000 1.788950 
# 
# From -- ./inp_files/147628.got.cif
#   From: 2010.05.17/outbox.cif.g08.bks.cpg/sg12_74_cif.got.tgz:147628.got - 2010.06.03 13:09:07.
