data_PCOD9208067
_publ_section_title
;
Structure prediction by ZEFSAII (Michael W. Deem and Ramdas Pophale) SiO2 
 PCOD9208067
Probable space group: C 2/M
;
_chemical_formula_sum "Si O2"
_cell_formula_units_Z 42
_cell_length_a 19.238707
_cell_length_b 9.323062
_cell_length_c 12.157592
_cell_angle_alpha 90.000000
_cell_angle_beta 113.310400
_cell_angle_gamma 90.000000
_cell_volume 2002.635298
_symmetry_space_group_name_H-M "C 2/M"
_symmetry_group_IT_number 12
_symmetry_cell_setting 'monoclinic'
loop_
_space_group_symop_operation_xyz
x,y,z
-x,y,-z
-x,-y,-z
x,-y,z
1/2+x,1/2+y,z
1/2-x,1/2+y,-z
1/2-x,1/2-y,-z
1/2+x,1/2-y,z
loop_
_atom_site_type_symbol
_atom_site_label
_atom_site_fract_x
_atom_site_fract_y
_atom_site_fract_z
Si Si1 0.500000 0.500000 0.500000
Si Si2 0.142632 0.166542 0.082504
Si Si3 0.885851 0.332105 0.149356
Si Si4 0.935968 0.332529 0.782769
Si Si5 0.866976 0.842759 0.542064
Si Si6 0.700008 0.166564 0.688430
O O1 0.443955 0.378102 0.522240
O O2 0.081592 0.255014 0.113718
O O3 0.219557 0.176585 0.200836
O O4 0.121579 0.000000 0.059065
O O5 0.151395 0.236855 0.968689
O O6 0.864457 0.500000 0.121783
O O7 0.859579 0.288420 0.254161
O O8 0.975782 0.319383 0.191892
O O9 0.916735 0.500000 0.778683
O O10 0.888250 0.253986 0.658563
O O11 0.810134 0.765400 0.423426
O O12 0.838167 0.000000 0.561165
O O13 0.685555 0.000000 0.650937
#
# Coordination Sequence:
#
# PCOD9208067 Si02
#       6
#     2   8   8   8   8   8
#     4   8  20  36  58  92 126 144 192 250 300 352
#     4  11  24  40  60  90 125 163 206 254 307 362
#     4  10  22  40  63  88 118 161 211 257 302 364
#     4  11  23  40  64  89 123 165 204 252 306 369
#     4  10  21  37  61  92 123 154 196 251 304 359
#     4  10  22  41  63  89 124 164 205 250 305 369
#
# _framework density 20.972366999999998
#
# number of rings (size 3 to 8) (size 9 to 14) (size 15 to 20)
#    0.571    1.143    0.000    4.000    0.000    6.857 
#    0.000    3.810    0.000    0.000    0.000    0.000 
#    0.000    0.000    0.000    0.000    0.000    0.000 
#
# Total GULP energy -117156.200680 kJ/mol
# GULP energy per Si atom -5578.866699 kJ/mol
# Density = 2.092463 g / cm^3
# Si number density = 20.972367 Si / 1000 Ang^3
#
#
#
# Elastic Constant Matrix: (Units=GPa)
#
#
# Indices 1 2 3 4 5 6 
#
# 1 48.4713 18.7237 3.3550 0.0000 -15.9462 0.0000
# 2 18.7237 116.6698 65.5741 0.0000 6.6259 0.0000
# 3 3.3550 65.5741 98.6009 0.0000 5.5351 0.0000
# 4 0.0000 0.0000 0.0000 38.3983 0.0000 -1.1100
# 5 -15.9462 6.6259 5.5351 0.0000 20.6825 0.0000
# 6 0.0000 0.0000 0.0000 -1.1100 0.0000 25.0011
#
#
#
# Elastic Compliance Matrix: (Units=1/GPa)
#
#
# Indices 1 2 3 4 5 6 
#
# 1 0.032574 -0.008442 0.002989 0.000000 0.027019 0.000000
# 2 -0.008442 0.015956 -0.009819 0.000000 -0.008993 0.000000
# 3 0.002989 -0.009819 0.016512 0.000000 0.001031 0.000000
# 4 0.000000 0.000000 0.000000 0.026076 0.000000 0.001158
# 5 0.027019 -0.008993 0.001031 0.000000 0.071786 0.000000
# 6 0.000000 0.000000 0.000000 0.001158 0.000000 0.040050
#
#
# Mechanical properties :
#
#
# Convention : Reuss Voigt Hill
#
# Bulk Modulus (GPa) = 28.98738 48.78306 38.88522
# Shear Modulus (GPa) = 20.40840 28.55565 24.48203
#
# Velocity S-wave (km/s) = 3.12285 3.69397 3.42035
# Velocity P-wave (km/s) = 5.18215 6.44244 5.84635
#
# Compressibility (1/GPa) = 0.03449778
#
# Stress axis : x y z
#
# Youngs Moduli (GPa) = 30.69968 62.67404 60.56040
#
# Poissons Ratio (x) = 0.52910 -0.18104
# Poissons Ratio (y) = 0.25917 0.59465
# Poissons Ratio (z) = -0.09177 0.61540
#
# Static dielectric constant tensor:
#      x y z
#    x 1.785120 0.000000 0.000420 
#    y 0.000000 1.721960 0.000000 
#    z 0.000420 0.000000 1.707650 
# 
# From -- ./inp_files/163302.got.cif
#   From: 2010.05.17/outbox.cif.g08.bks.cpg/sg12_82_cif.got.tgz:163302.got - 2010.06.03 13:09:07.
