data_PCOD9208835
_publ_section_title
;
Structure prediction by ZEFSAII (Michael W. Deem and Ramdas Pophale) SiO2 
 PCOD9208835
Probable space group: C 2/M
;
_chemical_formula_sum "Si O2"
_cell_formula_units_Z 50
_cell_length_a 14.197155
_cell_length_b 7.468181
_cell_length_c 24.462385
_cell_angle_alpha 90.000000
_cell_angle_beta 55.978623
_cell_angle_gamma 90.000000
_cell_volume 2149.709776
_symmetry_space_group_name_H-M "C 2/M"
_symmetry_group_IT_number 12
_symmetry_cell_setting 'monoclinic'
loop_
_space_group_symop_operation_xyz
x,y,z
-x,y,-z
-x,-y,-z
x,-y,z
1/2+x,1/2+y,z
1/2-x,1/2+y,-z
1/2-x,1/2-y,-z
1/2+x,1/2-y,z
loop_
_atom_site_type_symbol
_atom_site_label
_atom_site_fract_x
_atom_site_fract_y
_atom_site_fract_z
Si Si1 0.347352 0.784070 0.362484
Si Si2 0.850016 0.220348 0.655211
Si Si3 0.100832 0.217903 0.006869
Si Si4 0.101846 0.207063 0.243505
Si Si5 0.355841 0.707812 0.889141
Si Si6 0.103236 0.702488 0.534376
Si Si7 0.500000 0.500000 0.500000
O O1 0.251255 0.725179 0.351456
O O2 0.469339 0.715863 0.302442
O O3 0.331527 0.735564 0.431539
O O4 0.352865 0.000000 0.359816
O O5 0.832303 0.274304 0.724102
O O6 0.971567 0.296145 0.598694
O O7 0.864338 0.000000 0.646358
O O8 0.221699 0.281755 0.944894
O O9 0.104998 0.000000 0.006360
O O10 0.087832 0.281775 0.073741
O O11 0.000000 0.273698 0.000000
O O12 0.119827 0.289933 0.178042
O O13 0.137293 0.000000 0.227695
O O14 0.391925 0.500000 0.874555
O O15 0.129653 0.500000 0.510010
O O16 0.091424 0.845796 0.490554
#
# Coordination Sequence:
#
# PCOD9208835 Si02
#       7
#     8   8   8   8   8   8   2
#     4   9  19  34  56  80 108 139 177 218 266 326
#     4   9  17  35  57  78 108 144 174 218 278 326
#     4   9  18  32  48  65  94 140 176 217 275 318
#     4   9  18  31  51  77 103 137 173 218 275 325
#     4   9  18  32  47  70 101 130 178 224 262 324
#     4  10  21  38  60  84 111 147 185 223 269 324
#     4  12  22  40  64  82 116 150 182 228 272 314
#
# _framework density 23.258955
#
# number of rings (size 3 to 8) (size 9 to 14) (size 15 to 20)
#    0.000    2.720    0.800    0.240    1.120    2.880 
#    0.000    0.800    0.000    0.000    0.000    0.000 
#    0.000    0.000    0.000    0.000    0.000    0.000 
#
# Total GULP energy -139467.318099 kJ/mol
# GULP energy per Si atom -5578.692724 kJ/mol
# Density = 2.320602 g / cm^3
# Si number density = 23.258955 Si / 1000 Ang^3
#
#
#
# Elastic Constant Matrix: (Units=GPa)
#
#
# Indices 1 2 3 4 5 6 
#
# 1 176.7486 22.9139 44.4017 0.0000 51.4049 -0.0001
# 2 22.9139 108.4835 19.2278 -0.0002 16.7014 -0.0002
# 3 44.4017 19.2278 134.6848 0.0000 46.6316 0.0000
# 4 0.0000 -0.0002 0.0000 6.2192 0.0000 -11.7139
# 5 51.4049 16.7014 46.6316 0.0000 31.7068 -0.0001
# 6 -0.0001 -0.0002 0.0000 -11.7139 -0.0001 19.4164
#
#
#
# Elastic Compliance Matrix: (Units=1/GPa)
#
#
# Indices 1 2 3 4 5 6 
#
# 1 0.012783 0.000860 0.006103 0.000001 -0.030152 0.000001
# 2 0.000860 0.010133 0.001224 -0.000002 -0.008533 -0.000001
# 3 0.006103 0.001224 0.018107 0.000003 -0.037169 0.000002
# 4 0.000001 -0.000002 0.000003 -1.179507 -0.000010 -0.711594
# 5 -0.030152 -0.008533 -0.037169 -0.000010 0.139584 -0.000005
# 6 0.000001 -0.000001 0.000002 -0.711594 -0.000005 -0.377801
#
#
# Mechanical properties :
#
#
# Convention : Reuss Voigt Hill
#
# Bulk Modulus (GPa) = 17.42249 65.88929 41.65589
# Shear Modulus (GPa) = -3.63916 33.69338 15.02711
#
# Velocity S-wave (km/s) = -1.25221 3.81020 2.54456
# Velocity P-wave (km/s) = 2.32728 6.90992 5.15573
#
# Compressibility (1/GPa) = 0.05739709
#
# Stress axis : x y z
#
# Youngs Moduli (GPa) = 78.23175 98.68801 55.22678
#
# Poissons Ratio (x) = -0.08492 -0.33703
# Poissons Ratio (y) = -0.06732 -0.06760
# Poissons Ratio (z) = -0.47743 -0.12079
#
# Static dielectric constant tensor:
#      x y z
#    x 1.887410 0.000000 0.051980 
#    y 0.000000 1.849060 0.000000 
#    z 0.051980 0.000000 1.944160 
# 
# From -- ./inp_files/308402.got.cif
#   From: 2010.05.17/outbox.cif.g08.bks.cpg/sg12_155_cif.got.tgz:308402.got - 2010.06.03 13:09:07.
