data_PCOD9208893
_publ_section_title
;
Structure prediction by ZEFSAII (Michael W. Deem and Ramdas Pophale) SiO2 
 PCOD9208893
Probable space group: C 2/M
;
_chemical_formula_sum "Si O2"
_cell_formula_units_Z 56
_cell_length_a 28.021525
_cell_length_b 8.591848
_cell_length_c 14.003194
_cell_angle_alpha 90.000000
_cell_angle_beta 120.043030
_cell_angle_gamma 90.000000
_cell_volume 2918.418815
_symmetry_space_group_name_H-M "C 2/M"
_symmetry_group_IT_number 12
_symmetry_cell_setting 'monoclinic'
loop_
_space_group_symop_operation_xyz
x,y,z
-x,y,-z
-x,-y,-z
x,-y,z
1/2+x,1/2+y,z
1/2-x,1/2+y,-z
1/2-x,1/2-y,-z
1/2+x,1/2-y,z
loop_
_atom_site_type_symbol
_atom_site_label
_atom_site_fract_x
_atom_site_fract_y
_atom_site_fract_z
Si Si1 0.667710 0.811593 0.669914
Si Si2 0.595875 0.313311 0.955833
Si Si3 0.620440 0.813245 0.190862
Si Si4 0.478886 0.188444 0.767655
Si Si5 0.236611 0.186760 0.381810
Si Si6 0.691786 0.686635 0.904712
Si Si7 0.952242 0.689734 0.524764
O O1 0.715698 0.764213 0.644660
O O2 0.679266 0.747482 0.786417
O O3 0.607969 0.760729 0.571308
O O4 0.667649 0.000000 0.674508
O O5 0.596200 0.500000 0.961982
O O6 0.536684 0.256074 0.860317
O O7 0.643157 0.264381 0.928293
O O8 0.608746 0.245167 0.072657
O O9 0.570350 0.766029 0.210393
O O10 0.677819 0.746923 0.286916
O O11 0.623265 0.000000 0.194096
O O12 0.464977 0.238273 0.645699
O O13 0.482648 0.000000 0.772499
O O14 0.250000 0.250000 0.500000
O O15 0.236112 0.000000 0.384075
O O16 0.693710 0.500000 0.905618
O O17 0.750000 0.750000 0.000000
O O18 0.952188 0.500000 0.524524
O O19 0.000000 0.741032 0.500000
#
# Coordination Sequence:
#
# PCOD9208893 Si02
#       7
#     8   8   8   8   8   8   8
#     4  10  21  38  60  86 116 151 194 241 285 338
#     4  11  24  40  58  85 119 152 191 240 294 352
#     4  11  23  39  60  86 116 152 197 245 291 345
#     4  10  21  38  60  86 115 150 194 239 285 344
#     4  11  23  39  60  87 120 157 196 240 291 345
#     4  11  24  40  59  85 116 151 192 239 291 347
#     4   9  17  32  57  85 111 143 184 230 281 335
#
# _framework density 19.188472999999998
#
# number of rings (size 3 to 8) (size 9 to 14) (size 15 to 20)
#    0.000    1.571    0.000    4.714    0.000   13.143 
#    0.000    0.714    0.000    2.571    0.000    0.000 
#    0.000    0.000    0.000    0.000    0.000    0.000 
#
# Total GULP energy -156583.670420 kJ/mol
# GULP energy per Si atom -5592.273944 kJ/mol
# Density = 1.914480 g / cm^3
# Si number density = 19.188473 Si / 1000 Ang^3
#
#
#
# Elastic Constant Matrix: (Units=GPa)
#
#
# Indices 1 2 3 4 5 6 
#
# 1 241.0140 51.9974 146.8219 0.0000 -0.7665 0.0000
# 2 51.9974 28.6991 43.6005 0.0000 -2.7173 0.0000
# 3 146.8219 43.6005 238.4158 0.0000 -0.8466 0.0000
# 4 0.0000 0.0000 0.0000 36.2332 0.0000 3.3454
# 5 -0.7665 -2.7173 -0.8466 0.0000 46.5637 0.0000
# 6 0.0000 0.0000 0.0000 3.3454 0.0000 28.3186
#
#
#
# Elastic Compliance Matrix: (Units=1/GPa)
#
#
# Indices 1 2 3 4 5 6 
#
# 1 0.008340 -0.010183 -0.003275 0.000000 -0.000517 0.000000
# 2 -0.010183 0.061013 -0.004875 0.000000 0.003304 0.000000
# 3 -0.003275 -0.004875 0.007102 0.000000 -0.000209 0.000000
# 4 0.000000 0.000000 0.000000 0.027903 0.000000 -0.003296
# 5 -0.000517 0.003304 -0.000209 0.000000 0.021656 0.000000
# 6 0.000000 0.000000 0.000000 -0.003296 0.000000 0.035702
#
#
# Mechanical properties :
#
#
# Convention : Reuss Voigt Hill
#
# Bulk Modulus (GPa) = 25.13313 110.32984 67.73149
# Shear Modulus (GPa) = 23.62427 39.93702 31.78064
#
# Velocity S-wave (km/s) = 3.51261 4.56708 4.07410
# Velocity P-wave (km/s) = 5.43854 9.24304 7.58325
#
# Compressibility (1/GPa) = 0.03978812
#
# Stress axis : x y z
#
# Youngs Moduli (GPa) = 119.90816 16.38990 140.79991
#
# Poissons Ratio (x) = 0.16689 0.46118
# Poissons Ratio (y) = 1.22100 0.68644
# Poissons Ratio (z) = 0.39275 0.07991
#
# Static dielectric constant tensor:
#      x y z
#    x 1.647830 0.000000 -0.010380 
#    y 0.000000 1.664000 0.000000 
#    z -0.010380 0.000000 1.616790 
# 
# From -- ./inp_files/181049.got.cif
#   From: 2010.05.17/outbox.cif.g08.bks.cpg/sg12_91_cif.got.tgz:181049.got - 2010.06.03 13:09:07.
