data_PCOD9208593
_publ_section_title
;
Structure prediction by ZEFSAII (Michael W. Deem and Ramdas Pophale) SiO2 
 PCOD9208593
Probable space group: C 2/M
;
_chemical_formula_sum "Si O2"
_cell_formula_units_Z 64
_cell_length_a 30.654596
_cell_length_b 25.109018
_cell_length_c 15.056990
_cell_angle_alpha 90.000000
_cell_angle_beta 17.316694
_cell_angle_gamma 90.000000
_cell_volume 3449.640337
_symmetry_space_group_name_H-M "C 2/M"
_symmetry_group_IT_number 12
_symmetry_cell_setting 'monoclinic'
loop_
_space_group_symop_operation_xyz
x,y,z
-x,y,-z
-x,-y,-z
x,-y,z
1/2+x,1/2+y,z
1/2-x,1/2+y,-z
1/2-x,1/2-y,-z
1/2+x,1/2-y,z
loop_
_atom_site_type_symbol
_atom_site_label
_atom_site_fract_x
_atom_site_fract_y
_atom_site_fract_z
Si Si1 0.448512 0.255195 0.300889
Si Si2 0.537813 0.137018 0.167385
Si Si3 0.868065 0.940062 0.326683
Si Si4 0.814317 0.778477 0.289707
Si Si5 0.561657 0.061643 0.282064
Si Si6 0.612426 0.629395 0.538055
Si Si7 0.587323 0.562180 0.416589
Si Si8 0.367660 0.120044 0.320535
O O1 0.503682 0.200237 0.236212
O O2 0.278940 0.243884 0.611630
O O3 0.458387 0.312017 0.328677
O O4 0.524145 0.265597 0.057380
O O5 0.504309 0.103528 0.320935
O O6 0.447834 0.112230 0.259058
O O7 0.711389 0.132561 0.813584
O O8 0.905980 0.898570 0.330777
O O9 0.716204 0.925595 0.571226
O O10 0.856037 0.000000 0.387514
O O11 0.000000 0.939192 0.000000
O O12 0.750000 0.750000 0.500000
O O13 0.763891 0.838697 0.403495
O O14 0.500000 0.071693 0.500000
O O15 0.525851 0.000000 0.327464
O O16 0.738379 0.065841 0.939542
O O17 0.554173 0.594081 0.570476
O O18 0.500000 0.581699 0.500000
O O19 0.550424 0.500000 0.501090
O O20 0.500000 0.141253 0.000000
#
# Coordination Sequence:
#
# PCOD9208593 Si02
#       8
#     8   8   8   8   8   8   8   8
#     4  11  21  35  54  81 117 152 194 240 282 346
#     4  10  21  38  58  88 120 150 196 240 285 349
#     4  11  24  40  56  83 120 157 197 241 292 346
#     4  11  20  33  52  77 107 154 199 243 282 322
#     4   9  19  39  65  88 113 146 186 240 298 345
#     4  11  20  39  61  82 118 159 191 235 299 343
#     4   9  19  38  63  89 111 141 193 243 288 352
#     4  11  21  37  55  83 117 152 202 240 278 347
#
# _framework density 18.552658999999998
#
# number of rings (size 3 to 8) (size 9 to 14) (size 15 to 20)
#    0.000    1.625    2.500    3.750    0.000    1.250 
#    6.750    0.625    0.000    3.000    0.000    0.000 
#    0.000    0.000    0.000    0.000    0.000    0.000 
#
# Total GULP energy -178392.430094 kJ/mol
# GULP energy per Si atom -5574.763440 kJ/mol
# Density = 1.851043 g / cm^3
# Si number density = 18.552659 Si / 1000 Ang^3
#
#
#
# Elastic Constant Matrix: (Units=GPa)
#
#
# Indices 1 2 3 4 5 6 
#
# 1 122.4219 67.5353 22.6384 0.0035 3.2264 -0.0012
# 2 67.5353 104.8083 22.1788 0.0091 9.6465 0.0010
# 3 22.6384 22.1788 48.9500 0.0112 5.5719 -0.0038
# 4 0.0035 0.0091 0.0112 21.0506 -0.0043 -3.7856
# 5 3.2264 9.6465 5.5719 -0.0043 29.3284 0.0021
# 6 -0.0012 0.0010 -0.0038 -3.7856 0.0021 10.1074
#
#
#
# Elastic Compliance Matrix: (Units=1/GPa)
#
#
# Indices 1 2 3 4 5 6 
#
# 1 0.013011 -0.007992 -0.002589 0.000003 0.001689 0.000002
# 2 -0.007992 0.015662 -0.002978 -0.000006 -0.003707 -0.000005
# 3 -0.002589 -0.002978 0.023337 -0.000010 -0.003169 0.000006
# 4 0.000003 -0.000006 -0.000010 0.050935 0.000010 0.019077
# 5 0.001689 -0.003707 -0.003169 0.000010 0.035732 -0.000005
# 6 0.000002 -0.000005 0.000006 0.019077 -0.000005 0.106082
#
#
# Mechanical properties :
#
#
# Convention : Reuss Voigt Hill
#
# Bulk Modulus (GPa) = 40.17333 55.65392 47.91363
# Shear Modulus (GPa) = 17.84595 23.01914 20.43255
#
# Velocity S-wave (km/s) = 3.10483 3.52624 3.32223
# Velocity P-wave (km/s) = 5.87826 6.82950 6.37166
#
# Compressibility (1/GPa) = 0.02489213
#
# Stress axis : x y z
#
# Youngs Moduli (GPa) = 76.85532 63.84739 42.85125
#
# Poissons Ratio (x) = 0.51026 0.11093
# Poissons Ratio (y) = 0.61421 0.12763
# Poissons Ratio (z) = 0.19896 0.19017
#
# Static dielectric constant tensor:
#      x y z
#    x 1.626270 0.000000 -0.000870 
#    y 0.000000 1.673360 0.000000 
#    z -0.000870 0.000000 1.635790 
# 
# From -- ./inp_files/251917.got.cif
#   From: 2010.05.17/outbox.cif.g08.bks.cpg/sg12_126_cif.got.tgz:251917.got - 2010.06.03 13:09:07.
