data_PCOD9208092
_publ_section_title
;
Structure prediction by ZEFSAII (Michael W. Deem and Ramdas Pophale) SiO2 
 PCOD9208092
Probable space group: C 2/M
;
_chemical_formula_sum "Si O2"
_cell_formula_units_Z 56
_cell_length_a 28.213669
_cell_length_b 18.679270
_cell_length_c 9.648296
_cell_angle_alpha 90.000000
_cell_angle_beta 33.012911
_cell_angle_gamma 90.000000
_cell_volume 2770.317271
_symmetry_space_group_name_H-M "C 2/M"
_symmetry_group_IT_number 12
_symmetry_cell_setting 'monoclinic'
loop_
_space_group_symop_operation_xyz
x,y,z
-x,y,-z
-x,-y,-z
x,-y,z
1/2+x,1/2+y,z
1/2-x,1/2+y,-z
1/2-x,1/2-y,-z
1/2+x,1/2-y,z
loop_
_atom_site_type_symbol
_atom_site_label
_atom_site_fract_x
_atom_site_fract_y
_atom_site_fract_z
Si Si1 0.644942 0.287494 0.391433
Si Si2 0.036972 0.721263 0.108405
Si Si3 0.554708 0.081873 0.224656
Si Si4 0.692124 0.793580 0.532111
Si Si5 0.267335 0.916045 0.054778
Si Si6 0.745873 0.584511 0.793359
Si Si7 0.400775 0.306668 0.790119
O O1 0.547339 0.272077 0.684407
O O2 0.701640 0.242326 0.358276
O O3 0.684977 0.366701 0.292916
O O4 0.642109 0.266915 0.236695
O O5 0.018901 0.641242 0.207778
O O6 0.095051 0.757156 0.086696
O O7 0.095160 0.713726 0.830050
O O8 0.500000 0.085989 0.500000
O O9 0.549545 0.000000 0.185274
O O10 0.653433 0.097031 0.033598
O O11 0.750000 0.750000 0.500000
O O12 0.714182 0.875163 0.438132
O O13 0.245358 0.000000 0.117203
O O14 0.292118 0.903406 0.831050
O O15 0.741139 0.500000 0.783185
O O16 0.652201 0.621871 0.046368
O O17 0.500000 0.322017 0.500000
#
# Coordination Sequence:
#
# PCOD9208092 Si02
#       7
#     8   8   8   8   8   8   8
#     4  10  22  39  64  89 121 162 208 264 309 362
#     4  11  22  39  59  93 124 160 212 252 312 380
#     4  10  21  37  61  93 130 163 208 270 317 371
#     4  12  24  39  59  86 127 168 208 254 304 379
#     4   9  20  39  65  96 124 160 211 265 321 372
#     4  10  22  38  60  91 124 163 207 255 316 374
#     4   9  19  37  64  93 119 154 204 261 310 369
#
# _framework density 20.214290999999999
#
# number of rings (size 3 to 8) (size 9 to 14) (size 15 to 20)
#    0.000    1.857    1.429    2.571    4.000    2.000 
#    0.000    2.857    0.000    2.571    0.000    0.000 
#    0.000    0.000    0.000    0.000    0.000    0.000 
#
# Total GULP energy -156203.034744 kJ/mol
# GULP energy per Si atom -5578.679812 kJ/mol
# Density = 2.016828 g / cm^3
# Si number density = 20.214291 Si / 1000 Ang^3
#
#
#
# Elastic Constant Matrix: (Units=GPa)
#
#
# Indices 1 2 3 4 5 6 
#
# 1 57.9893 29.3009 20.5331 0.0000 1.4111 0.0000
# 2 29.3009 118.6328 46.0132 0.0000 1.4720 0.0000
# 3 20.5331 46.0132 122.5074 0.0000 -0.1486 0.0000
# 4 0.0000 0.0000 0.0000 33.7268 0.0000 1.1317
# 5 1.4111 1.4720 -0.1486 0.0000 28.2329 0.0000
# 6 0.0000 0.0000 0.0000 1.1317 0.0000 17.0709
#
#
#
# Elastic Compliance Matrix: (Units=1/GPa)
#
#
# Indices 1 2 3 4 5 6 
#
# 1 0.020038 -0.004256 -0.001761 0.000000 -0.000789 0.000000
# 2 -0.004256 0.010779 -0.003336 0.000000 -0.000367 0.000000
# 3 -0.001761 -0.003336 0.009711 0.000000 0.000313 0.000000
# 4 0.000000 0.000000 0.000000 0.029716 0.000000 -0.001970
# 5 -0.000789 -0.000367 0.000313 0.000000 0.035480 0.000000
# 6 0.000000 0.000000 0.000000 -0.001970 0.000000 0.058710
#
#
# Mechanical properties :
#
#
# Convention : Reuss Voigt Hill
#
# Bulk Modulus (GPa) = 45.82431 54.53598 50.18014
# Shear Modulus (GPa) = 26.25868 29.35828 27.80848
#
# Velocity S-wave (km/s) = 3.60810 3.81511 3.71305
# Velocity P-wave (km/s) = 6.33058 6.81500 6.57725
#
# Compressibility (1/GPa) = 0.02182248
#
# Stress axis : x y z
#
# Youngs Moduli (GPa) = 49.90544 92.77354 102.97508
#
# Poissons Ratio (x) = 0.39488 0.18132
# Poissons Ratio (y) = 0.21242 0.34348
# Poissons Ratio (z) = 0.08787 0.30945
#
# Static dielectric constant tensor:
#      x y z
#    x 1.788420 0.000000 -0.033870 
#    y 0.000000 1.714890 0.000000 
#    z -0.033870 0.000000 1.729090 
# 
# From -- ./inp_files/105970.got.cif
#   From: 2010.05.17/outbox.cif.g08.bks.cpg/sg12_53_cif.got.tgz:105970.got - 2010.06.03 13:09:07.
