data_PCOD9208481
_publ_section_title
;
Structure prediction by ZEFSAII (Michael W. Deem and Ramdas Pophale) SiO2 
 PCOD9208481
Probable space group: C 2/M
;
_chemical_formula_sum "Si O2"
_cell_formula_units_Z 56
_cell_length_a 29.770940
_cell_length_b 8.922883
_cell_length_c 13.408894
_cell_angle_alpha 90.000000
_cell_angle_beta 123.345896
_cell_angle_gamma 90.000000
_cell_volume 2975.556339
_symmetry_space_group_name_H-M "C 2/M"
_symmetry_group_IT_number 12
_symmetry_cell_setting 'monoclinic'
loop_
_space_group_symop_operation_xyz
x,y,z
-x,y,-z
-x,-y,-z
x,-y,z
1/2+x,1/2+y,z
1/2-x,1/2+y,-z
1/2-x,1/2-y,-z
1/2+x,1/2-y,z
loop_
_atom_site_type_symbol
_atom_site_label
_atom_site_fract_x
_atom_site_fract_y
_atom_site_fract_z
Si Si1 0.803257 0.678250 0.283583
Si Si2 0.526418 0.680168 0.798914
Si Si3 0.813722 0.822092 0.935141
Si Si4 0.090880 0.322002 0.060147
Si Si5 0.377010 0.678713 0.216290
Si Si6 0.798257 0.179935 0.495291
Si Si7 0.087041 0.820292 0.270191
O O1 0.806190 0.500000 0.301313
O O2 0.748838 0.711566 0.154647
O O3 0.853866 0.736874 0.282913
O O4 0.797672 0.758433 0.382592
O O5 0.532264 0.500000 0.815664
O O6 0.563938 0.723830 0.751488
O O7 0.463452 0.716190 0.720205
O O8 0.551827 0.753075 0.928698
O O9 0.849662 0.731075 0.900663
O O10 0.821804 0.000000 0.926047
O O11 0.837534 0.791372 0.073734
O O12 0.086878 0.500000 0.054873
O O13 0.078704 0.257514 0.153886
O O14 0.376579 0.500000 0.234416
O O15 0.750000 0.250000 0.500000
O O16 0.855562 0.221402 0.614219
O O17 0.793672 0.000000 0.489826
O O18 0.086922 0.000000 0.254746
#
# Coordination Sequence:
#
# PCOD9208481 Si02
#       7
#     8   8   8   8   8   8   8
#     4  11  22  36  56  81 110 145 182 221 270 323
#     4   9  19  37  58  79 107 144 183 221 263 318
#     4   9  19  35  54  78 110 148 185 218 260 322
#     4  11  21  31  51  85 117 142 173 220 276 325
#     4   9  18  34  56  81 108 138 177 225 270 314
#     4  11  24  41  60  82 108 140 181 226 269 316
#     4  10  21  38  58  77 103 145 189 223 262 318
#
# _framework density 18.82001
#
# number of rings (size 3 to 8) (size 9 to 14) (size 15 to 20)
#    0.000    2.000    0.000    4.714    0.000   10.286 
#    0.000    0.714    0.000    4.286    0.000    0.000 
#    0.000    0.000    0.000    0.000    0.000    0.000 
#
# Total GULP energy -156385.935156 kJ/mol
# GULP energy per Si atom -5585.211970 kJ/mol
# Density = 1.877718 g / cm^3
# Si number density = 18.820010 Si / 1000 Ang^3
#
#
#
# Elastic Constant Matrix: (Units=GPa)
#
#
# Indices 1 2 3 4 5 6 
#
# 1 183.1136 56.3655 63.1995 0.0000 -0.1303 0.0000
# 2 56.3655 30.1904 28.2986 0.0000 -2.0598 0.0000
# 3 63.1995 28.2986 43.2638 0.0000 -3.9875 0.0000
# 4 0.0000 0.0000 0.0000 21.5799 0.0000 -5.3395
# 5 -0.1303 -2.0598 -3.9875 0.0000 29.3372 0.0000
# 6 0.0000 0.0000 0.0000 -5.3395 0.0000 27.4302
#
#
#
# Elastic Compliance Matrix: (Units=1/GPa)
#
#
# Indices 1 2 3 4 5 6 
#
# 1 0.014164 -0.018108 -0.009072 0.000000 -0.002442 0.000000
# 2 -0.018108 0.108839 -0.044601 0.000000 0.001499 0.000000
# 3 -0.009072 -0.044601 0.066075 0.000000 0.005809 0.000000
# 4 0.000000 0.000000 0.000000 0.048684 0.000000 0.009477
# 5 -0.002442 0.001499 0.005809 0.000000 0.034970 0.000000
# 6 0.000000 0.000000 0.000000 0.009477 0.000000 0.038301
#
#
# Mechanical properties :
#
#
# Convention : Reuss Voigt Hill
#
# Bulk Modulus (GPa) = 21.96989 61.36610 41.66799
# Shear Modulus (GPa) = 10.64357 22.91641 16.77999
#
# Velocity S-wave (km/s) = 2.38070 3.49329 2.98921
# Velocity P-wave (km/s) = 4.38817 6.99631 5.83971
#
# Compressibility (1/GPa) = 0.04551684
#
# Stress axis : x y z
#
# Youngs Moduli (GPa) = 70.59962 9.18786 15.13440
#
# Poissons Ratio (x) = 0.16637 0.13730
# Poissons Ratio (y) = 1.27842 0.67501
# Poissons Ratio (z) = 0.64047 0.40979
#
# Static dielectric constant tensor:
#      x y z
#    x 1.667490 0.000000 0.021590 
#    y 0.000000 1.630450 0.000000 
#    z 0.021590 0.000000 1.625070 
# 
# From -- ./inp_files/180665.got.cif
#   From: 2010.05.17/outbox.cif.g08.bks.cpg/sg12_91_cif.got.tgz:180665.got - 2010.06.03 13:09:07.
