data_PCOD9208323
_publ_section_title
;
Structure prediction by ZEFSAII (Michael W. Deem and Ramdas Pophale) SiO2 
 PCOD9208323
Probable space group: C 2/M
;
_chemical_formula_sum "Si O2"
_cell_formula_units_Z 40
_cell_length_a 8.999804
_cell_length_b 17.077116
_cell_length_c 12.410867
_cell_angle_alpha 90.000000
_cell_angle_beta 64.305458
_cell_angle_gamma 90.000000
_cell_volume 1718.824455
_symmetry_space_group_name_H-M "C 2/M"
_symmetry_group_IT_number 12
_symmetry_cell_setting 'monoclinic'
loop_
_space_group_symop_operation_xyz
x,y,z
-x,y,-z
-x,-y,-z
x,-y,z
1/2+x,1/2+y,z
1/2-x,1/2+y,-z
1/2-x,1/2-y,-z
1/2+x,1/2-y,z
loop_
_atom_site_type_symbol
_atom_site_label
_atom_site_fract_x
_atom_site_fract_y
_atom_site_fract_z
Si Si1 0.401349 0.120077 0.278902
Si Si2 0.463403 0.302665 0.214081
Si Si3 0.731106 0.414572 0.871393
Si Si4 0.338862 0.665805 0.477714
Si Si5 0.314899 0.861269 0.080603
O O1 0.409268 0.213648 0.250857
O O2 0.587137 0.092875 0.238153
O O3 0.285532 0.109610 0.418439
O O4 0.331684 0.090242 0.186365
O O5 0.382098 0.345929 0.138897
O O6 0.399536 0.351429 0.338259
O O7 0.661040 0.303482 0.144944
O O8 0.659790 0.500000 0.869798
O O9 0.766305 0.406730 0.987557
O O10 0.500000 0.674037 0.500000
O O11 0.250000 0.750000 0.500000
O O12 0.500000 0.828818 0.000000
#
# Coordination Sequence:
#
# PCOD9208323 Si02
#       5
#     8   8   8   8   8
#     4  10  22  40  66  98 131 169 220 270 325 392
#     4  11  22  39  67  97 133 169 219 275 322 392
#     4  11  26  43  64  95 135 177 217 269 334 390
#     4  10  21  37  66 100 132 169 213 272 330 388
#     4  10  22  38  60  89 124 169 217 267 316 379
#
# _framework density 23.271718
#
# number of rings (size 3 to 8) (size 9 to 14) (size 15 to 20)
#    0.000    1.600    2.000    1.800    8.400   14.000 
#    0.000    2.000    0.000    1.200    0.000    0.000 
#    0.000    0.000    0.000    0.000    0.000    0.000 
#
# Total GULP energy -111760.129614 kJ/mol
# GULP energy per Si atom -5588.006481 kJ/mol
# Density = 2.321875 g / cm^3
# Si number density = 23.271718 Si / 1000 Ang^3
#
#
#
# Elastic Constant Matrix: (Units=GPa)
#
#
# Indices 1 2 3 4 5 6 
#
# 1 119.9886 28.3300 33.6052 0.0000 -12.5134 0.0000
# 2 28.3300 88.1112 14.4629 0.0000 0.2307 0.0000
# 3 33.6052 14.4629 156.5075 0.0000 -16.0117 0.0000
# 4 0.0000 0.0000 0.0000 -5.1917 0.0000 -0.0054
# 5 -12.5134 0.2307 -16.0117 0.0000 38.0187 0.0000
# 6 0.0000 0.0000 0.0000 -0.0054 0.0000 0.3620
#
#
#
# Elastic Compliance Matrix: (Units=1/GPa)
#
#
# Indices 1 2 3 4 5 6 
#
# 1 0.009716 -0.002875 -0.001559 0.000000 0.002559 0.000000
# 2 -0.002875 0.012385 -0.000660 0.000000 -0.001299 0.000000
# 3 -0.001559 -0.000660 0.007036 0.000000 0.002454 0.000000
# 4 0.000000 0.000000 0.000000 -0.192612 0.000000 -0.002891
# 5 0.002559 -0.001299 0.002454 0.000000 0.028187 0.000000
# 6 0.000000 0.000000 0.000000 -0.002891 0.000000 2.762055
#
#
# Mechanical properties :
#
#
# Convention : Reuss Voigt Hill
#
# Bulk Modulus (GPa) = 52.76972 57.48926 55.12949
# Shear Modulus (GPa) = 1.89159 25.85176 13.87168
#
# Velocity S-wave (km/s) = 0.90255 3.33658 2.44411
# Velocity P-wave (km/s) = 4.87963 6.29292 5.63079
#
# Compressibility (1/GPa) = 0.01895026
#
# Stress axis : x y z
#
# Youngs Moduli (GPa) = 102.91927 80.74014 142.12060
#
# Poissons Ratio (x) = 0.23212 0.22154
# Poissons Ratio (y) = 0.29588 0.09383
# Poissons Ratio (z) = 0.16043 0.05330
#
# Static dielectric constant tensor:
#      x y z
#    x 1.843080 0.000000 0.004990 
#    y 0.000000 1.873600 0.000000 
#    z 0.004990 0.000000 1.955680 
# 
# From -- ./inp_files/118878.got.cif
#   From: 2010.05.17/outbox.cif.g08.bks.cpg/sg12_60_cif.got.tgz:118878.got - 2010.06.03 13:09:07.
