data_PCOD9208830
_publ_section_title
;
Structure prediction by ZEFSAII (Michael W. Deem and Ramdas Pophale) SiO2 
 PCOD9208830
Probable space group: C 2/M
;
_chemical_formula_sum "Si O2"
_cell_formula_units_Z 48
_cell_length_a 29.738014
_cell_length_b 7.854676
_cell_length_c 18.324544
_cell_angle_alpha 90.000000
_cell_angle_beta 25.815932
_cell_angle_gamma 90.000000
_cell_volume 1863.987750
_symmetry_space_group_name_H-M "C 2/M"
_symmetry_group_IT_number 12
_symmetry_cell_setting 'monoclinic'
loop_
_space_group_symop_operation_xyz
x,y,z
-x,y,-z
-x,-y,-z
x,-y,z
1/2+x,1/2+y,z
1/2-x,1/2+y,-z
1/2-x,1/2-y,-z
1/2+x,1/2-y,z
loop_
_atom_site_type_symbol
_atom_site_label
_atom_site_fract_x
_atom_site_fract_y
_atom_site_fract_z
Si Si1 0.869601 0.792292 0.123697
Si Si2 0.107230 0.207442 0.750639
Si Si3 0.647373 0.697322 0.229649
Si Si4 0.098572 0.196088 0.606335
Si Si5 0.330374 0.803699 0.653171
Si Si6 0.114618 0.696004 0.123515
O O1 0.843215 0.737147 0.245293
O O2 0.784970 0.729903 0.190614
O O3 0.865416 0.000000 0.129406
O O4 0.986545 0.744828 0.936166
O O5 0.139699 0.269023 0.623141
O O6 0.111878 0.000000 0.741291
O O7 0.646743 0.500000 0.209340
O O8 0.611873 0.713160 0.365064
O O9 0.594036 0.793516 0.241109
O O10 0.767530 0.757888 0.056462
O O11 0.126420 0.291684 0.491691
O O12 0.973319 0.202446 0.790272
O O13 0.129970 0.000000 0.552725
O O14 0.325922 0.000000 0.681131
O O15 0.109096 0.500000 0.108856
#
# Coordination Sequence:
#
# PCOD9208830 Si02
#       6
#     8   8   8   8   8   8
#     4   8  15  30  53  79 105 137 180 226 269 316
#     4   8  15  30  53  79 105 137 180 226 269 316
#     4  10  21  38  60  84 109 138 176 222 270 322
#     4  11  22  35  53  79 112 148 184 222 268 320
#     4  11  22  35  53  79 112 148 184 222 268 320
#     4  10  21  38  60  84 109 138 176 222 270 322
#
# _framework density 25.751242999999999
#
# number of rings (size 3 to 8) (size 9 to 14) (size 15 to 20)
#    0.000    2.333    0.000    4.000    0.000    4.667 
#    0.000    3.333    0.000    3.000    0.000   11.667 
#    0.000    0.000    0.000    0.000    0.000    0.000 
#
# Total GULP energy -134243.054660 kJ/mol
# GULP energy per Si atom -5593.460611 kJ/mol
# Density = 2.569263 g / cm^3
# Si number density = 25.751243 Si / 1000 Ang^3
#
#
#
# Elastic Constant Matrix: (Units=GPa)
#
#
# Indices 1 2 3 4 5 6 
#
# 1 173.4755 8.2020 14.9554 -0.0008 24.2814 0.0004
# 2 8.2020 67.4563 -0.8457 -0.0009 2.1117 0.0014
# 3 14.9554 -0.8457 56.0599 -0.0021 17.3227 0.0011
# 4 -0.0008 -0.0009 -0.0021 24.0052 0.0007 5.1083
# 5 24.2814 2.1117 17.3227 0.0007 50.0148 -0.0003
# 6 0.0004 0.0014 0.0011 5.1083 -0.0003 16.4436
#
#
#
# Elastic Compliance Matrix: (Units=1/GPa)
#
#
# Indices 1 2 3 4 5 6 
#
# 1 0.006249 -0.000685 -0.000839 0.000000 -0.002714 0.000000
# 2 -0.000685 0.014930 0.000560 0.000001 -0.000492 -0.000002
# 3 -0.000839 0.000560 0.020103 0.000002 -0.006579 -0.000002
# 4 0.000000 0.000001 0.000002 0.044607 -0.000002 -0.013857
# 5 -0.002714 -0.000492 -0.006579 -0.000002 0.023611 0.000002
# 6 0.000000 -0.000002 -0.000002 -0.013857 0.000002 0.065119
#
#
# Mechanical properties :
#
#
# Convention : Reuss Voigt Hill
#
# Bulk Modulus (GPa) = 25.41012 37.95725 31.68369
# Shear Modulus (GPa) = 26.36222 36.40474 31.38348
#
# Velocity S-wave (km/s) = 3.20304 3.76401 3.49480
# Velocity P-wave (km/s) = 4.85472 5.80192 5.34933
#
# Compressibility (1/GPa) = 0.03935440
#
# Stress axis : x y z
#
# Youngs Moduli (GPa) = 160.02171 66.97856 49.74319
#
# Poissons Ratio (x) = 0.04591 0.04172
# Poissons Ratio (y) = 0.10967 -0.02785
# Poissons Ratio (z) = 0.13421 -0.03751
#
# Static dielectric constant tensor:
#      x y z
#    x 1.993950 0.000000 0.036620 
#    y 0.000000 1.866800 0.000000 
#    z 0.036620 0.000000 2.172030 
# 
# From -- ./inp_files/260413.got.cif
#   From: 2010.05.17/outbox.cif.g08.bks.cpg/sg12_131_cif.got.tgz:260413.got - 2010.06.03 13:09:07.
