data_PCOD9208238
_publ_section_title
;
Structure prediction by ZEFSAII (Michael W. Deem and Ramdas Pophale) SiO2 
 PCOD9208238
Probable space group: C 2/M
;
_chemical_formula_sum "Si O2"
_cell_formula_units_Z 48
_cell_length_a 4.939131
_cell_length_b 25.062804
_cell_length_c 17.769979
_cell_angle_alpha 90.000000
_cell_angle_beta 76.086370
_cell_angle_gamma 90.000000
_cell_volume 2135.177284
_symmetry_space_group_name_H-M "C 2/M"
_symmetry_group_IT_number 12
_symmetry_cell_setting 'monoclinic'
loop_
_space_group_symop_operation_xyz
x,y,z
-x,y,-z
-x,-y,-z
x,-y,z
1/2+x,1/2+y,z
1/2-x,1/2+y,-z
1/2-x,1/2-y,-z
1/2+x,1/2-y,z
loop_
_atom_site_type_symbol
_atom_site_label
_atom_site_fract_x
_atom_site_fract_y
_atom_site_fract_z
Si Si1 0.213122 0.602289 0.667580
Si Si2 0.788691 0.901613 0.075942
Si Si3 0.403518 0.785233 0.905220
Si Si4 0.005670 0.284118 0.279169
Si Si5 0.291178 0.937664 0.579657
Si Si6 0.801554 0.061917 0.831153
O O1 0.121046 0.663554 0.675843
O O2 0.500895 0.592916 0.604426
O O3 0.262119 0.581918 0.749006
O O4 0.965001 0.569776 0.644685
O O5 0.963879 0.904022 0.141545
O O6 0.712102 0.841150 0.058655
O O7 0.495375 0.930794 0.107292
O O8 0.000000 0.924906 0.000000
O O9 0.686506 0.763575 0.922095
O O10 0.455984 0.795100 0.812541
O O11 0.795896 0.234079 0.295267
O O12 0.500000 0.919451 0.500000
O O13 0.227086 0.000000 0.571567
O O14 0.884827 0.000000 0.826626
#
# Coordination Sequence:
#
# PCOD9208238 Si02
#       6
#     8   8   8   8   8   8
#     4  12  23  42  70  96 129 167 212 264 311 369
#     4  12  26  43  62  90 129 170 212 267 327 379
#     4  10  21  38  63  89 123 159 207 265 323 378
#     4  10  21  37  63  94 125 161 208 262 313 370
#     4  11  24  42  67 101 136 169 205 252 318 381
#     4  12  26  43  65  93 123 167 222 267 311 373
#
# _framework density 22.480567000000001
#
# number of rings (size 3 to 8) (size 9 to 14) (size 15 to 20)
#    0.000    0.833    1.667    6.000    4.667    4.000 
#    0.000    0.000    0.000   10.000    0.000    0.000 
#    0.000    0.000    0.000    0.000    0.000    0.000 
#
# Total GULP energy -134518.284159 kJ/mol
# GULP energy per Si atom -5604.928507 kJ/mol
# Density = 2.242940 g / cm^3
# Si number density = 22.480567 Si / 1000 Ang^3
#
#
#
# Elastic Constant Matrix: (Units=GPa)
#
#
# Indices 1 2 3 4 5 6 
#
# 1 94.3808 4.8976 4.2305 0.0000 -5.2103 0.0000
# 2 4.8976 73.3743 26.5473 0.0000 -14.9857 0.0000
# 3 4.2305 26.5473 54.2102 0.0000 -19.5734 0.0000
# 4 0.0000 0.0000 0.0000 30.3695 0.0000 -14.0580
# 5 -5.2103 -14.9857 -19.5734 0.0000 46.3447 0.0000
# 6 0.0000 0.0000 0.0000 -14.0580 0.0000 28.3566
#
#
#
# Elastic Compliance Matrix: (Units=1/GPa)
#
#
# Indices 1 2 3 4 5 6 
#
# 1 0.010682 -0.000415 -0.000289 0.000000 0.000944 0.000000
# 2 -0.000415 0.016786 -0.007369 0.000000 0.002269 0.000000
# 3 -0.000289 -0.007369 0.025021 0.000000 0.008152 0.000000
# 4 0.000000 0.000000 0.000000 0.042735 0.000000 0.021186
# 5 0.000944 0.002269 0.008152 0.000000 0.025860 0.000000
# 6 0.000000 0.000000 0.000000 0.021186 0.000000 0.045768
#
#
# Mechanical properties :
#
#
# Convention : Reuss Voigt Hill
#
# Bulk Modulus (GPa) = 27.51571 32.59068 30.05319
# Shear Modulus (GPa) = 25.62610 33.43349 29.52980
#
# Velocity S-wave (km/s) = 3.37994 3.86063 3.62825
# Velocity P-wave (km/s) = 5.24388 5.86527 5.56326
#
# Compressibility (1/GPa) = 0.03634287
#
# Stress axis : x y z
#
# Youngs Moduli (GPa) = 93.61514 59.57384 39.96596
#
# Poissons Ratio (x) = 0.02475 0.01156
# Poissons Ratio (y) = 0.03890 0.29449
# Poissons Ratio (z) = 0.02707 0.43897
#
# Static dielectric constant tensor:
#      x y z
#    x 1.797550 0.000000 0.007140 
#    y 0.000000 1.775070 0.000000 
#    z 0.007140 0.000000 1.872020 
# 
# From -- ./inp_files/253412.got.cif
#   From: 2010.05.17/outbox.cif.g08.bks.cpg/sg12_127_cif.got.tgz:253412.got - 2010.06.03 13:09:07.
