data_PCOD9208833
_publ_section_title
;
Structure prediction by ZEFSAII (Michael W. Deem and Ramdas Pophale) SiO2 
 PCOD9208833
Probable space group: C 2/M
;
_chemical_formula_sum "Si O2"
_cell_formula_units_Z 48
_cell_length_a 24.741576
_cell_length_b 8.316808
_cell_length_c 12.245669
_cell_angle_alpha 90.000000
_cell_angle_beta 90.624504
_cell_angle_gamma 90.000000
_cell_volume 2519.653109
_symmetry_space_group_name_H-M "C 2/M"
_symmetry_group_IT_number 12
_symmetry_cell_setting 'monoclinic'
loop_
_space_group_symop_operation_xyz
x,y,z
-x,y,-z
-x,-y,-z
x,-y,z
1/2+x,1/2+y,z
1/2-x,1/2+y,-z
1/2-x,1/2-y,-z
1/2+x,1/2-y,z
loop_
_atom_site_type_symbol
_atom_site_label
_atom_site_fract_x
_atom_site_fract_y
_atom_site_fract_z
Si Si1 0.794343 0.307890 0.587128
Si Si2 0.764208 0.807552 0.827020
Si Si3 0.955125 0.193836 0.084350
Si Si4 0.666110 0.694368 0.964291
Si Si5 0.085568 0.695996 0.467135
Si Si6 0.982693 0.305703 0.326513
O O1 0.796116 0.500000 0.582951
O O2 0.750000 0.250000 0.500000
O O3 0.778538 0.256393 0.708565
O O4 0.854314 0.246415 0.557260
O O5 0.705894 0.751936 0.869477
O O6 0.765035 0.000000 0.824049
O O7 0.807087 0.752347 0.920586
O O8 0.894938 0.251999 0.053349
O O9 0.970558 0.240439 0.207244
O O10 0.954095 0.000000 0.077237
O O11 0.000000 0.253566 0.000000
O O12 0.666183 0.500000 0.963933
O O13 0.086150 0.500000 0.466987
O O14 0.061927 0.744773 0.584485
O O15 0.040981 0.744654 0.376194
O O16 0.982257 0.500000 0.322620
#
# Coordination Sequence:
#
# PCOD9208833 Si02
#       6
#     8   8   8   8   8   8
#     4  11  23  38  57  85 117 150 187 232 281 335
#     4  10  21  38  60  84 110 148 192 236 282 331
#     4  10  22  37  55  83 118 149 179 225 281 332
#     4   9  20  39  59  81 113 152 189 229 281 337
#     4   8  18  37  59  81 111 145 182 229 280 325
#     4   9  18  37  61  83 107 144 188 230 273 326
#
# _framework density 19.050239000000001
#
# number of rings (size 3 to 8) (size 9 to 14) (size 15 to 20)
#    0.000    2.500    0.000    2.000    4.667    1.667 
#    0.000    3.333    0.000    0.000    0.000    0.000 
#    0.000    0.000    0.000    0.000    0.000    0.000 
#
# Total GULP energy -133971.468663 kJ/mol
# GULP energy per Si atom -5582.144528 kJ/mol
# Density = 1.900688 g / cm^3
# Si number density = 19.050239 Si / 1000 Ang^3
#
#
#
# Elastic Constant Matrix: (Units=GPa)
#
#
# Indices 1 2 3 4 5 6 
#
# 1 219.1767 24.8895 129.1006 0.0000 -11.2292 0.0000
# 2 24.8895 12.9982 15.6596 0.0000 -2.3123 0.0000
# 3 129.1006 15.6596 170.5645 0.0000 -10.6534 0.0000
# 4 0.0000 0.0000 0.0000 31.1791 0.0000 5.6112
# 5 -11.2292 -2.3123 -10.6534 0.0000 16.1645 0.0000
# 6 0.0000 0.0000 0.0000 5.6112 0.0000 17.8248
#
#
#
# Elastic Compliance Matrix: (Units=1/GPa)
#
#
# Indices 1 2 3 4 5 6 
#
# 1 0.009383 -0.010464 -0.006078 0.000000 0.001016 0.000000
# 2 -0.010464 0.099039 -0.000774 0.000000 0.006388 0.000000
# 3 -0.006078 -0.000774 0.010704 0.000000 0.002722 0.000000
# 4 0.000000 0.000000 0.000000 0.033999 0.000000 -0.010703
# 5 0.001016 0.006388 0.002722 0.000000 0.065277 0.000000
# 6 0.000000 0.000000 0.000000 -0.010703 0.000000 0.059471
#
#
# Mechanical properties :
#
#
# Convention : Reuss Voigt Hill
#
# Bulk Modulus (GPa) = 11.83500 82.44878 47.14189
# Shear Modulus (GPa) = 14.67705 28.57299 21.62502
#
# Velocity S-wave (km/s) = 2.77869 3.87702 3.37286
# Velocity P-wave (km/s) = 4.06458 7.96338 6.32203
#
# Compressibility (1/GPa) = 0.08449517
#
# Stress axis : x y z
#
# Youngs Moduli (GPa) = 106.57890 10.09707 93.42169
#
# Poissons Ratio (x) = 0.10565 0.56779
# Poissons Ratio (y) = 1.11520 0.07229
# Poissons Ratio (z) = 0.64775 0.00781
#
# Static dielectric constant tensor:
#      x y z
#    x 1.669410 0.000000 0.006320 
#    y 0.000000 1.663400 0.000000 
#    z 0.006320 0.000000 1.625500 
# 
# From -- ./inp_files/172115.got.cif
#   From: 2010.05.17/outbox.cif.g08.bks.cpg/sg12_87_cif.got.tgz:172115.got - 2010.06.03 13:09:07.
