data_PCOD9208840
_publ_section_title
;
Structure prediction by ZEFSAII (Michael W. Deem and Ramdas Pophale) SiO2 
 PCOD9208840
Probable space group: C 2/M
;
_chemical_formula_sum "Si O2"
_cell_formula_units_Z 48
_cell_length_a 21.234301
_cell_length_b 8.485343
_cell_length_c 27.585471
_cell_angle_alpha 90.000000
_cell_angle_beta 150.069172
_cell_angle_gamma 90.000000
_cell_volume 2479.981106
_symmetry_space_group_name_H-M "C 2/M"
_symmetry_group_IT_number 12
_symmetry_cell_setting 'monoclinic'
loop_
_space_group_symop_operation_xyz
x,y,z
-x,y,-z
-x,-y,-z
x,-y,z
1/2+x,1/2+y,z
1/2-x,1/2+y,-z
1/2-x,1/2-y,-z
1/2+x,1/2-y,z
loop_
_atom_site_type_symbol
_atom_site_label
_atom_site_fract_x
_atom_site_fract_y
_atom_site_fract_z
Si Si1 0.374257 0.311073 0.555933
Si Si2 0.375456 0.692316 0.888049
Si Si3 0.373281 0.189012 0.109893
Si Si4 0.377554 0.689116 0.777480
Si Si5 0.627549 0.690687 0.557561
Si Si6 0.123162 0.309265 0.775596
O O1 0.373164 0.500000 0.555779
O O2 0.250000 0.250000 0.500000
O O3 0.375095 0.258891 0.500332
O O4 0.498413 0.251354 0.666041
O O5 0.375964 0.500000 0.888613
O O6 0.377364 0.742728 0.833414
O O7 0.248435 0.743063 0.830614
O O8 0.500000 0.744004 0.000000
O O9 0.499465 0.247503 0.167825
O O10 0.372493 0.241646 0.165483
O O11 0.371593 0.000000 0.108380
O O12 0.250000 0.250000 0.000000
O O13 0.381768 0.500000 0.779890
O O14 0.251052 0.745364 0.666571
O O15 0.500000 0.740716 0.500000
O O16 0.632416 0.500000 0.561923
O O17 0.120766 0.500000 0.773388
#
# Coordination Sequence:
#
# PCOD9208840 Si02
#       6
#     8   8   8   8   8   8
#     4  11  23  38  58  83 112 148 188 231 281 335
#     4   9  18  35  58  83 112 146 185 228 275 329
#     4  11  23  39  60  85 115 151 189 231 281 335
#     4  11  22  36  59  88 115 147 188 234 284 337
#     4  10  22  40  59  81 114 153 190 232 283 336
#     4  10  21  38  60  84 112 148 189 233 279 327
#
# _framework density 19.354987999999999
#
# number of rings (size 3 to 8) (size 9 to 14) (size 15 to 20)
#    0.000    1.667    0.000    4.500    0.000    9.667 
#    0.000    0.833    0.000    3.500    0.000    0.000 
#    0.000    0.000    0.000    0.000    0.000    0.000 
#
# Total GULP energy -134193.195169 kJ/mol
# GULP energy per Si atom -5591.383132 kJ/mol
# Density = 1.931093 g / cm^3
# Si number density = 19.354988 Si / 1000 Ang^3
#
#
#
# Elastic Constant Matrix: (Units=GPa)
#
#
# Indices 1 2 3 4 5 6 
#
# 1 210.2556 38.2811 113.2039 0.0000 -3.0320 0.0000
# 2 38.2811 22.1710 33.9640 0.0000 -2.0809 0.0001
# 3 113.2039 33.9640 202.9863 -0.0001 -2.6452 0.0000
# 4 0.0000 0.0000 -0.0001 38.5995 0.0000 2.7349
# 5 -3.0320 -2.0809 -2.6452 0.0000 47.0324 0.0000
# 6 0.0000 0.0001 0.0000 2.7349 0.0000 25.7206
#
#
#
# Elastic Compliance Matrix: (Units=1/GPa)
#
#
# Indices 1 2 3 4 5 6 
#
# 1 0.008036 -0.009432 -0.002904 0.000000 -0.000063 0.000000
# 2 -0.009432 0.071931 -0.006747 0.000000 0.002195 0.000000
# 3 -0.002904 -0.006747 0.007674 0.000000 -0.000054 0.000000
# 4 0.000000 0.000000 0.000000 0.026104 0.000000 -0.002776
# 5 -0.000063 0.002195 -0.000054 0.000000 0.021352 0.000000
# 6 0.000000 0.000000 0.000000 -0.002776 0.000000 0.039174
#
#
# Mechanical properties :
#
#
# Convention : Reuss Voigt Hill
#
# Bulk Modulus (GPa) = 20.21216 89.59010 54.90113
# Shear Modulus (GPa) = 21.84067 38.93477 30.38772
#
# Velocity S-wave (km/s) = 3.36285 4.48997 3.96665
# Velocity P-wave (km/s) = 5.05410 8.55968 7.02894
#
# Compressibility (1/GPa) = 0.04947517
#
# Stress axis : x y z
#
# Youngs Moduli (GPa) = 124.43549 13.90214 130.30420
#
# Poissons Ratio (x) = 0.13113 0.37845
# Poissons Ratio (y) = 1.17372 0.87913
# Poissons Ratio (z) = 0.36141 0.09379
#
# Static dielectric constant tensor:
#      x y z
#    x 1.660660 0.000000 -0.012230 
#    y 0.000000 1.671590 0.000000 
#    z -0.012230 0.000000 1.621990 
# 
# From -- ./inp_files/365555.got.cif
#   From: 2010.05.17/outbox.cif.g08.bks.cpg/sg12_183_cif.got.tgz:365555.got - 2010.06.03 13:09:07.
