data_PCOD9208817
_publ_section_title
;
Structure prediction by ZEFSAII (Michael W. Deem and Ramdas Pophale) SiO2 
 PCOD9208817
Probable space group: C 2/M
;
_chemical_formula_sum "Si O2"
_cell_formula_units_Z 64
_cell_length_a 14.638786
_cell_length_b 12.110224
_cell_length_c 20.648642
_cell_angle_alpha 90.000000
_cell_angle_beta 55.843136
_cell_angle_gamma 90.000000
_cell_volume 3029.134651
_symmetry_space_group_name_H-M "C 2/M"
_symmetry_group_IT_number 12
_symmetry_cell_setting 'monoclinic'
loop_
_space_group_symop_operation_xyz
x,y,z
-x,y,-z
-x,-y,-z
x,-y,z
1/2+x,1/2+y,z
1/2-x,1/2+y,-z
1/2-x,1/2-y,-z
1/2+x,1/2-y,z
loop_
_atom_site_type_symbol
_atom_site_label
_atom_site_fract_x
_atom_site_fract_y
_atom_site_fract_z
Si Si1 0.095151 0.375412 0.016237
Si Si2 0.414723 0.124317 0.353128
Si Si3 0.117804 0.875783 0.990586
Si Si4 0.284255 0.376152 0.786362
Si Si5 0.429442 0.621935 0.839549
Si Si6 0.161760 0.871306 0.454288
Si Si7 0.434776 0.817881 0.197453
Si Si8 0.463577 0.308779 0.617594
O O1 0.149212 0.500000 0.995727
O O2 0.032678 0.359145 0.110512
O O3 0.153270 0.256520 0.975126
O O4 0.000000 0.383032 0.000000
O O5 0.287936 0.158845 0.417422
O O6 0.427720 0.124232 0.269788
O O7 0.499724 0.202633 0.356132
O O8 0.428642 0.000000 0.371260
O O9 0.105386 0.885475 0.072543
O O10 0.167213 0.000000 0.951131
O O11 0.000000 0.873940 0.000000
O O12 0.245181 0.500000 0.816678
O O13 0.338246 0.326148 0.828950
O O14 0.178463 0.320944 0.796856
O O15 0.383756 0.376770 0.695930
O O16 0.448724 0.500000 0.806044
O O17 0.538325 0.692997 0.795016
O O18 0.077055 0.862987 0.547466
O O19 0.109963 0.796484 0.418043
O O20 0.161499 0.000000 0.431990
#
# Coordination Sequence:
#
# PCOD9208817 Si02
#       8
#     8   8   8   8   8   8   8   8
#     4   9  17  29  49  77 106 140 183 229 277 327
#     4  11  22  36  55  81 110 147 186 221 273 338
#     4   8  14  27  49  73 100 138 178 217 272 336
#     4  11  20  33  56  83 107 140 186 231 272 323
#     4   9  19  34  54  81 109 140 185 232 275 329
#     4  10  21  38  60  82 108 141 182 225 275 330
#     4  11  20  35  57  80 113 147 186 228 284 333
#     4  11  20  35  56  82 108 139 176 230 269 321
#
# _framework density 21.128146000000001
#
# number of rings (size 3 to 8) (size 9 to 14) (size 15 to 20)
#    0.000    2.000    2.500    3.000    0.000    0.000 
#    0.000    1.875    0.000   14.250    0.000   12.250 
#    0.000    0.000    0.000    0.000    0.000    0.000 
#
# Total GULP energy -178162.014902 kJ/mol
# GULP energy per Si atom -5567.562966 kJ/mol
# Density = 2.108006 g / cm^3
# Si number density = 21.128146 Si / 1000 Ang^3
#
#
#
# Elastic Constant Matrix: (Units=GPa)
#
#
# Indices 1 2 3 4 5 6 
#
# 1 112.7592 56.2803 23.9722 0.0000 17.3828 0.0000
# 2 56.2803 123.8721 16.5458 0.0000 -5.8785 0.0000
# 3 23.9722 16.5458 89.6329 0.0000 -3.3915 0.0000
# 4 0.0000 0.0000 0.0000 20.9372 0.0000 1.8391
# 5 17.3828 -5.8785 -3.3915 0.0000 31.3297 0.0000
# 6 0.0000 0.0000 0.0000 1.8391 0.0000 52.7958
#
#
#
# Elastic Compliance Matrix: (Units=1/GPa)
#
#
# Indices 1 2 3 4 5 6 
#
# 1 0.014191 -0.006500 -0.002952 0.000000 -0.009413 0.000000
# 2 -0.006500 0.011315 -0.000134 0.000000 0.005715 0.000000
# 3 -0.002952 -0.000134 0.012081 0.000000 0.002920 0.000000
# 4 0.000000 0.000000 0.000000 0.047908 0.000000 -0.001669
# 5 -0.009413 0.005715 0.002920 0.000000 0.038530 0.000000
# 6 0.000000 0.000000 0.000000 -0.001669 0.000000 0.018999
#
#
# Mechanical properties :
#
#
# Convention : Reuss Voigt Hill
#
# Bulk Modulus (GPa) = 54.30038 57.76230 56.03134
# Shear Modulus (GPa) = 29.70249 36.31026 33.00637
#
# Velocity S-wave (km/s) = 3.75350 4.15006 3.95675
# Velocity P-wave (km/s) = 6.67393 7.09665 6.88853
#
# Compressibility (1/GPa) = 0.01841608
#
# Stress axis : x y z
#
# Youngs Moduli (GPa) = 70.46475 88.37600 82.77248
#
# Poissons Ratio (x) = 0.57446 0.24432
# Poissons Ratio (y) = 0.45804 0.01109
# Poissons Ratio (z) = 0.20800 0.01184
#
# Static dielectric constant tensor:
#      x y z
#    x 1.775090 0.000000 -0.002520 
#    y 0.000000 1.819070 0.000000 
#    z -0.002520 0.000000 1.797390 
# 
# From -- ./inp_files/309875.got.cif
#   From: 2010.05.17/outbox.cif.g08.bks.cpg/sg12_155_cif.got.tgz:309875.got - 2010.06.03 13:09:07.
