data_PCOD9208513
_publ_section_title
;
Structure prediction by ZEFSAII (Michael W. Deem and Ramdas Pophale) SiO2 
 PCOD9208513
Probable space group: C 2/M
;
_chemical_formula_sum "Si O2"
_cell_formula_units_Z 56
_cell_length_a 25.157427
_cell_length_b 9.440114
_cell_length_c 14.640500
_cell_angle_alpha 90.000000
_cell_angle_beta 69.632579
_cell_angle_gamma 90.000000
_cell_volume 3259.578157
_symmetry_space_group_name_H-M "C 2/M"
_symmetry_group_IT_number 12
_symmetry_cell_setting 'monoclinic'
loop_
_space_group_symop_operation_xyz
x,y,z
-x,y,-z
-x,-y,-z
x,-y,z
1/2+x,1/2+y,z
1/2-x,1/2+y,-z
1/2-x,1/2-y,-z
1/2+x,1/2-y,z
loop_
_atom_site_type_symbol
_atom_site_label
_atom_site_fract_x
_atom_site_fract_y
_atom_site_fract_z
Si Si1 0.755630 0.167092 0.591254
Si Si2 0.551737 0.236992 0.917376
Si Si3 0.370539 0.159437 0.290957
Si Si4 0.056004 0.155686 0.101914
Si Si5 0.443270 0.666512 0.388090
Si Si6 0.373018 0.332898 0.615519
Si Si7 0.940822 0.330714 0.723533
O O1 0.750000 0.250000 0.500000
O O2 0.696259 0.185648 0.679367
O O3 0.811132 0.208592 0.614786
O O4 0.762516 0.000000 0.566772
O O5 0.595470 0.165538 0.824324
O O6 0.511850 0.337328 0.878652
O O7 0.500000 0.153586 0.000000
O O8 0.580456 0.314454 0.986104
O O9 0.397668 0.271794 0.343944
O O10 0.377610 0.000000 0.325268
O O11 0.069445 0.274597 0.167546
O O12 0.071332 0.000000 0.126178
O O13 0.454956 0.500000 0.365078
O O14 0.416714 0.680394 0.504749
O O15 0.499800 0.758576 0.341976
O O16 0.372193 0.500000 0.642345
O O17 0.394003 0.234457 0.684468
O O18 0.944019 0.500000 0.717940
#
# Coordination Sequence:
#
# PCOD9208513 Si02
#       7
#     8   8   8   8   8   8   8
#     4  10  21  38  58  81 111 151 193 235 277 322
#     4   8  18  31  54  85 113 144 180 220 281 337
#     4  11  21  33  56  87 119 147 181 233 286 330
#     4   9  18  34  55  79 109 143 179 221 271 334
#     4  11  21  34  55  80 109 148 189 227 273 337
#     4  10  22  39  55  75 107 152 196 230 271 329
#     4  12  24  35  53  82 113 147 183 231 289 336
#
# _framework density 17.180136999999998
#
# number of rings (size 3 to 8) (size 9 to 14) (size 15 to 20)
#    0.857    0.857    2.857    3.000    0.000    4.857 
#    0.000    0.000    0.000    0.857    0.000    0.000 
#    0.000    0.000    0.000    0.000    0.000    0.000 
#
# Total GULP energy -155951.242782 kJ/mol
# GULP energy per Si atom -5569.687242 kJ/mol
# Density = 1.714103 g / cm^3
# Si number density = 17.180137 Si / 1000 Ang^3
#
#
#
# Elastic Constant Matrix: (Units=GPa)
#
#
# Indices 1 2 3 4 5 6 
#
# 1 94.9193 50.4681 30.7263 0.0000 20.3530 0.0000
# 2 50.4681 113.2795 37.8035 0.0000 19.0065 0.0000
# 3 30.7263 37.8035 74.5726 0.0000 12.5930 0.0000
# 4 0.0000 0.0000 0.0000 12.3016 0.0000 -0.2760
# 5 20.3530 19.0065 12.5930 0.0000 24.8702 0.0000
# 6 0.0000 0.0000 0.0000 -0.2760 0.0000 22.2394
#
#
#
# Elastic Compliance Matrix: (Units=1/GPa)
#
#
# Indices 1 2 3 4 5 6 
#
# 1 0.015600 -0.004741 -0.002712 0.000000 -0.007770 0.000000
# 2 -0.004741 0.012921 -0.003919 0.000000 -0.004010 0.000000
# 3 -0.002712 -0.003919 0.017095 0.000000 -0.003441 0.000000
# 4 0.000000 0.000000 0.000000 0.081313 0.000000 0.001009
# 5 -0.007770 -0.004010 -0.003441 0.000000 0.051374 0.000000
# 6 0.000000 0.000000 0.000000 0.001009 0.000000 0.044978
#
#
# Mechanical properties :
#
#
# Convention : Reuss Voigt Hill
#
# Bulk Modulus (GPa) = 43.72421 57.86302 50.79362
# Shear Modulus (GPa) = 19.71216 22.80048 21.25632
#
# Velocity S-wave (km/s) = 3.39098 3.64695 3.52129
# Velocity P-wave (km/s) = 6.39041 7.17544 6.79427
#
# Compressibility (1/GPa) = 0.02287062
#
# Stress axis : x y z
#
# Youngs Moduli (GPa) = 64.10149 77.39447 58.49593
#
# Poissons Ratio (x) = 0.36696 0.15865
# Poissons Ratio (y) = 0.30393 0.22926
# Poissons Ratio (z) = 0.17385 0.30333
#
# Static dielectric constant tensor:
#      x y z
#    x 1.579050 0.000000 -0.000700 
#    y 0.000000 1.601290 0.000000 
#    z -0.000700 0.000000 1.601130 
# 
# From -- ./inp_files/237325.got.cif
#   From: 2010.05.17/outbox.cif.g08.bks.cpg/sg12_119_cif.got.tgz:237325.got - 2010.06.03 13:09:07.
