data_PCOD9208976
_publ_section_title
;
Structure prediction by ZEFSAII (Michael W. Deem and Ramdas Pophale) SiO2 
 PCOD9208976
Probable space group: C 2/M
;
_chemical_formula_sum "Si O2"
_cell_formula_units_Z 56
_cell_length_a 18.959043
_cell_length_b 8.928851
_cell_length_c 18.570278
_cell_angle_alpha 90.000000
_cell_angle_beta 74.524843
_cell_angle_gamma 90.000000
_cell_volume 3029.654377
_symmetry_space_group_name_H-M "C 2/M"
_symmetry_group_IT_number 12
_symmetry_cell_setting 'monoclinic'
loop_
_space_group_symop_operation_xyz
x,y,z
-x,y,-z
-x,-y,-z
x,-y,z
1/2+x,1/2+y,z
1/2-x,1/2+y,-z
1/2-x,1/2-y,-z
1/2+x,1/2-y,z
loop_
_atom_site_type_symbol
_atom_site_label
_atom_site_fract_x
_atom_site_fract_y
_atom_site_fract_z
Si Si1 0.433571 0.821405 0.573491
Si Si2 0.851517 0.678344 0.293139
Si Si3 0.051241 0.176235 0.127177
Si Si4 0.826554 0.322206 0.001723
Si Si5 0.116129 0.821740 0.867347
Si Si6 0.782130 0.178505 0.563683
Si Si7 0.000767 0.821229 0.302414
O O1 0.500000 0.793083 0.500000
O O2 0.359254 0.751118 0.563334
O O3 0.455527 0.748388 0.643383
O O4 0.425335 0.000000 0.583484
O O5 0.862253 0.500000 0.282890
O O6 0.851165 0.754231 0.214959
O O7 0.777319 0.704898 0.357207
O O8 0.920693 0.747312 0.316839
O O9 0.040869 0.205263 0.214979
O O10 0.971511 0.202346 0.113737
O O11 0.069126 0.000000 0.112562
O O12 0.112226 0.274787 0.072860
O O13 0.820014 0.500000 0.007666
O O14 0.851454 0.256118 0.071570
O O15 0.750000 0.250000 0.000000
O O16 0.128422 0.000000 0.866330
O O17 0.750000 0.250000 0.500000
O O18 0.790402 0.000000 0.552310
O O19 0.992898 0.000000 0.313059
#
# Coordination Sequence:
#
# PCOD9208976 Si02
#       7
#     8   8   8   8   8   8   8
#     4  11  24  40  59  85 117 153 194 241 289 339
#     4  10  21  38  60  88 120 151 189 237 285 338
#     4   9  20  39  61  86 117 150 188 235 285 341
#     4  12  25  39  58  84 116 154 194 238 288 340
#     4  10  21  39  63  88 116 152 191 234 286 342
#     4  11  24  40  60  86 117 154 193 237 288 341
#     4  10  21  38  62  89 117 152 191 235 288 342
#
# _framework density 18.483955999999999
#
# number of rings (size 3 to 8) (size 9 to 14) (size 15 to 20)
#    0.000    1.571    0.000    5.571    0.000   13.143 
#    0.000    1.429    0.000    0.000    0.000    0.000 
#    0.000    0.000    0.000    0.000    0.000    0.000 
#
# Total GULP energy -156573.796231 kJ/mol
# GULP energy per Si atom -5591.921294 kJ/mol
# Density = 1.844189 g / cm^3
# Si number density = 18.483956 Si / 1000 Ang^3
#
#
#
# Elastic Constant Matrix: (Units=GPa)
#
#
# Indices 1 2 3 4 5 6 
#
# 1 162.1906 115.5384 110.3026 0.0000 13.6963 0.0000
# 2 115.5384 149.2312 103.1171 0.0000 -5.2893 0.0000
# 3 110.3026 103.1171 107.8315 0.0000 7.7350 0.0000
# 4 0.0000 0.0000 0.0000 38.1237 0.0000 2.9348
# 5 13.6963 -5.2893 7.7350 0.0000 33.1560 0.0000
# 6 0.0000 0.0000 0.0000 2.9348 0.0000 36.6673
#
#
#
# Elastic Compliance Matrix: (Units=1/GPa)
#
#
# Indices 1 2 3 4 5 6 
#
# 1 0.022214 -0.005985 -0.016550 0.000000 -0.006270 0.000000
# 2 -0.005985 0.023501 -0.017084 0.000000 0.010207 0.000000
# 3 -0.016550 -0.017084 0.042964 0.000000 -0.005912 0.000000
# 4 0.000000 0.000000 0.000000 0.026393 0.000000 -0.002112
# 5 -0.006270 0.010207 -0.005912 0.000000 0.035758 0.000000
# 6 0.000000 0.000000 0.000000 -0.002112 0.000000 0.027441
#
#
# Mechanical properties :
#
#
# Convention : Reuss Voigt Hill
#
# Bulk Modulus (GPa) = 105.91348 119.68550 112.79949
# Shear Modulus (GPa) = 19.18249 27.60907 23.39578
#
# Velocity S-wave (km/s) = 3.22497 3.86901 3.56158
# Velocity P-wave (km/s) = 8.44345 9.21143 8.83579
#
# Compressibility (1/GPa) = 0.00944167
#
# Stress axis : x y z
#
# Youngs Moduli (GPa) = 45.01763 42.55106 23.27554
#
# Poissons Ratio (x) = 0.25466 0.38520
# Poissons Ratio (y) = 0.26943 0.39764
# Poissons Ratio (z) = 0.74502 0.72693
#
# Static dielectric constant tensor:
#      x y z
#    x 1.601200 0.000000 -0.004530 
#    y 0.000000 1.615700 0.000000 
#    z -0.004530 0.000000 1.619560 
# 
# From -- ./inp_files/275016.got.cif
#   From: 2010.05.17/outbox.cif.g08.bks.cpg/sg12_138_cif.got.tgz:275016.got - 2010.06.03 13:09:07.
