data_PCOD9208297
_publ_section_title
;
Structure prediction by ZEFSAII (Michael W. Deem and Ramdas Pophale) SiO2 
 PCOD9208297
Probable space group: C 2/M
;
_chemical_formula_sum "Si O2"
_cell_formula_units_Z 64
_cell_length_a 26.460364
_cell_length_b 23.867861
_cell_length_c 8.124246
_cell_angle_alpha 90.000000
_cell_angle_beta 143.846100
_cell_angle_gamma 90.000000
_cell_volume 3026.998099
_symmetry_space_group_name_H-M "C 2/M"
_symmetry_group_IT_number 12
_symmetry_cell_setting 'monoclinic'
loop_
_space_group_symop_operation_xyz
x,y,z
-x,y,-z
-x,-y,-z
x,-y,z
1/2+x,1/2+y,z
1/2-x,1/2+y,-z
1/2-x,1/2-y,-z
1/2+x,1/2-y,z
loop_
_atom_site_type_symbol
_atom_site_label
_atom_site_fract_x
_atom_site_fract_y
_atom_site_fract_z
Si Si1 0.919987 0.433608 0.501847
Si Si2 0.916561 0.861376 0.175810
Si Si3 0.595390 0.436321 0.179719
Si Si4 0.769350 0.140294 0.317344
Si Si5 0.267660 0.856855 0.161869
Si Si6 0.536464 0.760014 0.830758
Si Si7 0.086707 0.380424 0.881145
Si Si8 0.864238 0.744940 0.571226
O O1 0.916075 0.500000 0.504425
O O2 0.841403 0.403063 0.385098
O O3 0.911661 0.414356 0.287469
O O4 0.013680 0.410212 0.797912
O O5 0.928879 0.795689 0.164765
O O6 0.000000 0.878394 0.500000
O O7 0.908771 0.896433 0.988703
O O8 0.827934 0.871245 0.036058
O O9 0.620217 0.500000 0.204697
O O10 0.661947 0.408985 0.482392
O O11 0.500000 0.436642 0.000000
O O12 0.816247 0.197540 0.486890
O O13 0.738015 0.151023 0.049347
O O14 0.684736 0.123949 0.197320
O O15 0.298270 0.801148 0.334727
O O16 0.555214 0.816399 0.780392
O O17 0.437496 0.749619 0.622431
O O18 0.586327 0.770593 0.132800
#
# Coordination Sequence:
#
# PCOD9208297 Si02
#       8
#     8   8   8   8   8   8   8   8
#     4  10  22  43  67  93 134 179 223 275 327 393
#     4  12  26  42  69 103 135 178 227 281 351 407
#     4  11  25  47  69  94 132 177 228 284 338 407
#     4  11  23  40  67  99 132 175 226 276 339 408
#     4  11  24  41  67  98 138 172 226 280 341 404
#     4  11  23  38  67  97 143 177 219 277 347 406
#     4  10  21  37  64  98 128 171 227 275 326 397
#     4  11  22  40  64  98 140 180 215 276 351 404
#
# _framework density 21.143058
#
# number of rings (size 3 to 8) (size 9 to 14) (size 15 to 20)
#    0.000    1.125    2.500    4.125    3.500    5.250 
#    0.000    0.000    0.000    0.750    0.000    0.000 
#    0.000    0.000    0.000    0.000    0.000    0.000 
#
# Total GULP energy -178848.249321 kJ/mol
# GULP energy per Si atom -5589.007791 kJ/mol
# Density = 2.109494 g / cm^3
# Si number density = 21.143058 Si / 1000 Ang^3
#
#
#
# Elastic Constant Matrix: (Units=GPa)
#
#
# Indices 1 2 3 4 5 6 
#
# 1 64.0097 15.8018 28.2709 0.0000 32.7670 0.0000
# 2 15.8018 142.3325 29.9980 0.0000 16.5237 0.0000
# 3 28.2709 29.9980 102.9258 0.0000 29.3335 0.0000
# 4 0.0000 0.0000 0.0000 -59.5128 0.0000 -66.1174
# 5 32.7670 16.5237 29.3335 0.0000 49.0359 0.0000
# 6 0.0000 0.0000 0.0000 -66.1174 0.0000 -45.6727
#
#
#
# Elastic Compliance Matrix: (Units=1/GPa)
#
#
# Indices 1 2 3 4 5 6 
#
# 1 0.024285 -0.000500 -0.002348 0.000000 -0.014655 0.000000
# 2 -0.000500 0.007585 -0.001736 0.000000 -0.001183 0.000000
# 3 -0.002348 -0.001736 0.012360 0.000000 -0.005240 0.000000
# 4 0.000000 0.000000 0.000000 0.027624 0.000000 -0.039989
# 5 -0.014655 -0.001183 -0.005240 0.000000 0.033719 0.000000
# 6 0.000000 0.000000 0.000000 -0.039989 0.000000 0.035994
#
#
# Mechanical properties :
#
#
# Convention : Reuss Voigt Hill
#
# Bulk Modulus (GPa) = 28.52152 50.82328 39.67240
# Shear Modulus (GPa) = 30.78411 4.44990 17.61700
#
# Velocity S-wave (km/s) = 3.81988 1.45232 2.88970
# Velocity P-wave (km/s) = 5.74234 5.18674 5.47160
#
# Compressibility (1/GPa) = 0.03506124
#
# Stress axis : x y z
#
# Youngs Moduli (GPa) = 41.17773 131.84693 80.90633
#
# Poissons Ratio (x) = 0.06591 0.18998
# Poissons Ratio (y) = 0.02059 0.14045
# Poissons Ratio (z) = 0.09669 0.22889
#
# Static dielectric constant tensor:
#      x y z
#    x 1.735730 0.000000 0.032500 
#    y 0.000000 1.714280 0.000000 
#    z 0.032500 0.000000 1.790660 
# 
# From -- ./inp_files/113659.got.cif
#   From: 2010.05.17/outbox.cif.g08.bks.cpg/sg12_57_cif.got.tgz:113659.got - 2010.06.03 13:09:07.
