data_PCOD9208923
_publ_section_title
;
Structure prediction by ZEFSAII (Michael W. Deem and Ramdas Pophale) SiO2 
 PCOD9208923
Probable space group: C 2/M
;
_chemical_formula_sum "Si O2"
_cell_formula_units_Z 36
_cell_length_a 9.111296
_cell_length_b 29.976507
_cell_length_c 8.683921
_cell_angle_alpha 90.000000
_cell_angle_beta 49.284284
_cell_angle_gamma 90.000000
_cell_volume 1797.714492
_symmetry_space_group_name_H-M "C 2/M"
_symmetry_group_IT_number 12
_symmetry_cell_setting 'monoclinic'
loop_
_space_group_symop_operation_xyz
x,y,z
-x,y,-z
-x,-y,-z
x,-y,z
1/2+x,1/2+y,z
1/2-x,1/2+y,-z
1/2-x,1/2-y,-z
1/2+x,1/2-y,z
loop_
_atom_site_type_symbol
_atom_site_label
_atom_site_fract_x
_atom_site_fract_y
_atom_site_fract_z
Si Si1 0.297581 0.050917 0.566678
Si Si2 0.432083 0.388505 0.884896
Si Si3 0.000000 0.247123 0.000000
Si Si4 0.432256 0.051436 0.887261
Si Si5 0.405118 0.701600 0.736054
O O1 0.500000 0.068616 0.500000
O O2 0.369968 0.049235 0.343390
O O3 0.107599 0.079404 0.715941
O O4 0.270873 0.000000 0.644094
O O5 0.395411 0.350838 0.783927
O O6 0.500000 0.367286 0.000000
O O7 0.244557 0.418697 0.048886
O O8 0.999214 0.222281 0.170450
O O9 0.806523 0.276696 0.128146
O O10 0.364334 0.000000 0.951117
O O11 0.500000 0.071304 0.000000
O O12 0.500000 0.708226 0.500000
#
# Coordination Sequence:
#
# PCOD9208923 Si02
#       5
#     8   8   4   8   8
#     4  10  21  38  60  86 122 174 222 258 304 364
#     4  12  24  39  62  96 129 165 216 266 317 379
#     4  10  24  50  72  94 130 164 210 258 326 404
#     4  10  23  40  59  88 129 174 217 265 316 366
#     4  11  25  45  71 100 128 167 208 263 326 391
#
# _framework density 20.025428000000002
#
# number of rings (size 3 to 8) (size 9 to 14) (size 15 to 20)
#    0.000    1.333    3.333    1.333    4.667    0.889 
#    0.000    4.444    0.000    0.000    0.000    0.000 
#    0.000    0.000    0.000    0.000    0.000    0.000 
#
# Total GULP energy -100209.531942 kJ/mol
# GULP energy per Si atom -5567.196219 kJ/mol
# Density = 1.997985 g / cm^3
# Si number density = 20.025428 Si / 1000 Ang^3
#
#
#
# Elastic Constant Matrix: (Units=GPa)
#
#
# Indices 1 2 3 4 5 6 
#
# 1 90.0573 51.6301 46.3021 0.0000 9.7691 0.0000
# 2 51.6301 90.6910 50.3607 0.0000 -18.4116 0.0000
# 3 46.3021 50.3607 129.0197 0.0000 -3.2390 0.0000
# 4 0.0000 0.0000 0.0000 8.9361 0.0000 14.7520
# 5 9.7691 -18.4116 -3.2390 0.0000 30.1724 0.0000
# 6 0.0000 0.0000 0.0000 14.7520 0.0000 -12.2103
#
#
#
# Elastic Compliance Matrix: (Units=1/GPa)
#
#
# Indices 1 2 3 4 5 6 
#
# 1 0.022920 -0.014885 -0.002837 0.000000 -0.016808 0.000000
# 2 -0.014885 0.025990 -0.004295 0.000000 0.020218 0.000000
# 3 -0.002837 -0.004295 0.010431 0.000000 -0.000583 0.000000
# 4 0.000000 0.000000 0.000000 0.037371 0.000000 0.045150
# 5 -0.016808 0.020218 -0.000583 0.000000 0.050860 0.000000
# 6 0.000000 0.000000 0.000000 0.045150 0.000000 -0.027350
#
#
# Mechanical properties :
#
#
# Convention : Reuss Voigt Hill
#
# Bulk Modulus (GPa) = 65.33523 67.37263 66.35393
# Shear Modulus (GPa) = 29.52316 16.14463 22.83390
#
# Velocity S-wave (km/s) = 3.84381 2.84246 3.38042
# Velocity P-wave (km/s) = 7.23856 6.67003 6.96010
#
# Compressibility (1/GPa) = 0.01530568
#
# Stress axis : x y z
#
# Youngs Moduli (GPa) = 43.63067 38.47614 95.86836
#
# Poissons Ratio (x) = 0.57271 0.27200
# Poissons Ratio (y) = 0.64944 0.41179
# Poissons Ratio (z) = 0.12379 0.16527
#
# Static dielectric constant tensor:
#      x y z
#    x 1.760030 0.000000 0.107870 
#    y 0.000000 1.723180 0.000000 
#    z 0.107870 0.000000 1.790400 
# 
# From -- ./inp_files/40998.got.cif
#   From: 2010.05.17/outbox.cif.g08.bks.cpg/sg12_21_cif.got.tgz:40998.got - 2010.06.03 13:09:07.
