data_PCOD9208592
_publ_section_title
;
Structure prediction by ZEFSAII (Michael W. Deem and Ramdas Pophale) SiO2 
 PCOD9208592
Probable space group: C 2/M
;
_chemical_formula_sum "Si O2"
_cell_formula_units_Z 60
_cell_length_a 23.703339
_cell_length_b 9.124216
_cell_length_c 21.692029
_cell_angle_alpha 90.000000
_cell_angle_beta 40.422858
_cell_angle_gamma 90.000000
_cell_volume 3042.034376
_symmetry_space_group_name_H-M "C 2/M"
_symmetry_group_IT_number 12
_symmetry_cell_setting 'monoclinic'
loop_
_space_group_symop_operation_xyz
x,y,z
-x,y,-z
-x,-y,-z
x,-y,z
1/2+x,1/2+y,z
1/2-x,1/2+y,-z
1/2-x,1/2-y,-z
1/2+x,1/2-y,z
loop_
_atom_site_type_symbol
_atom_site_label
_atom_site_fract_x
_atom_site_fract_y
_atom_site_fract_z
Si Si1 0.462474 0.831312 0.315825
Si Si2 0.923942 0.168989 0.012403
Si Si3 0.288855 0.500000 0.988090
Si Si4 0.662048 0.249719 0.148793
Si Si5 0.190047 0.824891 0.497072
Si Si6 0.253789 0.329046 0.320378
Si Si7 0.052170 0.171019 0.798626
Si Si8 0.752949 0.668411 0.197160
O O1 0.565658 0.814393 0.235470
O O2 0.407442 0.728601 0.406879
O O3 0.440206 0.775827 0.265623
O O4 0.436415 0.000000 0.346021
O O5 0.846531 0.273114 0.096115
O O6 0.892122 0.000000 0.032592
O O7 0.000000 0.169842 0.000000
O O8 0.970135 0.208098 0.909762
O O9 0.232222 0.627350 0.071665
O O10 0.335451 0.372248 0.906349
O O11 0.690825 0.316085 0.190243
O O12 0.250000 0.750000 0.500000
O O13 0.218598 0.762986 0.407172
O O14 0.197942 0.000000 0.493842
O O15 0.230659 0.500000 0.346404
O O16 0.359236 0.319846 0.235766
O O17 0.225423 0.265334 0.278434
O O18 0.043857 0.000000 0.786260
O O19 0.759946 0.500000 0.210703
#
# Coordination Sequence:
#
# PCOD9208592 Si02
#       8
#     8   8   4   8   8   8   8   8
#     4  12  26  42  67 100 135 170 224 285 338 402
#     4  10  21  38  58  87 126 172 219 263 323 397
#     4  10  24  46  68  92 134 182 226 280 324 398
#     4  11  26  44  68 102 136 178 233 278 340 396
#     4  12  25  44  71 101 135 174 222 282 343 401
#     4  11  23  44  68  95 130 176 222 271 337 402
#     4  10  22  37  62  93 128 171 219 271 334 397
#     4  12  26  41  63  95 137 179 225 276 336 405
#
# _framework density 19.723644
#
# number of rings (size 3 to 8) (size 9 to 14) (size 15 to 20)
#    0.000    0.933    4.000    2.400    7.467    1.333 
#    0.000    0.667    0.000    3.200    0.000    0.000 
#    0.000    0.000    0.000    0.000    0.000    0.000 
#
# Total GULP energy -167281.572791 kJ/mol
# GULP energy per Si atom -5576.052426 kJ/mol
# Density = 1.967875 g / cm^3
# Si number density = 19.723644 Si / 1000 Ang^3
#
#
#
# Elastic Constant Matrix: (Units=GPa)
#
#
# Indices 1 2 3 4 5 6 
#
# 1 35.1511 5.7111 38.9077 -0.0001 -2.5810 0.0001
# 2 5.7111 137.5914 54.5444 0.0001 11.3300 -0.0001
# 3 38.9077 54.5444 94.5743 0.0001 19.7678 -0.0001
# 4 -0.0001 0.0001 0.0001 35.4483 0.0000 7.2666
# 5 -2.5810 11.3300 19.7678 0.0000 16.7842 0.0000
# 6 0.0001 -0.0001 -0.0001 7.2666 0.0000 14.2470
#
#
#
# Elastic Compliance Matrix: (Units=1/GPa)
#
#
# Indices 1 2 3 4 5 6 
#
# 1 0.134822 0.021326 -0.091652 0.000001 0.114280 -0.000002
# 2 0.021326 0.012796 -0.019943 0.000000 0.018130 0.000000
# 3 -0.091652 -0.019943 0.079478 -0.000001 -0.094238 0.000002
# 4 0.000001 0.000000 -0.000001 0.031504 0.000001 -0.016068
# 5 0.114280 0.018130 -0.094238 0.000001 0.175906 -0.000002
# 6 -0.000002 0.000000 0.000002 -0.016068 -0.000002 0.078386
#
#
# Mechanical properties :
#
#
# Convention : Reuss Voigt Hill
#
# Bulk Modulus (GPa) = 21.47804 51.73813 36.60808
# Shear Modulus (GPa) = 7.05271 24.50616 15.77944
#
# Velocity S-wave (km/s) = 1.89302 3.52870 2.83154
# Velocity P-wave (km/s) = 3.96121 6.54911 5.41211
#
# Compressibility (1/GPa) = 0.04655919
#
# Stress axis : x y z
#
# Youngs Moduli (GPa) = 7.41720 78.15225 12.58204
#
# Poissons Ratio (x) = -1.66670 1.15317
# Poissons Ratio (y) = -0.15818 0.25092
# Poissons Ratio (z) = 0.67980 1.55857
#
# Static dielectric constant tensor:
#      x y z
#    x 1.731010 0.000000 -0.003090 
#    y 0.000000 1.671240 0.000000 
#    z -0.003090 0.000000 1.676550 
# 
# From -- ./inp_files/324511.got.cif
#   From: 2010.05.17/outbox.cif.g08.bks.cpg/sg12_163_cif.got.tgz:324511.got - 2010.06.03 13:09:07.
