data_PCOD9208442
_publ_section_title
;
Structure prediction by ZEFSAII (Michael W. Deem and Ramdas Pophale) SiO2 
 PCOD9208442
Probable space group: C 2/M
;
_chemical_formula_sum "Si O2"
_cell_formula_units_Z 64
_cell_length_a 8.766101
_cell_length_b 18.952967
_cell_length_c 30.284878
_cell_angle_alpha 90.000000
_cell_angle_beta 136.429030
_cell_angle_gamma 90.000000
_cell_volume 3468.070203
_symmetry_space_group_name_H-M "C 2/M"
_symmetry_group_IT_number 12
_symmetry_cell_setting 'monoclinic'
loop_
_space_group_symop_operation_xyz
x,y,z
-x,y,-z
-x,-y,-z
x,-y,z
1/2+x,1/2+y,z
1/2-x,1/2+y,-z
1/2-x,1/2-y,-z
1/2+x,1/2-y,z
loop_
_atom_site_type_symbol
_atom_site_label
_atom_site_fract_x
_atom_site_fract_y
_atom_site_fract_z
Si Si1 0.206841 0.713889 0.317408
Si Si2 0.249453 0.420567 0.453081
Si Si3 0.308996 0.308268 0.240984
Si Si4 0.967496 0.918311 0.212978
Si Si5 0.520188 0.923152 0.691909
Si Si6 0.511664 0.287388 0.954739
Si Si7 0.433733 0.301782 0.131546
Si Si8 0.527271 0.793571 0.453782
O O1 0.336295 0.695574 0.299683
O O2 0.351177 0.747943 0.387624
O O3 0.026987 0.772025 0.266998
O O4 0.062286 0.645040 0.299209
O O5 0.500000 0.392580 0.500000
O O6 0.262159 0.500000 0.475162
O O7 0.085946 0.368205 0.443907
O O8 0.150656 0.426357 0.383864
O O9 0.322355 0.385270 0.222233
O O10 0.101267 0.260700 0.182329
O O11 0.936253 0.868758 0.163938
O O12 0.233593 0.914793 0.276140
O O13 0.911777 0.000000 0.193974
O O14 0.516125 0.000000 0.714464
O O15 0.493089 0.323358 0.902833
O O16 0.311940 0.231262 0.916950
O O17 0.500000 0.326509 0.000000
O O18 0.750000 0.250000 0.000000
O O19 0.500000 0.805199 0.500000
O O20 0.750000 0.750000 0.500000
#
# Coordination Sequence:
#
# PCOD9208442 Si02
#       8
#     8   8   8   8   8   8   8   8
#     4  12  22  36  58  84 115 150 199 249 308 353
#     4  10  21  39  60  79 108 151 195 244 307 372
#     4  12  21  35  60  88 115 154 201 246 289 361
#     4  11  23  38  58  90 129 163 194 248 310 360
#     4  10  21  38  57  81 116 155 197 243 305 372
#     4   9  19  33  60  96 121 153 203 252 277 323
#     4  11  18  36  60  91 121 155 199 241 284 351
#     4  12  24  37  55  81 112 146 194 251 302 365
#
# _framework density 18.454067999999999
#
# number of rings (size 3 to 8) (size 9 to 14) (size 15 to 20)
#    0.000    1.125    3.750    4.125    0.000    0.750 
#    0.000    0.000    0.000   11.250    0.000    0.000 
#    0.000    0.000    0.000    0.000    0.000    0.000 
#
# Total GULP energy -178233.193367 kJ/mol
# GULP energy per Si atom -5569.787293 kJ/mol
# Density = 1.841207 g / cm^3
# Si number density = 18.454068 Si / 1000 Ang^3
#
#
#
# Elastic Constant Matrix: (Units=GPa)
#
#
# Indices 1 2 3 4 5 6 
#
# 1 78.9259 31.5114 15.8485 0.0000 -15.4454 0.0000
# 2 31.5114 109.2930 16.7533 0.0000 -2.5325 0.0000
# 3 15.8485 16.7533 73.8067 0.0000 3.6837 0.0000
# 4 0.0000 0.0000 0.0000 6.6880 0.0000 -4.9792
# 5 -15.4454 -2.5325 3.6837 0.0000 38.9627 0.0000
# 6 0.0000 0.0000 0.0000 -4.9792 0.0000 31.1501
#
#
#
# Elastic Compliance Matrix: (Units=1/GPa)
#
#
# Indices 1 2 3 4 5 6 
#
# 1 0.016117 -0.004060 -0.002858 0.000000 0.006395 0.000000
# 2 -0.004060 0.010529 -0.001479 0.000000 -0.000785 0.000000
# 3 -0.002858 -0.001479 0.014629 0.000000 -0.002612 0.000000
# 4 0.000000 0.000000 0.000000 0.169718 0.000000 0.027129
# 5 0.006395 -0.000785 -0.002612 0.000000 0.028397 0.000000
# 6 0.000000 0.000000 0.000000 0.027129 0.000000 0.036439
#
#
# Mechanical properties :
#
#
# Convention : Reuss Voigt Hill
#
# Bulk Modulus (GPa) = 40.85094 43.36135 42.10614
# Shear Modulus (GPa) = 16.62330 28.55432 22.58881
#
# Velocity S-wave (km/s) = 3.00458 3.93786 3.50245
# Velocity P-wave (km/s) = 5.84989 6.65008 6.26278
#
# Compressibility (1/GPa) = 0.02447924
#
# Stress axis : x y z
#
# Youngs Moduli (GPa) = 62.04732 94.97651 68.35867
#
# Poissons Ratio (x) = 0.38565 0.19539
# Poissons Ratio (y) = 0.25194 0.10109
# Poissons Ratio (z) = 0.17735 0.14045
#
# Static dielectric constant tensor:
#      x y z
#    x 1.622660 0.000000 0.003810 
#    y 0.000000 1.651020 0.000000 
#    z 0.003810 0.000000 1.659500 
# 
# From -- ./inp_files/373012.got.cif
#   From: 2010.05.17/outbox.cif.g08.bks.cpg/sg12_187_cif.got.tgz:373012.got - 2010.06.03 13:09:07.
