data_PCOD9208933
_publ_section_title
;
Structure prediction by ZEFSAII (Michael W. Deem and Ramdas Pophale) SiO2 
 PCOD9208933
Probable space group: C 2/M
;
_chemical_formula_sum "Si O2"
_cell_formula_units_Z 48
_cell_length_a 16.529920
_cell_length_b 8.840832
_cell_length_c 14.753111
_cell_angle_alpha 90.000000
_cell_angle_beta 78.945648
_cell_angle_gamma 90.000000
_cell_volume 2115.990883
_symmetry_space_group_name_H-M "C 2/M"
_symmetry_group_IT_number 12
_symmetry_cell_setting 'monoclinic'
loop_
_space_group_symop_operation_xyz
x,y,z
-x,y,-z
-x,-y,-z
x,-y,z
1/2+x,1/2+y,z
1/2-x,1/2+y,-z
1/2-x,1/2-y,-z
1/2+x,1/2-y,z
loop_
_atom_site_type_symbol
_atom_site_label
_atom_site_fract_x
_atom_site_fract_y
_atom_site_fract_z
Si Si1 0.318874 0.823183 0.048960
Si Si2 0.176936 0.681752 0.456158
Si Si3 0.616629 0.179505 0.280092
Si Si4 0.568231 0.324404 0.109331
Si Si5 0.876870 0.824904 0.209661
Si Si6 0.553885 0.318033 0.615923
O O1 0.322279 0.766936 0.151302
O O2 0.308659 0.000000 0.049136
O O3 0.250000 0.750000 0.000000
O O4 0.403526 0.773520 0.981487
O O5 0.173380 0.500000 0.467103
O O6 0.250000 0.750000 0.500000
O O7 0.180011 0.713177 0.347788
O O8 0.095752 0.759074 0.516089
O O9 0.620095 0.271045 0.186017
O O10 0.528305 0.227885 0.341126
O O11 0.618419 0.000000 0.260613
O O12 0.584248 0.500000 0.085534
O O13 0.472450 0.309999 0.156501
O O14 0.882624 0.787336 0.314479
O O15 0.852772 0.000000 0.206661
O O16 0.538972 0.500000 0.617483
#
# Coordination Sequence:
#
# PCOD9208933 Si02
#       6
#     8   8   8   8   8   8
#     4  12  25  39  58  84 116 154 192 233 283 339
#     4  11  24  39  57  83 117 155 192 236 287 339
#     4  10  21  38  60  87 117 149 190 238 284 333
#     4  10  21  39  63  88 115 149 188 234 286 338
#     4   9  20  39  61  86 116 148 186 234 284 335
#     4  10  21  38  62  88 115 150 190 235 285 337
#
# _framework density 22.684405999999999
#
# number of rings (size 3 to 8) (size 9 to 14) (size 15 to 20)
#    0.000    1.667    0.000    5.500    0.000   12.000 
#    0.000    1.667    0.000    0.000    0.000    0.000 
#    0.000    0.000    0.000    0.000    0.000    0.000 
#
# Total GULP energy -134299.654226 kJ/mol
# GULP energy per Si atom -5595.818926 kJ/mol
# Density = 2.263278 g / cm^3
# Si number density = 22.684406 Si / 1000 Ang^3
#
#
#
# Elastic Constant Matrix: (Units=GPa)
#
#
# Indices 1 2 3 4 5 6 
#
# 1 57.3048 16.6027 4.7078 0.0000 20.7614 0.0000
# 2 16.6027 86.4494 37.6680 0.0000 33.8060 0.0000
# 3 4.7078 37.6680 109.5818 0.0000 27.2164 0.0000
# 4 0.0000 0.0000 0.0000 36.1339 0.0000 3.7406
# 5 20.7614 33.8060 27.2164 0.0000 43.3370 0.0000
# 6 0.0000 0.0000 0.0000 3.7406 0.0000 29.0078
#
#
#
# Elastic Compliance Matrix: (Units=1/GPa)
#
#
# Indices 1 2 3 4 5 6 
#
# 1 0.021484 -0.000710 0.002061 0.000000 -0.011033 0.000000
# 2 -0.000710 0.017519 -0.003177 0.000000 -0.011331 0.000000
# 3 0.002061 -0.003177 0.011562 0.000000 -0.005770 0.000000
# 4 0.000000 0.000000 0.000000 0.028049 0.000000 -0.003617
# 5 -0.011033 -0.011331 -0.005770 0.000000 0.040823 0.000000
# 6 0.000000 0.000000 0.000000 -0.003617 0.000000 0.034940
#
#
# Mechanical properties :
#
#
# Convention : Reuss Voigt Hill
#
# Bulk Modulus (GPa) = 21.31558 41.25478 31.28518
# Shear Modulus (GPa) = 28.79062 34.65290 31.72176
#
# Velocity S-wave (km/s) = 3.56642 3.91270 3.74357
# Velocity P-wave (km/s) = 5.13577 6.21597 5.70151
#
# Compressibility (1/GPa) = 0.04691404
#
# Stress axis : x y z
#
# Youngs Moduli (GPa) = 46.54596 57.08061 86.48721
#
# Poissons Ratio (x) = 0.04050 -0.17827
# Poissons Ratio (y) = 0.03303 0.27481
# Poissons Ratio (z) = -0.09594 0.18137
#
# Static dielectric constant tensor:
#      x y z
#    x 1.939480 0.000000 -0.020730 
#    y 0.000000 1.752490 0.000000 
#    z -0.020730 0.000000 1.893410 
# 
# From -- ./inp_files/221671.got.cif
#   From: 2010.05.17/outbox.cif.g08.bks.cpg/sg12_111_cif.got.tgz:221671.got - 2010.06.03 13:09:07.
