data_PCOD9208646
_publ_section_title
;
Structure prediction by ZEFSAII (Michael W. Deem and Ramdas Pophale) SiO2 
 PCOD9208646
Probable space group: C 2/M
;
_chemical_formula_sum "Si O2"
_cell_formula_units_Z 40
_cell_length_a 9.222304
_cell_length_b 27.704827
_cell_length_c 15.797258
_cell_angle_alpha 90.000000
_cell_angle_beta 30.379455
_cell_angle_gamma 90.000000
_cell_volume 2041.223414
_symmetry_space_group_name_H-M "C 2/M"
_symmetry_group_IT_number 12
_symmetry_cell_setting 'monoclinic'
loop_
_space_group_symop_operation_xyz
x,y,z
-x,y,-z
-x,-y,-z
x,-y,z
1/2+x,1/2+y,z
1/2-x,1/2+y,-z
1/2-x,1/2-y,-z
1/2+x,1/2-y,z
loop_
_atom_site_type_symbol
_atom_site_label
_atom_site_fract_x
_atom_site_fract_y
_atom_site_fract_z
Si Si1 0.068615 0.689219 0.647306
Si Si2 0.885205 0.000000 0.651032
Si Si3 0.000000 0.731990 0.500000
Si Si4 0.000000 0.152160 0.000000
Si Si5 0.380568 0.590221 0.224654
Si Si6 0.282601 0.595353 0.460586
Si Si7 0.200777 0.500000 0.981493
O O1 0.956540 0.701566 0.608218
O O2 0.245281 0.732463 0.599499
O O3 0.259787 0.640627 0.536396
O O4 0.796086 0.680614 0.843915
O O5 0.540749 0.000000 0.824803
O O6 0.000000 0.000000 0.500000
O O7 0.011940 0.950180 0.625540
O O8 0.011370 0.121328 0.908346
O O9 0.372232 0.613980 0.322106
O O10 0.047167 0.576639 0.376328
O O11 0.592156 0.545353 0.121946
O O12 0.000000 0.500000 0.000000
#
# Coordination Sequence:
#
# PCOD9208646 Si02
#       7
#     8   4   4   4   8   8   4
#     4  10  22  40  65  91 122 157 204 251 306 365
#     4  12  27  37  58  91 125 159 205 245 299 350
#     4  10  22  42  64  90 120 160 198 252 314 368
#     4  10  22  37  64  90 114 154 202 251 296 368
#     4  10  21  38  59  82 120 163 206 237 300 353
#     4  10  21  42  62  84 123 168 195 242 300 368
#     4  12  23  38  53  85 125 159 207 256 287 340
#
# _framework density 19.596093
#
# number of rings (size 3 to 8) (size 9 to 14) (size 15 to 20)
#    0.000    1.600    2.000    3.000    7.000    2.800 
#    0.000    0.000    0.000    0.000    0.000    0.000 
#    0.000    0.000    0.000    0.000    0.000    0.000 
#
# Total GULP energy -111508.621913 kJ/mol
# GULP energy per Si atom -5575.431096 kJ/mol
# Density = 1.955149 g / cm^3
# Si number density = 19.596093 Si / 1000 Ang^3
#
#
#
# Elastic Constant Matrix: (Units=GPa)
#
#
# Indices 1 2 3 4 5 6 
#
# 1 67.3266 20.0046 30.0908 0.0000 12.7164 0.0000
# 2 20.0046 72.1849 39.0969 0.0000 -4.3310 0.0000
# 3 30.0908 39.0969 155.8344 0.0000 20.5662 0.0000
# 4 0.0000 0.0000 0.0000 24.5200 0.0000 -12.6826
# 5 12.7164 -4.3310 20.5662 0.0000 25.2660 0.0000
# 6 0.0000 0.0000 0.0000 -12.6826 0.0000 41.6359
#
#
#
# Elastic Compliance Matrix: (Units=1/GPa)
#
#
# Indices 1 2 3 4 5 6 
#
# 1 0.018634 -0.005150 -0.001066 0.000000 -0.009393 0.000000
# 2 -0.005150 0.018552 -0.004954 0.000000 0.009805 0.000000
# 3 -0.001066 -0.004954 0.008859 0.000000 -0.007523 0.000000
# 4 0.000000 0.000000 0.000000 0.048410 0.000000 0.014746
# 5 -0.009393 0.009805 -0.007523 0.000000 0.052111 0.000000
# 6 0.000000 0.000000 0.000000 0.014746 0.000000 0.028509
#
#
# Mechanical properties :
#
#
# Convention : Reuss Voigt Hill
#
# Bulk Modulus (GPa) = 42.18707 52.63671 47.41189
# Shear Modulus (GPa) = 24.35250 32.02796 28.19023
#
# Velocity S-wave (km/s) = 3.52905 4.04716 3.79696
# Velocity P-wave (km/s) = 6.17905 6.98273 6.59315
#
# Compressibility (1/GPa) = 0.02370394
#
# Stress axis : x y z
#
# Youngs Moduli (GPa) = 53.66550 53.90254 112.88233
#
# Poissons Ratio (x) = 0.27760 0.12037
# Poissons Ratio (y) = 0.27638 0.55922
# Poissons Ratio (z) = 0.05723 0.26703
#
# Static dielectric constant tensor:
#      x y z
#    x 1.728290 0.000000 0.016180 
#    y 0.000000 1.760330 0.000000 
#    z 0.016180 0.000000 1.710920 
# 
# From -- ./inp_files/68795.got.cif
#   From: 2010.05.17/outbox.cif.g08.bks.cpg/sg12_35_cif.got.tgz:68795.got - 2010.06.03 13:09:07.
