data_PCOD9208449
_publ_section_title
;
Structure prediction by ZEFSAII (Michael W. Deem and Ramdas Pophale) SiO2 
 PCOD9208449
Probable space group: C 2/M
;
_chemical_formula_sum "Si O2"
_cell_formula_units_Z 60
_cell_length_a 18.313024
_cell_length_b 19.213396
_cell_length_c 10.805222
_cell_angle_alpha 90.000000
_cell_angle_beta 122.112509
_cell_angle_gamma 90.000000
_cell_volume 3220.210934
_symmetry_space_group_name_H-M "C 2/M"
_symmetry_group_IT_number 12
_symmetry_cell_setting 'monoclinic'
loop_
_space_group_symop_operation_xyz
x,y,z
-x,y,-z
-x,-y,-z
x,-y,z
1/2+x,1/2+y,z
1/2-x,1/2+y,-z
1/2-x,1/2-y,-z
1/2+x,1/2-y,z
loop_
_atom_site_type_symbol
_atom_site_label
_atom_site_fract_x
_atom_site_fract_y
_atom_site_fract_z
Si Si1 0.312580 0.581028 0.104555
Si Si2 0.827412 0.578032 0.386522
Si Si3 0.521704 0.218129 0.801237
Si Si4 0.615880 0.080359 0.843449
Si Si5 0.500000 0.310025 0.000000
Si Si6 0.370406 0.422011 0.876270
Si Si7 0.909889 0.810067 0.361091
Si Si8 0.840278 0.723673 0.528191
O O1 0.319685 0.500000 0.147149
O O2 0.353676 0.631453 0.242663
O O3 0.211617 0.594919 0.984476
O O4 0.361345 0.588535 0.016362
O O5 0.847305 0.500000 0.452586
O O6 0.875969 0.585845 0.298640
O O7 0.725989 0.580782 0.262521
O O8 0.843304 0.643218 0.488021
O O9 0.550400 0.138325 0.831720
O O10 0.547599 0.261151 0.945228
O O11 0.564940 0.253180 0.720106
O O12 0.419563 0.229112 0.694371
O O13 0.594090 0.000000 0.852401
O O14 0.431616 0.362993 0.877925
O O15 0.403019 0.500000 0.881755
O O16 0.861115 0.770805 0.427271
O O17 0.000000 0.837504 0.500000
O O18 0.750000 0.750000 0.500000
#
# Coordination Sequence:
#
# PCOD9208449 Si02
#       8
#     8   8   8   8   4   8   8   8
#     4   9  18  35  58  83 113 150 189 230 284 340
#     4   9  18  35  59  83 107 144 192 235 281 334
#     4  11  23  37  56  87 114 149 192 235 285 337
#     4   9  19  36  59  86 112 143 191 243 282 331
#     4  12  21  34  55  82 116 148 188 228 283 338
#     4   9  18  32  53  83 114 144 185 237 282 325
#     4  10  21  38  57  82 118 153 191 233 279 343
#     4  11  23  39  57  81 119 153 187 237 287 335
#
# _framework density 18.63232
#
# number of rings (size 3 to 8) (size 9 to 14) (size 15 to 20)
#    0.000    2.133    2.667    2.600    0.000    3.467 
#    0.000    2.333    0.000    0.000    0.000    0.000 
#    0.000    0.000    0.000    0.000    0.000    0.000 
#
# Total GULP energy -167370.698055 kJ/mol
# GULP energy per Si atom -5579.023268 kJ/mol
# Density = 1.858991 g / cm^3
# Si number density = 18.632320 Si / 1000 Ang^3
#
#
#
# Elastic Constant Matrix: (Units=GPa)
#
#
# Indices 1 2 3 4 5 6 
#
# 1 70.9155 35.8811 4.0258 0.0000 3.1319 0.0000
# 2 35.8811 127.8471 37.0997 0.0000 6.0197 0.0000
# 3 4.0258 37.0997 43.7140 0.0000 -0.2105 0.0000
# 4 0.0000 0.0000 0.0000 33.2768 0.0000 1.5942
# 5 3.1319 6.0197 -0.2105 0.0000 9.5962 0.0000
# 6 0.0000 0.0000 0.0000 1.5942 0.0000 31.8506
#
#
#
# Elastic Compliance Matrix: (Units=1/GPa)
#
#
# Indices 1 2 3 4 5 6 
#
# 1 0.016811 -0.005539 0.003143 0.000000 -0.001943 0.000000
# 2 -0.005539 0.012652 -0.010259 0.000000 -0.006354 0.000000
# 3 0.003143 -0.010259 0.031322 0.000000 0.006097 0.000000
# 4 0.000000 0.000000 0.000000 0.030123 0.000000 -0.001508
# 5 -0.001943 -0.006354 0.006097 0.000000 0.108962 0.000000
# 6 0.000000 0.000000 0.000000 -0.001508 0.000000 0.031472
#
#
# Mechanical properties :
#
#
# Convention : Reuss Voigt Hill
#
# Bulk Modulus (GPa) = 28.18693 44.05442 36.12067
# Shear Modulus (GPa) = 18.62355 25.97605 22.29980
#
# Velocity S-wave (km/s) = 3.16496 3.73787 3.46328
# Velocity P-wave (km/s) = 5.34011 6.50571 5.95152
#
# Compressibility (1/GPa) = 0.03547743
#
# Stress axis : x y z
#
# Youngs Moduli (GPa) = 59.48447 79.03627 31.92627
#
# Poissons Ratio (x) = 0.43776 -0.10035
# Poissons Ratio (y) = 0.32947 0.32752
# Poissons Ratio (z) = -0.18697 0.81079
#
# Static dielectric constant tensor:
#      x y z
#    x 1.642210 0.000000 0.020310 
#    y 0.000000 1.640730 0.000000 
#    z 0.020310 0.000000 1.642330 
# 
# From -- ./inp_files/78057.got.cif
#   From: 2010.05.17/outbox.cif.g08.bks.cpg/sg12_40_cif.got.tgz:78057.got - 2010.06.03 13:09:07.
