data_PCOD9208260
_publ_section_title
;
Structure prediction by ZEFSAII (Michael W. Deem and Ramdas Pophale) SiO2 
 PCOD9208260
Probable space group: C 2/M
;
_chemical_formula_sum "Si O2"
_cell_formula_units_Z 64
_cell_length_a 9.587801
_cell_length_b 30.148176
_cell_length_c 14.948622
_cell_angle_alpha 90.000000
_cell_angle_beta 47.092643
_cell_angle_gamma 90.000000
_cell_volume 3164.917906
_symmetry_space_group_name_H-M "C 2/M"
_symmetry_group_IT_number 12
_symmetry_cell_setting 'monoclinic'
loop_
_space_group_symop_operation_xyz
x,y,z
-x,y,-z
-x,-y,-z
x,-y,z
1/2+x,1/2+y,z
1/2-x,1/2+y,-z
1/2-x,1/2-y,-z
1/2+x,1/2-y,z
loop_
_atom_site_type_symbol
_atom_site_label
_atom_site_fract_x
_atom_site_fract_y
_atom_site_fract_z
Si Si1 0.927150 0.237689 0.662554
Si Si2 0.772100 0.699514 0.412559
Si Si3 0.980738 0.050674 0.854498
Si Si4 0.929384 0.552517 0.629094
Si Si5 0.341941 0.948853 0.144909
Si Si6 0.327621 0.636682 0.016083
Si Si7 0.218719 0.286471 0.935716
Si Si8 0.931086 0.611962 0.272708
O O1 0.775655 0.233129 0.648649
O O2 0.836691 0.225383 0.795994
O O3 0.033189 0.284709 0.626116
O O4 0.098336 0.205080 0.556916
O O5 0.793378 0.651515 0.361239
O O6 0.860955 0.053386 0.815251
O O7 0.892127 0.087625 0.957520
O O8 0.202847 0.059084 0.740644
O O9 0.956367 0.000000 0.899222
O O10 0.966332 0.500000 0.622640
O O11 0.035427 0.579560 0.659119
O O12 0.000000 0.566059 0.500000
O O13 0.360811 0.915601 0.218221
O O14 0.377034 0.000000 0.157908
O O15 0.500000 0.938452 0.000000
O O16 0.285801 0.667200 0.949119
O O17 0.500000 0.655901 0.000000
O O18 0.134361 0.633064 0.156502
O O19 0.250000 0.250000 0.000000
O O20 0.000000 0.288797 0.000000
#
# Coordination Sequence:
#
# PCOD9208260 Si02
#       8
#     8   8   8   8   8   8   8   8
#     4  10  22  47  65  92 127 171 214 265 325 394
#     4  10  24  43  69  93 124 174 218 266 317 393
#     4  10  22  41  64  94 132 177 218 267 339 399
#     4  10  23  45  66  89 129 177 224 273 329 394
#     4  10  21  37  63  98 137 174 209 266 339 403
#     4  12  25  39  61  98 131 170 217 273 326 401
#     4  12  26  43  70  97 133 173 211 276 344 399
#     4  12  23  40  64 100 131 164 225 271 327 394
#
# _framework density 20.221692000000001
#
# number of rings (size 3 to 8) (size 9 to 14) (size 15 to 20)
#    0.000    1.250    2.500    3.000    3.500    2.750 
#    6.750    0.000    0.000    3.000    0.000    0.000 
#    0.000    0.000    0.000    0.000    0.000    0.000 
#
# Total GULP energy -178951.078886 kJ/mol
# GULP energy per Si atom -5592.221215 kJ/mol
# Density = 2.017567 g / cm^3
# Si number density = 20.221692 Si / 1000 Ang^3
#
#
#
# Elastic Constant Matrix: (Units=GPa)
#
#
# Indices 1 2 3 4 5 6 
#
# 1 110.6167 37.3956 15.0772 0.0000 8.7667 0.0000
# 2 37.3956 76.1444 34.3109 0.0000 4.9663 0.0000
# 3 15.0772 34.3109 107.9007 0.0000 16.4974 0.0000
# 4 0.0000 0.0000 0.0000 -9.2242 0.0000 -42.2500
# 5 8.7667 4.9663 16.4974 0.0000 22.7462 0.0000
# 6 0.0000 0.0000 0.0000 -42.2500 0.0000 -26.2045
#
#
#
# Elastic Compliance Matrix: (Units=1/GPa)
#
#
# Indices 1 2 3 4 5 6 
#
# 1 0.011103 -0.005565 0.000772 0.000000 -0.003624 0.000000
# 2 -0.005565 0.018119 -0.005294 0.000000 0.002028 0.000000
# 3 0.000772 -0.005294 0.012048 0.000000 -0.007880 0.000000
# 4 0.000000 0.000000 0.000000 0.016979 0.000000 -0.027376
# 5 -0.003624 0.002028 -0.007880 0.000000 0.050633 0.000000
# 6 0.000000 0.000000 0.000000 -0.027376 0.000000 0.005977
#
#
# Mechanical properties :
#
#
# Convention : Reuss Voigt Hill
#
# Bulk Modulus (GPa) = 47.39931 52.02548 49.71240
# Shear Modulus (GPa) = 35.19522 11.32204 23.25863
#
# Velocity S-wave (km/s) = 4.17642 2.36878 3.39511
# Velocity P-wave (km/s) = 6.83720 5.76757 6.32504
#
# Compressibility (1/GPa) = 0.02109735
#
# Stress axis : x y z
#
# Youngs Moduli (GPa) = 90.06239 55.19056 83.00015
#
# Poissons Ratio (x) = 0.30711 -0.06408
# Poissons Ratio (y) = 0.50116 0.43942
# Poissons Ratio (z) = -0.06954 0.29219
#
# Static dielectric constant tensor:
#      x y z
#    x 1.725090 0.000000 -0.016510 
#    y 0.000000 1.718820 0.000000 
#    z -0.016510 0.000000 1.687790 
# 
# From -- ./inp_files/201233.got.cif
#   From: 2010.05.17/outbox.cif.g08.bks.cpg/sg12_101_cif.got.tgz:201233.got - 2010.06.03 13:09:07.
