data_PCOD9208460
_publ_section_title
;
Structure prediction by ZEFSAII (Michael W. Deem and Ramdas Pophale) SiO2 
 PCOD9208460
Probable space group: C 2/M
;
_chemical_formula_sum "Si O2"
_cell_formula_units_Z 56
_cell_length_a 26.171797
_cell_length_b 15.911312
_cell_length_c 5.736966
_cell_angle_alpha 90.000000
_cell_angle_beta 116.400304
_cell_angle_gamma 90.000000
_cell_volume 2139.877653
_symmetry_space_group_name_H-M "C 2/M"
_symmetry_group_IT_number 12
_symmetry_cell_setting 'monoclinic'
loop_
_space_group_symop_operation_xyz
x,y,z
-x,y,-z
-x,-y,-z
x,-y,z
1/2+x,1/2+y,z
1/2-x,1/2+y,-z
1/2-x,1/2-y,-z
1/2+x,1/2-y,z
loop_
_atom_site_type_symbol
_atom_site_label
_atom_site_fract_x
_atom_site_fract_y
_atom_site_fract_z
Si Si1 0.984992 0.765614 0.226391
Si Si2 0.617157 0.500000 0.920940
Si Si3 0.821256 0.823607 0.456315
Si Si4 0.123400 0.690181 0.156313
Si Si5 0.327234 0.091682 0.110187
Si Si6 0.715828 0.358724 0.117421
Si Si7 0.442199 0.906850 0.637898
Si Si8 0.389517 0.500000 0.591488
O O1 0.000000 0.809903 0.500000
O O2 0.016984 0.674207 0.300552
O O3 0.917925 0.748224 0.081133
O O4 0.000000 0.802063 0.000000
O O5 0.662141 0.422846 0.012028
O O6 0.582648 0.500000 0.608639
O O7 0.582878 0.500000 0.094848
O O8 0.863375 0.746287 0.591856
O O9 0.794466 0.811090 0.148926
O O10 0.851358 0.914969 0.512577
O O11 0.786072 0.822552 0.626668
O O12 0.173834 0.658326 0.098719
O O13 0.088873 0.609745 0.178323
O O14 0.278480 0.103188 0.203427
O O15 0.316662 0.000000 0.984230
O O16 0.390427 0.094397 0.347965
O O17 0.468712 0.000000 0.682685
#
# Coordination Sequence:
#
# PCOD9208460 Si02
#       8
#     8   4   8   8   8   8   8   4
#     4  10  21  40  63  85 119 159 202 249 313 362
#     4   8  14  32  52  76 104 144 202 228 288 336
#     4  10  23  38  64  84 123 158 210 253 301 364
#     4  11  24  39  60  91 122 158 208 261 313 360
#     4  11  23  38  60  86 125 167 213 253 300 360
#     4  10  21  38  57  84 115 166 200 251 298 356
#     4  10  23  41  61  89 123 165 209 257 303 366
#     4   8  16  34  56  82 106 153 194 245 288 354
#
# _framework density 26.169719000000001
#
# number of rings (size 3 to 8) (size 9 to 14) (size 15 to 20)
#    0.000    2.000    2.143    0.429    4.000    4.571 
#    0.000    0.000    0.000    0.000    0.000    5.000 
#    0.000    0.000    0.000    0.000    0.000    0.000 
#
# Total GULP energy -156435.563090 kJ/mol
# GULP energy per Si atom -5586.984396 kJ/mol
# Density = 2.611016 g / cm^3
# Si number density = 26.169719 Si / 1000 Ang^3
#
#
#
# Elastic Constant Matrix: (Units=GPa)
#
#
# Indices 1 2 3 4 5 6 
#
# 1 58.7656 21.8415 18.9339 0.0000 -26.9436 0.0000
# 2 21.8415 91.2049 19.5325 0.0000 -2.1338 0.0000
# 3 18.9339 19.5325 174.2436 0.0000 -40.9012 0.0000
# 4 0.0000 0.0000 0.0000 30.8451 0.0000 -6.2678
# 5 -26.9436 -2.1338 -40.9012 0.0000 50.9591 0.0000
# 6 0.0000 0.0000 0.0000 -6.2678 0.0000 21.5110
#
#
#
# Elastic Compliance Matrix: (Units=1/GPa)
#
#
# Indices 1 2 3 4 5 6 
#
# 1 0.025328 -0.006000 0.001238 0.000000 0.014134 0.000000
# 2 -0.006000 0.012674 -0.001711 0.000000 -0.004015 0.000000
# 3 0.001238 -0.001711 0.007311 0.000000 0.006451 0.000000
# 4 0.000000 0.000000 0.000000 0.034460 0.000000 0.010041
# 5 0.014134 -0.004015 0.006451 0.000000 0.032106 0.000000
# 6 0.000000 0.000000 0.000000 0.010041 0.000000 0.049414
#
#
# Mechanical properties :
#
#
# Convention : Reuss Voigt Hill
#
# Bulk Modulus (GPa) = 30.89615 49.42555 40.16085
# Shear Modulus (GPa) = 27.02291 38.25677 32.63984
#
# Velocity S-wave (km/s) = 3.21690 3.82759 3.53546
# Velocity P-wave (km/s) = 5.06257 6.20173 5.66088
#
# Compressibility (1/GPa) = 0.03236650
#
# Stress axis : x y z
#
# Youngs Moduli (GPa) = 39.48133 78.90324 136.78809
#
# Poissons Ratio (x) = 0.47343 -0.16937
# Poissons Ratio (y) = 0.23689 0.23408
# Poissons Ratio (z) = -0.04889 0.13502
#
# Static dielectric constant tensor:
#      x y z
#    x 2.059140 0.000000 -0.001190 
#    y 0.000000 2.061730 0.000000 
#    z -0.001190 0.000000 2.079000 
# 
# From -- ./inp_files/32114.got.cif
#   From: 2010.05.17/outbox.cif.g08.bks.cpg/sg12_17_cif.got.tgz:32114.got - 2010.06.03 13:09:07.
