data_PCOD9208153
_publ_section_title
;
Structure prediction by ZEFSAII (Michael W. Deem and Ramdas Pophale) SiO2 
 PCOD9208153
Probable space group: C 2/M
;
_chemical_formula_sum "Si O2"
_cell_formula_units_Z 50
_cell_length_a 27.993099
_cell_length_b 9.413354
_cell_length_c 14.856344
_cell_angle_alpha 90.000000
_cell_angle_beta 39.025597
_cell_angle_gamma 90.000000
_cell_volume 2465.009570
_symmetry_space_group_name_H-M "C 2/M"
_symmetry_group_IT_number 12
_symmetry_cell_setting 'monoclinic'
loop_
_space_group_symop_operation_xyz
x,y,z
-x,y,-z
-x,-y,-z
x,-y,z
1/2+x,1/2+y,z
1/2-x,1/2+y,-z
1/2-x,1/2-y,-z
1/2+x,1/2-y,z
loop_
_atom_site_type_symbol
_atom_site_label
_atom_site_fract_x
_atom_site_fract_y
_atom_site_fract_z
Si Si1 0.061916 0.760872 0.027602
Si Si2 0.902273 0.162256 0.327004
Si Si3 0.000000 0.500000 0.000000
Si Si4 0.653548 0.828391 0.433431
Si Si5 0.169911 0.166718 0.225421
Si Si6 0.190670 0.837974 0.703997
Si Si7 0.649577 0.833977 0.076342
O O1 0.100377 0.721386 0.065639
O O2 0.983995 0.841742 0.160619
O O3 0.123902 0.836803 0.874856
O O4 0.038327 0.622192 0.007534
O O5 0.904831 0.265904 0.408483
O O6 0.843392 0.224285 0.338496
O O7 0.881287 0.000000 0.383013
O O8 0.645602 0.754689 0.348721
O O9 0.734532 0.778561 0.358009
O O10 0.651567 0.000000 0.429425
O O11 0.137963 0.239327 0.182032
O O12 0.150235 0.000000 0.260849
O O13 0.261594 0.176886 0.081691
O O14 0.209886 0.000000 0.652661
O O15 0.633929 0.000000 0.117691
#
# Coordination Sequence:
#
# PCOD9208153 Si02
#       7
#     8   8   2   8   8   8   8
#     4  12  22  39  63  92 127 163 208 254 304 371
#     4  11  24  40  58  88 127 169 205 252 312 374
#     4  12  24  36  62 100 130 168 206 256 312 370
#     4  11  23  39  63  89 124 162 207 258 313 369
#     4  10  21  39  62  91 122 159 205 257 310 371
#     4  10  21  39  61  89 119 162 210 258 308 368
#     4  10  21  37  62  92 123 158 203 258 309 359
#
# _framework density 20.283895999999999
#
# number of rings (size 3 to 8) (size 9 to 14) (size 15 to 20)
#    0.000    1.280    4.000    1.920    1.120    3.200 
#    1.440    0.800    0.000    3.840    0.000    0.000 
#    0.000    0.000    0.000    0.000    0.000    0.000 
#
# Total GULP energy -139335.973749 kJ/mol
# GULP energy per Si atom -5573.438950 kJ/mol
# Density = 2.023773 g / cm^3
# Si number density = 20.283896 Si / 1000 Ang^3
#
#
#
# Elastic Constant Matrix: (Units=GPa)
#
#
# Indices 1 2 3 4 5 6 
#
# 1 110.2139 22.6844 -4.9842 0.0000 31.3405 0.0000
# 2 22.6844 97.7001 9.4265 0.0000 21.0356 0.0001
# 3 -4.9842 9.4265 55.2131 0.0000 18.1482 0.0000
# 4 0.0000 0.0000 0.0000 13.3439 0.0000 -30.8789
# 5 31.3405 21.0356 18.1482 0.0000 31.4753 0.0000
# 6 0.0000 0.0001 0.0000 -30.8789 0.0000 3.4872
#
#
#
# Elastic Compliance Matrix: (Units=1/GPa)
#
#
# Indices 1 2 3 4 5 6 
#
# 1 0.014897 -0.000062 0.007671 0.000000 -0.019215 0.000000
# 2 -0.000062 0.011979 0.000692 0.000000 -0.008343 0.000000
# 3 0.007671 0.000692 0.026341 0.000000 -0.023288 0.000000
# 4 0.000000 0.000000 0.000000 -0.003845 0.000000 -0.034046
# 5 -0.019215 -0.008343 -0.023288 0.000000 0.069907 0.000000
# 6 0.000000 0.000000 0.000000 -0.034046 0.000000 -0.014713
#
#
# Mechanical properties :
#
#
# Convention : Reuss Voigt Hill
#
# Bulk Modulus (GPa) = 14.32287 35.26449 24.79368
# Shear Modulus (GPa) = 44.94884 25.39464 35.17174
#
# Velocity S-wave (km/s) = 4.71253 3.54214 4.16862
# Velocity P-wave (km/s) = 6.05699 5.84399 5.95145
#
# Compressibility (1/GPa) = 0.06981840
#
# Stress axis : x y z
#
# Youngs Moduli (GPa) = 67.12855 83.47654 37.96407
#
# Poissons Ratio (x) = 0.00516 -0.29122
# Poissons Ratio (y) = 0.00415 -0.02625
# Poissons Ratio (z) = -0.51495 -0.05773
#
# Static dielectric constant tensor:
#      x y z
#    x 1.716070 0.000000 -0.018150 
#    y 0.000000 1.723660 0.000000 
#    z -0.018150 0.000000 1.729310 
# 
# From -- ./inp_files/243530.got.cif
#   From: 2010.05.17/outbox.cif.g08.bks.cpg/sg12_122_cif.got.tgz:243530.got - 2010.06.03 13:09:07.
