data_PCOD9208510
_publ_section_title
;
Structure prediction by ZEFSAII (Michael W. Deem and Ramdas Pophale) SiO2 
 PCOD9208510
Probable space group: C 2/M
;
_chemical_formula_sum "Si O2"
_cell_formula_units_Z 64
_cell_length_a 14.458183
_cell_length_b 8.567834
_cell_length_c 27.391680
_cell_angle_alpha 90.000000
_cell_angle_beta 101.880180
_cell_angle_gamma 90.000000
_cell_volume 3320.472442
_symmetry_space_group_name_H-M "C 2/M"
_symmetry_group_IT_number 12
_symmetry_cell_setting 'monoclinic'
loop_
_space_group_symop_operation_xyz
x,y,z
-x,y,-z
-x,-y,-z
x,-y,z
1/2+x,1/2+y,z
1/2-x,1/2+y,-z
1/2-x,1/2-y,-z
1/2+x,1/2-y,z
loop_
_atom_site_type_symbol
_atom_site_label
_atom_site_fract_x
_atom_site_fract_y
_atom_site_fract_z
Si Si1 0.885318 0.679287 0.493478
Si Si2 0.602269 0.682382 0.402597
Si Si3 0.931168 0.188283 0.141568
Si Si4 0.392189 0.186529 0.386741
Si Si5 0.216150 0.688368 0.128900
Si Si6 0.041641 0.188446 0.056159
Si Si7 0.711782 0.814981 0.323475
Si Si8 0.394970 0.811907 0.785564
O O1 0.856515 0.500000 0.498441
O O2 0.862217 0.776972 0.538878
O O3 0.852999 0.732301 0.436460
O O4 0.000000 0.680644 0.500000
O O5 0.616133 0.500000 0.394860
O O6 0.491312 0.727754 0.389378
O O7 0.653780 0.778277 0.366131
O O8 0.823720 0.242384 0.135473
O O9 0.975840 0.238507 0.094534
O O10 0.001532 0.247114 0.191181
O O11 0.931343 0.000000 0.142506
O O12 0.312531 0.230914 0.339502
O O13 0.408798 0.000000 0.389905
O O14 0.215443 0.500000 0.126972
O O15 0.146049 0.750963 0.079783
O O16 0.171265 0.735868 0.176033
O O17 0.043694 0.000000 0.056037
O O18 0.000000 0.241888 0.000000
O O19 0.651385 0.761238 0.270218
O O20 0.727697 0.000000 0.320867
O O21 0.400068 0.000000 0.785750
#
# Coordination Sequence:
#
# PCOD9208510 Si02
#       8
#     8   8   8   8   8   8   8   8
#     4   8  16  33  55  77 105 139 173 213 261 316
#     4  11  22  36  56  81 108 140 177 217 265 321
#     4   9  18  33  54  77 103 139 177 215 261 311
#     4  10  21  38  58  81 109 140 175 217 267 323
#     4   9  18  34  54  76 102 134 176 219 261 309
#     4   9  18  32  49  75 112 146 176 212 254 304
#     4  11  23  38  55  78 108 140 177 222 273 327
#     4   9  20  37  54  74 101 132 170 220 268 311
#
# _framework density 19.274366000000001
#
# number of rings (size 3 to 8) (size 9 to 14) (size 15 to 20)
#    0.000    2.500    0.000    2.625    0.000    6.500 
#    0.000    1.250    0.000    0.000    0.000    0.000 
#    0.000    0.000    0.000    0.000    0.000    0.000 
#
# Total GULP energy -178632.792278 kJ/mol
# GULP energy per Si atom -5582.274759 kJ/mol
# Density = 1.923050 g / cm^3
# Si number density = 19.274366 Si / 1000 Ang^3
#
#
#
# Elastic Constant Matrix: (Units=GPa)
#
#
# Indices 1 2 3 4 5 6 
#
# 1 90.1729 3.5623 33.4475 0.0000 25.7261 0.0000
# 2 3.5623 14.2968 11.9475 0.0000 4.2221 0.0000
# 3 33.4475 11.9475 117.4584 0.0000 29.9990 0.0000
# 4 0.0000 0.0000 0.0000 24.8884 0.0000 7.6997
# 5 25.7261 4.2221 29.9990 0.0000 23.4214 0.0000
# 6 0.0000 0.0000 0.0000 7.6997 0.0000 23.5738
#
#
#
# Elastic Compliance Matrix: (Units=1/GPa)
#
#
# Indices 1 2 3 4 5 6 
#
# 1 0.016177 0.001390 -0.000217 0.000000 -0.017742 0.000000
# 2 0.001390 0.077074 -0.006386 0.000000 -0.007241 0.000000
# 3 -0.000217 -0.006386 0.013182 0.000000 -0.015495 0.000000
# 4 0.000000 0.000000 0.000000 0.044696 0.000000 -0.014598
# 5 -0.017742 -0.007241 -0.015495 0.000000 0.083336 0.000000
# 6 0.000000 0.000000 0.000000 -0.014598 0.000000 0.047188
#
#
# Mechanical properties :
#
#
# Convention : Reuss Voigt Hill
#
# Bulk Modulus (GPa) = 10.41586 35.53807 22.97697
# Shear Modulus (GPa) = 15.42820 25.90813 20.66817
#
# Velocity S-wave (km/s) = 2.83229 3.67028 3.27817
# Velocity P-wave (km/s) = 4.01392 6.03650 5.12596
#
# Compressibility (1/GPa) = 0.09600741
#
# Stress axis : x y z
#
# Youngs Moduli (GPa) = 61.81646 12.97446 75.85841
#
# Poissons Ratio (x) = -0.01803 0.01643
# Poissons Ratio (y) = -0.08591 0.48445
# Poissons Ratio (z) = 0.01339 0.08286
#
# Static dielectric constant tensor:
#      x y z
#    x 1.679280 0.000000 0.005730 
#    y 0.000000 1.647360 0.000000 
#    z 0.005730 0.000000 1.671930 
# 
# From -- ./inp_files/359978.got.cif
#   From: 2010.05.17/outbox.cif.g08.bks.cpg/sg12_180_cif.got.tgz:359978.got - 2010.06.03 13:09:07.
