data_PCOD9208381
_publ_section_title
;
Structure prediction by ZEFSAII (Michael W. Deem and Ramdas Pophale) SiO2 
 PCOD9208381
Probable space group: C 2/M
;
_chemical_formula_sum "Si O2"
_cell_formula_units_Z 64
_cell_length_a 20.547290
_cell_length_b 7.649892
_cell_length_c 23.998209
_cell_angle_alpha 90.000000
_cell_angle_beta 121.356130
_cell_angle_gamma 90.000000
_cell_volume 3221.223508
_symmetry_space_group_name_H-M "C 2/M"
_symmetry_group_IT_number 12
_symmetry_cell_setting 'monoclinic'
loop_
_space_group_symop_operation_xyz
x,y,z
-x,y,-z
-x,-y,-z
x,-y,z
1/2+x,1/2+y,z
1/2-x,1/2+y,-z
1/2-x,1/2-y,-z
1/2+x,1/2-y,z
loop_
_atom_site_type_symbol
_atom_site_label
_atom_site_fract_x
_atom_site_fract_y
_atom_site_fract_z
Si Si1 0.660601 0.708976 0.965371
Si Si2 0.275276 0.210199 0.826700
Si Si3 0.083307 0.297988 0.045153
Si Si4 0.368178 0.789297 0.575985
Si Si5 0.372233 0.289900 0.170662
Si Si6 0.964969 0.709369 0.317496
Si Si7 0.681607 0.210294 0.679602
Si Si8 0.716857 0.790274 0.571948
O O1 0.651240 0.500000 0.966348
O O2 0.622490 0.770551 0.890526
O O3 0.750000 0.750000 0.000000
O O4 0.625619 0.792993 0.004675
O O5 0.356427 0.279211 0.883946
O O6 0.206233 0.275736 0.835532
O O7 0.249918 0.249529 0.752708
O O8 0.276955 0.000000 0.833848
O O9 0.070767 0.500000 0.056772
O O10 0.000000 0.216350 0.000000
O O11 0.451789 0.723037 0.629223
O O12 0.336628 0.724072 0.502271
O O13 0.303373 0.746831 0.592257
O O14 0.372198 0.000000 0.574363
O O15 0.366755 0.500000 0.166163
O O16 0.439836 0.244749 0.242936
O O17 0.966601 0.500000 0.325057
O O18 0.896228 0.776901 0.326107
O O19 0.695883 0.277193 0.623747
O O20 0.675545 0.000000 0.674008
O O21 0.708062 0.000000 0.569410
#
# Coordination Sequence:
#
# PCOD9208381 Si02
#       8
#     8   8   8   8   8   8   8   8
#     4  11  21  35  57  81 105 136 178 220 261 313
#     4   9  17  33  53  73 101 135 168 206 255 305
#     4  10  21  38  56  76 106 140 176 218 266 314
#     4   9  18  33  52  74 101 133 168 206 248 296
#     4   9  18  33  52  75 103 133 167 208 256 307
#     4   9  18  32  51  76 102 128 166 212 252 295
#     4   9  18  32  51  76 100 128 168 207 250 300
#     4   9  18  33  52  73 101 136 168 203 248 298
#
# _framework density 19.868226
#
# number of rings (size 3 to 8) (size 9 to 14) (size 15 to 20)
#    0.000    2.625    1.250    0.375    0.000    3.250 
#    2.250    2.500    0.000    0.000    0.000    7.000 
#    0.000    0.000    0.000    0.000    0.000    0.000 
#
# Total GULP energy -178495.579379 kJ/mol
# GULP energy per Si atom -5577.986856 kJ/mol
# Density = 1.982301 g / cm^3
# Si number density = 19.868226 Si / 1000 Ang^3
#
#
#
# Elastic Constant Matrix: (Units=GPa)
#
#
# Indices 1 2 3 4 5 6 
#
# 1 90.3645 -8.1357 86.2318 0.0000 24.2548 0.0000
# 2 -8.1357 39.7873 -4.3412 0.0000 4.0392 0.0000
# 3 86.2318 -4.3412 160.7942 0.0000 17.8609 0.0000
# 4 0.0000 0.0000 0.0000 22.2809 0.0000 -0.8226
# 5 24.2548 4.0392 17.8609 0.0000 38.3323 0.0000
# 6 0.0000 0.0000 0.0000 -0.8226 0.0000 14.5309
#
#
#
# Elastic Compliance Matrix: (Units=1/GPa)
#
#
# Indices 1 2 3 4 5 6 
#
# 1 0.027245 0.005318 -0.013172 0.000000 -0.011662 0.000000
# 2 0.005318 0.026608 -0.001527 0.000000 -0.005457 0.000000
# 3 -0.013172 -0.001527 0.012970 0.000000 0.002453 0.000000
# 4 0.000000 0.000000 0.000000 0.044976 0.000000 0.002546
# 5 -0.011662 -0.005457 0.002453 0.000000 0.032899 0.000000
# 6 0.000000 0.000000 0.000000 0.002546 0.000000 0.068963
#
#
# Mechanical properties :
#
#
# Convention : Reuss Voigt Hill
#
# Bulk Modulus (GPa) = 20.80753 48.71731 34.76242
# Shear Modulus (GPa) = 20.12525 29.50821 24.81673
#
# Velocity S-wave (km/s) = 3.18612 3.85801 3.53805
# Velocity P-wave (km/s) = 4.90211 6.66476 5.85020
#
# Compressibility (1/GPa) = 0.04805952
#
# Stress axis : x y z
#
# Youngs Moduli (GPa) = 36.70385 37.58221 77.10372
#
# Poissons Ratio (x) = -0.19985 1.01562
# Poissons Ratio (y) = -0.19518 0.11776
# Poissons Ratio (z) = 0.48347 0.05740
#
# Static dielectric constant tensor:
#      x y z
#    x 1.678950 0.000000 0.012380 
#    y 0.000000 1.759260 0.000000 
#    z 0.012380 0.000000 1.709050 
# 
# From -- ./inp_files/320157.got.cif
#   From: 2010.05.17/outbox.cif.g08.bks.cpg/sg12_161_cif.got.tgz:320157.got - 2010.06.03 13:09:07.
