data_PCOD9208036
_publ_section_title
;
Structure prediction by ZEFSAII (Michael W. Deem and Ramdas Pophale) SiO2 
 PCOD9208036
Probable space group: C 2/M
;
_chemical_formula_sum "Si O2"
_cell_formula_units_Z 64
_cell_length_a 13.587678
_cell_length_b 17.211842
_cell_length_c 21.272818
_cell_angle_alpha 90.000000
_cell_angle_beta 35.920689
_cell_angle_gamma 90.000000
_cell_volume 2918.687954
_symmetry_space_group_name_H-M "C 2/M"
_symmetry_group_IT_number 12
_symmetry_cell_setting 'monoclinic'
loop_
_space_group_symop_operation_xyz
x,y,z
-x,y,-z
-x,-y,-z
x,-y,z
1/2+x,1/2+y,z
1/2-x,1/2+y,-z
1/2-x,1/2-y,-z
1/2+x,1/2-y,z
loop_
_atom_site_type_symbol
_atom_site_label
_atom_site_fract_x
_atom_site_fract_y
_atom_site_fract_z
Si Si1 0.778858 0.093440 0.980329
Si Si2 0.917966 0.656373 0.171949
Si Si3 0.253117 0.408330 0.622380
Si Si4 0.610239 0.086321 0.255029
Si Si5 0.067704 0.185670 0.899791
Si Si6 0.717232 0.593035 0.167398
Si Si7 0.588237 0.404587 0.586271
Si Si8 0.924069 0.410039 0.478220
O O1 0.935208 0.124534 0.939643
O O2 0.792818 0.119601 0.899621
O O3 0.772214 0.000000 0.985846
O O4 0.602833 0.127872 0.096191
O O5 0.778830 0.632370 0.294947
O O6 0.877170 0.615507 0.126386
O O7 0.913430 0.747208 0.160981
O O8 0.283098 0.500000 0.619253
O O9 0.385786 0.382023 0.500395
O O10 0.069482 0.401251 0.684497
O O11 0.564244 0.086659 0.352469
O O12 0.757174 0.146953 0.171788
O O13 0.668690 0.000000 0.205897
O O14 0.000000 0.220081 0.000000
O O15 0.708303 0.500000 0.169385
O O16 0.564070 0.621137 0.290948
O O17 0.587277 0.500000 0.584851
O O18 0.755636 0.377022 0.535687
O O19 0.879252 0.500000 0.517832
O O20 0.000000 0.370750 0.500000
#
# Coordination Sequence:
#
# PCOD9208036 Si02
#       8
#     8   8   8   8   8   8   8   8
#     4  11  24  41  64  91 116 148 199 255 301 347
#     4  12  24  40  60  82 118 165 203 240 296 356
#     4   9  18  36  64  91 118 154 199 249 293 343
#     4   9  19  36  60  90 116 146 191 244 299 351
#     4  12  26  41  60  86 119 157 194 243 300 366
#     4  10  21  37  61  90 122 156 199 249 290 346
#     4   8  16  31  54  90 122 151 194 243 297 344
#     4   8  14  26  53  85 117 149 182 234 293 345
#
# _framework density 21.927661000000001
#
# number of rings (size 3 to 8) (size 9 to 14) (size 15 to 20)
#    0.000    2.125    0.000    5.250    1.750    4.500 
#    0.000    1.875    2.750    2.250    0.000    0.000 
#    0.000    0.000    0.000    0.000    0.000    0.000 
#
# Total GULP energy -178674.218183 kJ/mol
# GULP energy per Si atom -5583.569318 kJ/mol
# Density = 2.187775 g / cm^3
# Si number density = 21.927661 Si / 1000 Ang^3
#
#
#
# Elastic Constant Matrix: (Units=GPa)
#
#
# Indices 1 2 3 4 5 6 
#
# 1 71.4692 5.2330 13.0073 -0.0007 16.1314 -0.0002
# 2 5.2330 31.7628 24.9498 -0.0020 1.6190 -0.0032
# 3 13.0073 24.9498 97.3669 -0.0061 5.6467 -0.0087
# 4 -0.0007 -0.0020 -0.0061 198.8696 0.0043 102.8590
# 5 16.1314 1.6190 5.6467 0.0043 31.1130 0.0030
# 6 -0.0002 -0.0032 -0.0087 102.8590 0.0030 22.6584
#
#
#
# Elastic Compliance Matrix: (Units=1/GPa)
#
#
# Indices 1 2 3 4 5 6 
#
# 1 0.016150 -0.001155 -0.001394 0.000000 -0.008060 0.000000
# 2 -0.001155 0.039501 -0.009988 0.000001 0.000356 -0.000001
# 3 -0.001394 -0.009988 0.013082 0.000001 -0.001132 -0.000002
# 4 0.000000 0.000001 0.000001 -0.003730 -0.000001 0.016935
# 5 -0.008060 0.000356 -0.001132 -0.000001 0.036507 0.000001
# 6 0.000000 -0.000001 -0.000002 0.016935 0.000001 -0.032742
#
#
# Mechanical properties :
#
#
# Convention : Reuss Voigt Hill
#
# Bulk Modulus (GPa) = 22.90522 31.88657 27.39590
# Shear Modulus (GPa) = 46.12766 61.02212 53.57489
#
# Velocity S-wave (km/s) = 4.59151 5.28103 4.94829
# Velocity P-wave (km/s) = 6.21110 7.19437 6.72074
#
# Compressibility (1/GPa) = 0.04365817
#
# Stress axis : x y z
#
# Youngs Moduli (GPa) = 61.92115 25.31551 76.44214
#
# Poissons Ratio (x) = 0.02923 0.10657
# Poissons Ratio (y) = 0.07151 0.76354
# Poissons Ratio (z) = 0.08632 0.25286
#
# Static dielectric constant tensor:
#      x y z
#    x 1.842920 0.000000 0.001430 
#    y 0.000000 1.778080 0.000000 
#    z 0.001430 0.000000 1.811230 
# 
# From -- ./inp_files/340799.got.cif
#   From: 2010.05.17/outbox.cif.g08.bks.cpg/sg12_171_cif.got.tgz:340799.got - 2010.06.03 13:09:07.
