data_PCOD9208042
_publ_section_title
;
Structure prediction by ZEFSAII (Michael W. Deem and Ramdas Pophale) SiO2 
 PCOD9208042
Probable space group: C 2/M
;
_chemical_formula_sum "Si O2"
_cell_formula_units_Z 56
_cell_length_a 8.991995
_cell_length_b 24.865434
_cell_length_c 18.601777
_cell_angle_alpha 90.000000
_cell_angle_beta 138.414038
_cell_angle_gamma 90.000000
_cell_volume 2760.618995
_symmetry_space_group_name_H-M "C 2/M"
_symmetry_group_IT_number 12
_symmetry_cell_setting 'monoclinic'
loop_
_space_group_symop_operation_xyz
x,y,z
-x,y,-z
-x,-y,-z
x,-y,z
1/2+x,1/2+y,z
1/2-x,1/2+y,-z
1/2-x,1/2-y,-z
1/2+x,1/2-y,z
loop_
_atom_site_type_symbol
_atom_site_label
_atom_site_fract_x
_atom_site_fract_y
_atom_site_fract_z
Si Si1 0.622678 0.095691 0.203559
Si Si2 0.317523 0.683285 0.379664
Si Si3 0.999761 0.147989 0.829688
Si Si4 0.316483 0.440702 0.871948
Si Si5 0.931433 0.940238 0.680715
Si Si6 0.570645 0.792465 0.649432
Si Si7 0.500000 0.865235 0.000000
Si Si8 0.000000 0.380045 0.500000
O O1 0.719707 0.148705 0.278407
O O2 0.420206 0.073456 0.177799
O O3 0.538077 0.103342 0.089989
O O4 0.840623 0.058440 0.281421
O O5 0.500000 0.656436 0.500000
O O6 0.445258 0.734834 0.393522
O O7 0.104440 0.701808 0.349589
O O8 0.905539 0.108494 0.856848
O O9 0.977518 0.107698 0.753894
O O10 0.829456 0.197497 0.764631
O O11 0.261287 0.163763 0.927239
O O12 0.303196 0.500000 0.831524
O O13 0.500000 0.445117 0.000000
O O14 0.711205 0.918437 0.562380
O O15 0.892135 0.000000 0.696144
O O16 0.524427 0.840360 0.576394
#
# Coordination Sequence:
#
# PCOD9208042 Si02
#       8
#     8   8   8   8   8   8   4   4
#     4  11  23  41  64  93 132 166 212 266 317 368
#     4  12  25  41  69  96 126 165 213 265 319 382
#     4  10  21  40  61  90 129 164 208 262 316 373
#     4  11  21  38  63  91 125 169 212 259 315 378
#     4  10  21  37  61  90 124 168 214 257 310 376
#     4  11  24  40  66  94 124 165 213 257 324 379
#     4  10  22  40  67  88 130 170 206 258 315 374
#     4  10  21  40  64  90 128 166 207 264 314 376
#
# _framework density 20.285305000000001
#
# number of rings (size 3 to 8) (size 9 to 14) (size 15 to 20)
#    0.000    1.286    3.571    2.357    6.000    0.000 
#    0.000    2.857    3.143    1.714    0.000    0.000 
#    0.000    0.000    0.000    0.000    0.000    0.000 
#
# Total GULP energy -156062.234834 kJ/mol
# GULP energy per Si atom -5573.651244 kJ/mol
# Density = 2.023913 g / cm^3
# Si number density = 20.285305 Si / 1000 Ang^3
#
#
#
# Elastic Constant Matrix: (Units=GPa)
#
#
# Indices 1 2 3 4 5 6 
#
# 1 109.9190 19.9282 36.9696 0.0000 9.3149 0.0001
# 2 19.9282 50.7908 25.3217 0.0000 -0.2233 0.0000
# 3 36.9696 25.3217 93.1951 0.0000 24.8496 0.0004
# 4 0.0000 0.0000 0.0000 39.6224 0.0000 -42.0339
# 5 9.3149 -0.2233 24.8496 0.0000 31.3686 0.0002
# 6 0.0001 0.0000 0.0004 -42.0339 0.0002 36.6299
#
#
#
# Elastic Compliance Matrix: (Units=1/GPa)
#
#
# Indices 1 2 3 4 5 6 
#
# 1 0.010754 -0.002495 -0.003464 0.000000 -0.000467 0.000000
# 2 -0.002495 0.024420 -0.007466 0.000000 0.006829 0.000000
# 3 -0.003464 -0.007466 0.017588 0.000001 -0.012957 0.000001
# 4 0.000000 0.000000 0.000001 -0.116108 0.000000 -0.133237
# 5 -0.000467 0.006829 -0.012957 0.000000 0.042331 0.000000
# 6 0.000000 0.000000 0.000001 -0.133237 0.000000 -0.125593
#
#
# Mechanical properties :
#
#
# Convention : Reuss Voigt Hill
#
# Bulk Modulus (GPa) = 38.59162 46.48266 42.53714
# Shear Modulus (GPa) = -44.99632 32.96987 -6.01323
#
# Velocity S-wave (km/s) = -4.71486 4.03588 -1.72359
# Velocity P-wave (km/s) = 3.25179 6.68446 4.12964
#
# Compressibility (1/GPa) = 0.02591236
#
# Stress axis : x y z
#
# Youngs Moduli (GPa) = 92.98437 40.95034 56.85755
#
# Poissons Ratio (x) = 0.10216 0.19694
# Poissons Ratio (y) = 0.23198 0.42452
# Poissons Ratio (z) = 0.32207 0.30575
#
# Static dielectric constant tensor:
#      x y z
#    x 4.885230 0.000000 -1.520710 
#    y 0.000000 1.706240 0.000000 
#    z -1.520710 0.000000 2.497210 
# 
# From -- ./inp_files/259904.got.cif
#   From: 2010.05.17/outbox.cif.g08.bks.cpg/sg12_130_cif.got.tgz:259904.got - 2010.06.03 13:09:07.
