data_PCOD9208124
_publ_section_title
;
Structure prediction by ZEFSAII (Michael W. Deem and Ramdas Pophale) SiO2 
 PCOD9208124
Probable space group: C 2/M
;
_chemical_formula_sum "Si O2"
_cell_formula_units_Z 56
_cell_length_a 11.023414
_cell_length_b 29.599527
_cell_length_c 9.591989
_cell_angle_alpha 90.000000
_cell_angle_beta 108.068370
_cell_angle_gamma 90.000000
_cell_volume 2975.412342
_symmetry_space_group_name_H-M "C 2/M"
_symmetry_group_IT_number 12
_symmetry_cell_setting 'monoclinic'
loop_
_space_group_symop_operation_xyz
x,y,z
-x,y,-z
-x,-y,-z
x,-y,z
1/2+x,1/2+y,z
1/2-x,1/2+y,-z
1/2-x,1/2-y,-z
1/2+x,1/2-y,z
loop_
_atom_site_type_symbol
_atom_site_label
_atom_site_fract_x
_atom_site_fract_y
_atom_site_fract_z
Si Si1 0.688385 0.396496 0.721752
Si Si2 0.286937 0.386685 0.593988
Si Si3 0.509838 0.553540 0.167386
Si Si4 0.101739 0.330160 0.156526
Si Si5 0.197725 0.755218 0.827018
Si Si6 0.009121 0.186794 0.351085
Si Si7 0.917223 0.330592 0.345482
O O1 0.718189 0.404602 0.567928
O O2 0.617708 0.434155 0.788897
O O3 0.810351 0.374041 0.839489
O O4 0.583747 0.356585 0.679299
O O5 0.374737 0.419693 0.717096
O O6 0.355594 0.337115 0.616865
O O7 0.154562 0.374633 0.621027
O O8 0.531344 0.500000 0.180393
O O9 0.500000 0.567019 0.000000
O O10 0.201334 0.288744 0.211806
O O11 0.018967 0.340440 0.262056
O O12 0.000000 0.319985 0.000000
O O13 0.057666 0.778960 0.778337
O O14 0.178092 0.706976 0.749816
O O15 0.250000 0.750000 0.000000
O O16 0.000000 0.208467 0.500000
O O17 0.000000 0.310696 0.500000
#
# Coordination Sequence:
#
# PCOD9208124 Si02
#       7
#     8   8   8   8   8   8   8
#     4   9  19  39  61  85 119 156 195 238 294 359
#     4  10  21  37  62  87 117 157 200 244 296 361
#     4  10  22  39  66 101 125 146 186 243 302 360
#     4  11  23  40  58  84 119 164 210 252 301 355
#     4  11  23  36  53  78 114 157 211 259 296 349
#     4   8  17  35  54  77 106 148 198 244 291 339
#     4  12  25  38  58  86 119 163 207 258 301 351
#
# _framework density 18.820920999999998
#
# number of rings (size 3 to 8) (size 9 to 14) (size 15 to 20)
#    0.000    1.857    2.857    1.714    4.000    2.857 
#    0.000    0.000    0.000    1.714    0.000    0.000 
#    0.000    0.000    0.000    0.000    0.000    0.000 
#
# Total GULP energy -156037.902134 kJ/mol
# GULP energy per Si atom -5572.782219 kJ/mol
# Density = 1.877808 g / cm^3
# Si number density = 18.820921 Si / 1000 Ang^3
#
#
#
# Elastic Constant Matrix: (Units=GPa)
#
#
# Indices 1 2 3 4 5 6 
#
# 1 87.1311 19.5383 16.5482 0.0000 -14.7746 0.0000
# 2 19.5383 57.4793 22.7102 0.0000 -5.2961 0.0000
# 3 16.5482 22.7102 83.7226 0.0000 -1.0761 0.0000
# 4 0.0000 0.0000 0.0000 33.3174 0.0000 -56.0551
# 5 -14.7746 -5.2961 -1.0761 0.0000 33.1994 0.0000
# 6 0.0000 0.0000 0.0000 -56.0551 0.0000 259.1237
#
#
#
# Elastic Compliance Matrix: (Units=1/GPa)
#
#
# Indices 1 2 3 4 5 6 
#
# 1 0.013477 -0.003426 -0.001665 0.000000 0.005397 0.000000
# 2 -0.003426 0.020648 -0.004903 0.000000 0.001610 0.000000
# 3 -0.001665 -0.004903 0.013589 0.000000 -0.001083 0.000000
# 4 0.000000 0.000000 0.000000 0.047189 0.000000 0.010208
# 5 0.005397 0.001610 -0.001083 0.000000 0.032745 0.000000
# 6 0.000000 0.000000 0.000000 0.010208 0.000000 0.006067
#
#
# Mechanical properties :
#
#
# Convention : Reuss Voigt Hill
#
# Bulk Modulus (GPa) = 36.06742 38.43629 37.25186
# Shear Modulus (GPa) = 30.68528 76.43051 53.55789
#
# Velocity S-wave (km/s) = 4.04218 6.37946 5.34026
# Velocity P-wave (km/s) = 6.40240 8.64464 7.60659
#
# Compressibility (1/GPa) = 0.02772585
#
# Stress axis : x y z
#
# Youngs Moduli (GPa) = 74.20300 48.43173 73.58702
#
# Poissons Ratio (x) = 0.16592 0.12253
# Poissons Ratio (y) = 0.25420 0.36079
# Poissons Ratio (z) = 0.12355 0.23746
#
# Static dielectric constant tensor:
#      x y z
#    x 1.712540 0.000000 0.005150 
#    y 0.000000 1.635290 0.000000 
#    z 0.005150 0.000000 1.623750 
# 
# From -- ./inp_files/54316.got.cif
#   From: 2010.05.17/outbox.cif.g08.bks.cpg/sg12_28_cif.got.tgz:54316.got - 2010.06.03 13:09:07.
