data_PCOD9208634
_publ_section_title
;
Structure prediction by ZEFSAII (Michael W. Deem and Ramdas Pophale) SiO2 
 PCOD9208634
Probable space group: C 2/M
;
_chemical_formula_sum "Si O2"
_cell_formula_units_Z 56
_cell_length_a 14.713275
_cell_length_b 9.892981
_cell_length_c 18.677806
_cell_angle_alpha 90.000000
_cell_angle_beta 100.977800
_cell_angle_gamma 90.000000
_cell_volume 2668.957383
_symmetry_space_group_name_H-M "C 2/M"
_symmetry_group_IT_number 12
_symmetry_cell_setting 'monoclinic'
loop_
_space_group_symop_operation_xyz
x,y,z
-x,y,-z
-x,-y,-z
x,-y,z
1/2+x,1/2+y,z
1/2-x,1/2+y,-z
1/2-x,1/2-y,-z
1/2+x,1/2-y,z
loop_
_atom_site_type_symbol
_atom_site_label
_atom_site_fract_x
_atom_site_fract_y
_atom_site_fract_z
Si Si1 0.672487 0.659244 0.391739
Si Si2 0.494720 0.847451 0.084575
Si Si3 0.154156 0.842304 0.559504
Si Si4 0.641773 0.650828 0.174413
Si Si5 0.475074 0.337350 0.336135
Si Si6 0.213519 0.281136 0.916407
Si Si7 0.292797 0.653065 0.226579
O O1 0.689986 0.500000 0.378520
O O2 0.763083 0.749869 0.399144
O O3 0.648051 0.668124 0.473292
O O4 0.579055 0.710969 0.339253
O O5 0.553713 0.738848 0.137862
O O6 0.387680 0.844611 0.091487
O O7 0.532505 0.000000 0.100547
O O8 0.500000 0.817664 0.000000
O O9 0.063036 0.804623 0.590420
O O10 0.173373 0.000000 0.577885
O O11 0.619892 0.500000 0.197552
O O12 0.706285 0.638715 0.113064
O O13 0.711252 0.741412 0.232903
O O14 0.482122 0.500000 0.333200
O O15 0.391994 0.298090 0.270836
O O16 0.203322 0.156859 0.859401
O O17 0.250000 0.250000 0.000000
O O18 0.275620 0.500000 0.248314
#
# Coordination Sequence:
#
# PCOD9208634 Si02
#       7
#     8   8   8   8   8   8   8
#     4   9  17  31  54  83 111 142 180 222 263 311
#     4  11  21  37  59  83 106 137 176 218 275 336
#     4   9  17  31  54  82 110 143 182 220 261 312
#     4  10  22  38  54  79 108 137 176 226 272 321
#     4   9  17  34  56  77 107 145 185 219 261 322
#     4  10  21  38  59  82 105 140 176 229 273 324
#     4   9  20  38  58  78 106 147 185 223 274 332
#
# _framework density 20.981976
#
# number of rings (size 3 to 8) (size 9 to 14) (size 15 to 20)
#    0.857    1.571    1.429    1.286    0.000    3.714 
#    2.571    2.143    0.000    3.429    0.000    0.000 
#    0.000    0.000    0.000    0.000    0.000    0.000 
#
# Total GULP energy -156040.413618 kJ/mol
# GULP energy per Si atom -5572.871915 kJ/mol
# Density = 2.093422 g / cm^3
# Si number density = 20.981976 Si / 1000 Ang^3
#
#
#
# Elastic Constant Matrix: (Units=GPa)
#
#
# Indices 1 2 3 4 5 6 
#
# 1 127.4959 39.1607 17.0857 0.0000 24.1010 0.0000
# 2 39.1607 95.8732 22.1940 0.0000 30.1301 0.0000
# 3 17.0857 22.1940 73.7165 0.0000 13.2066 0.0000
# 4 0.0000 0.0000 0.0000 9.3095 0.0000 8.8070
# 5 24.1010 30.1301 13.2066 0.0000 45.3904 0.0000
# 6 0.0000 0.0000 0.0000 8.8070 0.0000 20.4008
#
#
#
# Elastic Compliance Matrix: (Units=1/GPa)
#
#
# Indices 1 2 3 4 5 6 
#
# 1 0.009337 -0.002704 -0.000826 0.000000 -0.002922 0.000000
# 2 -0.002704 0.014427 -0.002383 0.000000 -0.007448 0.000000
# 3 -0.000826 -0.002383 0.014888 0.000000 -0.002312 0.000000
# 4 0.000000 0.000000 0.000000 0.181572 0.000000 -0.078385
# 5 -0.002922 -0.007448 -0.002312 0.000000 0.029199 0.000000
# 6 0.000000 0.000000 0.000000 -0.078385 0.000000 0.082856
#
#
# Mechanical properties :
#
#
# Convention : Reuss Voigt Hill
#
# Bulk Modulus (GPa) = 37.27678 50.44072 43.85875
# Shear Modulus (GPa) = 14.16236 29.59648 21.87942
#
# Velocity S-wave (km/s) = 2.60085 3.75983 3.23270
# Velocity P-wave (km/s) = 5.17918 6.55291 5.90612
#
# Compressibility (1/GPa) = 0.02682635
#
# Stress axis : x y z
#
# Youngs Moduli (GPa) = 107.09914 69.31387 67.16602
#
# Poissons Ratio (x) = 0.18744 0.05551
# Poissons Ratio (y) = 0.28962 0.16003
# Poissons Ratio (z) = 0.08851 0.16515
#
# Static dielectric constant tensor:
#      x y z
#    x 1.747290 0.000000 -0.023200 
#    y 0.000000 1.753730 0.000000 
#    z -0.023200 0.000000 1.805280 
# 
# From -- ./inp_files/338179.got.cif
#   From: 2010.05.17/outbox.cif.g08.bks.cpg/sg12_170_cif.got.tgz:338179.got - 2010.06.03 13:09:07.
