data_PCOD9208745
_publ_section_title
;
Structure prediction by ZEFSAII (Michael W. Deem and Ramdas Pophale) SiO2 
 PCOD9208745
Probable space group: C 2/M
;
_chemical_formula_sum "Si O2"
_cell_formula_units_Z 52
_cell_length_a 23.436357
_cell_length_b 18.206374
_cell_length_c 6.365191
_cell_angle_alpha 90.000000
_cell_angle_beta 60.266322
_cell_angle_gamma 90.000000
_cell_volume 2358.385961
_symmetry_space_group_name_H-M "C 2/M"
_symmetry_group_IT_number 12
_symmetry_cell_setting 'monoclinic'
loop_
_space_group_symop_operation_xyz
x,y,z
-x,y,-z
-x,-y,-z
x,-y,z
1/2+x,1/2+y,z
1/2-x,1/2+y,-z
1/2-x,1/2-y,-z
1/2+x,1/2-y,z
loop_
_atom_site_type_symbol
_atom_site_label
_atom_site_fract_x
_atom_site_fract_y
_atom_site_fract_z
Si Si1 0.588138 0.757570 0.654485
Si Si2 0.711432 0.415461 0.617225
Si Si3 0.932413 0.130208 0.017531
Si Si4 0.314978 0.916631 0.076680
Si Si5 0.927710 0.421246 0.225259
Si Si6 0.287608 0.194903 0.781222
Si Si7 0.500000 0.336693 0.500000
O O1 0.571142 0.843012 0.666224
O O2 0.664324 0.758164 0.453686
O O3 0.544114 0.711792 0.574527
O O4 0.576800 0.716558 0.897642
O O5 0.728520 0.500000 0.641944
O O6 0.747139 0.402299 0.328346
O O7 0.741916 0.357181 0.723645
O O8 0.632912 0.406908 0.773860
O O9 0.947759 0.121687 0.743638
O O10 0.000000 0.103780 0.000000
O O11 0.372606 0.912898 0.144879
O O12 0.312632 0.000000 0.000881
O O13 0.325194 0.859646 0.872076
O O14 0.913697 0.500000 0.360966
O O15 0.000000 0.427237 0.000000
O O16 0.250000 0.250000 0.000000
#
# Coordination Sequence:
#
# PCOD9208745 Si02
#       7
#     8   8   8   8   8   8   4
#     4  11  23  37  64  89 129 163 208 259 310 374
#     4  11  24  44  66  91 129 167 210 265 318 376
#     4  10  23  43  66  94 124 159 209 264 323 385
#     4  10  23  42  62  89 130 172 211 256 310 372
#     4  10  21  38  59  86 123 166 208 254 304 360
#     4  12  25  37  63  95 124 166 214 257 310 376
#     4  10  22  40  62  94 124 162 206 264 322 374
#
# _framework density 22.048977000000001
#
# number of rings (size 3 to 8) (size 9 to 14) (size 15 to 20)
#    0.000    1.385    1.538    3.692    6.462    3.385 
#    0.000    0.769    0.000    0.000    0.000    0.000 
#    0.000    0.000    0.000    0.000    0.000    0.000 
#
# Total GULP energy -145176.849745 kJ/mol
# GULP energy per Si atom -5583.724990 kJ/mol
# Density = 2.199879 g / cm^3
# Si number density = 22.048977 Si / 1000 Ang^3
#
#
#
# Elastic Constant Matrix: (Units=GPa)
#
#
# Indices 1 2 3 4 5 6 
#
# 1 69.7718 -6.6451 20.7793 0.0000 -29.7724 0.0000
# 2 -6.6451 53.7746 7.0165 0.0000 -1.8950 0.0000
# 3 20.7793 7.0165 110.6827 0.0000 -25.9766 0.0000
# 4 0.0000 0.0000 0.0000 30.9219 0.0000 -5.8269
# 5 -29.7724 -1.8950 -25.9766 0.0000 35.9765 0.0000
# 6 0.0000 0.0000 0.0000 -5.8269 0.0000 27.5400
#
#
#
# Elastic Compliance Matrix: (Units=1/GPa)
#
#
# Indices 1 2 3 4 5 6 
#
# 1 0.022791 0.003491 -0.000037 0.000000 0.019018 0.000000
# 2 0.003491 0.019287 -0.001158 0.000000 0.003069 0.000000
# 3 -0.000037 -0.001158 0.010949 0.000000 0.007815 0.000000
# 4 0.000000 0.000000 0.000000 0.033682 0.000000 0.007127
# 5 0.019018 0.003069 0.007815 0.000000 0.049339 0.000000
# 6 0.000000 0.000000 0.000000 0.007127 0.000000 0.037819
#
#
# Mechanical properties :
#
#
# Convention : Reuss Voigt Hill
#
# Bulk Modulus (GPa) = 17.35473 30.72560 24.04017
# Shear Modulus (GPa) = 26.52800 33.09291 29.81045
#
# Velocity S-wave (km/s) = 3.47239 3.87832 3.68096
# Velocity P-wave (km/s) = 4.89538 5.83272 5.38449
#
# Compressibility (1/GPa) = 0.05762118
#
# Stress axis : x y z
#
# Youngs Moduli (GPa) = 43.87653 51.84895 91.33150
#
# Poissons Ratio (x) = -0.18102 0.00334
# Poissons Ratio (y) = -0.15319 0.10574
# Poissons Ratio (z) = 0.00160 0.06003
#
# Static dielectric constant tensor:
#      x y z
#    x 1.808020 0.000000 -0.025930 
#    y 0.000000 1.869300 0.000000 
#    z -0.025930 0.000000 1.834460 
# 
# From -- ./inp_files/25587.got.cif
#   From: 2010.05.17/outbox.cif.g08.bks.cpg/sg12_13_cif.got.tgz:25587.got - 2010.06.03 13:09:07.
