data_PCOD9208466
_publ_section_title
;
Structure prediction by ZEFSAII (Michael W. Deem and Ramdas Pophale) SiO2 
 PCOD9208466
Probable space group: C 2/M
;
_chemical_formula_sum "Si O2"
_cell_formula_units_Z 40
_cell_length_a 18.777279
_cell_length_b 15.361924
_cell_length_c 22.708791
_cell_angle_alpha 90.000000
_cell_angle_beta 17.209682
_cell_angle_gamma 90.000000
_cell_volume 1938.083305
_symmetry_space_group_name_H-M "C 2/M"
_symmetry_group_IT_number 12
_symmetry_cell_setting 'monoclinic'
loop_
_space_group_symop_operation_xyz
x,y,z
-x,y,-z
-x,-y,-z
x,-y,z
1/2+x,1/2+y,z
1/2-x,1/2+y,-z
1/2-x,1/2-y,-z
1/2+x,1/2-y,z
loop_
_atom_site_type_symbol
_atom_site_label
_atom_site_fract_x
_atom_site_fract_y
_atom_site_fract_z
Si Si1 0.126848 0.728034 0.779337
Si Si2 0.292168 0.401901 0.213581
Si Si3 0.587010 0.321507 0.229958
Si Si4 0.274946 0.595286 0.760236
Si Si5 0.146755 0.685376 0.505191
O O1 0.138310 0.825812 0.796284
O O2 0.264936 0.667083 0.717077
O O3 0.254152 0.738632 0.616263
O O4 0.853638 0.692509 0.993216
O O5 0.279656 0.500000 0.247477
O O6 0.038688 0.374580 0.383971
O O7 0.500000 0.400030 0.000000
O O8 0.593189 0.379920 0.283612
O O9 0.389528 0.355162 0.340108
O O10 0.498731 0.228567 0.325819
O O11 0.347485 0.500000 0.681582
O O12 0.000000 0.592272 0.000000
#
# Coordination Sequence:
#
# PCOD9208466 Si02
#       5
#     8   8   8   8   8
#     4  11  20  39  62  88 117 155 201 251 298 363
#     4  11  22  39  62  88 121 160 203 254 303 357
#     4  10  21  38  57  87 119 157 192 245 301 358
#     4   9  18  35  61  86 115 155 196 243 299 357
#     4  11  22  36  60  86 118 157 197 242 303 358
#
# _framework density 20.638947000000002
#
# number of rings (size 3 to 8) (size 9 to 14) (size 15 to 20)
#    0.000    1.600    4.000    1.800    0.000    2.400 
#    0.000    2.000    0.000    4.800    0.000    0.000 
#    0.000    0.000    0.000    0.000    0.000    0.000 
#
# Total GULP energy -111609.814515 kJ/mol
# GULP energy per Si atom -5580.490726 kJ/mol
# Density = 2.059197 g / cm^3
# Si number density = 20.638947 Si / 1000 Ang^3
#
#
#
# Elastic Constant Matrix: (Units=GPa)
#
#
# Indices 1 2 3 4 5 6 
#
# 1 70.1227 3.0406 36.7736 -0.0138 -12.5049 -0.0101
# 2 3.0406 79.2671 16.1132 -0.0326 1.7281 -0.0020
# 3 36.7736 16.1132 121.8001 -0.1902 -3.9981 0.0067
# 4 -0.0138 -0.0326 -0.1902 6.2688 -0.0107 -7.5740
# 5 -12.5049 1.7281 -3.9981 -0.0107 32.6171 0.0364
# 6 -0.0101 -0.0020 0.0067 -7.5740 0.0364 -7.0485
#
#
#
# Elastic Compliance Matrix: (Units=1/GPa)
#
#
# Indices 1 2 3 4 5 6 
#
# 1 0.018156 0.000245 -0.005308 -0.000047 0.006297 0.000052
# 2 0.000245 0.012994 -0.001820 0.000000 -0.000818 -0.000010
# 3 -0.005308 -0.001820 0.010030 0.000130 -0.000709 -0.000126
# 4 -0.000047 0.000000 0.000130 0.069411 0.000104 -0.074585
# 5 0.006297 -0.000818 -0.000709 0.000104 0.033029 0.000049
# 6 0.000052 -0.000010 -0.000126 -0.074585 0.000049 -0.061728
#
#
# Mechanical properties :
#
#
# Convention : Reuss Voigt Hill
#
# Bulk Modulus (GPa) = 36.47481 42.56053 39.51767
# Shear Modulus (GPa) = 47.71188 20.71830 34.21509
#
# Velocity S-wave (km/s) = 4.81327 3.17179 4.07602
# Velocity P-wave (km/s) = 6.97146 5.83780 6.42966
#
# Compressibility (1/GPa) = 0.02741618
#
# Stress axis : x y z
#
# Youngs Moduli (GPa) = 55.07685 76.95906 99.69777
#
# Poissons Ratio (x) = -0.01887 0.52915
# Poissons Ratio (y) = -0.01350 0.18143
# Poissons Ratio (z) = 0.29232 0.14005
#
# Static dielectric constant tensor:
#      x y z
#    x 1.760750 -0.000070 -0.013170 
#    y -0.000070 1.753850 0.000080 
#    z -0.013170 0.000080 1.761900 
# 
# From -- ./inp_files/284646.got.cif
#   From: 2010.05.17/outbox.cif.g08.bks.cpg/sg12_143_cif.got.tgz:284646.got - 2010.06.03 13:09:07.
