data_PCOD9208333
_publ_section_title
;
Structure prediction by ZEFSAII (Michael W. Deem and Ramdas Pophale) SiO2 
 PCOD9208333
Probable space group: C 2/M
;
_chemical_formula_sum "Si O2"
_cell_formula_units_Z 36
_cell_length_a 13.557027
_cell_length_b 11.087192
_cell_length_c 19.373269
_cell_angle_alpha 90.000000
_cell_angle_beta 28.319151
_cell_angle_gamma 90.000000
_cell_volume 1381.394045
_symmetry_space_group_name_H-M "C 2/M"
_symmetry_group_IT_number 12
_symmetry_cell_setting 'monoclinic'
loop_
_space_group_symop_operation_xyz
x,y,z
-x,y,-z
-x,-y,-z
x,-y,z
1/2+x,1/2+y,z
1/2-x,1/2+y,-z
1/2-x,1/2-y,-z
1/2+x,1/2-y,z
loop_
_atom_site_type_symbol
_atom_site_label
_atom_site_fract_x
_atom_site_fract_y
_atom_site_fract_z
Si Si1 0.755005 0.143467 0.647488
Si Si2 0.448564 0.500000 0.334605
Si Si3 0.064505 0.252960 0.269100
Si Si4 0.535932 0.000000 0.369665
Si Si5 0.061877 0.000000 0.815469
Si Si6 0.568786 0.751036 0.054255
O O1 0.617472 0.218350 0.675961
O O2 0.620833 0.168842 0.800057
O O3 0.000000 0.179526 0.500000
O O4 0.745458 0.000000 0.637935
O O5 0.501269 0.624282 0.339907
O O6 0.535384 0.500000 0.201642
O O7 0.206464 0.500000 0.472026
O O8 0.077256 0.375221 0.303692
O O9 0.294164 0.226440 0.097490
O O10 0.689629 0.000000 0.339232
O O11 0.001326 0.114001 0.897503
O O12 0.750000 0.750000 0.000000
#
# Coordination Sequence:
#
# PCOD9208333 Si02
#       6
#     8   4   8   4   4   8
#     4  10  21  37  67 104 138 182 237 280 341 416
#     4  12  25  44  72 102 133 187 242 277 342 408
#     4  11  24  44  70 100 141 189 222 292 355 407
#     4  12  28  46  70 101 153 173 233 292 361 411
#     4  12  24  42  75 104 127 184 242 284 337 415
#     4  10  22  38  71 100 138 170 239 282 340 407
#
# _framework density 26.060631000000001
#
# number of rings (size 3 to 8) (size 9 to 14) (size 15 to 20)
#    0.000    1.111    5.556    1.667    9.333    1.778 
#    0.000    0.000    0.000    1.333    0.000    0.000 
#    0.000    0.000    0.000    0.000    0.000    0.000 
#
# Total GULP energy -100720.624873 kJ/mol
# GULP energy per Si atom -5595.590271 kJ/mol
# Density = 2.600132 g / cm^3
# Si number density = 26.060631 Si / 1000 Ang^3
#
#
#
# Elastic Constant Matrix: (Units=GPa)
#
#
# Indices 1 2 3 4 5 6 
#
# 1 92.4989 35.5799 37.9977 -0.0034 -20.1229 -0.0032
# 2 35.5799 187.5962 57.1596 0.0040 -12.1548 0.0019
# 3 37.9977 57.1596 198.1957 -0.0073 -29.2673 -0.0101
# 4 -0.0034 0.0040 -0.0073 -63.3313 0.0029 -119.5019
# 5 -20.1229 -12.1548 -29.2673 0.0029 48.9297 0.0031
# 6 -0.0032 0.0019 -0.0101 -119.5019 0.0031 -148.9291
#
#
#
# Elastic Compliance Matrix: (Units=1/GPa)
#
#
# Indices 1 2 3 4 5 6 
#
# 1 0.012939 -0.001774 -0.001369 0.000000 0.004062 0.000000
# 2 -0.001774 0.006098 -0.001429 0.000000 -0.000069 0.000001
# 3 -0.001369 -0.001429 0.006126 0.000000 0.002746 0.000000
# 4 0.000000 0.000000 0.000000 0.030714 0.000000 -0.024646
# 5 0.004062 -0.000069 0.002746 0.000000 0.023733 0.000000
# 6 0.000000 0.000001 0.000000 -0.024646 0.000000 0.013061
#
#
# Mechanical properties :
#
#
# Convention : Reuss Voigt Hill
#
# Bulk Modulus (GPa) = 62.42567 82.19613 72.31090
# Shear Modulus (GPa) = 46.66137 -9.49590 18.58274
#
# Velocity S-wave (km/s) = 4.23601 -1.91094 2.67321
# Velocity P-wave (km/s) = 6.92323 5.17106 6.11028
#
# Compressibility (1/GPa) = 0.01601905
#
# Stress axis : x y z
#
# Youngs Moduli (GPa) = 77.28369 163.99195 163.24912
#
# Poissons Ratio (x) = 0.29087 0.22355
# Poissons Ratio (y) = 0.13708 0.23325
# Poissons Ratio (z) = 0.10583 0.23431
#
# Static dielectric constant tensor:
#      x y z
#    x 2.165340 0.000000 0.032200 
#    y 0.000000 2.131410 0.000000 
#    z 0.032200 0.000000 2.185620 
# 
# From -- ./inp_files/363574.got.cif
#   From: 2010.05.17/outbox.cif.g08.bks.cpg/sg12_182_cif.got.tgz:363574.got - 2010.06.03 13:09:07.
