data_PCOD9208680
_publ_section_title
;
Structure prediction by ZEFSAII (Michael W. Deem and Ramdas Pophale) SiO2 
 PCOD9208680
Probable space group: C 2/M
;
_chemical_formula_sum "Si O2"
_cell_formula_units_Z 56
_cell_length_a 32.521860
_cell_length_b 7.510275
_cell_length_c 12.267366
_cell_angle_alpha 90.000000
_cell_angle_beta 121.068048
_cell_angle_gamma 90.000000
_cell_volume 2566.479476
_symmetry_space_group_name_H-M "C 2/M"
_symmetry_group_IT_number 12
_symmetry_cell_setting 'monoclinic'
loop_
_space_group_symop_operation_xyz
x,y,z
-x,y,-z
-x,-y,-z
x,-y,z
1/2+x,1/2+y,z
1/2-x,1/2+y,-z
1/2-x,1/2-y,-z
1/2+x,1/2-y,z
loop_
_atom_site_type_symbol
_atom_site_label
_atom_site_fract_x
_atom_site_fract_y
_atom_site_fract_z
Si Si1 0.806409 0.211547 0.090744
Si Si2 0.264180 0.785470 0.394520
Si Si3 0.821353 0.208153 0.874274
Si Si4 0.146893 0.705689 0.616576
Si Si5 0.461682 0.218281 0.536885
Si Si6 0.922831 0.715015 0.919449
Si Si7 0.511191 0.783215 0.185365
O O1 0.827653 0.290167 0.230583
O O2 0.813930 0.000000 0.111279
O O3 0.750000 0.250000 0.000000
O O4 0.828380 0.280157 0.006383
O O5 0.250000 0.750000 0.500000
O O6 0.222985 0.716542 0.255663
O O7 0.315623 0.717861 0.420788
O O8 0.265282 0.000000 0.385732
O O9 0.869777 0.222910 0.872228
O O10 0.810160 0.000000 0.875490
O O11 0.139934 0.500000 0.574385
O O12 0.093216 0.780600 0.552742
O O13 0.500000 0.278237 0.500000
O O14 0.479841 0.273797 0.680383
O O15 0.461470 0.000000 0.532197
O O16 0.921802 0.500000 0.918151
O O17 0.946069 0.772432 0.837103
O O18 0.960827 0.773163 0.063720
O O19 0.510855 0.000000 0.183659
#
# Coordination Sequence:
#
# PCOD9208680 Si02
#       7
#     8   8   8   8   8   8   8
#     4  11  22  39  60  81 111 145 184 231 279 334
#     4  10  22  39  56  81 116 149 185 228 274 332
#     4  10  22  38  54  79 115 145 177 227 281 331
#     4  10  21  38  59  84 115 150 187 233 284 332
#     4   9  18  31  52  81 113 145 180 226 279 330
#     4   9  18  32  56  82 106 139 184 232 272 322
#     4   8  16  32  50  79 113 138 178 235 278 313
#
# _framework density 21.819772
#
# number of rings (size 3 to 8) (size 9 to 14) (size 15 to 20)
#    0.000    2.429    1.429    1.286    4.000    2.286 
#    0.000    1.429    0.000    1.286    0.000    0.000 
#    0.000    0.000    0.000    0.000    0.000    0.000 
#
# Total GULP energy -156334.536497 kJ/mol
# GULP energy per Si atom -5583.376303 kJ/mol
# Density = 2.177011 g / cm^3
# Si number density = 21.819772 Si / 1000 Ang^3
#
#
#
# Elastic Constant Matrix: (Units=GPa)
#
#
# Indices 1 2 3 4 5 6 
#
# 1 191.9679 1.1003 90.9759 0.0000 0.0257 0.0000
# 2 1.1003 56.6088 -5.7457 0.0000 -0.5630 0.0000
# 3 90.9759 -5.7457 118.2539 0.0000 -21.9382 0.0000
# 4 0.0000 0.0000 0.0000 10.9900 0.0000 -1.9515
# 5 0.0257 -0.5630 -21.9382 0.0000 27.8999 0.0000
# 6 0.0000 0.0000 0.0000 -1.9515 0.0000 17.0796
#
#
#
# Elastic Compliance Matrix: (Units=1/GPa)
#
#
# Indices 1 2 3 4 5 6 
#
# 1 0.009158 -0.001088 -0.008317 0.000000 -0.006570 0.000000
# 2 -0.001088 0.017917 0.002078 0.000000 0.001996 0.000000
# 3 -0.008317 0.002078 0.017521 0.000000 0.013827 0.000000
# 4 0.000000 0.000000 0.000000 0.092876 0.000000 0.010612
# 5 -0.006570 0.001996 0.013827 0.000000 0.046761 0.000000
# 6 0.000000 0.000000 0.000000 0.010612 0.000000 0.059762
#
#
# Mechanical properties :
#
#
# Convention : Reuss Voigt Hill
#
# Bulk Modulus (GPa) = 33.39836 59.94350 46.67093
# Shear Modulus (GPa) = 18.61296 29.89390 24.25343
#
# Velocity S-wave (km/s) = 2.92384 3.70542 3.33759
# Velocity P-wave (km/s) = 5.17089 6.77042 6.02398
#
# Compressibility (1/GPa) = 0.02994159
#
# Stress axis : x y z
#
# Youngs Moduli (GPa) = 109.19484 55.81299 57.07415
#
# Poissons Ratio (x) = 0.06070 0.47470
# Poissons Ratio (y) = 0.11875 -0.11857
# Poissons Ratio (z) = 0.90820 -0.11595
#
# Static dielectric constant tensor:
#      x y z
#    x 1.783410 0.000000 -0.004320 
#    y 0.000000 1.849850 0.000000 
#    z -0.004320 0.000000 1.768250 
# 
# From -- ./inp_files/181099.got.cif
#   From: 2010.05.17/outbox.cif.g08.bks.cpg/sg12_91_cif.got.tgz:181099.got - 2010.06.03 13:09:07.
