data_PCOD9208398
_publ_section_title
;
Structure prediction by ZEFSAII (Michael W. Deem and Ramdas Pophale) SiO2 
 PCOD9208398
Probable space group: C 2/M
;
_chemical_formula_sum "Si O2"
_cell_formula_units_Z 50
_cell_length_a 20.674260
_cell_length_b 7.434193
_cell_length_c 14.996258
_cell_angle_alpha 90.000000
_cell_angle_beta 98.457899
_cell_angle_gamma 90.000000
_cell_volume 2279.804147
_symmetry_space_group_name_H-M "C 2/M"
_symmetry_group_IT_number 12
_symmetry_cell_setting 'monoclinic'
loop_
_space_group_symop_operation_xyz
x,y,z
-x,y,-z
-x,-y,-z
x,-y,z
1/2+x,1/2+y,z
1/2-x,1/2+y,-z
1/2-x,1/2-y,-z
1/2+x,1/2-y,z
loop_
_atom_site_type_symbol
_atom_site_label
_atom_site_fract_x
_atom_site_fract_y
_atom_site_fract_z
Si Si1 0.315849 0.779993 0.615703
Si Si2 0.468349 0.215382 0.117914
Si Si3 0.266253 0.286573 0.900201
Si Si4 0.337229 0.793132 0.427046
Si Si5 0.357786 0.781848 0.238776
Si Si6 0.500000 0.500000 0.000000
Si Si7 0.887271 0.291258 0.807492
O O1 0.347712 0.719087 0.528585
O O2 0.241349 0.713461 0.601876
O O3 0.353348 0.718165 0.711341
O O4 0.312835 0.000000 0.614694
O O5 0.419433 0.252295 0.188717
O O6 0.541396 0.284392 0.157203
O O7 0.467050 0.000000 0.098508
O O8 0.452030 0.340414 0.031715
O O9 0.268430 0.500000 0.890124
O O10 0.207675 0.217252 0.824650
O O11 0.334930 0.217715 0.876288
O O12 0.250000 0.250000 0.000000
O O13 0.364530 0.712733 0.341042
O O14 0.359449 0.000000 0.435556
O O15 0.351907 0.000000 0.243827
O O16 0.900800 0.500000 0.791435
#
# Coordination Sequence:
#
# PCOD9208398 Si02
#       7
#     8   8   8   8   8   2   8
#     4   9  17  30  53  86 117 148 191 235 289 354
#     4  10  24  43  63  85 123 157 201 251 300 354
#     4  11  23  36  56  81 111 146 192 241 292 346
#     4   9  16  31  55  83 114 151 193 235 289 352
#     4   9  19  38  57  81 114 156 192 243 298 349
#     4  12  26  44  64  94 106 168 214 246 292 370
#     4  10  21  38  56  84 119 154 185 241 299 350
#
# _framework density 21.931708
#
# number of rings (size 3 to 8) (size 9 to 14) (size 15 to 20)
#    0.000    2.240    1.600    0.720    3.360    0.000 
#    2.880    0.800    0.000    4.800    0.000    1.120 
#    0.000    0.000    0.000    0.000    0.000    0.320 
#
# Total GULP energy -139319.933026 kJ/mol
# GULP energy per Si atom -5572.797321 kJ/mol
# Density = 2.188179 g / cm^3
# Si number density = 21.931708 Si / 1000 Ang^3
#
#
#
# Elastic Constant Matrix: (Units=GPa)
#
#
# Indices 1 2 3 4 5 6 
#
# 1 101.9294 1.5976 38.8966 0.0000 -15.2798 0.0000
# 2 1.5976 92.5149 5.5945 0.0000 -8.0607 0.0000
# 3 38.8966 5.5945 124.3198 0.0000 -26.9836 0.0000
# 4 0.0000 0.0000 0.0000 0.5898 0.0000 -4.2254
# 5 -15.2798 -8.0607 -26.9836 0.0000 44.6871 0.0000
# 6 0.0000 0.0000 0.0000 -4.2254 0.0000 2.6380
#
#
#
# Elastic Compliance Matrix: (Units=1/GPa)
#
#
# Indices 1 2 3 4 5 6 
#
# 1 0.011295 0.000168 -0.003103 0.000000 0.002019 0.000000
# 2 0.000168 0.010985 -0.000120 0.000000 0.001966 0.000000
# 3 -0.003103 -0.000120 0.010110 0.000000 0.005022 0.000000
# 4 0.000000 0.000000 0.000000 -0.161862 0.000000 -0.259260
# 5 0.002019 0.001966 0.005022 0.000000 0.026455 0.000000
# 6 0.000000 0.000000 0.000000 -0.259260 0.000000 -0.036190
#
#
# Mechanical properties :
#
#
# Convention : Reuss Voigt Hill
#
# Bulk Modulus (GPa) = 38.05223 45.66020 41.85621
# Shear Modulus (GPa) = -40.21362 27.76132 -6.22615
#
# Velocity S-wave (km/s) = -4.28668 3.56168 -1.68673
# Velocity P-wave (km/s) = 2.66699 6.14642 3.91572
#
# Compressibility (1/GPa) = 0.02627967
#
# Stress axis : x y z
#
# Youngs Moduli (GPa) = 88.53535 91.03518 98.91019
#
# Poissons Ratio (x) = -0.01534 0.30695
# Poissons Ratio (y) = -0.01492 0.01189
# Poissons Ratio (z) = 0.27476 0.01094
#
# Static dielectric constant tensor:
#      x y z
#    x 1.801290 0.000000 0.033990 
#    y 0.000000 1.855730 0.000000 
#    z 0.033990 0.000000 1.923740 
# 
# From -- ./inp_files/230245.got.cif
#   From: 2010.05.17/outbox.cif.g08.bks.cpg/sg12_116_cif.got.tgz:230245.got - 2010.06.03 13:09:07.
