data_PCOD9208796
_publ_section_title
;
Structure prediction by ZEFSAII (Michael W. Deem and Ramdas Pophale) SiO2 
 PCOD9208796
Probable space group: C 2/M
;
_chemical_formula_sum "Si O2"
_cell_formula_units_Z 64
_cell_length_a 25.138212
_cell_length_b 20.850393
_cell_length_c 18.473517
_cell_angle_alpha 90.000000
_cell_angle_beta 18.321211
_cell_angle_gamma 90.000000
_cell_volume 3043.709991
_symmetry_space_group_name_H-M "C 2/M"
_symmetry_group_IT_number 12
_symmetry_cell_setting 'monoclinic'
loop_
_space_group_symop_operation_xyz
x,y,z
-x,y,-z
-x,-y,-z
x,-y,z
1/2+x,1/2+y,z
1/2-x,1/2+y,-z
1/2-x,1/2-y,-z
1/2+x,1/2-y,z
loop_
_atom_site_type_symbol
_atom_site_label
_atom_site_fract_x
_atom_site_fract_y
_atom_site_fract_z
Si Si1 0.909879 0.624411 0.304394
Si Si2 0.837011 0.258062 0.603889
Si Si3 0.812599 0.644212 0.270316
Si Si4 0.057128 0.239287 0.077100
Si Si5 0.057276 0.073631 0.500894
Si Si6 0.810317 0.427050 0.958044
Si Si7 0.196888 0.697213 0.127195
Si Si8 0.855145 0.859139 0.236523
O O1 0.840106 0.613905 0.313697
O O2 0.766527 0.607140 0.548565
O O3 0.958396 0.700759 0.239569
O O4 0.078790 0.588801 0.113503
O O5 0.807670 0.206842 0.577284
O O6 0.764264 0.324259 0.667143
O O7 0.027631 0.271848 0.378945
O O8 0.714387 0.234670 0.826141
O O9 0.717264 0.599924 0.336461
O O10 0.000000 0.661550 0.000000
O O11 0.944657 0.196864 0.168582
O O12 0.148029 0.194051 0.017867
O O13 0.000000 0.106604 0.500000
O O14 0.097786 0.000000 0.431927
O O15 0.888847 0.076791 0.766993
O O16 0.848676 0.500000 0.885175
O O17 0.844191 0.370413 0.857190
O O18 0.250000 0.750000 0.000000
O O19 0.000000 0.892178 0.000000
#
# Coordination Sequence:
#
# PCOD9208796 Si02
#       8
#     8   8   8   8   8   8   8   8
#     4  12  22  38  64  95 128 175 215 268 342 408
#     4  11  21  38  56  94 133 160 207 270 335 393
#     4  12  23  36  64 101 137 170 214 270 340 404
#     4  11  22  36  60  95 130 162 210 277 337 399
#     4  10  24  43  62  85 126 179 226 273 321 391
#     4  11  25  45  64  91 132 177 228 282 335 393
#     4  12  23  37  63  96 123 173 228 271 334 399
#     4  10  21  38  59  89 130 166 206 267 340 396
#
# _framework density 21.026969000000001
#
# number of rings (size 3 to 8) (size 9 to 14) (size 15 to 20)
#    0.000    0.875    5.000    2.625    3.500    0.750 
#    0.000    0.000    0.000    1.875    0.000    0.000 
#    0.000    0.000    0.000    0.000    0.000    0.000 
#
# Total GULP energy -178629.862808 kJ/mol
# GULP energy per Si atom -5582.183213 kJ/mol
# Density = 2.097911 g / cm^3
# Si number density = 21.026969 Si / 1000 Ang^3
#
#
#
# Elastic Constant Matrix: (Units=GPa)
#
#
# Indices 1 2 3 4 5 6 
#
# 1 106.4036 29.5502 23.1779 -0.0048 -15.1884 0.0013
# 2 29.5502 66.9486 14.4544 0.0053 -10.6124 -0.0025
# 3 23.1779 14.4544 69.7006 0.0010 -2.8090 -0.0003
# 4 -0.0048 0.0053 0.0010 5.3661 0.0100 -2.0080
# 5 -15.1884 -10.6124 -2.8090 0.0100 38.0513 0.0015
# 6 0.0013 -0.0025 -0.0003 -2.0080 0.0015 20.8580
#
#
#
# Elastic Compliance Matrix: (Units=1/GPa)
#
#
# Indices 1 2 3 4 5 6 
#
# 1 0.011606 -0.003971 -0.002902 0.000008 0.003311 -0.000001
# 2 -0.003971 0.017672 -0.002216 -0.000027 0.003180 0.000000
# 3 -0.002902 -0.002216 0.015747 -0.000002 -0.000614 0.000000
# 4 0.000008 -0.000027 -0.000002 0.193321 -0.000056 0.018611
# 5 0.003311 0.003180 -0.000614 -0.000056 0.028443 -0.000007
# 6 -0.000001 0.000000 0.000000 0.018611 -0.000007 0.049735
#
#
# Mechanical properties :
#
#
# Convention : Reuss Voigt Hill
#
# Bulk Modulus (GPa) = 37.24992 41.93529 39.59261
# Shear Modulus (GPa) = 14.54960 24.57978 19.56469
#
# Velocity S-wave (km/s) = 2.63335 3.42272 3.05365
# Velocity P-wave (km/s) = 5.19613 5.96715 5.59494
#
# Compressibility (1/GPa) = 0.02684569
#
# Stress axis : x y z
#
# Youngs Moduli (GPa) = 86.16326 56.58601 63.50400
#
# Poissons Ratio (x) = 0.22472 0.18431
# Poissons Ratio (y) = 0.34217 0.14073
# Poissons Ratio (z) = 0.25008 0.12540
#
# Static dielectric constant tensor:
#      x y z
#    x 1.809060 0.000000 0.040690 
#    y 0.000000 1.746760 0.000010 
#    z 0.040690 0.000010 1.809840 
# 
# From -- ./inp_files/290885.got.cif
#   From: 2010.05.17/outbox.cif.g08.bks.cpg/sg12_146_cif.got.tgz:290885.got - 2010.06.03 13:09:07.
