data_PCOD9208712
_publ_section_title
;
Structure prediction by ZEFSAII (Michael W. Deem and Ramdas Pophale) SiO2 
 PCOD9208712
Probable space group: C 2/M
;
_chemical_formula_sum "Si O2"
_cell_formula_units_Z 64
_cell_length_a 18.900662
_cell_length_b 8.819016
_cell_length_c 31.424844
_cell_angle_alpha 90.000000
_cell_angle_beta 41.648803
_cell_angle_gamma 90.000000
_cell_volume 3481.018940
_symmetry_space_group_name_H-M "C 2/M"
_symmetry_group_IT_number 12
_symmetry_cell_setting 'monoclinic'
loop_
_space_group_symop_operation_xyz
x,y,z
-x,y,-z
-x,-y,-z
x,-y,z
1/2+x,1/2+y,z
1/2-x,1/2+y,-z
1/2-x,1/2-y,-z
1/2+x,1/2-y,z
loop_
_atom_site_type_symbol
_atom_site_label
_atom_site_fract_x
_atom_site_fract_y
_atom_site_fract_z
Si Si1 0.995037 0.179889 0.066063
Si Si2 0.927934 0.181293 0.319410
Si Si3 0.032067 0.318505 0.436911
Si Si4 0.234687 0.682086 0.674773
Si Si5 0.943003 0.677468 0.178392
Si Si6 0.632347 0.318542 0.556522
Si Si7 0.892741 0.321772 0.817733
Si Si8 0.837442 0.680872 0.067015
O O1 0.968140 0.223471 0.126226
O O2 0.906710 0.254100 0.075009
O O3 0.996229 0.000000 0.059429
O O4 0.106854 0.249527 0.999926
O O5 0.830402 0.248291 0.335623
O O6 0.911429 0.214227 0.376459
O O7 0.035174 0.253881 0.252350
O O8 0.930649 0.000000 0.312352
O O9 0.036804 0.500000 0.430193
O O10 0.147397 0.247376 0.376209
O O11 0.000000 0.283810 0.500000
O O12 0.944861 0.251702 0.444100
O O13 0.236057 0.500000 0.669808
O O14 0.165637 0.718038 0.748010
O O15 0.937120 0.500000 0.168452
O O16 0.035147 0.692547 0.172343
O O17 0.637005 0.500000 0.549230
O O18 0.750000 0.250000 0.500000
O O19 0.872979 0.500000 0.819251
O O20 0.782884 0.234879 0.873320
O O21 0.845134 0.500000 0.062566
#
# Coordination Sequence:
#
# PCOD9208712 Si02
#       8
#     8   8   8   8   8   8   8   8
#     4  11  22  37  58  83 112 147 190 235 280 335
#     4  10  21  38  59  85 117 150 186 230 282 337
#     4  11  24  40  59  85 116 150 190 236 284 335
#     4  10  21  38  61  86 114 150 190 233 280 334
#     4   9  20  38  58  83 115 148 185 230 281 335
#     4  11  24  40  60  86 116 151 190 233 281 336
#     4  10  21  38  60  86 115 148 189 234 279 333
#     4  11  22  38  59  81 112 151 188 232 286 337
#
# _framework density 18.385421000000001
#
# number of rings (size 3 to 8) (size 9 to 14) (size 15 to 20)
#    0.000    1.625    0.000    6.375    0.000   10.500 
#    0.000    1.250    0.000    0.000    0.000    0.000 
#    0.000    0.000    0.000    0.000    0.000    0.000 
#
# Total GULP energy -178869.729954 kJ/mol
# GULP energy per Si atom -5589.679061 kJ/mol
# Density = 1.834357 g / cm^3
# Si number density = 18.385421 Si / 1000 Ang^3
#
#
#
# Elastic Constant Matrix: (Units=GPa)
#
#
# Indices 1 2 3 4 5 6 
#
# 1 92.7709 68.8580 91.7078 0.0002 -3.4562 0.0010
# 2 68.8580 138.2609 98.9036 0.0012 6.8665 0.0038
# 3 91.7078 98.9036 156.5469 0.0001 -7.8452 0.0005
# 4 0.0002 0.0012 0.0001 37.2773 -0.0001 -2.0117
# 5 -3.4562 6.8665 -7.8452 -0.0001 38.9146 0.0000
# 6 0.0010 0.0038 0.0005 -2.0117 0.0000 34.1078
#
#
#
# Elastic Compliance Matrix: (Units=1/GPa)
#
#
# Indices 1 2 3 4 5 6 
#
# 1 0.026692 -0.003910 -0.013146 0.000000 0.000410 0.000000
# 2 -0.003910 0.014433 -0.007044 0.000000 -0.004314 -0.000001
# 3 -0.013146 -0.007044 0.018732 0.000000 0.003852 0.000001
# 4 0.000000 0.000000 0.000000 0.026912 0.000000 0.001587
# 5 0.000410 -0.004314 0.003852 0.000000 0.027272 0.000000
# 6 0.000000 -0.000001 0.000001 0.001587 0.000000 0.029412
#
#
# Mechanical properties :
#
#
# Convention : Reuss Voigt Hill
#
# Bulk Modulus (GPa) = 85.78276 100.72418 93.25347
# Shear Modulus (GPa) = 25.57036 30.60056 28.08546
#
# Velocity S-wave (km/s) = 3.73338 4.08412 3.91269
# Velocity P-wave (km/s) = 8.08353 8.78316 8.44060
#
# Compressibility (1/GPa) = 0.01165735
#
# Stress axis : x y z
#
# Youngs Moduli (GPa) = 37.46488 69.28346 53.38370
#
# Poissons Ratio (x) = 0.27091 0.70176
# Poissons Ratio (y) = 0.14649 0.37606
# Poissons Ratio (z) = 0.49250 0.48806
#
# Static dielectric constant tensor:
#      x y z
#    x 1.600300 0.000000 0.005550 
#    y 0.000000 1.615020 0.000000 
#    z 0.005550 0.000000 1.619480 
# 
# From -- ./inp_files/378121.got.cif
#   From: 2010.05.17/outbox.cif.g08.bks.cpg/sg12_190_cif.got.tgz:378121.got - 2010.06.03 13:09:07.
