data_PCOD9208180
_publ_section_title
;
Structure prediction by ZEFSAII (Michael W. Deem and Ramdas Pophale) SiO2 
 PCOD9208180
Probable space group: C 2/M
;
_chemical_formula_sum "Si O2"
_cell_formula_units_Z 52
_cell_length_a 30.721731
_cell_length_b 13.563011
_cell_length_c 9.775259
_cell_angle_alpha 90.000000
_cell_angle_beta 37.080886
_cell_angle_gamma 90.000000
_cell_volume 2455.870819
_symmetry_space_group_name_H-M "C 2/M"
_symmetry_group_IT_number 12
_symmetry_cell_setting 'monoclinic'
loop_
_space_group_symop_operation_xyz
x,y,z
-x,y,-z
-x,-y,-z
x,-y,z
1/2+x,1/2+y,z
1/2-x,1/2+y,-z
1/2-x,1/2-y,-z
1/2+x,1/2-y,z
loop_
_atom_site_type_symbol
_atom_site_label
_atom_site_fract_x
_atom_site_fract_y
_atom_site_fract_z
Si Si1 0.338777 0.110958 0.946015
Si Si2 0.000000 0.249705 0.000000
Si Si3 0.765988 0.108413 0.530600
Si Si4 0.345634 0.802487 0.390765
Si Si5 0.013327 0.884570 0.697819
Si Si6 0.728700 0.115118 0.178968
Si Si7 0.106964 0.180666 0.205137
O O1 0.290781 0.124812 0.930836
O O2 0.394243 0.201152 0.811028
O O3 0.370000 0.000000 0.864967
O O4 0.284794 0.117100 0.209144
O O5 0.070705 0.315561 0.847819
O O6 0.014840 0.181410 0.830143
O O7 0.710925 0.127879 0.545190
O O8 0.824924 0.193294 0.391758
O O9 0.798251 0.000000 0.442313
O O10 0.326476 0.818792 0.596451
O O11 0.072302 0.851193 0.436531
O O12 0.938383 0.868455 0.803190
O O13 0.023326 0.000000 0.704166
O O14 0.719996 0.000000 0.236509
O O15 0.809897 0.148342 0.006212
#
# Coordination Sequence:
#
# PCOD9208180 Si02
#       7
#     8   4   8   8   8   8   8
#     4  10  21  37  62  95 124 157 209 268 318 374
#     4  12  27  42  63  94 136 174 213 268 329 390
#     4  10  22  41  65  93 125 168 217 266 320 383
#     4  11  24  43  63  94 131 170 218 265 329 387
#     4  11  25  42  62  93 131 171 212 260 329 393
#     4  11  22  38  66  97 125 163 218 270 321 381
#     4  11  21  42  65  91 128 171 210 266 321 391
#
# _framework density 21.173750999999999
#
# number of rings (size 3 to 8) (size 9 to 14) (size 15 to 20)
#    0.000    1.231    1.538    4.846    4.308    1.231 
#    0.000    3.077    0.000   11.077    0.000    0.000 
#    0.000    0.000    0.000    0.000    0.000    0.000 
#
# Total GULP energy -145452.741707 kJ/mol
# GULP energy per Si atom -5594.336219 kJ/mol
# Density = 2.112556 g / cm^3
# Si number density = 21.173751 Si / 1000 Ang^3
#
#
#
# Elastic Constant Matrix: (Units=GPa)
#
#
# Indices 1 2 3 4 5 6 
#
# 1 -36.7306 14.7694 -12.6329 0.0000 80.2148 0.0000
# 2 14.7694 44.0756 -3.9824 0.0000 -34.4456 0.0000
# 3 -12.6329 -3.9824 45.2382 0.0000 17.6769 0.0000
# 4 0.0000 0.0000 0.0000 14.6427 0.0000 8.2875
# 5 80.2148 -34.4456 17.6769 0.0000 -24.2714 0.0000
# 6 0.0000 0.0000 0.0000 8.2875 0.0000 12.6025
#
#
#
# Elastic Compliance Matrix: (Units=1/GPa)
#
#
# Indices 1 2 3 4 5 6 
#
# 1 0.008452 0.008209 -0.002553 0.000000 0.014423 0.000000
# 2 0.008209 0.020725 0.003899 0.000000 0.000557 0.000000
# 3 -0.002553 0.003899 0.021170 0.000000 0.001447 0.000000
# 4 0.000000 0.000000 0.000000 0.108781 0.000000 -0.071535
# 5 0.014423 0.000557 0.001447 0.000000 0.006730 0.000000
# 6 0.000000 0.000000 0.000000 -0.071535 0.000000 0.126391
#
#
# Mechanical properties :
#
#
# Convention : Reuss Voigt Hill
#
# Bulk Modulus (GPa) = 14.39729 5.43237 9.91483
# Shear Modulus (GPa) = 16.87532 4.22337 10.54934
#
# Velocity S-wave (km/s) = 2.82617 1.41384 2.23452
# Velocity P-wave (km/s) = 4.17899 2.28833 3.36901
#
# Compressibility (1/GPa) = 0.06945750
#
# Stress axis : x y z
#
# Youngs Moduli (GPa) = 118.31758 48.25057 47.23651
#
# Poissons Ratio (x) = -0.39609 0.12059
# Poissons Ratio (y) = -0.97127 -0.18418
# Poissons Ratio (z) = 0.30206 -0.18814
#
# Static dielectric constant tensor:
#      x y z
#    x 1.749700 0.000000 0.010920 
#    y 0.000000 1.778710 0.000000 
#    z 0.010920 0.000000 1.734050 
# 
# From -- ./inp_files/111896.got.cif
#   From: 2010.05.17/outbox.cif.g08.bks.cpg/sg12_56_cif.got.tgz:111896.got - 2010.06.03 13:09:07.
