data_PCOD9208413
_publ_section_title
;
Structure prediction by ZEFSAII (Michael W. Deem and Ramdas Pophale) SiO2 
 PCOD9208413
Probable space group: C 2/M
;
_chemical_formula_sum "Si O2"
_cell_formula_units_Z 58
_cell_length_a 16.496906
_cell_length_b 9.922525
_cell_length_c 16.871418
_cell_angle_alpha 90.000000
_cell_angle_beta 86.033767
_cell_angle_gamma 90.000000
_cell_volume 2755.084344
_symmetry_space_group_name_H-M "C 2/M"
_symmetry_group_IT_number 12
_symmetry_cell_setting 'monoclinic'
loop_
_space_group_symop_operation_xyz
x,y,z
-x,y,-z
-x,-y,-z
x,-y,z
1/2+x,1/2+y,z
1/2-x,1/2+y,-z
1/2-x,1/2-y,-z
1/2+x,1/2-y,z
loop_
_atom_site_type_symbol
_atom_site_label
_atom_site_fract_x
_atom_site_fract_y
_atom_site_fract_z
Si Si1 0.688869 0.153192 0.458549
Si Si2 0.064370 0.737810 0.590161
Si Si3 0.402411 0.154949 0.689377
Si Si4 0.730830 0.660646 0.881563
Si Si5 0.862139 0.157591 0.961507
Si Si6 0.500000 0.500000 0.500000
Si Si7 0.032738 0.155351 0.183606
Si Si8 0.853521 0.158801 0.266743
O O1 0.750000 0.250000 0.500000
O O2 0.606163 0.159738 0.515547
O O3 0.664897 0.195934 0.371154
O O4 0.719395 0.000000 0.454786
O O5 0.033347 0.880811 0.558468
O O6 0.132828 0.764095 0.652593
O O7 0.988585 0.666545 0.637280
O O8 0.413482 0.248512 0.764548
O O9 0.387515 0.000000 0.712465
O O10 0.748053 0.500000 0.879842
O O11 0.800360 0.745826 0.919026
O O12 0.712467 0.703647 0.793102
O O13 0.652235 0.680602 0.944489
O O14 0.947028 0.177254 0.910253
O O15 0.839902 0.000000 0.950798
O O16 0.939829 0.172542 0.215226
O O17 0.053338 0.000000 0.200828
O O18 0.840678 0.000000 0.283421
#
# Coordination Sequence:
#
# PCOD9208413 Si02
#       8
#     8   8   8   8   8   2   8   8
#     4  11  25  39  55  78 109 142 181 227 273 322
#     4  11  21  36  59  83 109 144 183 220 273 325
#     4  10  21  38  57  78 106 140 179 223 271 323
#     4   9  18  33  54  75 105 142 175 214 260 316
#     4   9  18  34  53  77 104 140 178 213 262 317
#     4  12  20  32  66  88 104 150 184 228 264 338
#     4   9  19  33  54  79 105 133 174 221 263 316
#     4   9  18  32  52  82 107 132 174 221 263 310
#
# _framework density 21.051987
#
# number of rings (size 3 to 8) (size 9 to 14) (size 15 to 20)
#    0.000    2.207    2.069    0.414    1.931    3.862 
#    0.000   10.345    0.000    0.000    0.000    7.724 
#    0.000    0.000    0.000    0.000    0.000    0.000 
#
# Total GULP energy -161626.163040 kJ/mol
# GULP energy per Si atom -5573.315967 kJ/mol
# Density = 2.100407 g / cm^3
# Si number density = 21.051987 Si / 1000 Ang^3
#
#
#
# Elastic Constant Matrix: (Units=GPa)
#
#
# Indices 1 2 3 4 5 6 
#
# 1 37.5930 11.5079 13.0572 0.0000 -0.3737 0.0000
# 2 11.5079 45.7957 16.4721 0.0000 10.0468 0.0000
# 3 13.0572 16.4721 106.7603 0.0000 5.2523 0.0000
# 4 0.0000 0.0000 0.0000 22.8612 0.0000 5.0284
# 5 -0.3737 10.0468 5.2523 0.0000 46.6819 0.0000
# 6 0.0000 0.0000 0.0000 5.0284 0.0000 12.7146
#
#
#
# Elastic Compliance Matrix: (Units=1/GPa)
#
#
# Indices 1 2 3 4 5 6 
#
# 1 0.029670 -0.006946 -0.002657 0.000000 0.002031 0.000000
# 2 -0.006946 0.025771 -0.002867 0.000000 -0.005279 0.000000
# 3 -0.002657 -0.002867 0.010161 0.000000 -0.000547 0.000000
# 4 0.000000 0.000000 0.000000 0.047910 0.000000 -0.018948
# 5 0.002031 -0.005279 -0.000547 0.000000 0.022636 0.000000
# 6 0.000000 0.000000 0.000000 -0.018948 0.000000 0.086143
#
#
# Mechanical properties :
#
#
# Convention : Reuss Voigt Hill
#
# Bulk Modulus (GPa) = 24.59267 30.24705 27.41986
# Shear Modulus (GPa) = 19.17293 26.39231 22.78262
#
# Velocity S-wave (km/s) = 3.02112 3.54457 3.29326
# Velocity P-wave (km/s) = 4.88639 5.58130 5.24537
#
# Compressibility (1/GPa) = 0.04066253
#
# Stress axis : x y z
#
# Youngs Moduli (GPa) = 33.70412 38.80348 98.41521
#
# Poissons Ratio (x) = 0.26952 0.26149
# Poissons Ratio (y) = 0.23410 0.28216
# Poissons Ratio (z) = 0.08955 0.11125
#
# Static dielectric constant tensor:
#      x y z
#    x 1.825030 0.000000 -0.047610 
#    y 0.000000 1.698770 0.000000 
#    z -0.047610 0.000000 1.767340 
# 
# From -- ./inp_files/275410.got.cif
#   From: 2010.05.17/outbox.cif.g08.bks.cpg/sg12_138_cif.got.tgz:275410.got - 2010.06.03 13:09:07.
