data_PCOD9208349
_publ_section_title
;
Structure prediction by ZEFSAII (Michael W. Deem and Ramdas Pophale) SiO2 
 PCOD9208349
Probable space group: C 2/M
;
_chemical_formula_sum "Si O2"
_cell_formula_units_Z 40
_cell_length_a 22.276865
_cell_length_b 22.906100
_cell_length_c 5.064861
_cell_angle_alpha 90.000000
_cell_angle_beta 53.548418
_cell_angle_gamma 90.000000
_cell_volume 2078.848337
_symmetry_space_group_name_H-M "C 2/M"
_symmetry_group_IT_number 12
_symmetry_cell_setting 'monoclinic'
loop_
_space_group_symop_operation_xyz
x,y,z
-x,y,-z
-x,-y,-z
x,-y,z
1/2+x,1/2+y,z
1/2-x,1/2+y,-z
1/2-x,1/2-y,-z
1/2+x,1/2-y,z
loop_
_atom_site_type_symbol
_atom_site_label
_atom_site_fract_x
_atom_site_fract_y
_atom_site_fract_z
Si Si1 0.220931 0.500000 0.496498
Si Si2 0.292723 0.693109 0.785052
Si Si3 0.049686 0.252102 0.608717
Si Si4 0.573836 0.882109 0.629590
Si Si5 0.621371 0.000000 0.251646
Si Si6 0.760639 0.625702 0.580110
O O1 0.191776 0.500000 0.270720
O O2 0.262655 0.560308 0.437670
O O3 0.149691 0.500000 0.879305
O O4 0.377851 0.713073 0.535699
O O5 0.259432 0.670361 0.597780
O O6 0.250000 0.750000 0.000000
O O7 0.278058 0.645115 0.048104
O O8 0.071627 0.319630 0.488169
O O9 0.000000 0.229269 0.500000
O O10 0.000000 0.254271 0.000000
O O11 0.650178 0.877721 0.600732
O O12 0.580344 0.939629 0.431394
O O13 0.500000 0.887466 0.000000
#
# Coordination Sequence:
#
# PCOD9208349 Si02
#       6
#     4   8   8   8   4   8
#     4  10  22  38  61  84 122 151 208 248 292 351
#     4  12  24  39  64  88 122 156 202 244 304 355
#     4  11  25  40  59  88 120 158 200 246 298 355
#     4  10  22  36  58  82 126 165 210 241 286 336
#     4  10  21  38  52  82 118 171 210 240 276 331
#     4  11  23  40  60  90 118 162 200 249 297 350
#
# _framework density 19.241422
#
# number of rings (size 3 to 8) (size 9 to 14) (size 15 to 20)
#    0.000    1.200    2.000    4.500    5.600    3.200 
#    0.000    4.500    0.000    0.000    0.000   14.000 
#    0.000    0.000    0.000    0.000    0.000    0.000 
#
# Total GULP energy -111836.224851 kJ/mol
# GULP energy per Si atom -5591.811243 kJ/mol
# Density = 1.919763 g / cm^3
# Si number density = 19.241422 Si / 1000 Ang^3
#
#
#
# Elastic Constant Matrix: (Units=GPa)
#
#
# Indices 1 2 3 4 5 6 
#
# 1 104.5668 30.6529 29.7568 0.0000 -3.8120 0.0000
# 2 30.6529 88.4745 36.1615 0.0000 -20.1037 0.0000
# 3 29.7568 36.1615 87.1534 0.0000 -8.5585 0.0000
# 4 0.0000 0.0000 0.0000 39.3496 0.0000 -2.7325
# 5 -3.8120 -20.1037 -8.5585 0.0000 27.2793 0.0000
# 6 0.0000 0.0000 0.0000 -2.7325 0.0000 23.1349
#
#
#
# Elastic Compliance Matrix: (Units=1/GPa)
#
#
# Indices 1 2 3 4 5 6 
#
# 1 0.011188 -0.003147 -0.002671 0.000000 -0.001593 0.000000
# 2 -0.003147 0.016731 -0.004849 0.000000 0.010369 0.000000
# 3 -0.002671 -0.004849 0.014456 0.000000 0.000588 0.000000
# 4 0.000000 0.000000 0.000000 0.025623 0.000000 0.003026
# 5 -0.001593 0.010369 0.000588 0.000000 0.044261 0.000000
# 6 0.000000 0.000000 0.000000 0.003026 0.000000 0.043582
#
#
# Mechanical properties :
#
#
# Convention : Reuss Voigt Hill
#
# Bulk Modulus (GPa) = 47.52630 52.59303 50.05966
# Shear Modulus (GPa) = 27.14614 30.19430 28.67022
#
# Velocity S-wave (km/s) = 3.76016 3.96565 3.86427
# Velocity P-wave (km/s) = 6.60344 6.95422 6.78109
#
# Compressibility (1/GPa) = 0.02104098
#
# Stress axis : x y z
#
# Youngs Moduli (GPa) = 89.38499 59.76920 69.17650
#
# Poissons Ratio (x) = 0.18807 0.18475
# Poissons Ratio (y) = 0.28125 0.33547
# Poissons Ratio (z) = 0.23872 0.28985
#
# Static dielectric constant tensor:
#      x y z
#    x 1.669870 0.000000 0.013180 
#    y 0.000000 1.714020 0.000000 
#    z 0.013180 0.000000 1.652130 
# 
# From -- ./inp_files/21141.got.cif
#   From: 2010.05.17/outbox.cif.g08.bks.cpg/sg12_11_cif.got.tgz:21141.got - 2010.06.03 13:09:07.
