data_PCOD9208396
_publ_section_title
;
Structure prediction by ZEFSAII (Michael W. Deem and Ramdas Pophale) SiO2 
 PCOD9208396
Probable space group: C 2/M
;
_chemical_formula_sum "Si O2"
_cell_formula_units_Z 40
_cell_length_a 14.491222
_cell_length_b 20.963691
_cell_length_c 16.597985
_cell_angle_alpha 90.000000
_cell_angle_beta 160.770022
_cell_angle_gamma 90.000000
_cell_volume 1660.733407
_symmetry_space_group_name_H-M "C 2/M"
_symmetry_group_IT_number 12
_symmetry_cell_setting 'monoclinic'
loop_
_space_group_symop_operation_xyz
x,y,z
-x,y,-z
-x,-y,-z
x,-y,z
1/2+x,1/2+y,z
1/2-x,1/2+y,-z
1/2-x,1/2-y,-z
1/2+x,1/2-y,z
loop_
_atom_site_type_symbol
_atom_site_label
_atom_site_fract_x
_atom_site_fract_y
_atom_site_fract_z
Si Si1 0.598618 0.298463 0.818779
Si Si2 0.438760 0.433568 0.206984
Si Si3 0.978127 0.709219 0.384448
Si Si4 0.445235 0.069100 0.359487
Si Si5 0.801548 0.926629 0.271861
O O1 0.720039 0.368252 0.939042
O O2 0.279214 0.299504 0.588205
O O3 0.633332 0.270839 0.756718
O O4 0.750000 0.250000 0.000000
O O5 0.294754 0.500000 0.065181
O O6 0.744646 0.432943 0.421895
O O7 0.472280 0.431654 0.330519
O O8 0.825890 0.640146 0.242686
O O9 0.000000 0.717530 0.500000
O O10 0.500000 0.069138 0.500000
O O11 0.307915 0.000000 0.224413
O O12 0.000000 0.893927 0.500000
O O13 0.741320 0.000000 0.250968
O O14 0.500000 0.899104 0.000000
#
# Coordination Sequence:
#
# PCOD9208396 Si02
#       5
#     8   8   8   8   8
#     4  10  21  38  56  83 114 145 190 239 287 354
#     4   9  18  35  56  82 115 152 191 242 300 357
#     4   9  19  37  58  81 112 149 186 232 287 351
#     4   8  14  29  57  86 110 142 186 236 292 352
#     4   9  18  35  56  84 121 158 200 249 300 360
#
# _framework density 24.085743000000001
#
# number of rings (size 3 to 8) (size 9 to 14) (size 15 to 20)
#    0.000    3.000    0.000    0.000    0.000    1.600 
#   14.400    1.000    0.000    0.000    0.000   14.000 
#    0.000    0.000    0.000    0.000    0.000    0.000 
#
# Total GULP energy -111359.575429 kJ/mol
# GULP energy per Si atom -5567.978771 kJ/mol
# Density = 2.403092 g / cm^3
# Si number density = 24.085743 Si / 1000 Ang^3
#
#
#
# Elastic Constant Matrix: (Units=GPa)
#
#
# Indices 1 2 3 4 5 6 
#
# 1 164.8145 25.0068 32.8674 -0.0019 10.7096 -0.0008
# 2 25.0068 229.6859 21.7411 -0.0006 -9.8760 0.0000
# 3 32.8674 21.7411 63.6223 -0.0046 -1.8991 -0.0016
# 4 -0.0019 -0.0006 -0.0046 -0.4518 -0.0019 0.0167
# 5 10.7096 -9.8760 -1.8991 -0.0019 28.7584 0.0005
# 6 -0.0008 0.0000 -0.0016 0.0167 0.0005 29.3967
#
#
#
# Elastic Compliance Matrix: (Units=1/GPa)
#
#
# Indices 1 2 3 4 5 6 
#
# 1 0.007059 -0.000564 -0.003545 0.000020 -0.003057 0.000000
# 2 -0.000564 0.004605 -0.001231 0.000002 0.001710 0.000000
# 3 -0.003545 -0.001231 0.018032 -0.000177 0.002088 0.000001
# 4 0.000020 0.000002 -0.000177 -2.213262 -0.000166 0.001257
# 5 -0.003057 0.001710 0.002088 -0.000166 0.036636 0.000000
# 6 0.000000 0.000000 0.000001 0.001257 0.000000 0.034017
#
#
# Mechanical properties :
#
#
# Convention : Reuss Voigt Hill
#
# Bulk Modulus (GPa) = 52.58940 68.59481 60.59210
# Shear Modulus (GPa) = -2.38562 36.77448 17.19443
#
# Velocity S-wave (km/s) = -0.99630 3.91169 2.67476
# Velocity P-wave (km/s) = 4.53411 6.99593 5.89496
#
# Compressibility (1/GPa) = 0.01901524
#
# Stress axis : x y z
#
# Youngs Moduli (GPa) = 141.67141 217.14150 55.45686
#
# Poissons Ratio (x) = 0.12255 0.19659
# Poissons Ratio (y) = 0.07996 0.06827
# Poissons Ratio (z) = 0.50220 0.26732
#
# Static dielectric constant tensor:
#      x y z
#    x 1.898790 0.000000 0.022450 
#    y 0.000000 2.118010 -0.000040 
#    z 0.022450 -0.000040 2.343520 
# 
# From -- ./inp_files/228020.got.cif
#   From: 2010.05.17/outbox.cif.g08.bks.cpg/sg12_115_cif.got.tgz:228020.got - 2010.06.03 13:09:07.
