data_PCOD9208468
_publ_section_title
;
Structure prediction by ZEFSAII (Michael W. Deem and Ramdas Pophale) SiO2 
 PCOD9208468
Probable space group: C 2/M
;
_chemical_formula_sum "Si O2"
_cell_formula_units_Z 64
_cell_length_a 12.290864
_cell_length_b 27.505316
_cell_length_c 13.863319
_cell_angle_alpha 90.000000
_cell_angle_beta 39.199888
_cell_angle_gamma 90.000000
_cell_volume 2962.118589
_symmetry_space_group_name_H-M "C 2/M"
_symmetry_group_IT_number 12
_symmetry_cell_setting 'monoclinic'
loop_
_space_group_symop_operation_xyz
x,y,z
-x,y,-z
-x,-y,-z
x,-y,z
1/2+x,1/2+y,z
1/2-x,1/2+y,-z
1/2-x,1/2-y,-z
1/2+x,1/2-y,z
loop_
_atom_site_type_symbol
_atom_site_label
_atom_site_fract_x
_atom_site_fract_y
_atom_site_fract_z
Si Si1 0.403433 0.287726 0.813372
Si Si2 0.762639 0.390786 0.550088
Si Si3 0.961614 0.125326 0.629600
Si Si4 0.016801 0.696945 0.378088
Si Si5 0.944250 0.556908 0.752728
Si Si6 0.095121 0.385596 0.831562
Si Si7 0.507489 0.220858 0.106823
Si Si8 0.682187 0.618603 0.828357
O O1 0.430754 0.335676 0.734284
O O2 0.442718 0.242729 0.715565
O O3 0.527821 0.271186 0.814499
O O4 0.208493 0.292075 0.986818
O O5 0.623710 0.402362 0.562695
O O6 0.686229 0.392738 0.710568
O O7 0.848980 0.337122 0.473249
O O8 0.919907 0.427395 0.423794
O O9 0.787222 0.096833 0.724962
O O10 0.000000 0.149298 0.500000
O O11 0.178495 0.661268 0.255150
O O12 0.000000 0.712616 0.500000
O O13 0.948137 0.500000 0.768132
O O14 0.761694 0.574780 0.837227
O O15 0.001151 0.585730 0.810763
O O16 0.099314 0.327940 0.799070
O O17 0.000000 0.386648 0.000000
O O18 0.500000 0.230442 0.000000
O O19 0.500000 0.631306 0.000000
#
# Coordination Sequence:
#
# PCOD9208468 Si02
#       8
#     8   8   8   8   8   8   8   8
#     4  11  22  34  60  91 123 169 236 267 310 367
#     4  10  23  43  64  97 135 179 217 265 345 398
#     4  12  24  41  65  94 127 182 225 271 322 390
#     4   9  20  39  59  92 132 176 221 273 317 384
#     4  11  24  46  75  98 127 172 218 273 342 418
#     4  11  23  46  69  92 139 173 216 270 343 398
#     4  10  21  38  57  87 126 171 210 274 325 377
#     4  10  23  41  70 101 138 173 214 275 342 393
#
# _framework density 21.606157
#
# number of rings (size 3 to 8) (size 9 to 14) (size 15 to 20)
#    0.000    1.500    3.750    3.000    1.750    6.500 
#    0.000    1.250    0.000    0.000    0.000    0.000 
#    0.000    0.000    0.000    0.000    0.000    0.000 
#
# Total GULP energy -178664.797878 kJ/mol
# GULP energy per Si atom -5583.274934 kJ/mol
# Density = 2.155698 g / cm^3
# Si number density = 21.606157 Si / 1000 Ang^3
#
#
#
# Elastic Constant Matrix: (Units=GPa)
#
#
# Indices 1 2 3 4 5 6 
#
# 1 107.8084 21.2667 27.5765 0.0000 7.7761 0.0000
# 2 21.2667 42.1385 0.6551 0.0000 9.9680 0.0000
# 3 27.5765 0.6551 98.3603 0.0000 0.7413 0.0000
# 4 0.0000 0.0000 0.0000 6.6413 0.0000 -0.4786
# 5 7.7761 9.9680 0.7413 0.0000 42.4557 0.0000
# 6 0.0000 0.0000 0.0000 -0.4786 0.0000 10.8556
#
#
#
# Elastic Compliance Matrix: (Units=1/GPa)
#
#
# Indices 1 2 3 4 5 6 
#
# 1 0.011191 -0.005429 -0.003096 0.000000 -0.000721 0.000000
# 2 -0.005429 0.027762 0.001379 0.000000 -0.005548 0.000000
# 3 -0.003096 0.001379 0.011025 0.000000 0.000051 0.000000
# 4 0.000000 0.000000 0.000000 0.151054 0.000000 0.006660
# 5 -0.000721 -0.005548 0.000051 0.000000 0.024988 0.000000
# 6 0.000000 0.000000 0.000000 0.006660 0.000000 0.092412
#
#
# Mechanical properties :
#
#
# Convention : Reuss Voigt Hill
#
# Bulk Modulus (GPa) = 28.02213 38.58931 33.30572
# Shear Modulus (GPa) = 14.50882 25.24445 19.87663
#
# Velocity S-wave (km/s) = 2.59417 3.42188 3.03636
# Velocity P-wave (km/s) = 4.68728 5.78891 5.26698
#
# Compressibility (1/GPa) = 0.03568608
#
# Stress axis : x y z
#
# Youngs Moduli (GPa) = 89.36107 36.02027 90.70223
#
# Poissons Ratio (x) = 0.19556 0.28080
# Poissons Ratio (y) = 0.48515 -0.12508
# Poissons Ratio (z) = 0.27665 -0.04967
#
# Static dielectric constant tensor:
#      x y z
#    x 5.985860 0.000000 -1.338960 
#    y 0.000000 1.773160 0.000000 
#    z -1.338960 0.000000 2.257150 
# 
# From -- ./inp_files/209858.got.cif
#   From: 2010.05.17/outbox.cif.g08.bks.cpg/sg12_105_cif.got.tgz:209858.got - 2010.06.03 13:09:07.
