data_PCOD9208675
_publ_section_title
;
Structure prediction by ZEFSAII (Michael W. Deem and Ramdas Pophale) SiO2 
 PCOD9208675
Probable space group: C 2/M
;
_chemical_formula_sum "Si O2"
_cell_formula_units_Z 56
_cell_length_a 18.483312
_cell_length_b 26.779423
_cell_length_c 6.462036
_cell_angle_alpha 90.000000
_cell_angle_beta 66.842552
_cell_angle_gamma 90.000000
_cell_volume 2940.816631
_symmetry_space_group_name_H-M "C 2/M"
_symmetry_group_IT_number 12
_symmetry_cell_setting 'monoclinic'
loop_
_space_group_symop_operation_xyz
x,y,z
-x,y,-z
-x,-y,-z
x,-y,z
1/2+x,1/2+y,z
1/2-x,1/2+y,-z
1/2-x,1/2-y,-z
1/2+x,1/2-y,z
loop_
_atom_site_type_symbol
_atom_site_label
_atom_site_fract_x
_atom_site_fract_y
_atom_site_fract_z
Si Si1 0.767280 0.442044 0.522369
Si Si2 0.675162 0.285158 0.561667
Si Si3 0.312998 0.123652 0.079739
Si Si4 0.677448 0.627523 0.890774
Si Si5 0.413594 0.941413 0.673145
Si Si6 0.083936 0.281687 0.949754
Si Si7 0.920230 0.808704 0.720877
O O1 0.758676 0.500000 0.473633
O O2 0.777589 0.406523 0.312829
O O3 0.694496 0.423699 0.748312
O O4 0.847466 0.436880 0.567853
O O5 0.750000 0.250000 0.500000
O O6 0.686746 0.330689 0.704446
O O7 0.603800 0.252065 0.729321
O O8 0.650872 0.302974 0.363081
O O9 0.349759 0.176875 0.096037
O O10 0.247524 0.130269 0.977560
O O11 0.382215 0.090718 0.899122
O O12 0.599797 0.644729 0.104376
O O13 0.500000 0.925604 0.500000
O O14 0.417884 0.000000 0.724972
O O15 0.079672 0.242118 0.143333
O O16 0.000000 0.306137 0.000000
O O17 0.000000 0.815309 0.500000
#
# Coordination Sequence:
#
# PCOD9208675 Si02
#       7
#     8   8   8   8   8   8   8
#     4  10  21  38  59  84 113 151 197 246 298 346
#     4  11  21  38  59  81 116 155 195 239 287 347
#     4  11  22  36  56  84 115 160 197 237 292 341
#     4  10  22  38  59  86 112 148 199 246 284 347
#     4   9  20  36  52  77 112 152 201 251 291 339
#     4  11  23  35  51  84 120 152 194 237 279 339
#     4  11  22  39  60  84 117 157 194 236 299 346
#
# _framework density 19.04233
#
# number of rings (size 3 to 8) (size 9 to 14) (size 15 to 20)
#    0.000    1.571    1.429    3.857    2.000    4.571 
#    0.000    2.143    0.000    0.429    0.000    4.000 
#    0.000    0.000    0.000    0.000    0.000    0.000 
#
# Total GULP energy -156241.655402 kJ/mol
# GULP energy per Si atom -5580.059121 kJ/mol
# Density = 1.899899 g / cm^3
# Si number density = 19.042330 Si / 1000 Ang^3
#
#
#
# Elastic Constant Matrix: (Units=GPa)
#
#
# Indices 1 2 3 4 5 6 
#
# 1 49.5714 22.7398 24.5247 0.0000 -3.5773 0.0000
# 2 22.7398 64.9327 33.5515 0.0000 -10.1360 0.0000
# 3 24.5247 33.5515 95.6713 0.0000 -9.2280 0.0000
# 4 0.0000 0.0000 0.0000 26.6412 0.0000 -8.7607
# 5 -3.5773 -10.1360 -9.2280 0.0000 24.5083 0.0000
# 6 0.0000 0.0000 0.0000 -8.7607 0.0000 19.3795
#
#
#
# Elastic Compliance Matrix: (Units=1/GPa)
#
#
# Indices 1 2 3 4 5 6 
#
# 1 0.025312 -0.006821 -0.004163 0.000000 -0.000694 0.000000
# 2 -0.006821 0.021388 -0.005183 0.000000 0.005898 0.000000
# 3 -0.004163 -0.005183 0.013565 0.000000 0.002356 0.000000
# 4 0.000000 0.000000 0.000000 0.044090 0.000000 0.019931
# 5 -0.000694 0.005898 0.002356 0.000000 0.044028 0.000000
# 6 0.000000 0.000000 0.000000 0.019931 0.000000 0.060611
#
#
# Mechanical properties :
#
#
# Convention : Reuss Voigt Hill
#
# Bulk Modulus (GPa) = 35.80513 41.31194 38.55854
# Shear Modulus (GPa) = 19.94900 22.72976 21.33938
#
# Velocity S-wave (km/s) = 3.24020 3.45866 3.35121
# Velocity P-wave (km/s) = 5.73081 6.13936 5.93860
#
# Compressibility (1/GPa) = 0.02792896
#
# Stress axis : x y z
#
# Youngs Moduli (GPa) = 39.50745 46.75411 73.72093
#
# Poissons Ratio (x) = 0.31893 0.30691
# Poissons Ratio (y) = 0.26950 0.38212
# Poissons Ratio (z) = 0.16448 0.24234
#
# Static dielectric constant tensor:
#      x y z
#    x 1.658650 0.000000 -0.034120 
#    y 0.000000 1.643710 0.000000 
#    z -0.034120 0.000000 1.687260 
# 
# From -- ./inp_files/17644.got.cif
#   From: 2010.05.17/outbox.cif.g08.bks.cpg/sg12_9_cif.got.tgz:17644.got - 2010.06.03 13:09:07.
