data_PCOD9208099
_publ_section_title
;
Structure prediction by ZEFSAII (Michael W. Deem and Ramdas Pophale) SiO2 
 PCOD9208099
Probable space group: C 2/M
;
_chemical_formula_sum "Si O2"
_cell_formula_units_Z 56
_cell_length_a 19.265598
_cell_length_b 14.559167
_cell_length_c 17.671197
_cell_angle_alpha 90.000000
_cell_angle_beta 31.334627
_cell_angle_gamma 90.000000
_cell_volume 2577.614163
_symmetry_space_group_name_H-M "C 2/M"
_symmetry_group_IT_number 12
_symmetry_cell_setting 'monoclinic'
loop_
_space_group_symop_operation_xyz
x,y,z
-x,y,-z
-x,-y,-z
x,-y,z
1/2+x,1/2+y,z
1/2-x,1/2+y,-z
1/2-x,1/2-y,-z
1/2+x,1/2-y,z
loop_
_atom_site_type_symbol
_atom_site_label
_atom_site_fract_x
_atom_site_fract_y
_atom_site_fract_z
Si Si1 0.652079 0.204046 0.265687
Si Si2 0.599369 0.301524 0.688288
Si Si3 0.660271 0.601100 0.472227
Si Si4 0.349970 0.209440 0.565890
Si Si5 0.248114 0.395524 0.885052
Si Si6 0.031172 0.602135 0.783794
Si Si7 0.658171 0.605535 0.027597
O O1 0.496681 0.175161 0.407851
O O2 0.696846 0.176311 0.308662
O O3 0.683239 0.312338 0.222975
O O4 0.734282 0.155012 0.123888
O O5 0.619898 0.360197 0.592983
O O6 0.737148 0.301365 0.607086
O O7 0.546431 0.197385 0.723142
O O8 0.485142 0.347488 0.844475
O O9 0.603958 0.500000 0.513479
O O10 0.623017 0.681403 0.450734
O O11 0.821071 0.595408 0.319153
O O12 0.273106 0.500000 0.834279
O O13 0.300188 0.388443 0.923095
O O14 0.087805 0.384320 0.045112
O O15 0.005292 0.500000 0.771887
O O16 0.649487 0.500000 0.014681
#
# Coordination Sequence:
#
# PCOD9208099 Si02
#       7
#     8   8   8   8   8   8   8
#     4  11  23  42  62  88 125 163 199 247 305 365
#     4  11  21  39  63  89 123 160 204 250 303 352
#     4  10  21  37  61  94 128 158 201 252 300 358
#     4  10  24  40  62  88 121 165 203 242 305 366
#     4  10  21  37  63  95 122 157 202 250 303 360
#     4   9  18  33  55  90 123 156 197 242 298 352
#     4  11  24  40  63  92 120 156 206 256 303 355
#
# _framework density 21.725517
#
# number of rings (size 3 to 8) (size 9 to 14) (size 15 to 20)
#    0.000    1.714    1.429    3.429    4.000    2.857 
#    0.000    5.714    0.000    5.143    0.000    0.000 
#    0.000    0.000    0.000    0.000    0.000    0.000 
#
# Total GULP energy -156288.190235 kJ/mol
# GULP energy per Si atom -5581.721080 kJ/mol
# Density = 2.167607 g / cm^3
# Si number density = 21.725517 Si / 1000 Ang^3
#
#
#
# Elastic Constant Matrix: (Units=GPa)
#
#
# Indices 1 2 3 4 5 6 
#
# 1 38.8267 9.9405 27.4709 -0.0001 6.1453 0.0000
# 2 9.9405 66.7289 28.3441 -0.0001 -7.2715 0.0000
# 3 27.4709 28.3441 127.5583 -0.0003 -20.7608 0.0001
# 4 -0.0001 -0.0001 -0.0003 -7.5727 0.0001 -5.3161
# 5 6.1453 -7.2715 -20.7608 0.0001 24.0438 0.0000
# 6 0.0000 0.0000 0.0001 -5.3161 0.0000 5.8233
#
#
#
# Elastic Compliance Matrix: (Units=1/GPa)
#
#
# Indices 1 2 3 4 5 6 
#
# 1 0.037029 -0.003206 -0.010425 0.000000 -0.019435 0.000000
# 2 -0.003206 0.016920 -0.002447 0.000000 0.003823 0.000000
# 3 -0.010425 -0.002447 0.012731 0.000000 0.012917 0.000000
# 4 0.000000 0.000000 0.000000 -0.080478 0.000000 -0.073468
# 5 -0.019435 0.003823 0.012917 0.000000 0.058868 0.000000
# 6 0.000000 0.000000 0.000000 -0.073468 0.000000 0.104655
#
#
# Mechanical properties :
#
#
# Convention : Reuss Voigt Hill
#
# Bulk Modulus (GPa) = 28.96622 40.51388 34.74005
# Shear Modulus (GPa) = 25.85485 15.61612 20.73549
#
# Velocity S-wave (km/s) = 3.45348 2.68394 3.09274
# Velocity P-wave (km/s) = 5.40960 5.31914 5.36456
#
# Compressibility (1/GPa) = 0.03452298
#
# Stress axis : x y z
#
# Youngs Moduli (GPa) = 27.00615 59.10316 78.54962
#
# Poissons Ratio (x) = 0.18947 0.81891
# Poissons Ratio (y) = 0.08657 0.19221
# Poissons Ratio (z) = 0.28155 0.14462
#
# Static dielectric constant tensor:
#      x y z
#    x 1.805550 0.000000 -0.011430 
#    y 0.000000 1.844890 0.000000 
#    z -0.011430 0.000000 1.820200 
# 
# From -- ./inp_files/284516.got.cif
#   From: 2010.05.17/outbox.cif.g08.bks.cpg/sg12_143_cif.got.tgz:284516.got - 2010.06.03 13:09:07.
