data_PCOD9208916
_publ_section_title
;
Structure prediction by ZEFSAII (Michael W. Deem and Ramdas Pophale) SiO2 
 PCOD9208916
Probable space group: C 2/M
;
_chemical_formula_sum "Si O2"
_cell_formula_units_Z 64
_cell_length_a 25.077705
_cell_length_b 14.098398
_cell_length_c 14.957793
_cell_angle_alpha 90.000000
_cell_angle_beta 34.980638
_cell_angle_gamma 90.000000
_cell_volume 3031.842968
_symmetry_space_group_name_H-M "C 2/M"
_symmetry_group_IT_number 12
_symmetry_cell_setting 'monoclinic'
loop_
_space_group_symop_operation_xyz
x,y,z
-x,y,-z
-x,-y,-z
x,-y,z
1/2+x,1/2+y,z
1/2-x,1/2+y,-z
1/2-x,1/2-y,-z
1/2+x,1/2-y,z
loop_
_atom_site_type_symbol
_atom_site_label
_atom_site_fract_x
_atom_site_fract_y
_atom_site_fract_z
Si Si1 0.607756 0.769595 0.850694
Si Si2 0.489293 0.394653 0.763148
Si Si3 0.911549 0.606673 0.961805
Si Si4 0.649240 0.756742 0.099906
Si Si5 0.101874 0.394410 0.318306
Si Si6 0.796049 0.712075 0.668004
Si Si7 0.596318 0.210729 0.669208
Si Si8 0.909670 0.106138 0.564387
O O1 0.686955 0.709971 0.792968
O O2 0.644526 0.789353 0.700022
O O3 0.500000 0.732769 0.000000
O O4 0.599366 0.865795 0.919884
O O5 0.479299 0.500000 0.816209
O O6 0.393961 0.344781 0.863492
O O7 0.542432 0.312259 0.743736
O O8 0.549619 0.403119 0.590674
O O9 0.886395 0.500000 0.978506
O O10 0.852458 0.679556 0.985291
O O11 0.016921 0.630590 0.786731
O O12 0.594910 0.816582 0.249680
O O13 0.750000 0.750000 0.000000
O O14 0.126579 0.500000 0.250327
O O15 0.171793 0.362714 0.301269
O O16 0.000000 0.398482 0.500000
O O17 0.848909 0.700807 0.499102
O O18 0.832793 0.812155 0.660083
O O19 0.000000 0.133275 0.500000
O O20 0.878141 0.000000 0.637272
#
# Coordination Sequence:
#
# PCOD9208916 Si02
#       8
#     8   8   8   8   8   8   8   8
#     4  10  22  39  58  83 117 158 203 252 302 345
#     4   9  18  33  54  79 108 146 192 240 291 346
#     4  10  21  38  60  86 118 156 199 246 298 355
#     4  11  22  37  57  85 121 158 195 239 294 360
#     4  11  23  39  61  91 126 160 195 240 297 363
#     4  11  20  36  60  87 120 159 203 244 293 358
#     4   9  20  37  59  83 114 155 199 251 300 346
#     4   9  17  30  52  84 118 150 188 237 292 348
#
# _framework density 21.109272000000001
#
# number of rings (size 3 to 8) (size 9 to 14) (size 15 to 20)
#    0.000    2.000    0.000    4.875    0.000    5.250 
#    0.000    1.875    0.000   14.250    0.000    0.000 
#    0.000    0.000    0.000    0.000    0.000    0.000 
#
# Total GULP energy -178491.691867 kJ/mol
# GULP energy per Si atom -5577.865371 kJ/mol
# Density = 2.106123 g / cm^3
# Si number density = 21.109272 Si / 1000 Ang^3
#
#
#
# Elastic Constant Matrix: (Units=GPa)
#
#
# Indices 1 2 3 4 5 6 
#
# 1 82.4844 -7.1915 11.5493 0.0000 -0.9453 0.0000
# 2 -7.1915 69.0196 9.6900 0.0000 -4.0675 0.0000
# 3 11.5493 9.6900 55.7977 0.0000 8.2184 0.0000
# 4 0.0000 0.0000 0.0000 -8.0737 0.0000 11.9044
# 5 -0.9453 -4.0675 8.2184 0.0000 42.3757 0.0000
# 6 0.0000 0.0000 0.0000 11.9044 0.0000 8.8248
#
#
#
# Elastic Compliance Matrix: (Units=1/GPa)
#
#
# Indices 1 2 3 4 5 6 
#
# 1 0.012730 0.001825 -0.003108 0.000000 0.001062 0.000000
# 2 0.001825 0.015276 -0.003348 0.000000 0.002156 0.000000
# 3 -0.003108 -0.003348 0.019769 0.000000 -0.004225 0.000000
# 4 0.000000 0.000000 0.000000 -0.041438 0.000000 0.055899
# 5 0.001062 0.002156 -0.004225 0.000000 0.024648 0.000000
# 6 0.000000 0.000000 0.000000 0.055899 0.000000 0.037911
#
#
# Mechanical properties :
#
#
# Convention : Reuss Voigt Hill
#
# Bulk Modulus (GPa) = 25.96558 26.15524 26.06041
# Shear Modulus (GPa) = 54.94720 21.50896 38.22808
#
# Velocity S-wave (km/s) = 5.10748 3.19554 4.26016
# Velocity P-wave (km/s) = 6.86361 5.10221 6.04738
#
# Compressibility (1/GPa) = 0.03851252
#
# Stress axis : x y z
#
# Youngs Moduli (GPa) = 78.55425 65.46216 50.58419
#
# Poissons Ratio (x) = -0.11949 0.15723
# Poissons Ratio (y) = -0.14339 0.16937
# Poissons Ratio (z) = 0.24417 0.21919
#
# Static dielectric constant tensor:
#      x y z
#    x 1.759290 0.000000 -0.140410 
#    y 0.000000 1.780490 0.000000 
#    z -0.140410 0.000000 1.224470 
# 
# From -- ./inp_files/240684.got.cif
#   From: 2010.05.17/outbox.cif.g08.bks.cpg/sg12_121_cif.got.tgz:240684.got - 2010.06.03 13:09:07.
