data_PCOD9208008
_publ_section_title
;
Structure prediction by ZEFSAII (Michael W. Deem and Ramdas Pophale) SiO2 
 PCOD9208008
Probable space group: C 2/M
;
_chemical_formula_sum "Si O2"
_cell_formula_units_Z 42
_cell_length_a 13.949001
_cell_length_b 14.858554
_cell_length_c 9.594039
_cell_angle_alpha 90.000000
_cell_angle_beta 109.829451
_cell_angle_gamma 90.000000
_cell_volume 1870.575705
_symmetry_space_group_name_H-M "C 2/M"
_symmetry_group_IT_number 12
_symmetry_cell_setting 'monoclinic'
loop_
_space_group_symop_operation_xyz
x,y,z
-x,y,-z
-x,-y,-z
x,-y,z
1/2+x,1/2+y,z
1/2-x,1/2+y,-z
1/2-x,1/2-y,-z
1/2+x,1/2-y,z
loop_
_atom_site_type_symbol
_atom_site_label
_atom_site_fract_x
_atom_site_fract_y
_atom_site_fract_z
Si Si1 0.137557 0.142548 0.515759
Si Si2 0.790959 0.100679 0.148451
Si Si3 0.640654 0.841565 0.473550
Si Si4 0.400600 0.789703 0.865210
Si Si5 0.000000 0.500000 0.500000
Si Si6 0.018875 0.897591 0.196212
O O1 0.172036 0.095948 0.672889
O O2 0.238626 0.143362 0.469630
O O3 0.118603 0.247401 0.537944
O O4 0.048541 0.106512 0.374763
O O5 0.700751 0.174516 0.105779
O O6 0.897579 0.120973 0.123687
O O7 0.754867 0.000000 0.089126
O O8 0.605682 0.831505 0.294221
O O9 0.585382 0.922091 0.518070
O O10 0.418384 0.683336 0.843872
O O11 0.500000 0.820324 0.000000
O O12 0.040819 0.000000 0.161346
#
# Coordination Sequence:
#
# PCOD9208008 Si02
#       6
#     8   8   8   8   2   8
#     4   9  18  37  58  85 124 160 187 238 319 374
#     4  10  21  37  61  88 120 159 203 255 300 363
#     4   9  22  37  57  90 128 152 189 256 309 352
#     4  10  23  42  62  85 122 169 209 243 298 365
#     4  12  24  36  62 100 128 146 204 270 302 360
#     4  10  21  37  61  91 119 155 204 255 309 355
#
# _framework density 22.45298
#
# number of rings (size 3 to 8) (size 9 to 14) (size 15 to 20)
#    0.000    2.286    0.000    2.286   12.000    3.048 
#    0.000    0.000    0.000    1.143    0.000    0.000 
#    0.000    0.000    0.000    0.000    0.000    0.000 
#
# Total GULP energy -116987.169948 kJ/mol
# GULP energy per Si atom -5570.817617 kJ/mol
# Density = 2.240188 g / cm^3
# Si number density = 22.452980 Si / 1000 Ang^3
#
#
#
# Elastic Constant Matrix: (Units=GPa)
#
#
# Indices 1 2 3 4 5 6 
#
# 1 103.7413 83.6970 7.4451 0.0000 42.3107 0.0000
# 2 83.6970 172.2434 -7.2389 0.0000 20.2539 0.0000
# 3 7.4451 -7.2389 76.9649 0.0000 22.1270 0.0000
# 4 0.0000 0.0000 0.0000 -3.9255 0.0000 12.4565
# 5 42.3107 20.2539 22.1270 0.0000 32.5871 0.0000
# 6 0.0000 0.0000 0.0000 12.4565 0.0000 19.4861
#
#
#
# Elastic Compliance Matrix: (Units=1/GPa)
#
#
# Indices 1 2 3 4 5 6 
#
# 1 0.040032 -0.013170 0.009292 0.000000 -0.050100 0.000000
# 2 -0.013170 0.010889 -0.000836 0.000000 0.010900 0.000000
# 3 0.009292 -0.000836 0.019055 0.000000 -0.024484 0.000000
# 4 0.000000 0.000000 0.000000 -0.084116 0.000000 0.053771
# 5 -0.050100 0.010900 -0.024484 0.000000 0.105587 0.000000
# 6 0.000000 0.000000 0.000000 0.053771 0.000000 0.016945
#
#
# Mechanical properties :
#
#
# Convention : Reuss Voigt Hill
#
# Bulk Modulus (GPa) = 16.51589 57.86180 37.18884
# Shear Modulus (GPa) = 36.23168 27.56596 31.89882
#
# Velocity S-wave (km/s) = 4.02141 3.50768 3.77330
# Velocity P-wave (km/s) = 5.37904 6.49856 5.96512
#
# Compressibility (1/GPa) = 0.06054776
#
# Stress axis : x y z
#
# Youngs Moduli (GPa) = 24.98024 91.83801 52.48097
#
# Poissons Ratio (x) = 1.20955 -0.48768
# Poissons Ratio (y) = 0.32900 0.04385
# Poissons Ratio (z) = -0.23213 0.07673
#
# Static dielectric constant tensor:
#      x y z
#    x 1.869860 0.000000 -0.026130 
#    y 0.000000 1.821420 0.000000 
#    z -0.026130 0.000000 1.859980 
# 
# From -- ./inp_files/142637.got.cif
#   From: 2010.05.17/outbox.cif.g08.bks.cpg/sg12_72_cif.got.tgz:142637.got - 2010.06.03 13:09:07.
