data_PCOD9208636
_publ_section_title
;
Structure prediction by ZEFSAII (Michael W. Deem and Ramdas Pophale) SiO2 
 PCOD9208636
Probable space group: C 2/M
;
_chemical_formula_sum "Si O2"
_cell_formula_units_Z 56
_cell_length_a 14.285792
_cell_length_b 8.905736
_cell_length_c 28.524592
_cell_angle_alpha 90.000000
_cell_angle_beta 129.715491
_cell_angle_gamma 90.000000
_cell_volume 2791.566647
_symmetry_space_group_name_H-M "C 2/M"
_symmetry_group_IT_number 12
_symmetry_cell_setting 'monoclinic'
loop_
_space_group_symop_operation_xyz
x,y,z
-x,y,-z
-x,-y,-z
x,-y,z
1/2+x,1/2+y,z
1/2-x,1/2+y,-z
1/2-x,1/2-y,-z
1/2+x,1/2-y,z
loop_
_atom_site_type_symbol
_atom_site_label
_atom_site_fract_x
_atom_site_fract_y
_atom_site_fract_z
Si Si1 0.560490 0.171945 0.950344
Si Si2 0.657865 0.819109 0.324694
Si Si3 0.817873 0.824751 0.869159
Si Si4 0.989755 0.173538 0.347835
Si Si5 0.299649 0.174157 0.764102
Si Si6 0.935606 0.183428 0.431742
Si Si7 0.308781 0.326537 0.089964
O O1 0.451413 0.279212 0.930375
O O2 0.602627 0.222236 0.911987
O O3 0.517075 0.000000 0.937584
O O4 0.679570 0.181126 0.020919
O O5 0.560936 0.761660 0.330800
O O6 0.637907 0.771883 0.264156
O O7 0.794136 0.770937 0.383513
O O8 0.657350 0.000000 0.323668
O O9 0.819660 0.773705 0.815930
O O10 0.718638 0.733067 0.867132
O O11 0.795652 0.000000 0.867264
O O12 0.845033 0.175419 0.292410
O O13 0.002873 0.231748 0.405397
O O14 0.029826 0.000000 0.359011
O O15 0.334238 0.000000 0.784344
O O16 0.000000 0.232903 0.500000
O O17 0.936584 0.000000 0.431176
O O18 0.348987 0.500000 0.102268
#
# Coordination Sequence:
#
# PCOD9208636 Si02
#       7
#     8   8   8   8   8   8   8
#     4  10  21  38  59  82 109 141 176 216 264 318
#     4   9  18  33  54  76 100 136 175 213 259 307
#     4  12  24  36  55  82 109 140 178 220 269 320
#     4   9  18  33  54  76 100 136 175 213 259 307
#     4   9  20  38  53  69 100 139 178 217 260 313
#     4   8  15  30  51  76 107 140 172 204 247 310
#     4  10  21  38  59  82 109 141 176 216 264 318
#
# _framework density 20.060421000000002
#
# number of rings (size 3 to 8) (size 9 to 14) (size 15 to 20)
#    0.000    2.429    0.000    4.286    0.000    6.286 
#    0.000    5.000    0.000    0.857    0.000    0.000 
#    0.000    0.000    0.000    0.000    0.000    0.000 
#
# Total GULP energy -156329.908795 kJ/mol
# GULP energy per Si atom -5583.211028 kJ/mol
# Density = 2.001476 g / cm^3
# Si number density = 20.060421 Si / 1000 Ang^3
#
#
#
# Elastic Constant Matrix: (Units=GPa)
#
#
# Indices 1 2 3 4 5 6 
#
# 1 78.0345 4.7246 16.8466 0.0000 -35.6499 0.0000
# 2 4.7246 45.9194 16.4311 0.0000 -11.2584 0.0000
# 3 16.8466 16.4311 71.5411 0.0000 -27.2458 0.0000
# 4 0.0000 0.0000 0.0000 17.9420 0.0000 -4.8473
# 5 -35.6499 -11.2584 -27.2458 0.0000 29.5720 0.0000
# 6 0.0000 0.0000 0.0000 -4.8473 0.0000 31.8491
#
#
#
# Elastic Compliance Matrix: (Units=1/GPa)
#
#
# Indices 1 2 3 4 5 6 
#
# 1 0.035178 0.005823 0.011360 0.000000 0.055092 0.000000
# 2 0.005823 0.025448 -0.001314 0.000000 0.015497 0.000000
# 3 0.011360 -0.001314 0.025619 0.000000 0.036798 0.000000
# 4 0.000000 0.000000 0.000000 0.058125 0.000000 0.008846
# 5 0.055092 0.015497 0.036798 0.000000 0.140034 0.000000
# 6 0.000000 0.000000 0.000000 0.008846 0.000000 0.032744
#
#
# Mechanical properties :
#
#
# Convention : Reuss Voigt Hill
#
# Bulk Modulus (GPa) = 8.47578 30.16663 19.32121
# Shear Modulus (GPa) = 15.39700 26.37213 20.88456
#
# Velocity S-wave (km/s) = 2.77344 3.62972 3.23008
# Velocity P-wave (km/s) = 3.80661 5.71288 4.85424
#
# Compressibility (1/GPa) = 0.11798326
#
# Stress axis : x y z
#
# Youngs Moduli (GPa) = 28.42659 39.29597 39.03352
#
# Poissons Ratio (x) = -0.22881 -0.44342
# Poissons Ratio (y) = -0.16552 0.05128
# Poissons Ratio (z) = -0.32293 0.05163
#
# Static dielectric constant tensor:
#      x y z
#    x 1.702610 0.000000 0.000370 
#    y 0.000000 1.670140 0.000000 
#    z 0.000370 0.000000 1.745700 
# 
# From -- ./inp_files/339045.got.cif
#   From: 2010.05.17/outbox.cif.g08.bks.cpg/sg12_170_cif.got.tgz:339045.got - 2010.06.03 13:09:07.
