data_PCOD9208020
_publ_section_title
;
Structure prediction by ZEFSAII (Michael W. Deem and Ramdas Pophale) SiO2 
 PCOD9208020
Probable space group: C 2/M
;
_chemical_formula_sum "Si O2"
_cell_formula_units_Z 48
_cell_length_a 8.450181
_cell_length_b 21.991458
_cell_length_c 13.181518
_cell_angle_alpha 90.000000
_cell_angle_beta 77.479176
_cell_angle_gamma 90.000000
_cell_volume 2391.288371
_symmetry_space_group_name_H-M "C 2/M"
_symmetry_group_IT_number 12
_symmetry_cell_setting 'monoclinic'
loop_
_space_group_symop_operation_xyz
x,y,z
-x,y,-z
-x,-y,-z
x,-y,z
1/2+x,1/2+y,z
1/2-x,1/2+y,-z
1/2-x,1/2-y,-z
1/2+x,1/2-y,z
loop_
_atom_site_type_symbol
_atom_site_label
_atom_site_fract_x
_atom_site_fract_y
_atom_site_fract_z
Si Si1 0.308290 0.187343 0.040178
Si Si2 0.129202 0.335045 0.555432
Si Si3 0.672905 0.336230 0.669054
Si Si4 0.811634 0.216814 0.722819
Si Si5 0.101031 0.429214 0.297408
Si Si6 0.148031 0.567302 0.058592
O O1 0.264521 0.190984 0.163980
O O2 0.500000 0.187426 0.000000
O O3 0.250000 0.250000 0.000000
O O4 0.249379 0.125686 0.992507
O O5 0.272815 0.344206 0.455178
O O6 0.208372 0.303567 0.640085
O O7 0.000000 0.300128 0.500000
O O8 0.026020 0.391580 0.615106
O O9 0.789733 0.289739 0.716647
O O10 0.493682 0.309020 0.697073
O O11 0.719816 0.401264 0.709038
O O12 0.092111 0.500000 0.324100
O O13 0.074381 0.421840 0.180771
O O14 0.227500 0.500000 0.049407
O O15 0.000000 0.563413 0.000000
#
# Coordination Sequence:
#
# PCOD9208020 Si02
#       6
#     8   8   8   8   8   8
#     4  11  22  37  60  88 121 157 201 250 308 370
#     4  10  21  37  61  89 118 157 202 248 301 364
#     4  11  23  38  60  87 122 161 205 252 307 365
#     4  12  23  40  61  90 126 159 203 258 314 368
#     4  10  21  40  64  90 123 163 206 251 305 370
#     4   9  18  35  60  88 116 152 202 251 298 362
#
# _framework density 20.072862000000001
#
# number of rings (size 3 to 8) (size 9 to 14) (size 15 to 20)
#    0.000    1.500    0.000    7.000    0.000    4.333 
#    0.000    1.667    0.000    7.500    0.000    0.000 
#    0.000    0.000    0.000    0.000    0.000    0.000 
#
# Total GULP energy -133784.669729 kJ/mol
# GULP energy per Si atom -5574.361239 kJ/mol
# Density = 2.002718 g / cm^3
# Si number density = 20.072862 Si / 1000 Ang^3
#
#
#
# Elastic Constant Matrix: (Units=GPa)
#
#
# Indices 1 2 3 4 5 6 
#
# 1 94.7427 29.9425 43.5595 0.0000 -6.2683 0.0000
# 2 29.9425 136.6744 39.0568 0.0000 -14.6858 0.0000
# 3 43.5595 39.0568 142.4003 0.0000 -16.6181 0.0000
# 4 0.0000 0.0000 0.0000 21.7130 0.0000 -8.5745
# 5 -6.2683 -14.6858 -16.6181 0.0000 18.0198 0.0000
# 6 0.0000 0.0000 0.0000 -8.5745 0.0000 16.7236
#
#
#
# Elastic Compliance Matrix: (Units=1/GPa)
#
#
# Indices 1 2 3 4 5 6 
#
# 1 0.012683 -0.001829 -0.003403 0.000000 -0.000218 0.000000
# 2 -0.001829 0.008626 -0.001188 0.000000 0.005298 0.000000
# 3 -0.003403 -0.001188 0.009120 0.000000 0.006258 0.000000
# 4 0.000000 0.000000 0.000000 0.057748 0.000000 0.029608
# 5 -0.000218 0.005298 0.006258 0.000000 0.065508 0.000000
# 6 0.000000 0.000000 0.000000 0.029608 0.000000 0.074976
#
#
# Mechanical properties :
#
#
# Convention : Reuss Voigt Hill
#
# Bulk Modulus (GPa) = 56.85837 66.54833 61.70335
# Shear Modulus (GPa) = 20.21297 28.70854 24.46075
#
# Velocity S-wave (km/s) = 3.17674 3.78592 3.49463
# Velocity P-wave (km/s) = 6.46862 7.23438 6.86219
#
# Compressibility (1/GPa) = 0.01758756
#
# Stress axis : x y z
#
# Youngs Moduli (GPa) = 78.84274 115.92500 109.65246
#
# Poissons Ratio (x) = 0.21208 0.37319
# Poissons Ratio (y) = 0.14424 0.13027
# Poissons Ratio (z) = 0.26834 0.13772
#
# Static dielectric constant tensor:
#      x y z
#    x 1.724170 0.000000 0.003060 
#    y 0.000000 1.819050 0.000000 
#    z 0.003060 0.000000 1.724600 
# 
# From -- ./inp_files/121830.got.cif
#   From: 2010.05.17/outbox.cif.g08.bks.cpg/sg12_61_cif.got.tgz:121830.got - 2010.06.03 13:09:07.
