data_PCOD9208170
_publ_section_title
;
Structure prediction by ZEFSAII (Michael W. Deem and Ramdas Pophale) SiO2 
 PCOD9208170
Probable space group: C 2/M
;
_chemical_formula_sum "Si O2"
_cell_formula_units_Z 48
_cell_length_a 19.420180
_cell_length_b 19.617851
_cell_length_c 16.104403
_cell_angle_alpha 90.000000
_cell_angle_beta 159.224069
_cell_angle_gamma 90.000000
_cell_volume 2176.345889
_symmetry_space_group_name_H-M "C 2/M"
_symmetry_group_IT_number 12
_symmetry_cell_setting 'monoclinic'
loop_
_space_group_symop_operation_xyz
x,y,z
-x,y,-z
-x,-y,-z
x,-y,z
1/2+x,1/2+y,z
1/2-x,1/2+y,-z
1/2-x,1/2-y,-z
1/2+x,1/2-y,z
loop_
_atom_site_type_symbol
_atom_site_label
_atom_site_fract_x
_atom_site_fract_y
_atom_site_fract_z
Si Si1 0.305896 0.712240 0.724435
Si Si2 0.625414 0.923690 0.459468
Si Si3 0.752171 0.147777 0.963462
Si Si4 0.595764 0.227112 0.944954
Si Si5 0.809596 0.842243 0.330358
Si Si6 0.837932 0.080054 0.525287
O O1 0.227772 0.637429 0.623525
O O2 0.381589 0.747280 0.725087
O O3 0.155679 0.766599 0.592356
O O4 0.500000 0.710788 0.000000
O O5 0.397000 0.913401 0.218672
O O6 0.689619 0.914023 0.435365
O O7 0.686688 0.000000 0.551959
O O8 0.642677 0.190520 0.912016
O O9 0.785327 0.201370 0.926484
O O10 0.962561 0.120609 0.229072
O O11 0.658125 0.174748 0.087192
O O12 0.757267 0.890129 0.347968
O O13 0.000000 0.869346 0.500000
O O14 0.882173 0.000000 0.565616
#
# Coordination Sequence:
#
# PCOD9208170 Si02
#       6
#     8   8   8   8   8   8
#     4  10  22  39  64  90 125 160 209 270 317 365
#     4  11  24  41  62  90 126 167 210 256 317 380
#     4  11  21  39  66  92 121 161 211 261 311 364
#     4  10  21  37  62  94 120 158 210 264 309 362
#     4  11  21  38  60  94 125 163 209 256 308 373
#     4  11  24  41  63  92 132 174 206 252 313 381
#
# _framework density 22.055316000000001
#
# number of rings (size 3 to 8) (size 9 to 14) (size 15 to 20)
#    0.000    1.333    3.333    2.500    2.333    2.000 
#    0.000    0.000    0.000   11.000    0.000    0.000 
#    0.000    0.000    0.000    0.000    0.000    0.000 
#
# Total GULP energy -134016.172397 kJ/mol
# GULP energy per Si atom -5584.007183 kJ/mol
# Density = 2.200512 g / cm^3
# Si number density = 22.055316 Si / 1000 Ang^3
#
#
#
# Elastic Constant Matrix: (Units=GPa)
#
#
# Indices 1 2 3 4 5 6 
#
# 1 53.7702 10.2108 13.3039 0.0000 5.7792 0.0000
# 2 10.2108 77.2787 -4.5345 0.0000 -3.4604 0.0000
# 3 13.3039 -4.5345 54.7855 0.0000 1.7645 0.0000
# 4 0.0000 0.0000 0.0000 30.4855 0.0000 3.1470
# 5 5.7792 -3.4604 1.7645 0.0000 30.8420 0.0000
# 6 0.0000 0.0000 0.0000 3.1470 0.0000 34.5390
#
#
#
# Elastic Compliance Matrix: (Units=1/GPa)
#
#
# Indices 1 2 3 4 5 6 
#
# 1 0.020937 -0.003252 -0.005225 0.000000 -0.003989 0.000000
# 2 -0.003252 0.013569 0.001847 0.000000 0.002026 0.000000
# 3 -0.005225 0.001847 0.019673 0.000000 0.000061 0.000000
# 4 0.000000 0.000000 0.000000 0.033114 0.000000 -0.003017
# 5 -0.003989 0.002026 0.000061 0.000000 0.033395 0.000000
# 6 0.000000 0.000000 0.000000 -0.003017 0.000000 0.029228
#
#
# Mechanical properties :
#
#
# Convention : Reuss Voigt Hill
#
# Bulk Modulus (GPa) = 24.43772 24.86610 24.65191
# Shear Modulus (GPa) = 28.27854 30.29691 29.28773
#
# Velocity S-wave (km/s) = 3.58462 3.71034 3.64802
# Velocity P-wave (km/s) = 5.31384 5.44558 5.38011
#
# Compressibility (1/GPa) = 0.04092035
#
# Stress axis : x y z
#
# Youngs Moduli (GPa) = 47.76325 73.69786 50.83179
#
# Poissons Ratio (x) = 0.23963 0.26559
# Poissons Ratio (y) = 0.15530 -0.09391
# Poissons Ratio (z) = 0.24955 -0.13615
#
# Static dielectric constant tensor:
#      x y z
#    x 1.839840 0.000000 -0.008530 
#    y 0.000000 1.800750 0.000000 
#    z -0.008530 0.000000 1.845740 
# 
# From -- ./inp_files/285439.got.cif
#   From: 2010.05.17/outbox.cif.g08.bks.cpg/sg12_143_cif.got.tgz:285439.got - 2010.06.03 13:09:07.
