data_PCOD9208418
_publ_section_title
;
Structure prediction by ZEFSAII (Michael W. Deem and Ramdas Pophale) SiO2 
 PCOD9208418
Probable space group: C 2/M
;
_chemical_formula_sum "Si O2"
_cell_formula_units_Z 64
_cell_length_a 14.555374
_cell_length_b 8.395157
_cell_length_c 28.330751
_cell_angle_alpha 90.000000
_cell_angle_beta 106.745475
_cell_angle_gamma 90.000000
_cell_volume 3315.062712
_symmetry_space_group_name_H-M "C 2/M"
_symmetry_group_IT_number 12
_symmetry_cell_setting 'monoclinic'
loop_
_space_group_symop_operation_xyz
x,y,z
-x,y,-z
-x,-y,-z
x,-y,z
1/2+x,1/2+y,z
1/2-x,1/2+y,-z
1/2-x,1/2-y,-z
1/2+x,1/2-y,z
loop_
_atom_site_type_symbol
_atom_site_label
_atom_site_fract_x
_atom_site_fract_y
_atom_site_fract_z
Si Si1 0.121202 0.812369 0.824363
Si Si2 0.305631 0.315472 0.902079
Si Si3 0.110896 0.194130 0.715736
Si Si4 0.391985 0.816681 0.006115
Si Si5 0.784904 0.191997 0.361659
Si Si6 0.475866 0.694447 0.443964
Si Si7 0.580892 0.308169 0.366374
Si Si8 0.997276 0.310314 0.110927
O O1 0.221058 0.783987 0.866015
O O2 0.128275 0.752631 0.771624
O O3 0.038646 0.727062 0.842298
O O4 0.099737 0.000000 0.820340
O O5 0.281131 0.500000 0.893587
O O6 0.404906 0.274847 0.889794
O O7 0.325599 0.277221 0.960096
O O8 0.186706 0.246245 0.687044
O O9 0.006207 0.241694 0.680875
O O10 0.113561 0.000000 0.716464
O O11 0.412647 0.758054 0.062015
O O12 0.359692 0.000000 0.002461
O O13 0.500000 0.814485 0.000000
O O14 0.682632 0.248778 0.363996
O O15 0.871334 0.243123 0.409190
O O16 0.785550 0.000000 0.361370
O O17 0.500000 0.750814 0.500000
O O18 0.476331 0.500000 0.444934
O O19 0.551757 0.743837 0.414974
O O20 0.581655 0.500000 0.366553
O O21 0.010033 0.500000 0.105836
#
# Coordination Sequence:
#
# PCOD9208418 Si02
#       8
#     8   8   8   8   8   8   8   8
#     4  11  22  37  56  77 103 135 174 218 265 313
#     4  11  22  36  55  80 108 137 171 210 257 313
#     4   8  18  36  53  70  97 134 171 210 256 308
#     4   8  16  33  55  76 102 136 170 207 252 305
#     4   9  17  32  53  75 100 133 174 212 251 301
#     4   8  15  29  49  73 105 143 174 202 245 304
#     4   9  17  32  53  75 100 132 173 214 253 300
#     4  10  21  38  57  79 107 136 170 212 259 312
#
# _framework density 19.305817999999999
#
# number of rings (size 3 to 8) (size 9 to 14) (size 15 to 20)
#    0.000    2.750    0.000    4.125    0.000    4.750 
#    0.000    7.500    0.000    0.750    0.000    0.000 
#    0.000    0.000    0.000    0.000    0.000    0.000 
#
# Total GULP energy -178533.179739 kJ/mol
# GULP energy per Si atom -5579.161867 kJ/mol
# Density = 1.926188 g / cm^3
# Si number density = 19.305818 Si / 1000 Ang^3
#
#
#
# Elastic Constant Matrix: (Units=GPa)
#
#
# Indices 1 2 3 4 5 6 
#
# 1 109.2567 0.9437 43.3224 0.0000 -11.2819 0.0000
# 2 0.9437 13.8705 6.5541 0.0000 -3.9716 0.0000
# 3 43.3224 6.5541 109.5882 0.0000 -27.0996 0.0000
# 4 0.0000 0.0000 0.0000 13.0136 0.0000 -0.1696
# 5 -11.2819 -3.9716 -27.0996 0.0000 18.0512 0.0000
# 6 0.0000 0.0000 0.0000 -0.1696 0.0000 31.2662
#
#
#
# Elastic Compliance Matrix: (Units=1/GPa)
#
#
# Indices 1 2 3 4 5 6 
#
# 1 0.010886 0.001479 -0.004181 0.000000 0.000852 0.000000
# 2 0.001479 0.077174 -0.001229 0.000000 0.016059 0.000000
# 3 -0.004181 -0.001229 0.016124 0.000000 0.021323 0.000000
# 4 0.000000 0.000000 0.000000 0.076848 0.000000 0.000417
# 5 0.000852 0.016059 0.021323 0.000000 0.091476 0.000000
# 6 0.000000 0.000000 0.000000 0.000417 0.000000 0.031986
#
#
# Mechanical properties :
#
#
# Convention : Reuss Voigt Hill
#
# Bulk Modulus (GPa) = 10.38187 37.15066 23.76626
# Shear Modulus (GPa) = 14.51533 24.59254 19.55394
#
# Velocity S-wave (km/s) = 2.74499 3.57296 3.18599
# Velocity P-wave (km/s) = 3.92885 6.02548 5.08637
#
# Compressibility (1/GPa) = 0.09632175
#
# Stress axis : x y z
#
# Youngs Moduli (GPa) = 91.86212 12.95776 62.01753
#
# Poissons Ratio (x) = -0.01916 0.25931
# Poissons Ratio (y) = -0.13586 0.07622
# Poissons Ratio (z) = 0.38409 0.01593
#
# Static dielectric constant tensor:
#      x y z
#    x 1.671090 0.000000 -0.019990 
#    y 0.000000 1.660200 0.000000 
#    z -0.019990 0.000000 1.681530 
# 
# From -- ./inp_files/375088.got.cif
#   From: 2010.05.17/outbox.cif.g08.bks.cpg/sg12_188_cif.got.tgz:375088.got - 2010.06.03 13:09:07.
