data_PCOD9208672
_publ_section_title
;
Structure prediction by ZEFSAII (Michael W. Deem and Ramdas Pophale) SiO2 
 PCOD9208672
Probable space group: C 2/M
;
_chemical_formula_sum "Si O2"
_cell_formula_units_Z 42
_cell_length_a 10.433352
_cell_length_b 7.746750
_cell_length_c 28.042342
_cell_angle_alpha 90.000000
_cell_angle_beta 54.977558
_cell_angle_gamma 90.000000
_cell_volume 1856.107141
_symmetry_space_group_name_H-M "C 2/M"
_symmetry_group_IT_number 12
_symmetry_cell_setting 'monoclinic'
loop_
_space_group_symop_operation_xyz
x,y,z
-x,y,-z
-x,-y,-z
x,-y,z
1/2+x,1/2+y,z
1/2-x,1/2+y,-z
1/2-x,1/2-y,-z
1/2+x,1/2-y,z
loop_
_atom_site_type_symbol
_atom_site_label
_atom_site_fract_x
_atom_site_fract_y
_atom_site_fract_z
Si Si1 0.225555 0.703606 0.237284
Si Si2 0.822763 0.207625 0.035425
Si Si3 0.069155 0.801539 0.368346
Si Si4 0.500000 0.000000 0.500000
Si Si5 0.780016 0.197316 0.563760
Si Si6 0.415249 0.209586 0.832295
O O1 0.194802 0.500000 0.247558
O O2 0.165548 0.783939 0.299117
O O3 0.410473 0.732460 0.192329
O O4 0.135807 0.768831 0.209503
O O5 0.710484 0.270552 0.101796
O O6 0.829515 0.000000 0.038742
O O7 0.750000 0.250000 0.000000
O O8 0.000000 0.274540 0.000000
O O9 0.172479 0.750590 0.391847
O O10 0.906569 0.702801 0.399710
O O11 0.026385 0.000000 0.384178
O O12 0.629989 0.154756 0.484389
O O13 0.829192 0.000000 0.543826
O O14 0.413969 0.000000 0.832377
#
# Coordination Sequence:
#
# PCOD9208672 Si02
#       6
#     8   8   8   2   8   8
#     4  11  23  38  64  92 123 163 208 265 317 381
#     4  10  21  38  59  83 120 164 206 260 317 377
#     4  11  24  45  68  98 133 172 215 265 332 388
#     4  12  26  48  72 100 136 180 218 270 326 378
#     4  11  26  46  69 101 135 174 220 271 321 394
#     4  10  22  39  57  89 124 160 209 260 318 380
#
# _framework density 22.628005999999999
#
# number of rings (size 3 to 8) (size 9 to 14) (size 15 to 20)
#    0.000    1.333    0.952    3.714    2.667    9.524 
#    0.000    0.000    0.000    0.000    0.000    0.000 
#    0.000    0.000    0.000    0.000    0.000    0.000 
#
# Total GULP energy -117307.066820 kJ/mol
# GULP energy per Si atom -5586.050801 kJ/mol
# Density = 2.257650 g / cm^3
# Si number density = 22.628006 Si / 1000 Ang^3
#
#
#
# Elastic Constant Matrix: (Units=GPa)
#
#
# Indices 1 2 3 4 5 6 
#
# 1 93.1106 9.1109 6.3550 0.0000 5.1856 0.0000
# 2 9.1109 71.3803 4.7826 0.0000 -6.3939 0.0000
# 3 6.3550 4.7826 83.1710 0.0000 3.1410 0.0000
# 4 0.0000 0.0000 0.0000 13.8124 0.0000 -13.4427
# 5 5.1856 -6.3939 3.1410 0.0000 45.7673 0.0000
# 6 0.0000 0.0000 0.0000 -13.4427 0.0000 27.3085
#
#
#
# Elastic Compliance Matrix: (Units=1/GPa)
#
#
# Indices 1 2 3 4 5 6 
#
# 1 0.011011 -0.001484 -0.000703 0.000000 -0.001407 0.000000
# 2 -0.001484 0.014454 -0.000802 0.000000 0.002242 0.000000
# 3 -0.000703 -0.000802 0.012156 0.000000 -0.000867 0.000000
# 4 0.000000 0.000000 0.000000 0.138982 0.000000 0.068414
# 5 -0.001407 0.002242 -0.000867 0.000000 0.022382 0.000000
# 6 0.000000 0.000000 0.000000 0.068414 0.000000 0.070296
#
#
# Mechanical properties :
#
#
# Convention : Reuss Voigt Hill
#
# Bulk Modulus (GPa) = 31.60389 32.01766 31.81077
# Shear Modulus (GPa) = 17.49431 32.53854 25.01643
#
# Velocity S-wave (km/s) = 2.78353 3.79618 3.32859
# Velocity P-wave (km/s) = 4.93232 5.77883 5.37228
#
# Compressibility (1/GPa) = 0.03164167
#
# Stress axis : x y z
#
# Youngs Moduli (GPa) = 90.81424 69.18703 82.26389
#
# Poissons Ratio (x) = 0.10270 0.05782
# Poissons Ratio (y) = 0.13481 0.06601
# Poissons Ratio (z) = 0.06383 0.05552
#
# Static dielectric constant tensor:
#      x y z
#    x 1.829060 0.000000 0.028640 
#    y 0.000000 1.836880 0.000000 
#    z 0.028640 0.000000 1.826130 
# 
# From -- ./inp_files/371833.got.cif
#   From: 2010.05.17/outbox.cif.g08.bks.cpg/sg12_186_cif.got.tgz:371833.got - 2010.06.03 13:09:07.
