data_PCOD9208912
_publ_section_title
;
Structure prediction by ZEFSAII (Michael W. Deem and Ramdas Pophale) SiO2 
 PCOD9208912
Probable space group: C 2/M
;
_chemical_formula_sum "Si O2"
_cell_formula_units_Z 56
_cell_length_a 20.882843
_cell_length_b 8.760673
_cell_length_c 18.096539
_cell_angle_alpha 90.000000
_cell_angle_beta 63.534198
_cell_angle_gamma 90.000000
_cell_volume 2963.759398
_symmetry_space_group_name_H-M "C 2/M"
_symmetry_group_IT_number 12
_symmetry_cell_setting 'monoclinic'
loop_
_space_group_symop_operation_xyz
x,y,z
-x,y,-z
-x,-y,-z
x,-y,z
1/2+x,1/2+y,z
1/2-x,1/2+y,-z
1/2-x,1/2-y,-z
1/2+x,1/2-y,z
loop_
_atom_site_type_symbol
_atom_site_label
_atom_site_fract_x
_atom_site_fract_y
_atom_site_fract_z
Si Si1 0.655022 0.817940 0.778438
Si Si2 0.068250 0.183176 0.685910
Si Si3 0.901768 0.184218 0.751731
Si Si4 0.827243 0.816151 0.941685
Si Si5 0.083341 0.815858 0.960488
Si Si6 0.825576 0.682995 0.488274
Si Si7 0.311556 0.182308 0.666353
O O1 0.603438 0.752761 0.741235
O O2 0.626746 0.760123 0.871785
O O3 0.734734 0.756661 0.722647
O O4 0.655334 0.000000 0.775724
O O5 0.112698 0.245317 0.593559
O O6 0.984820 0.222831 0.721227
O O7 0.074679 0.000000 0.686367
O O8 0.856648 0.233400 0.846919
O O9 0.868449 0.257714 0.696111
O O10 0.896723 0.000000 0.748531
O O11 0.822773 0.000000 0.942801
O O12 0.750000 0.750000 0.000000
O O13 0.882142 0.774187 0.978688
O O14 0.087797 0.000000 0.949971
O O15 0.000000 0.773112 0.000000
O O16 0.824981 0.500000 0.479433
O O17 0.750000 0.750000 0.500000
O O18 0.833421 0.718625 0.570948
O O19 0.304320 0.000000 0.675977
#
# Coordination Sequence:
#
# PCOD9208912 Si02
#       7
#     8   8   8   8   8   8   8
#     4  12  24  38  61  91 123 160 207 258 306 365
#     4  11  23  41  65  91 124 164 206 255 311 370
#     4  10  23  42  63  90 124 162 205 252 308 369
#     4  10  21  38  60  86 117 157 201 247 301 361
#     4  10  21  39  62  86 117 158 204 254 309 365
#     4  11  23  40  64  93 124 161 205 255 307 365
#     4  11  24  41  63  90 123 161 203 251 306 368
#
# _framework density 18.894922000000001
#
# number of rings (size 3 to 8) (size 9 to 14) (size 15 to 20)
#    0.000    1.286    1.429    4.286    0.000    9.429 
#    0.000    4.286    0.000    0.000    0.000    0.000 
#    0.000    0.000    0.000    0.000    0.000    0.000 
#
# Total GULP energy -156613.982242 kJ/mol
# GULP energy per Si atom -5593.356509 kJ/mol
# Density = 1.885192 g / cm^3
# Si number density = 18.894922 Si / 1000 Ang^3
#
#
#
# Elastic Constant Matrix: (Units=GPa)
#
#
# Indices 1 2 3 4 5 6 
#
# 1 92.6724 22.5301 17.8056 0.0000 11.5726 0.0000
# 2 22.5301 37.3991 25.1352 0.0000 7.3051 0.0002
# 3 17.8056 25.1352 99.9079 0.0000 10.9073 0.0000
# 4 0.0000 0.0000 0.0000 31.8422 0.0000 1.4145
# 5 11.5726 7.3051 10.9073 0.0000 35.6714 0.0000
# 6 0.0000 0.0002 0.0000 1.4145 0.0000 32.4548
#
#
#
# Elastic Compliance Matrix: (Units=1/GPa)
#
#
# Indices 1 2 3 4 5 6 
#
# 1 0.012891 -0.007097 -0.000221 0.000000 -0.002661 0.000000
# 2 -0.007097 0.036724 -0.007660 0.000000 -0.002876 0.000000
# 3 -0.000221 -0.007660 0.012204 0.000000 -0.002091 0.000000
# 4 0.000000 0.000000 0.000000 0.031466 0.000000 -0.001371
# 5 -0.002661 -0.002876 -0.002091 0.000000 0.030125 0.000000
# 6 0.000000 0.000000 0.000000 -0.001371 0.000000 0.030872
#
#
# Mechanical properties :
#
#
# Convention : Reuss Voigt Hill
#
# Bulk Modulus (GPa) = 31.38592 40.10234 35.74413
# Shear Modulus (GPa) = 25.65932 30.96092 28.31012
#
# Velocity S-wave (km/s) = 3.68910 4.05233 3.87498
# Velocity P-wave (km/s) = 5.89854 6.57002 6.24332
#
# Compressibility (1/GPa) = 0.03186142
#
# Stress axis : x y z
#
# Youngs Moduli (GPa) = 77.57355 27.22991 81.93914
#
# Poissons Ratio (x) = 0.19326 0.01814
# Poissons Ratio (y) = 0.55056 0.62768
# Poissons Ratio (z) = 0.01717 0.20859
#
# Static dielectric constant tensor:
#      x y z
#    x 1.621770 0.000000 0.006990 
#    y 0.000000 1.637960 0.000000 
#    z 0.006990 0.000000 1.627880 
# 
# From -- ./inp_files/280865.got.cif
#   From: 2010.05.17/outbox.cif.g08.bks.cpg/sg12_141_cif.got.tgz:280865.got - 2010.06.03 13:09:07.
