data_PCOD9208273
_publ_section_title
;
Structure prediction by ZEFSAII (Michael W. Deem and Ramdas Pophale) SiO2 
 PCOD9208273
Probable space group: C 2/M
;
_chemical_formula_sum "Si O2"
_cell_formula_units_Z 56
_cell_length_a 27.769488
_cell_length_b 17.253144
_cell_length_c 9.835622
_cell_angle_alpha 90.000000
_cell_angle_beta 145.785791
_cell_angle_gamma 90.000000
_cell_volume 2649.702580
_symmetry_space_group_name_H-M "C 2/M"
_symmetry_group_IT_number 12
_symmetry_cell_setting 'monoclinic'
loop_
_space_group_symop_operation_xyz
x,y,z
-x,y,-z
-x,-y,-z
x,-y,z
1/2+x,1/2+y,z
1/2-x,1/2+y,-z
1/2-x,1/2-y,-z
1/2+x,1/2-y,z
loop_
_atom_site_type_symbol
_atom_site_label
_atom_site_fract_x
_atom_site_fract_y
_atom_site_fract_z
Si Si1 0.230241 0.094103 0.432525
Si Si2 0.835225 0.699255 0.211698
Si Si3 0.081016 0.093595 0.279694
Si Si4 0.733545 0.590711 0.136666
Si Si5 0.579144 0.644646 0.587205
Si Si6 0.082307 0.587818 0.788993
Si Si7 0.575052 0.093769 0.080194
O O1 0.166989 0.121941 0.403264
O O2 0.199635 0.111851 0.207624
O O3 0.328083 0.122057 0.670608
O O4 0.231925 0.000000 0.447435
O O5 0.816949 0.640809 0.292586
O O6 0.909585 0.762273 0.394708
O O7 0.849898 0.646650 0.114294
O O8 0.750000 0.750000 0.000000
O O9 0.073356 0.116663 0.418876
O O10 0.082268 0.000000 0.279173
O O11 0.000000 0.119191 0.000000
O O12 0.755360 0.500000 0.187488
O O13 0.661782 0.608135 0.856087
O O14 0.500000 0.624849 0.500000
O O15 0.117691 0.500000 0.873187
O O16 0.000000 0.589174 0.500000
O O17 0.054588 0.607889 0.875436
O O18 0.577931 0.000000 0.107284
O O19 0.500000 0.125062 0.000000
#
# Coordination Sequence:
#
# PCOD9208273 Si02
#       7
#     8   8   8   8   8   8   8
#     4   9  19  35  58  88 125 156 192 258 317 367
#     4  10  23  39  59  85 125 165 207 253 307 370
#     4  10  21  38  64  96 126 159 207 264 319 372
#     4  10  21  38  65  94 120 158 211 260 312 369
#     4  11  23  40  63  88 129 169 206 255 313 380
#     4  10  21  37  64  91 117 156 212 267 313 367
#     4   9  19  34  55  89 125 155 195 254 323 374
#
# _framework density 21.134447999999999
#
# number of rings (size 3 to 8) (size 9 to 14) (size 15 to 20)
#    0.000    2.143    0.000    2.143    6.000    2.286 
#    0.000    0.714    6.286    0.000    0.000    0.000 
#    0.000    0.000    0.000    0.000    0.000    0.000 
#
# Total GULP energy -156321.430006 kJ/mol
# GULP energy per Si atom -5582.908214 kJ/mol
# Density = 2.108635 g / cm^3
# Si number density = 21.134448 Si / 1000 Ang^3
#
#
#
# Elastic Constant Matrix: (Units=GPa)
#
#
# Indices 1 2 3 4 5 6 
#
# 1 200.4242 40.0787 74.6368 0.0000 -8.4789 0.0000
# 2 40.0787 50.1840 4.8995 0.0000 -3.9963 0.0000
# 3 74.6368 4.8995 111.2942 0.0000 -19.1121 0.0000
# 4 0.0000 0.0000 0.0000 -12.1187 0.0000 15.3248
# 5 -8.4789 -3.9963 -19.1121 0.0000 34.2905 0.0000
# 6 0.0000 0.0000 0.0000 15.3248 0.0000 20.3598
#
#
#
# Elastic Compliance Matrix: (Units=1/GPa)
#
#
# Indices 1 2 3 4 5 6 
#
# 1 0.008208 -0.006155 -0.005538 0.000000 -0.001775 0.000000
# 2 -0.006155 0.024759 0.003619 0.000000 0.003380 0.000000
# 3 -0.005538 0.003619 0.013687 0.000000 0.006681 0.000000
# 4 0.000000 0.000000 0.000000 -0.042277 0.000000 0.031822
# 5 -0.001775 0.003380 0.006681 0.000000 0.032841 0.000000
# 6 0.000000 0.000000 0.000000 0.031822 0.000000 0.025164
#
#
# Mechanical properties :
#
#
# Convention : Reuss Voigt Hill
#
# Bulk Modulus (GPa) = 32.78321 66.79249 49.78785
# Shear Modulus (GPa) = 56.37001 24.65881 40.51441
#
# Velocity S-wave (km/s) = 5.17011 3.41949 4.38309
# Velocity P-wave (km/s) = 7.15440 6.87479 7.01599
#
# Compressibility (1/GPa) = 0.03050342
#
# Stress axis : x y z
#
# Youngs Moduli (GPa) = 121.83905 40.39012 73.06162
#
# Poissons Ratio (x) = 0.24862 0.40461
# Poissons Ratio (y) = 0.74998 -0.26438
# Poissons Ratio (z) = 0.67474 -0.14615
#
# Static dielectric constant tensor:
#      x y z
#    x 1.765870 0.000000 0.028160 
#    y 0.000000 1.744760 0.000000 
#    z 0.028160 0.000000 1.771450 
# 
# From -- ./inp_files/106014.got.cif
#   From: 2010.05.17/outbox.cif.g08.bks.cpg/sg12_54_cif.got.tgz:106014.got - 2010.06.03 13:09:07.
