data_PCOD9208474
_publ_section_title
;
Structure prediction by ZEFSAII (Michael W. Deem and Ramdas Pophale) SiO2 
 PCOD9208474
Probable space group: C 2/M
;
_chemical_formula_sum "Si O2"
_cell_formula_units_Z 48
_cell_length_a 20.468708
_cell_length_b 28.024244
_cell_length_c 12.328801
_cell_angle_alpha 90.000000
_cell_angle_beta 159.279029
_cell_angle_gamma 90.000000
_cell_volume 2502.212135
_symmetry_space_group_name_H-M "C 2/M"
_symmetry_group_IT_number 12
_symmetry_cell_setting 'monoclinic'
loop_
_space_group_symop_operation_xyz
x,y,z
-x,y,-z
-x,-y,-z
x,-y,z
1/2+x,1/2+y,z
1/2-x,1/2+y,-z
1/2-x,1/2-y,-z
1/2+x,1/2-y,z
loop_
_atom_site_type_symbol
_atom_site_label
_atom_site_fract_x
_atom_site_fract_y
_atom_site_fract_z
Si Si1 0.999769 0.443575 0.369070
Si Si2 0.801816 0.302096 0.631726
Si Si3 0.220016 0.225092 0.838409
Si Si4 0.907309 0.816265 0.081064
Si Si5 0.799568 0.879582 0.711224
Si Si6 0.304452 0.371324 0.140944
O O1 0.009464 0.500000 0.366380
O O2 0.156255 0.416228 0.542938
O O3 0.000000 0.435059 0.500000
O O4 0.810428 0.419003 0.038773
O O5 0.750000 0.250000 0.500000
O O6 0.626151 0.310621 0.438927
O O7 0.779974 0.345931 0.509963
O O8 0.000000 0.302177 0.000000
O O9 0.298098 0.172008 0.954825
O O10 0.000000 0.220753 0.500000
O O11 0.250000 0.250000 0.000000
O O12 0.315800 0.264640 0.915622
O O13 0.829341 0.847225 0.060597
O O14 0.858703 0.843840 0.897790
O O15 0.000000 0.903824 0.000000
O O16 0.500000 0.379755 0.500000
#
# Coordination Sequence:
#
# PCOD9208474 Si02
#       6
#     8   8   8   8   8   8
#     4  11  24  43  70  96 122 165 218 276 328 372
#     4  11  25  40  60  90 129 178 215 256 307 386
#     4   9  20  31  50  84 120 160 194 239 300 372
#     4  10  21  38  57  90 130 169 212 252 315 379
#     4  10  23  42  65  90 129 170 211 265 318 382
#     4  10  22  36  59  93 127 165 203 267 322 383
#
# _framework density 19.183025000000001
#
# number of rings (size 3 to 8) (size 9 to 14) (size 15 to 20)
#    0.000    1.833    1.667    1.500    9.333    6.000 
#    0.000    0.000    0.000    0.500    0.000    0.000 
#    0.000    0.000    0.000    0.000    0.000    0.000 
#
# Total GULP energy -133712.538657 kJ/mol
# GULP energy per Si atom -5571.355777 kJ/mol
# Density = 1.913936 g / cm^3
# Si number density = 19.183025 Si / 1000 Ang^3
#
#
#
# Elastic Constant Matrix: (Units=GPa)
#
#
# Indices 1 2 3 4 5 6 
#
# 1 70.3810 38.9218 31.3211 0.0000 21.0456 0.0000
# 2 38.9218 108.9046 60.3210 0.0000 18.0371 0.0000
# 3 31.3211 60.3210 126.6375 -0.0001 8.6300 -0.0001
# 4 0.0000 0.0000 -0.0001 20.8676 0.0000 -0.5638
# 5 21.0456 18.0371 8.6300 0.0000 28.6151 -0.0001
# 6 0.0000 0.0000 -0.0001 -0.5638 -0.0001 21.0867
#
#
#
# Elastic Compliance Matrix: (Units=1/GPa)
#
#
# Indices 1 2 3 4 5 6 
#
# 1 0.021294 -0.004246 -0.002409 0.000000 -0.012258 0.000000
# 2 -0.004246 0.014498 -0.005560 0.000000 -0.004339 0.000000
# 3 -0.002409 -0.005560 0.011007 0.000000 0.001957 0.000000
# 4 0.000000 0.000000 0.000000 0.047956 0.000000 0.001282
# 5 -0.012258 -0.004339 0.001957 0.000000 0.046107 0.000000
# 6 0.000000 0.000000 0.000000 0.001282 0.000000 0.047458
#
#
# Mechanical properties :
#
#
# Convention : Reuss Voigt Hill
#
# Bulk Modulus (GPa) = 44.70276 63.00566 53.85421
# Shear Modulus (GPa) = 22.70602 25.80449 24.25525
#
# Velocity S-wave (km/s) = 3.44416 3.67164 3.55972
# Velocity P-wave (km/s) = 6.25861 7.13375 6.71046
#
# Compressibility (1/GPa) = 0.02236998
#
# Stress axis : x y z
#
# Youngs Moduli (GPa) = 46.96185 68.97475 90.84804
#
# Poissons Ratio (x) = 0.29285 0.21884
# Poissons Ratio (y) = 0.19939 0.50512
# Poissons Ratio (z) = 0.11312 0.38350
#
# Static dielectric constant tensor:
#      x y z
#    x 2.409760 0.000000 0.387720 
#    y 0.000000 1.699100 0.000000 
#    z 0.387720 0.000000 1.931780 
# 
# From -- ./inp_files/170702.got.cif
#   From: 2010.05.17/outbox.cif.g08.bks.cpg/sg12_86_cif.got.tgz:170702.got - 2010.06.03 13:09:07.
