data_PCOD9208114
_publ_section_title
;
Structure prediction by ZEFSAII (Michael W. Deem and Ramdas Pophale) SiO2 
 PCOD9208114
Probable space group: C 2/M
;
_chemical_formula_sum "Si O2"
_cell_formula_units_Z 34
_cell_length_a 9.462951
_cell_length_b 14.105400
_cell_length_c 17.663856
_cell_angle_alpha 90.000000
_cell_angle_beta 139.449842
_cell_angle_gamma 90.000000
_cell_volume 1532.804199
_symmetry_space_group_name_H-M "C 2/M"
_symmetry_group_IT_number 12
_symmetry_cell_setting 'monoclinic'
loop_
_space_group_symop_operation_xyz
x,y,z
-x,y,-z
-x,-y,-z
x,-y,z
1/2+x,1/2+y,z
1/2-x,1/2+y,-z
1/2-x,1/2-y,-z
1/2+x,1/2-y,z
loop_
_atom_site_type_symbol
_atom_site_label
_atom_site_fract_x
_atom_site_fract_y
_atom_site_fract_z
Si Si1 0.726110 0.278500 0.260474
Si Si2 0.604837 0.388801 0.965130
Si Si3 0.315193 0.178947 0.594060
Si Si4 0.500000 0.500000 0.500000
Si Si5 0.086676 0.393846 0.120732
O O1 0.504865 0.331881 0.147300
O O2 0.717438 0.237616 0.341167
O O3 0.744180 0.186424 0.213333
O O4 0.931647 0.342245 0.321249
O O5 0.556141 0.500000 0.935702
O O6 0.500000 0.353460 0.000000
O O7 0.863163 0.381104 0.076176
O O8 0.250000 0.250000 0.500000
O O9 0.172305 0.084603 0.542940
O O10 0.173981 0.500000 0.168241
O O11 0.000000 0.386797 0.000000
#
# Coordination Sequence:
#
# PCOD9208114 Si02
#       5
#     8   8   8   2   8
#     4  12  23  41  73 100 139 187 242 290 353 432
#     4  10  21  38  59  99 143 183 230 278 341 419
#     4  12  27  50  73 106 137 184 245 305 373 429
#     4  12  28  56  78  94 152 184 230 336 376 406
#     4  10  21  37  61  98 143 186 227 279 342 417
#
# _framework density 22.181566
#
# number of rings (size 3 to 8) (size 9 to 14) (size 15 to 20)
#    0.000    0.941    2.353    4.235    3.294    0.000 
#    2.118    1.176    0.000    0.000    0.000    0.000 
#    0.000    0.000    0.000    0.000    0.000    0.000 
#
# Total GULP energy -94824.892013 kJ/mol
# GULP energy per Si atom -5577.934824 kJ/mol
# Density = 2.213108 g / cm^3
# Si number density = 22.181566 Si / 1000 Ang^3
#
#
#
# Elastic Constant Matrix: (Units=GPa)
#
#
# Indices 1 2 3 4 5 6 
#
# 1 82.9413 28.4387 12.1481 0.0000 -16.9995 0.0000
# 2 28.4387 149.3744 54.5449 0.0000 -6.7157 0.0000
# 3 12.1481 54.5449 55.7175 0.0000 -14.3787 0.0000
# 4 0.0000 0.0000 0.0000 19.1358 0.0000 15.6017
# 5 -16.9995 -6.7157 -14.3787 0.0000 30.6853 0.0000
# 6 0.0000 0.0000 0.0000 15.6017 0.0000 34.9936
#
#
#
# Elastic Compliance Matrix: (Units=1/GPa)
#
#
# Indices 1 2 3 4 5 6 
#
# 1 0.014542 -0.003146 0.002060 0.000000 0.008333 0.000000
# 2 -0.003146 0.011322 -0.011613 0.000000 -0.004706 0.000000
# 3 0.002060 -0.011613 0.032427 0.000000 0.013794 0.000000
# 4 0.000000 0.000000 0.000000 0.082103 0.000000 -0.036605
# 5 0.008333 -0.004706 0.013794 0.000000 0.042639 0.000000
# 6 0.000000 0.000000 0.000000 -0.036605 0.000000 0.044897
#
#
# Mechanical properties :
#
#
# Convention : Reuss Voigt Hill
#
# Bulk Modulus (GPa) = 30.40210 53.14406 41.77308
# Shear Modulus (GPa) = 18.91848 29.82302 24.37075
#
# Velocity S-wave (km/s) = 2.92360 3.67071 3.31825
# Velocity P-wave (km/s) = 5.01322 6.47890 5.79261
#
# Compressibility (1/GPa) = 0.03289246
#
# Stress axis : x y z
#
# Youngs Moduli (GPa) = 68.76845 88.32044 30.83865
#
# Poissons Ratio (x) = 0.27785 -0.06351
# Poissons Ratio (y) = 0.21634 0.35812
# Poissons Ratio (z) = -0.14163 1.02565
#
# Static dielectric constant tensor:
#      x y z
#    x 1.865740 0.000000 0.015600 
#    y 0.000000 1.801460 0.000000 
#    z 0.015600 0.000000 1.863390 
# 
# From -- ./inp_files/193976.got.cif
#   From: 2010.05.17/outbox.cif.g08.bks.cpg/sg12_97_cif.got.tgz:193976.got - 2010.06.03 13:09:07.
