data_PCOD9208321
_publ_section_title
;
Structure prediction by ZEFSAII (Michael W. Deem and Ramdas Pophale) SiO2 
 PCOD9208321
Probable space group: C 2/M
;
_chemical_formula_sum "Si O2"
_cell_formula_units_Z 56
_cell_length_a 17.829824
_cell_length_b 31.398595
_cell_length_c 8.887811
_cell_angle_alpha 90.000000
_cell_angle_beta 144.083307
_cell_angle_gamma 90.000000
_cell_volume 2918.772945
_symmetry_space_group_name_H-M "C 2/M"
_symmetry_group_IT_number 12
_symmetry_cell_setting 'monoclinic'
loop_
_space_group_symop_operation_xyz
x,y,z
-x,y,-z
-x,-y,-z
x,-y,z
1/2+x,1/2+y,z
1/2-x,1/2+y,-z
1/2-x,1/2-y,-z
1/2+x,1/2-y,z
loop_
_atom_site_type_symbol
_atom_site_label
_atom_site_fract_x
_atom_site_fract_y
_atom_site_fract_z
Si Si1 0.845983 0.048858 0.748818
Si Si2 0.946725 0.165320 0.579915
Si Si3 0.780406 0.601371 0.719399
Si Si4 0.900984 0.244751 0.710850
Si Si5 0.298221 0.373228 0.879250
Si Si6 0.601227 0.158878 0.346526
Si Si7 0.090006 0.398783 0.775525
O O1 0.787106 0.067300 0.499041
O O2 0.799453 0.080534 0.803231
O O3 0.807795 0.000000 0.709803
O O4 0.000000 0.051004 0.000000
O O5 0.825933 0.133988 0.391579
O O6 0.913167 0.210529 0.598284
O O7 0.000000 0.171160 0.500000
O O8 0.060941 0.142291 0.855422
O O9 0.868604 0.631110 0.753937
O O10 0.851086 0.580096 0.977722
O O11 0.750000 0.250000 0.500000
O O12 0.943215 0.293196 0.747158
O O13 0.000000 0.229489 0.000000
O O14 0.234743 0.341773 0.654903
O O15 0.206996 0.377470 0.875401
O O16 0.502863 0.135408 0.296834
O O17 0.000000 0.420418 0.500000
#
# Coordination Sequence:
#
# PCOD9208321 Si02
#       7
#     8   8   8   8   8   8   8
#     4  10  21  37  65  98 124 153 197 253 313 381
#     4  12  24  37  59  91 125 163 200 252 322 366
#     4  11  20  38  65  86 125 156 204 251 305 373
#     4  12  25  40  60  88 126 166 220 268 308 365
#     4  10  21  40  62  89 128 159 198 252 320 374
#     4  10  22  39  64  87 117 168 218 253 298 364
#     4  10  21  38  62  88 118 168 212 245 299 369
#
# _framework density 19.186143999999999
#
# number of rings (size 3 to 8) (size 9 to 14) (size 15 to 20)
#    0.000    1.286    4.286    2.143    2.000    1.714 
#    0.000    2.857    0.000   29.143    0.000    0.000 
#    0.000    0.000    0.000    0.000    0.000    0.000 
#
# Total GULP energy -156156.892421 kJ/mol
# GULP energy per Si atom -5577.031872 kJ/mol
# Density = 1.914248 g / cm^3
# Si number density = 19.186144 Si / 1000 Ang^3
#
#
#
# Elastic Constant Matrix: (Units=GPa)
#
#
# Indices 1 2 3 4 5 6 
#
# 1 114.5224 37.5186 40.3672 0.0000 -5.1629 0.0000
# 2 37.5186 94.6682 35.5890 0.0000 -11.1459 0.0000
# 3 40.3672 35.5890 132.6374 0.0000 -18.3390 0.0000
# 4 0.0000 0.0000 0.0000 17.9780 0.0000 2.0704
# 5 -5.1629 -11.1459 -18.3390 0.0000 34.9646 0.0000
# 6 0.0000 0.0000 0.0000 2.0704 0.0000 10.9594
#
#
#
# Elastic Compliance Matrix: (Units=1/GPa)
#
#
# Indices 1 2 3 4 5 6 
#
# 1 0.010673 -0.003404 -0.002444 0.000000 -0.000791 0.000000
# 2 -0.003404 0.013001 -0.002101 0.000000 0.002540 0.000000
# 3 -0.002444 -0.002101 0.009385 0.000000 0.003892 0.000000
# 4 0.000000 0.000000 0.000000 0.056860 0.000000 -0.010742
# 5 -0.000791 0.002540 0.003892 0.000000 0.031334 0.000000
# 6 0.000000 0.000000 0.000000 -0.010742 0.000000 0.093275
#
#
# Mechanical properties :
#
#
# Convention : Reuss Voigt Hill
#
# Bulk Modulus (GPa) = 58.27490 63.19751 60.73620
# Shear Modulus (GPa) = 21.17306 28.00395 24.58850
#
# Velocity S-wave (km/s) = 3.32559 3.82461 3.58379
# Velocity P-wave (km/s) = 6.72201 7.24666 6.98926
#
# Compressibility (1/GPa) = 0.01716005
#
# Stress axis : x y z
#
# Youngs Moduli (GPa) = 93.69395 76.91527 106.55138
#
# Poissons Ratio (x) = 0.26183 0.26044
# Poissons Ratio (y) = 0.31895 0.22390
# Poissons Ratio (z) = 0.22901 0.16162
#
# Static dielectric constant tensor:
#      x y z
#    x 1.657830 0.000000 -0.009500 
#    y 0.000000 1.614650 0.000000 
#    z -0.009500 0.000000 1.760770 
# 
# From -- ./inp_files/80501.got.cif
#   From: 2010.05.17/outbox.cif.g08.bks.cpg/sg12_41_cif.got.tgz:80501.got - 2010.06.03 13:09:07.
