data_PCOD9208239
_publ_section_title
;
Structure prediction by ZEFSAII (Michael W. Deem and Ramdas Pophale) SiO2 
 PCOD9208239
Probable space group: C 2/M
;
_chemical_formula_sum "Si O2"
_cell_formula_units_Z 58
_cell_length_a 11.670421
_cell_length_b 31.798618
_cell_length_c 8.865218
_cell_angle_alpha 90.000000
_cell_angle_beta 72.267077
_cell_angle_gamma 90.000000
_cell_volume 3133.596495
_symmetry_space_group_name_H-M "C 2/M"
_symmetry_group_IT_number 12
_symmetry_cell_setting 'monoclinic'
loop_
_space_group_symop_operation_xyz
x,y,z
-x,y,-z
-x,-y,-z
x,-y,z
1/2+x,1/2+y,z
1/2-x,1/2+y,-z
1/2-x,1/2-y,-z
1/2+x,1/2-y,z
loop_
_atom_site_type_symbol
_atom_site_label
_atom_site_fract_x
_atom_site_fract_y
_atom_site_fract_z
Si Si1 0.743799 0.454435 0.952897
Si Si2 0.462340 0.230631 0.689538
Si Si3 0.018507 0.823978 0.671502
Si Si4 0.920018 0.344467 0.183137
Si Si5 0.500000 0.500000 0.000000
Si Si6 0.809073 0.868526 0.894313
Si Si7 0.242214 0.332033 0.248392
Si Si8 0.565244 0.906970 0.327440
O O1 0.782120 0.500000 0.000620
O O2 0.609154 0.464055 0.944161
O O3 0.843423 0.438261 0.794199
O O4 0.727970 0.417126 0.077908
O O5 0.500000 0.231418 0.500000
O O6 0.470588 0.278186 0.742741
O O7 0.549556 0.197887 0.738754
O O8 0.330285 0.210640 0.752918
O O9 0.155050 0.826642 0.670392
O O10 0.000000 0.827516 0.500000
O O11 0.942091 0.859729 0.784714
O O12 0.783197 0.347464 0.185798
O O13 0.967820 0.385121 0.255727
O O14 0.000000 0.343411 0.000000
O O15 0.790527 0.849281 0.068869
O O16 0.146403 0.366738 0.342866
O O17 0.500000 0.925114 0.500000
#
# Coordination Sequence:
#
# PCOD9208239 Si02
#       8
#     8   8   8   8   2   8   8   8
#     4   9  20  38  65  93 117 162 201 248 305 366
#     4  10  23  39  57  81 120 162 205 258 308 365
#     4  11  27  37  56  87 118 164 208 261 311 368
#     4  11  19  38  60  90 118 163 203 249 309 357
#     4   8  20  36  66  90 122 160 196 248 288 380
#     4  11  23  39  61  89 122 157 210 255 304 378
#     4  10  21  39  57  82 116 161 205 253 303 359
#     4  10  21  37  63  94 126 158 201 256 306 364
#
# _framework density 18.509081999999999
#
# number of rings (size 3 to 8) (size 9 to 14) (size 15 to 20)
#    0.414    1.379    4.138    2.069    9.655    3.034 
#    0.000    1.379    0.000    0.414    0.000    0.000 
#    0.000    0.000    0.000    0.000    0.000    0.000 
#
# Total GULP energy -161441.839566 kJ/mol
# GULP energy per Si atom -5566.959985 kJ/mol
# Density = 1.846695 g / cm^3
# Si number density = 18.509082 Si / 1000 Ang^3
#
#
#
# Elastic Constant Matrix: (Units=GPa)
#
#
# Indices 1 2 3 4 5 6 
#
# 1 73.2088 3.3124 4.8201 0.0000 20.5775 0.0000
# 2 3.3124 74.6741 26.6097 0.0000 1.9343 0.0000
# 3 4.8201 26.6097 50.6436 0.0000 4.5324 0.0000
# 4 0.0000 0.0000 0.0000 3.3026 0.0000 -1.8215
# 5 20.5775 1.9343 4.5324 0.0000 27.5638 0.0000
# 6 0.0000 0.0000 0.0000 -1.8215 0.0000 16.1940
#
#
#
# Elastic Compliance Matrix: (Units=1/GPa)
#
#
# Indices 1 2 3 4 5 6 
#
# 1 0.017305 -0.000317 -0.000331 0.000000 -0.012843 0.000000
# 2 -0.000317 0.016484 -0.008676 0.000000 0.000506 0.000000
# 3 -0.000331 -0.008676 0.024622 0.000000 -0.003193 0.000000
# 4 0.000000 0.000000 0.000000 0.322821 0.000000 0.036310
# 5 -0.012843 0.000506 -0.003193 0.000000 0.046356 0.000000
# 6 0.000000 0.000000 0.000000 0.036310 0.000000 0.065835
#
#
# Mechanical properties :
#
#
# Convention : Reuss Voigt Hill
#
# Bulk Modulus (GPa) = 25.14936 29.77897 27.46417
# Shear Modulus (GPa) = 9.51787 20.33104 14.92446
#
# Velocity S-wave (km/s) = 2.27012 3.31786 2.84268
# Velocity P-wave (km/s) = 4.52640 5.54990 5.06407
#
# Compressibility (1/GPa) = 0.03976244
#
# Stress axis : x y z
#
# Youngs Moduli (GPa) = 57.78520 60.66384 40.61419
#
# Poissons Ratio (x) = 0.01923 0.01345
# Poissons Ratio (y) = 0.01831 0.35239
# Poissons Ratio (z) = 0.01914 0.52635
#
# Static dielectric constant tensor:
#      x y z
#    x 1.654390 0.000000 0.009310 
#    y 0.000000 1.641190 0.000000 
#    z 0.009310 0.000000 1.632630 
# 
# From -- ./inp_files/54232.got.cif
#   From: 2010.05.17/outbox.cif.g08.bks.cpg/sg12_28_cif.got.tgz:54232.got - 2010.06.03 13:09:07.
