data_PCOD9208218
_publ_section_title
;
Structure prediction by ZEFSAII (Michael W. Deem and Ramdas Pophale) SiO2 
 PCOD9208218
Probable space group: C 2/M
;
_chemical_formula_sum "Si O2"
_cell_formula_units_Z 56
_cell_length_a 26.718632
_cell_length_b 7.694218
_cell_length_c 12.899411
_cell_angle_alpha 90.000000
_cell_angle_beta 110.957340
_cell_angle_gamma 90.000000
_cell_volume 2476.420045
_symmetry_space_group_name_H-M "C 2/M"
_symmetry_group_IT_number 12
_symmetry_cell_setting 'monoclinic'
loop_
_space_group_symop_operation_xyz
x,y,z
-x,y,-z
-x,-y,-z
x,-y,z
1/2+x,1/2+y,z
1/2-x,1/2+y,-z
1/2-x,1/2-y,-z
1/2+x,1/2-y,z
loop_
_atom_site_type_symbol
_atom_site_label
_atom_site_fract_x
_atom_site_fract_y
_atom_site_fract_z
Si Si1 0.359728 0.711716 0.980482
Si Si2 0.124893 0.801511 0.782243
Si Si3 0.781233 0.707471 0.627886
Si Si4 0.743744 0.799202 0.824328
Si Si5 0.399593 0.786671 0.655574
Si Si6 0.046940 0.704889 0.105339
Si Si7 0.059734 0.704780 0.533073
O O1 0.359218 0.500000 0.979304
O O2 0.382427 0.773555 0.107928
O O3 0.298215 0.768518 0.917970
O O4 0.397864 0.773968 0.916922
O O5 0.188719 0.795099 0.809861
O O6 0.093935 0.720264 0.662913
O O7 0.106752 0.000000 0.772047
O O8 0.781444 0.500000 0.644217
O O9 0.750000 0.750000 0.500000
O O10 0.754769 0.789260 0.709605
O O11 0.841864 0.769305 0.654805
O O12 0.736518 0.000000 0.849378
O O13 0.443854 0.727791 0.771742
O O14 0.410803 0.725276 0.547507
O O15 0.398292 0.000000 0.655193
O O16 0.035535 0.500000 0.108476
O O17 0.000000 0.783135 0.000000
O O18 0.053360 0.500000 0.507589
O O19 0.000000 0.779330 0.500000
#
# Coordination Sequence:
#
# PCOD9208218 Si02
#       7
#     8   8   8   8   8   8   8
#     4  10  23  41  61  89 125 160 198 249 304 364
#     4  11  24  41  61  88 123 161 203 251 305 363
#     4  11  21  35  58  86 122 162 199 247 299 355
#     4  11  22  39  61  88 120 156 202 250 304 368
#     4   9  19  37  57  86 121 151 192 245 294 346
#     4  10  21  37  63  92 119 154 200 249 298 359
#     4  10  22  40  64  90 120 160 204 251 301 356
#
# _framework density 22.613288000000001
#
# number of rings (size 3 to 8) (size 9 to 14) (size 15 to 20)
#    0.000    1.714    1.429    2.571    2.000    3.429 
#    0.000    1.429    0.000    0.000    0.000    0.000 
#    0.000    0.000    0.000    0.000    0.000    0.000 
#
# Total GULP energy -156529.533520 kJ/mol
# GULP energy per Si atom -5590.340483 kJ/mol
# Density = 2.256182 g / cm^3
# Si number density = 22.613288 Si / 1000 Ang^3
#
#
#
# Elastic Constant Matrix: (Units=GPa)
#
#
# Indices 1 2 3 4 5 6 
#
# 1 22.0736 -14.3090 5.6566 0.0000 9.2461 0.0000
# 2 -14.3090 39.6996 -15.6359 0.0000 1.3346 0.0000
# 3 5.6566 -15.6359 144.2923 0.0000 1.6699 0.0000
# 4 0.0000 0.0000 0.0000 -305.0193 0.0000 -210.4695
# 5 9.2461 1.3346 1.6699 0.0000 42.0972 0.0000
# 6 0.0000 0.0000 0.0000 -210.4695 0.0000 -127.9545
#
#
#
# Elastic Compliance Matrix: (Units=1/GPa)
#
#
# Indices 1 2 3 4 5 6 
#
# 1 0.068192 0.025204 0.000241 0.000000 -0.015786 0.000000
# 2 0.025204 0.035665 0.002955 0.000000 -0.006784 0.000000
# 3 0.000241 0.002955 0.007246 0.000000 -0.000434 0.000000
# 4 0.000000 0.000000 0.000000 0.024285 0.000000 -0.039946
# 5 -0.015786 -0.006784 -0.000434 0.000000 0.027454 0.000000
# 6 0.000000 0.000000 0.000000 -0.039946 0.000000 0.057891
#
#
# Mechanical properties :
#
#
# Convention : Reuss Voigt Hill
#
# Bulk Modulus (GPa) = 5.95581 17.49876 11.72729
# Shear Modulus (GPa) = 22.73738 -62.81838 -20.04050
#
# Velocity S-wave (km/s) = 3.17438 -5.27634 -2.98019
# Velocity P-wave (km/s) = 4.00937 5.41891 2.57774
#
# Compressibility (1/GPa) = 0.16790330
#
# Stress axis : x y z
#
# Youngs Moduli (GPa) = 14.66448 28.03833 138.00323
#
# Poissons Ratio (x) = -0.70668 -0.03320
# Poissons Ratio (y) = -0.36960 -0.40784
# Poissons Ratio (z) = -0.00353 -0.08286
#
# Static dielectric constant tensor:
#      x y z
#    x 1.812310 0.000000 0.007270 
#    y 0.000000 1.860100 0.000000 
#    z 0.007270 0.000000 1.833850 
# 
# From -- ./inp_files/181125.got.cif
#   From: 2010.05.17/outbox.cif.g08.bks.cpg/sg12_91_cif.got.tgz:181125.got - 2010.06.03 13:09:07.
