data_PCOD9208925
_publ_section_title
;
Structure prediction by ZEFSAII (Michael W. Deem and Ramdas Pophale) SiO2 
 PCOD9208925
Probable space group: C 2/M
;
_chemical_formula_sum "Si O2"
_cell_formula_units_Z 64
_cell_length_a 15.425515
_cell_length_b 17.175933
_cell_length_c 24.961769
_cell_angle_alpha 90.000000
_cell_angle_beta 29.512445
_cell_angle_gamma 90.000000
_cell_volume 3257.923492
_symmetry_space_group_name_H-M "C 2/M"
_symmetry_group_IT_number 12
_symmetry_cell_setting 'monoclinic'
loop_
_space_group_symop_operation_xyz
x,y,z
-x,y,-z
-x,-y,-z
x,-y,z
1/2+x,1/2+y,z
1/2-x,1/2+y,-z
1/2-x,1/2-y,-z
1/2+x,1/2-y,z
loop_
_atom_site_type_symbol
_atom_site_label
_atom_site_fract_x
_atom_site_fract_y
_atom_site_fract_z
Si Si1 0.386527 0.836920 0.178864
Si Si2 0.296165 0.093011 0.595774
Si Si3 0.212532 0.911962 0.882393
Si Si4 0.489701 0.308138 0.818654
Si Si5 0.962433 0.092661 0.580059
Si Si6 0.763765 0.586752 0.979792
Si Si7 0.692533 0.739663 0.191081
Si Si8 0.657113 0.671367 0.566352
O O1 0.432864 0.767047 0.194225
O O2 0.216854 0.877672 0.296336
O O3 0.552322 0.893753 0.091223
O O4 0.348574 0.802117 0.140202
O O5 0.500000 0.110702 0.500000
O O6 0.259708 0.121301 0.554991
O O7 0.150292 0.140308 0.708656
O O8 0.269489 0.000000 0.615772
O O9 0.282795 0.908996 0.905525
O O10 0.284725 0.833304 0.815956
O O11 0.252386 0.000000 0.839406
O O12 0.000000 0.905865 0.000000
O O13 0.349691 0.282967 0.847721
O O14 0.382459 0.354793 0.920821
O O15 0.000000 0.123112 0.500000
O O16 0.116178 0.120691 0.536431
O O17 0.955443 0.000000 0.581596
O O18 0.705493 0.500000 0.024932
O O19 0.523222 0.703261 0.311191
O O20 0.750000 0.750000 0.500000
#
# Coordination Sequence:
#
# PCOD9208925 Si02
#       8
#     8   8   8   8   8   8   8   8
#     4  11  23  39  64  92 124 162 209 254 299 369
#     4  10  23  42  64  89 123 163 204 252 307 366
#     4  10  21  38  60  86 125 162 199 251 304 355
#     4  11  23  39  63  92 123 162 206 253 305 364
#     4  10  23  41  64  92 126 163 201 256 317 367
#     4  11  23  40  62  92 127 162 204 254 308 363
#     4  10  23  39  60  92 118 164 201 251 303 358
#     4  10  23  39  64  90 123 158 205 254 304 362
#
# _framework density 19.644414000000001
#
# number of rings (size 3 to 8) (size 9 to 14) (size 15 to 20)
#    0.000    1.625    1.250    2.250    8.750    0.000 
#    0.000    4.375    0.000    0.000    0.000    0.000 
#    0.000    0.000    0.000    0.000    0.000    0.000 
#
# Total GULP energy -178604.807663 kJ/mol
# GULP energy per Si atom -5581.400239 kJ/mol
# Density = 1.959970 g / cm^3
# Si number density = 19.644414 Si / 1000 Ang^3
#
#
#
# Elastic Constant Matrix: (Units=GPa)
#
#
# Indices 1 2 3 4 5 6 
#
# 1 104.6228 26.9902 11.9390 -0.0062 -11.0379 -0.0204
# 2 26.9902 87.6229 6.2944 0.0009 1.2462 0.0072
# 3 11.9390 6.2944 23.7901 0.0373 -3.0617 0.1052
# 4 -0.0062 0.0009 0.0373 18.9850 -0.0141 -55.7516
# 5 -11.0379 1.2462 -3.0617 -0.0141 24.6415 -0.0397
# 6 -0.0204 0.0072 0.1052 -55.7516 -0.0397 -154.9452
#
#
#
# Elastic Compliance Matrix: (Units=1/GPa)
#
#
# Indices 1 2 3 4 5 6 
#
# 1 0.011385 -0.003270 -0.004239 -0.000001 0.004739 -0.000006
# 2 -0.003270 0.012596 -0.001994 0.000001 -0.002350 0.000000
# 3 -0.004239 -0.001994 0.045180 0.000001 0.003816 0.000030
# 4 -0.000001 0.000001 0.000001 0.025611 0.000000 -0.009215
# 5 0.004739 -0.002350 0.003816 0.000000 0.043297 -0.000009
# 6 -0.000006 0.000000 0.000030 -0.009215 -0.000009 -0.003138
#
#
# Mechanical properties :
#
#
# Convention : Reuss Voigt Hill
#
# Bulk Modulus (GPa) = 19.93770 34.05367 26.99568
# Shear Modulus (GPa) = 29.29859 -10.87627 9.21116
#
# Velocity S-wave (km/s) = 3.86611 -2.35554 2.16775
# Velocity P-wave (km/s) = 5.48639 3.15825 4.47633
#
# Compressibility (1/GPa) = 0.05015624
#
# Stress axis : x y z
#
# Youngs Moduli (GPa) = 87.83225 79.38760 22.13371
#
# Poissons Ratio (x) = 0.25959 0.09382
# Poissons Ratio (y) = 0.28720 0.04414
# Poissons Ratio (z) = 0.37229 0.15831
#
# Static dielectric constant tensor:
#      x y z
#    x 1.702940 0.000000 0.002060 
#    y 0.000000 1.662290 -0.000010 
#    z 0.002060 -0.000010 1.711340 
# 
# From -- ./inp_files/340787.got.cif
#   From: 2010.05.17/outbox.cif.g08.bks.cpg/sg12_171_cif.got.tgz:340787.got - 2010.06.03 13:09:07.
