data_PCOD9208149
_publ_section_title
;
Structure prediction by ZEFSAII (Michael W. Deem and Ramdas Pophale) SiO2 
 PCOD9208149
Probable space group: C 2/M
;
_chemical_formula_sum "Si O2"
_cell_formula_units_Z 56
_cell_length_a 5.519358
_cell_length_b 25.763942
_cell_length_c 17.618600
_cell_angle_alpha 90.000000
_cell_angle_beta 67.464719
_cell_angle_gamma 90.000000
_cell_volume 2314.071381
_symmetry_space_group_name_H-M "C 2/M"
_symmetry_group_IT_number 12
_symmetry_cell_setting 'monoclinic'
loop_
_space_group_symop_operation_xyz
x,y,z
-x,y,-z
-x,-y,-z
x,-y,z
1/2+x,1/2+y,z
1/2-x,1/2+y,-z
1/2-x,1/2-y,-z
1/2+x,1/2-y,z
loop_
_atom_site_type_symbol
_atom_site_label
_atom_site_fract_x
_atom_site_fract_y
_atom_site_fract_z
Si Si1 0.216865 0.725745 0.232369
Si Si2 0.735661 0.341431 0.020996
Si Si3 0.364148 0.440898 0.728083
Si Si4 0.132528 0.305278 0.409756
Si Si5 0.878559 0.883080 0.186639
Si Si6 0.385220 0.942607 0.902413
Si Si7 0.361736 0.370956 0.590181
O O1 0.521548 0.743372 0.200608
O O2 0.161640 0.728559 0.329812
O O3 0.183317 0.665667 0.211595
O O4 0.626518 0.357632 0.115324
O O5 0.500000 0.681379 0.000000
O O6 0.817799 0.394674 0.965586
O O7 0.000000 0.309910 0.000000
O O8 0.438562 0.500000 0.705291
O O9 0.589642 0.404341 0.733852
O O10 0.274194 0.412446 0.663406
O O11 0.155930 0.440490 0.822757
O O12 0.408968 0.332877 0.401307
O O13 0.000000 0.278950 0.500000
O O14 0.898280 0.343639 0.410953
O O15 0.813932 0.932066 0.142365
O O16 0.353060 0.000000 0.940024
O O17 0.500000 0.395696 0.500000
#
# Coordination Sequence:
#
# PCOD9208149 Si02
#       7
#     8   8   8   8   8   8   8
#     4  12  27  42  68  97 125 167 218 266 323 388
#     4  10  21  37  62  91 124 171 203 255 319 375
#     4  11  22  36  63  95 128 175 217 259 314 384
#     4  10  21  41  68  92 125 164 208 269 334 380
#     4  11  23  41  65  88 135 167 213 263 328 379
#     4  10  22  38  64  99 132 168 214 263 322 384
#     4  10  21  39  63  92 131 177 212 255 312 378
#
# _framework density 24.199773
#
# number of rings (size 3 to 8) (size 9 to 14) (size 15 to 20)
#    0.000    1.429    2.857    2.143    2.000    4.286 
#    0.000    0.000    0.000   13.714    0.000    0.000 
#    0.000    0.000    0.000    0.000    0.000    0.000 
#
# Total GULP energy -156207.073460 kJ/mol
# GULP energy per Si atom -5578.824052 kJ/mol
# Density = 2.414469 g / cm^3
# Si number density = 24.199773 Si / 1000 Ang^3
#
#
#
# Elastic Constant Matrix: (Units=GPa)
#
#
# Indices 1 2 3 4 5 6 
#
# 1 119.1483 22.7101 8.5346 0.0000 4.5718 0.0000
# 2 22.7101 97.5390 31.3117 0.0000 1.6093 0.0000
# 3 8.5346 31.3117 58.2523 0.0000 7.6130 0.0000
# 4 0.0000 0.0000 0.0000 -4.7735 0.0000 -11.8515
# 5 4.5718 1.6093 7.6130 0.0000 29.7378 0.0000
# 6 0.0000 0.0000 0.0000 -11.8515 0.0000 23.4010
#
#
#
# Elastic Compliance Matrix: (Units=1/GPa)
#
#
# Indices 1 2 3 4 5 6 
#
# 1 0.008829 -0.002020 -0.000046 0.000000 -0.001236 0.000000
# 2 -0.002020 0.012886 -0.006807 0.000000 0.001356 0.000000
# 3 -0.000046 -0.006807 0.021503 0.000000 -0.005129 0.000000
# 4 0.000000 0.000000 0.000000 -0.092801 0.000000 -0.046999
# 5 -0.001236 0.001356 -0.005129 0.000000 0.035057 0.000000
# 6 0.000000 0.000000 0.000000 -0.046999 0.000000 0.018930
#
#
# Mechanical properties :
#
#
# Convention : Reuss Voigt Hill
#
# Bulk Modulus (GPa) = 39.26244 44.45025 41.85635
# Shear Modulus (GPa) = 163.18035 23.83193 93.50614
#
# Velocity S-wave (km/s) = 8.22052 3.14156 6.22279
# Velocity P-wave (km/s) = 10.31320 5.61846 8.30449
#
# Compressibility (1/GPa) = 0.02546963
#
# Stress axis : x y z
#
# Youngs Moduli (GPa) = 113.26653 77.60547 46.50529
#
# Poissons Ratio (x) = 0.15680 0.00213
# Poissons Ratio (y) = 0.22885 0.31658
# Poissons Ratio (z) = 0.00520 0.52830
#
# Static dielectric constant tensor:
#      x y z
#    x 2.080850 0.000000 -0.046640 
#    y 0.000000 1.880470 0.000000 
#    z -0.046640 0.000000 1.985080 
# 
# From -- ./inp_files/253594.got.cif
#   From: 2010.05.17/outbox.cif.g08.bks.cpg/sg12_127_cif.got.tgz:253594.got - 2010.06.03 13:09:07.
