data_PCOD9208929
_publ_section_title
;
Structure prediction by ZEFSAII (Michael W. Deem and Ramdas Pophale) SiO2 
 PCOD9208929
Probable space group: C 2/M
;
_chemical_formula_sum "Si O2"
_cell_formula_units_Z 56
_cell_length_a 18.477578
_cell_length_b 13.115077
_cell_length_c 10.205231
_cell_angle_alpha 90.000000
_cell_angle_beta 105.782395
_cell_angle_gamma 90.000000
_cell_volume 2379.851953
_symmetry_space_group_name_H-M "C 2/M"
_symmetry_group_IT_number 12
_symmetry_cell_setting 'monoclinic'
loop_
_space_group_symop_operation_xyz
x,y,z
-x,y,-z
-x,-y,-z
x,-y,z
1/2+x,1/2+y,z
1/2-x,1/2+y,-z
1/2-x,1/2-y,-z
1/2+x,1/2-y,z
loop_
_atom_site_type_symbol
_atom_site_label
_atom_site_fract_x
_atom_site_fract_y
_atom_site_fract_z
Si Si1 0.924249 0.117022 0.022185
Si Si2 0.155780 0.615817 0.124448
Si Si3 0.048915 0.746234 0.398570
Si Si4 0.928430 0.383029 0.184394
Si Si5 0.657175 0.674617 0.269768
Si Si6 0.673042 0.820167 0.632917
Si Si7 0.672986 0.617437 0.782262
O O1 0.864131 0.120086 0.875429
O O2 0.943255 0.000000 0.063180
O O3 0.885133 0.154151 0.135428
O O4 0.000000 0.165281 0.000000
O O5 0.142653 0.500000 0.165041
O O6 0.151630 0.705361 0.227657
O O7 0.242453 0.619779 0.118031
O O8 0.100514 0.637606 0.976497
O O9 0.092875 0.836336 0.346440
O O10 0.111906 0.669785 0.489258
O O11 0.000000 0.779865 0.500000
O O12 0.993861 0.687891 0.272760
O O13 0.954333 0.500000 0.199403
O O14 0.858794 0.372484 0.251910
O O15 0.741565 0.650275 0.355350
O O16 0.672583 0.698986 0.666316
O O17 0.657900 0.500000 0.737529
#
# Coordination Sequence:
#
# PCOD9208929 Si02
#       7
#     8   8   8   8   8   8   8
#     4  10  22  35  54  86 118 147 186 237 297 352
#     4   9  19  35  60  94 120 146 186 236 297 361
#     4  10  24  39  56  80 118 159 199 238 284 343
#     4  10  21  38  61  91 125 156 188 236 301 360
#     4  11  22  37  62  85 117 155 196 245 293 342
#     4  10  21  38  60  87 115 158 202 238 281 345
#     4   9  18  36  61  88 120 150 186 239 296 349
#
# _framework density 23.530877
#
# number of rings (size 3 to 8) (size 9 to 14) (size 15 to 20)
#    0.000    2.143    0.000    2.143    6.000    7.143 
#    0.000    2.143    0.000    9.429    0.000    0.000 
#    0.000    0.000    0.000    0.000    0.000    0.000 
#
# Total GULP energy -156506.752535 kJ/mol
# GULP energy per Si atom -5589.526876 kJ/mol
# Density = 2.347732 g / cm^3
# Si number density = 23.530877 Si / 1000 Ang^3
#
#
#
# Elastic Constant Matrix: (Units=GPa)
#
#
# Indices 1 2 3 4 5 6 
#
# 1 133.2873 15.4927 29.6159 0.0000 11.9126 0.0000
# 2 15.4927 45.7119 -7.5713 0.0000 4.4202 0.0000
# 3 29.6159 -7.5713 69.6305 0.0000 17.7957 0.0000
# 4 0.0000 0.0000 0.0000 6.3444 0.0000 2.5577
# 5 11.9126 4.4202 17.7957 0.0000 35.8261 0.0000
# 6 0.0000 0.0000 0.0000 2.5577 0.0000 18.8821
#
#
#
# Elastic Compliance Matrix: (Units=1/GPa)
#
#
# Indices 1 2 3 4 5 6 
#
# 1 0.008866 -0.003626 -0.004039 0.000000 -0.000494 0.000000
# 2 -0.003626 0.024420 0.005337 0.000000 -0.004458 0.000000
# 3 -0.004039 0.005337 0.018882 0.000000 -0.008695 0.000000
# 4 0.000000 0.000000 0.000000 0.166725 0.000000 -0.022584
# 5 -0.000494 -0.004458 -0.008695 0.000000 0.032946 0.000000
# 6 0.000000 0.000000 0.000000 -0.022584 0.000000 0.056019
#
#
# Mechanical properties :
#
#
# Convention : Reuss Voigt Hill
#
# Bulk Modulus (GPa) = 21.04723 35.96715 28.50719
# Shear Modulus (GPa) = 15.22764 26.28334 20.75549
#
# Velocity S-wave (km/s) = 2.54664 3.34574 2.97316
# Velocity P-wave (km/s) = 4.19656 5.49941 4.89156
#
# Compressibility (1/GPa) = 0.04751219
#
# Stress axis : x y z
#
# Youngs Moduli (GPa) = 112.79523 40.94983 52.96132
#
# Poissons Ratio (x) = 0.14848 0.21390
# Poissons Ratio (y) = 0.40898 -0.28265
# Poissons Ratio (z) = 0.45555 -0.21855
#
# Static dielectric constant tensor:
#      x y z
#    x 1.942820 0.000000 -0.015860 
#    y 0.000000 1.900640 0.000000 
#    z -0.015860 0.000000 1.876540 
# 
# From -- ./inp_files/156155.got.cif
#   From: 2010.05.17/outbox.cif.g08.bks.cpg/sg12_79_cif.got.tgz:156155.got - 2010.06.03 13:09:07.
