data_PCOD9208237
_publ_section_title
;
Structure prediction by ZEFSAII (Michael W. Deem and Ramdas Pophale) SiO2 
 PCOD9208237
Probable space group: C 2/M
;
_chemical_formula_sum "Si O2"
_cell_formula_units_Z 56
_cell_length_a 17.604298
_cell_length_b 23.043714
_cell_length_c 8.860378
_cell_angle_alpha 90.000000
_cell_angle_beta 131.015349
_cell_angle_gamma 90.000000
_cell_volume 2712.077763
_symmetry_space_group_name_H-M "C 2/M"
_symmetry_group_IT_number 12
_symmetry_cell_setting 'monoclinic'
loop_
_space_group_symop_operation_xyz
x,y,z
-x,y,-z
-x,-y,-z
x,-y,z
1/2+x,1/2+y,z
1/2-x,1/2+y,-z
1/2-x,1/2-y,-z
1/2+x,1/2-y,z
loop_
_atom_site_type_symbol
_atom_site_label
_atom_site_fract_x
_atom_site_fract_y
_atom_site_fract_z
Si Si1 0.475289 0.197879 0.789795
Si Si2 0.755222 0.434278 0.266227
Si Si3 0.962592 0.171107 0.779407
Si Si4 0.733429 0.063745 0.162740
Si Si5 0.922516 0.935524 0.183146
Si Si6 0.916764 0.397450 0.273299
Si Si7 0.235448 0.358133 0.446472
O O1 0.498098 0.264632 0.780933
O O2 0.534144 0.156165 0.751266
O O3 0.357529 0.181839 0.628671
O O4 0.500000 0.188388 0.000000
O O5 0.792846 0.500000 0.288954
O O6 0.820364 0.388283 0.255598
O O7 0.764503 0.415209 0.448544
O O8 0.642208 0.433761 0.056274
O O9 0.842272 0.171149 0.614595
O O10 0.002910 0.118398 0.728947
O O11 0.000000 0.162114 0.000000
O O12 0.835372 0.069317 0.196146
O O13 0.726141 0.117289 0.266062
O O14 0.737205 0.000000 0.240733
O O15 0.635807 0.065083 0.926340
O O16 0.969520 0.000000 0.258759
O O17 0.000000 0.421161 0.500000
#
# Coordination Sequence:
#
# PCOD9208237 Si02
#       7
#     8   8   8   8   8   8   8
#     4  11  24  45  62  89 128 167 212 265 308 371
#     4  10  21  37  63  94 124 161 206 258 313 370
#     4  11  24  42  68  93 122 168 215 255 318 372
#     4  10  23  41  62  95 132 166 205 256 318 377
#     4   9  20  42  65  91 125 158 205 258 309 377
#     4  11  21  41  65  89 127 167 212 262 308 365
#     4  12  22  42  63  94 128 166 209 263 310 370
#
# _framework density 20.648375999999999
#
# number of rings (size 3 to 8) (size 9 to 14) (size 15 to 20)
#    0.000    1.429    4.286    2.143    0.000    3.143 
#    2.571    5.000    0.000    0.000    0.000    0.000 
#    0.000    0.000    0.000    0.000    0.000    0.000 
#
# Total GULP energy -156151.157737 kJ/mol
# GULP energy per Si atom -5576.827062 kJ/mol
# Density = 2.060138 g / cm^3
# Si number density = 20.648376 Si / 1000 Ang^3
#
#
#
# Elastic Constant Matrix: (Units=GPa)
#
#
# Indices 1 2 3 4 5 6 
#
# 1 61.4647 59.6524 7.9101 0.0000 7.0079 0.0000
# 2 59.6524 108.3933 7.4483 0.0000 1.2256 0.0000
# 3 7.9101 7.4483 67.2035 0.0000 -3.9049 0.0000
# 4 0.0000 0.0000 0.0000 8.3235 0.0000 -0.5812
# 5 7.0079 1.2256 -3.9049 0.0000 28.0340 0.0000
# 6 0.0000 0.0000 0.0000 -0.5812 0.0000 20.4691
#
#
#
# Elastic Compliance Matrix: (Units=1/GPa)
#
#
# Indices 1 2 3 4 5 6 
#
# 1 0.037218 -0.020201 -0.002653 0.000000 -0.008790 0.000000
# 2 -0.020201 0.020269 0.000376 0.000000 0.004216 0.000000
# 3 -0.002653 0.000376 0.015312 0.000000 0.002779 0.000000
# 4 0.000000 0.000000 0.000000 0.120381 0.000000 0.003418
# 5 -0.008790 0.004216 0.002779 0.000000 0.038071 0.000000
# 6 0.000000 0.000000 0.000000 0.003418 0.000000 0.048951
#
#
# Mechanical properties :
#
#
# Convention : Reuss Voigt Hill
#
# Bulk Modulus (GPa) = 35.91255 43.00924 39.46089
# Shear Modulus (GPa) = 14.95040 22.16869 18.55955
#
# Velocity S-wave (km/s) = 2.69373 3.28018 3.00132
# Velocity P-wave (km/s) = 5.20626 5.93470 5.58237
#
# Compressibility (1/GPa) = 0.02784542
#
# Stress axis : x y z
#
# Youngs Moduli (GPa) = 26.86860 49.33573 65.30740
#
# Poissons Ratio (x) = 0.99662 0.17323
# Poissons Ratio (y) = 0.54277 -0.02457
# Poissons Ratio (z) = 0.07127 -0.01856
#
# Static dielectric constant tensor:
#      x y z
#    x 1.727840 0.000000 0.002570 
#    y 0.000000 1.725080 0.000000 
#    z 0.002570 0.000000 1.766380 
# 
# From -- ./inp_files/79142.got.cif
#   From: 2010.05.17/outbox.cif.g08.bks.cpg/sg12_40_cif.got.tgz:79142.got - 2010.06.03 13:09:07.
