data_PCOD9208619
_publ_section_title
;
Structure prediction by ZEFSAII (Michael W. Deem and Ramdas Pophale) SiO2 
 PCOD9208619
Probable space group: C 2/M
;
_chemical_formula_sum "Si O2"
_cell_formula_units_Z 44
_cell_length_a 13.798109
_cell_length_b 26.194688
_cell_length_c 16.397266
_cell_angle_alpha 90.000000
_cell_angle_beta 158.895633
_cell_angle_gamma 90.000000
_cell_volume 2133.971759
_symmetry_space_group_name_H-M "C 2/M"
_symmetry_group_IT_number 12
_symmetry_cell_setting 'monoclinic'
loop_
_space_group_symop_operation_xyz
x,y,z
-x,y,-z
-x,-y,-z
x,-y,z
1/2+x,1/2+y,z
1/2-x,1/2+y,-z
1/2-x,1/2-y,-z
1/2+x,1/2-y,z
loop_
_atom_site_type_symbol
_atom_site_label
_atom_site_fract_x
_atom_site_fract_y
_atom_site_fract_z
Si Si1 0.202712 0.858979 0.441260
Si Si2 0.166380 0.500000 0.219594
Si Si3 0.689312 0.093264 0.004919
Si Si4 0.276563 0.179514 0.679944
Si Si5 0.785434 0.119487 0.896551
Si Si6 0.976516 0.781891 0.130135
O O1 0.255009 0.828535 0.565839
O O2 0.478911 0.883534 0.627463
O O3 0.112496 0.818724 0.302848
O O4 0.971131 0.901508 0.273708
O O5 0.500000 0.500000 0.500000
O O6 0.027311 0.549506 0.150524
O O7 0.000000 0.500000 0.000000
O O8 0.530857 0.145149 0.903086
O O9 0.779334 0.093724 0.980920
O O10 0.325878 0.237684 0.745202
O O11 0.000000 0.159998 0.500000
O O12 0.000000 0.099993 0.000000
O O13 0.854809 0.179250 0.968966
O O14 0.750000 0.750000 0.000000
#
# Coordination Sequence:
#
# PCOD9208619 Si02
#       6
#     8   4   8   8   8   8
#     4  10  21  38  59  80 134 171 218 273 326 394
#     4  12  30  50  83 109 139 173 224 284 366 431
#     4  10  24  45  64  97 128 168 223 282 347 414
#     4  11  23  34  58  88 130 174 223 271 332 401
#     4  10  23  39  63  90 131 178 226 273 338 397
#     4  11  20  36  51  88 126 177 224 269 320 389
#
# _framework density 20.618829999999999
#
# number of rings (size 3 to 8) (size 9 to 14) (size 15 to 20)
#    0.000    1.455    5.455    1.091   10.182    2.182 
#    0.000    0.455    0.000    1.091    0.000    0.000 
#    0.000    0.000    0.000    0.000    0.000    0.000 
#
# Total GULP energy -122610.554913 kJ/mol
# GULP energy per Si atom -5573.207042 kJ/mol
# Density = 2.057190 g / cm^3
# Si number density = 20.618830 Si / 1000 Ang^3
#
#
#
# Elastic Constant Matrix: (Units=GPa)
#
#
# Indices 1 2 3 4 5 6 
#
# 1 80.8536 11.1421 33.0547 0.0003 30.7303 0.0001
# 2 11.1421 67.2016 27.0267 0.0021 7.3133 0.0009
# 3 33.0547 27.0267 139.4892 0.0038 26.0540 0.0011
# 4 0.0003 0.0021 0.0038 22.8228 0.0015 11.2460
# 5 30.7303 7.3133 26.0540 0.0015 24.2197 0.0003
# 6 0.0001 0.0009 0.0011 11.2460 0.0003 23.0081
#
#
#
# Elastic Compliance Matrix: (Units=1/GPa)
#
#
# Indices 1 2 3 4 5 6 
#
# 1 0.023920 -0.000722 0.000125 0.000002 -0.030266 -0.000001
# 2 -0.000722 0.016229 -0.002790 -0.000001 -0.000983 0.000000
# 3 0.000125 -0.002790 0.009451 -0.000001 -0.009483 0.000000
# 4 0.000002 -0.000001 -0.000001 0.057717 -0.000005 -0.028211
# 5 -0.030266 -0.000983 -0.009483 -0.000005 0.090188 0.000002
# 6 -0.000001 0.000000 0.000000 -0.028211 0.000002 0.057252
#
#
# Mechanical properties :
#
#
# Convention : Reuss Voigt Hill
#
# Bulk Modulus (GPa) = 23.35051 47.77683 35.56367
# Shear Modulus (GPa) = 18.12860 28.43153 23.28006
#
# Velocity S-wave (km/s) = 2.96839 3.71740 3.36381
# Velocity P-wave (km/s) = 4.80603 6.45346 5.68969
#
# Compressibility (1/GPa) = 0.04282561
#
# Stress axis : x y z
#
# Youngs Moduli (GPa) = 41.80632 61.61700 105.80663
#
# Poissons Ratio (x) = 0.04451 -0.01320
# Poissons Ratio (y) = 0.03020 0.29517
# Poissons Ratio (z) = -0.00522 0.17189
#
# Static dielectric constant tensor:
#      x y z
#    x 1.761130 0.000000 -0.009440 
#    y 0.000000 1.759980 0.000000 
#    z -0.009440 0.000000 1.820750 
# 
# From -- ./inp_files/272902.got.cif
#   From: 2010.05.17/outbox.cif.g08.bks.cpg/sg12_137_cif.got.tgz:272902.got - 2010.06.03 13:09:07.
