data_PCOD9208790
_publ_section_title
;
Structure prediction by ZEFSAII (Michael W. Deem and Ramdas Pophale) SiO2 
 PCOD9208790
Probable space group: C 2/M
;
_chemical_formula_sum "Si O2"
_cell_formula_units_Z 56
_cell_length_a 27.342632
_cell_length_b 12.198633
_cell_length_c 9.790398
_cell_angle_alpha 90.000000
_cell_angle_beta 53.442904
_cell_angle_gamma 90.000000
_cell_volume 2623.070592
_symmetry_space_group_name_H-M "C 2/M"
_symmetry_group_IT_number 12
_symmetry_cell_setting 'monoclinic'
loop_
_space_group_symop_operation_xyz
x,y,z
-x,y,-z
-x,-y,-z
x,-y,z
1/2+x,1/2+y,z
1/2-x,1/2+y,-z
1/2-x,1/2-y,-z
1/2+x,1/2-y,z
loop_
_atom_site_type_symbol
_atom_site_label
_atom_site_fract_x
_atom_site_fract_y
_atom_site_fract_z
Si Si1 0.464184 0.000000 0.273633
Si Si2 0.320594 0.804111 0.278240
Si Si3 0.690094 0.620116 0.511462
Si Si4 0.856135 0.123571 0.708814
Si Si5 0.459269 0.215710 0.439613
Si Si6 0.976579 0.872601 0.886665
Si Si7 0.167580 0.875713 0.942610
Si Si8 0.408230 0.000000 0.066349
O O1 0.441684 0.107474 0.387756
O O2 0.439159 0.000000 0.162924
O O3 0.538123 0.000000 0.134840
O O4 0.343399 0.722317 0.360815
O O5 0.261117 0.867577 0.429610
O O6 0.367303 0.890283 0.136047
O O7 0.299899 0.717332 0.197760
O O8 0.666056 0.500000 0.594557
O O9 0.685693 0.623518 0.355386
O O10 0.905791 0.213649 0.593595
O O11 0.827241 0.143331 0.904356
O O12 0.883485 0.000000 0.673013
O O13 0.500000 0.181543 0.500000
O O14 0.493907 0.294585 0.275167
O O15 0.903626 0.867285 0.985537
O O16 0.994640 0.000000 0.835030
O O17 0.000000 0.841913 0.000000
O O18 0.187988 0.000000 0.880101
#
# Coordination Sequence:
#
# PCOD9208790 Si02
#       8
#     4   8   8   8   8   8   8   4
#     4  11  27  40  60  90 126 166 216 240 300 368
#     4  11  22  40  65  87 119 158 203 252 310 357
#     4  10  22  41  63  92 118 152 202 256 308 365
#     4  10  22  39  63  90 122 157 201 252 310 356
#     4  12  23  40  61  87 127 165 201 249 300 365
#     4  10  22  36  58  90 120 153 200 244 300 361
#     4  10  21  38  59  89 122 155 195 250 302 363
#     4  11  24  42  64  90 120 166 207 257 299 365
#
# _framework density 21.349024
#
# number of rings (size 3 to 8) (size 9 to 14) (size 15 to 20)
#    0.000    1.429    2.143    2.786    6.000    1.143 
#    0.000    0.000    0.000    0.000    0.000    0.000 
#    0.000    0.000    0.000    0.000    0.000    0.000 
#
# Total GULP energy -156448.453681 kJ/mol
# GULP energy per Si atom -5587.444774 kJ/mol
# Density = 2.130043 g / cm^3
# Si number density = 21.349024 Si / 1000 Ang^3
#
#
#
# Elastic Constant Matrix: (Units=GPa)
#
#
# Indices 1 2 3 4 5 6 
#
# 1 19.9342 1.9703 -4.9313 0.0000 15.0618 0.0000
# 2 1.9703 120.0530 38.7914 0.0000 0.7609 0.0000
# 3 -4.9313 38.7914 73.7602 0.0000 25.8297 0.0000
# 4 0.0000 0.0000 0.0000 2.9890 0.0000 -13.0424
# 5 15.0618 0.7609 25.8297 0.0000 39.2346 0.0000
# 6 0.0000 0.0000 0.0000 -13.0424 0.0000 12.0427
#
#
#
# Elastic Compliance Matrix: (Units=1/GPa)
#
#
# Indices 1 2 3 4 5 6 
#
# 1 0.113427 -0.014081 0.039172 0.000000 -0.069059 0.000000
# 2 -0.014081 0.012363 -0.012025 0.000000 0.013082 0.000000
# 3 0.039172 -0.012025 0.035979 0.000000 -0.038491 0.000000
# 4 0.000000 0.000000 0.000000 -0.089798 0.000000 -0.097252
# 5 -0.069059 0.013082 -0.038491 0.000000 0.077085 0.000000
# 6 0.000000 0.000000 0.000000 -0.097252 0.000000 -0.022287
#
#
# Mechanical properties :
#
#
# Convention : Reuss Voigt Hill
#
# Bulk Modulus (GPa) = 5.32191 31.71200 18.51696
# Shear Modulus (GPa) = 30.62399 22.71438 26.66919
#
# Velocity S-wave (km/s) = 3.79152 3.26537 3.53824
# Velocity P-wave (km/s) = 4.65464 5.39474 5.03830
#
# Compressibility (1/GPa) = 0.18790254
#
# Stress axis : x y z
#
# Youngs Moduli (GPa) = 8.81625 80.88534 27.79380
#
# Poissons Ratio (x) = 1.13895 -1.08874
# Poissons Ratio (y) = 0.12414 0.33421
# Poissons Ratio (z) = -0.34535 0.97261
#
# Static dielectric constant tensor:
#      x y z
#    x 1.793660 0.000000 0.015620 
#    y 0.000000 1.787490 0.000000 
#    z 0.015620 0.000000 1.761190 
# 
# From -- ./inp_files/110374.got.cif
#   From: 2010.05.17/outbox.cif.g08.bks.cpg/sg12_56_cif.got.tgz:110374.got - 2010.06.03 13:09:07.
