data_PCOD9208214
_publ_section_title
;
Structure prediction by ZEFSAII (Michael W. Deem and Ramdas Pophale) SiO2 
 PCOD9208214
Probable space group: C 2/M
;
_chemical_formula_sum "Si O2"
_cell_formula_units_Z 50
_cell_length_a 25.253153
_cell_length_b 11.017528
_cell_length_c 14.854222
_cell_angle_alpha 90.000000
_cell_angle_beta 38.799023
_cell_angle_gamma 90.000000
_cell_volume 2589.604878
_symmetry_space_group_name_H-M "C 2/M"
_symmetry_group_IT_number 12
_symmetry_cell_setting 'monoclinic'
loop_
_space_group_symop_operation_xyz
x,y,z
-x,y,-z
-x,-y,-z
x,-y,z
1/2+x,1/2+y,z
1/2-x,1/2+y,-z
1/2-x,1/2-y,-z
1/2+x,1/2-y,z
loop_
_atom_site_type_symbol
_atom_site_label
_atom_site_fract_x
_atom_site_fract_y
_atom_site_fract_z
Si Si1 0.680349 0.364430 0.829608
Si Si2 0.326646 0.362807 0.801211
Si Si3 0.859143 0.267645 0.942698
Si Si4 0.124889 0.300143 0.420323
Si Si5 0.046710 0.640729 0.701886
Si Si6 0.000000 0.500000 0.500000
Si Si7 0.903099 0.638022 0.161963
O O1 0.653732 0.500000 0.835765
O O2 0.781417 0.354514 0.691909
O O3 0.644060 0.249956 0.822198
O O4 0.652070 0.340166 0.970200
O O5 0.349861 0.500000 0.789108
O O6 0.356914 0.278920 0.843432
O O7 0.363771 0.315853 0.658391
O O8 0.224595 0.348702 0.932986
O O9 0.947193 0.333753 0.844413
O O10 0.084591 0.279535 0.571577
O O11 0.066278 0.394601 0.445962
O O12 0.056442 0.500000 0.661068
O O13 0.092686 0.656020 0.736145
O O14 0.870576 0.500000 0.185786
O O15 0.000000 0.639832 0.000000
#
# Coordination Sequence:
#
# PCOD9208214 Si02
#       7
#     8   8   8   8   8   2   8
#     4  11  22  41  63  96 132 165 211 274 326 384
#     4  10  22  40  58  93 132 171 212 264 327 392
#     4  10  21  37  63  91 124 172 214 261 325 381
#     4  11  24  39  66  92 126 171 214 261 319 384
#     4  11  21  40  63  90 121 166 220 270 311 386
#     4  12  20  44  62  92 120 168 224 252 312 398
#     4  10  22  41  67  95 126 167 221 269 327 390
#
# _framework density 19.307963999999998
#
# number of rings (size 3 to 8) (size 9 to 14) (size 15 to 20)
#    0.000    1.440    3.200    1.920    0.000    3.520 
#    4.320    5.200    0.000    0.000    0.000    0.000 
#    0.000    0.000    0.000    0.000    0.000    0.000 
#
# Total GULP energy -139312.217988 kJ/mol
# GULP energy per Si atom -5572.488720 kJ/mol
# Density = 1.926402 g / cm^3
# Si number density = 19.307964 Si / 1000 Ang^3
#
#
#
# Elastic Constant Matrix: (Units=GPa)
#
#
# Indices 1 2 3 4 5 6 
#
# 1 80.9114 48.3639 36.3617 0.0000 -8.4708 0.0000
# 2 48.3639 82.1016 9.4697 0.0000 -0.1348 0.0001
# 3 36.3617 9.4697 71.9681 0.0000 14.3298 0.0000
# 4 0.0000 0.0000 0.0000 0.4855 0.0000 3.3510
# 5 -8.4708 -0.1348 14.3298 0.0000 15.4439 0.0000
# 6 0.0000 0.0001 0.0000 3.3510 0.0000 11.1547
#
#
#
# Elastic Compliance Matrix: (Units=1/GPa)
#
#
# Indices 1 2 3 4 5 6 
#
# 1 0.045450 -0.023173 -0.030467 0.000000 0.052996 0.000000
# 2 -0.023173 0.024232 0.013503 -0.000001 -0.025027 0.000000
# 3 -0.030467 0.013503 0.037799 0.000000 -0.051665 0.000000
# 4 0.000000 -0.000001 0.000000 -1.918592 0.000000 0.576369
# 5 0.052996 -0.025027 -0.051665 0.000000 0.141537 0.000000
# 6 0.000000 0.000000 0.000000 0.576369 0.000000 -0.083500
#
#
# Mechanical properties :
#
#
# Convention : Reuss Voigt Hill
#
# Bulk Modulus (GPa) = 36.75441 47.04129 41.89785
# Shear Modulus (GPa) = -3.00529 14.80254 5.89862
#
# Velocity S-wave (km/s) = -1.24895 2.77186 1.74976
# Velocity P-wave (km/s) = 4.12279 5.88734 5.08223
#
# Compressibility (1/GPa) = 0.02720762
#
# Stress axis : x y z
#
# Youngs Moduli (GPa) = 22.00198 41.26789 26.45587
#
# Poissons Ratio (x) = 0.95628 0.80603
# Poissons Ratio (y) = 0.50984 -0.35722
# Poissons Ratio (z) = 0.67033 -0.55723
#
# Static dielectric constant tensor:
#      x y z
#    x 1.678920 0.000000 0.023510 
#    y 0.000000 1.659120 0.000000 
#    z 0.023510 0.000000 1.680940 
# 
# From -- ./inp_files/239919.got.cif
#   From: 2010.05.17/outbox.cif.g08.bks.cpg/sg12_120_cif.got.tgz:239919.got - 2010.06.03 13:09:07.
