data_PCOD9208521
_publ_section_title
;
Structure prediction by ZEFSAII (Michael W. Deem and Ramdas Pophale) SiO2 
 PCOD9208521
Probable space group: C 2/M
;
_chemical_formula_sum "Si O2"
_cell_formula_units_Z 48
_cell_length_a 8.025427
_cell_length_b 19.198035
_cell_length_c 19.482322
_cell_angle_alpha 90.000000
_cell_angle_beta 130.356808
_cell_angle_gamma 90.000000
_cell_volume 2287.366820
_symmetry_space_group_name_H-M "C 2/M"
_symmetry_group_IT_number 12
_symmetry_cell_setting 'monoclinic'
loop_
_space_group_symop_operation_xyz
x,y,z
-x,y,-z
-x,-y,-z
x,-y,z
1/2+x,1/2+y,z
1/2-x,1/2+y,-z
1/2-x,1/2-y,-z
1/2+x,1/2-y,z
loop_
_atom_site_type_symbol
_atom_site_label
_atom_site_fract_x
_atom_site_fract_y
_atom_site_fract_z
Si Si1 0.774805 0.797690 0.418473
Si Si2 0.421703 0.922094 0.558050
Si Si3 0.614898 0.579716 0.249052
Si Si4 0.402129 0.680249 0.305125
Si Si5 0.364384 0.655942 0.069669
Si Si6 0.031800 0.308230 0.103343
O O1 0.721573 0.856120 0.460187
O O2 0.572206 0.745281 0.353008
O O3 0.838359 0.836858 0.365484
O O4 0.000000 0.759120 0.500000
O O5 0.500000 0.917246 0.500000
O O6 0.628572 0.917656 0.665045
O O7 0.323486 0.000000 0.539437
O O8 0.541007 0.500000 0.234402
O O9 0.508982 0.623784 0.283114
O O10 0.543421 0.607554 0.154540
O O11 0.165588 0.694641 0.208810
O O12 0.470100 0.728111 0.075171
O O13 0.202515 0.669766 0.090673
O O14 0.184144 0.642918 0.961400
#
# Coordination Sequence:
#
# PCOD9208521 Si02
#       6
#     8   8   8   8   8   8
#     4  12  24  37  59  87 118 152 192 241 291 342
#     4  10  22  41  62  84 116 157 195 233 285 349
#     4  10  21  38  58  81 116 158 197 239 290 345
#     4  11  22  36  55  83 117 149 189 239 289 340
#     4   9  17  31  53  81 107 140 188 232 284 343
#     4   9  17  31  52  79 109 142 181 232 287 335
#
# _framework density 20.984828
#
# number of rings (size 3 to 8) (size 9 to 14) (size 15 to 20)
#    0.000    1.833    0.000    5.500    0.000    2.333 
#    0.000    6.667    0.000    0.000    0.000   11.667 
#    0.000    0.000    0.000    0.000    0.000    0.000 
#
# Total GULP energy -133727.088247 kJ/mol
# GULP energy per Si atom -5571.962010 kJ/mol
# Density = 2.093707 g / cm^3
# Si number density = 20.984828 Si / 1000 Ang^3
#
#
#
# Elastic Constant Matrix: (Units=GPa)
#
#
# Indices 1 2 3 4 5 6 
#
# 1 21.1563 17.9457 22.2436 0.0000 -5.7681 0.0000
# 2 17.9457 96.2635 32.4220 0.0000 -1.1680 0.0000
# 3 22.2436 32.4220 147.2993 0.0000 14.9751 0.0000
# 4 0.0000 0.0000 0.0000 25.4169 0.0000 -5.8616
# 5 -5.7681 -1.1680 14.9751 0.0000 24.5654 0.0000
# 6 0.0000 0.0000 0.0000 -5.8616 0.0000 17.8525
#
#
#
# Elastic Compliance Matrix: (Units=1/GPa)
#
#
# Indices 1 2 3 4 5 6 
#
# 1 0.074060 -0.009645 -0.011495 0.000000 0.023938 0.000000
# 2 -0.009645 0.012586 -0.001220 0.000000 -0.000922 0.000000
# 3 -0.011495 -0.001220 0.009673 0.000000 -0.008654 0.000000
# 4 0.000000 0.000000 0.000000 0.042567 0.000000 0.013976
# 5 0.023938 -0.000922 -0.008654 0.000000 0.051560 0.000000
# 6 0.000000 0.000000 0.000000 0.013976 0.000000 0.060604
#
#
# Mechanical properties :
#
#
# Convention : Reuss Voigt Hill
#
# Bulk Modulus (GPa) = 19.37967 45.54907 32.46437
# Shear Modulus (GPa) = 15.97609 26.37416 21.17512
#
# Velocity S-wave (km/s) = 2.76219 3.54901 3.18003
# Velocity P-wave (km/s) = 4.40773 6.20861 5.38400
#
# Compressibility (1/GPa) = 0.05160047
#
# Stress axis : x y z
#
# Youngs Moduli (GPa) = 13.50256 79.45424 103.38065
#
# Poissons Ratio (x) = 0.76630 1.18831
# Poissons Ratio (y) = 0.13023 0.12613
# Poissons Ratio (z) = 0.15521 0.09694
#
# Static dielectric constant tensor:
#      x y z
#    x 1.758810 0.000000 0.038860 
#    y 0.000000 1.736580 0.000000 
#    z 0.038860 0.000000 1.919040 
# 
# From -- ./inp_files/300936.got.cif
#   From: 2010.05.17/outbox.cif.g08.bks.cpg/sg12_151_cif.got.tgz:300936.got - 2010.06.03 13:09:07.
