data_PCOD9208746
_publ_section_title
;
Structure prediction by ZEFSAII (Michael W. Deem and Ramdas Pophale) SiO2 
 PCOD9208746
Probable space group: C 2/M
;
_chemical_formula_sum "Si O2"
_cell_formula_units_Z 44
_cell_length_a 17.578346
_cell_length_b 22.802245
_cell_length_c 5.421427
_cell_angle_alpha 90.000000
_cell_angle_beta 119.038978
_cell_angle_gamma 90.000000
_cell_volume 1899.873077
_symmetry_space_group_name_H-M "C 2/M"
_symmetry_group_IT_number 12
_symmetry_cell_setting 'monoclinic'
loop_
_space_group_symop_operation_xyz
x,y,z
-x,y,-z
-x,-y,-z
x,-y,z
1/2+x,1/2+y,z
1/2-x,1/2+y,-z
1/2-x,1/2-y,-z
1/2+x,1/2-y,z
loop_
_atom_site_type_symbol
_atom_site_label
_atom_site_fract_x
_atom_site_fract_y
_atom_site_fract_z
Si Si1 0.093093 0.181334 0.745279
Si Si2 0.529809 0.933730 0.296906
Si Si3 0.000000 0.764276 0.000000
Si Si4 0.324094 0.566355 0.322824
Si Si5 0.222747 0.592193 0.669956
Si Si6 0.670826 0.225686 0.539725
O O1 0.112115 0.117928 0.666190
O O2 0.159725 0.228740 0.747060
O O3 0.000000 0.201390 0.500000
O O4 0.071701 0.190005 0.996164
O O5 0.500000 0.903318 0.500000
O O6 0.632439 0.937503 0.459871
O O7 0.490267 0.000000 0.236513
O O8 0.500000 0.904464 0.000000
O O9 0.926063 0.724876 0.742543
O O10 0.359210 0.500000 0.387272
O O11 0.285444 0.581361 0.532807
O O12 0.255645 0.569347 0.986475
O O13 0.200264 0.660824 0.661173
O O14 0.750000 0.250000 0.500000
#
# Coordination Sequence:
#
# PCOD9208746 Si02
#       6
#     8   8   4   8   8   8
#     4  10  24  45  70 104 143 181 236 302 361 432
#     4  10  21  38  59  86 127 174 219 272 333 393
#     4  10  24  42  69 106 147 180 240 296 362 440
#     4  12  26  46  71 102 139 189 243 294 356 427
#     4  12  26  42  71 100 139 181 239 294 347 427
#     4  11  23  43  71 103 140 188 230 295 367 427
#
# _framework density 23.159441000000001
#
# number of rings (size 3 to 8) (size 9 to 14) (size 15 to 20)
#    0.000    1.091    1.818    3.818    6.364    5.455 
#    0.000    0.455    0.000    0.000    0.000    0.000 
#    0.000    0.000    0.000    0.000    0.000    0.000 
#
# Total GULP energy -122668.725187 kJ/mol
# GULP energy per Si atom -5575.851145 kJ/mol
# Density = 2.310673 g / cm^3
# Si number density = 23.159441 Si / 1000 Ang^3
#
#
#
# Elastic Constant Matrix: (Units=GPa)
#
#
# Indices 1 2 3 4 5 6 
#
# 1 113.1933 50.6684 26.2193 0.0000 -16.2837 0.0000
# 2 50.6684 171.8128 -6.9182 0.0000 -26.9661 0.0000
# 3 26.2193 -6.9182 76.9487 0.0000 -10.6073 0.0000
# 4 0.0000 0.0000 0.0000 14.6035 0.0000 19.0007
# 5 -16.2837 -26.9661 -10.6073 0.0000 38.9923 0.0000
# 6 0.0000 0.0000 0.0000 19.0007 0.0000 25.2594
#
#
#
# Elastic Compliance Matrix: (Units=1/GPa)
#
#
# Indices 1 2 3 4 5 6 
#
# 1 0.011449 -0.003319 -0.004007 0.000000 0.001396 0.000000
# 2 -0.003319 0.007610 0.002441 0.000000 0.004541 0.000000
# 3 -0.004007 0.002441 0.015151 0.000000 0.004136 0.000000
# 4 0.000000 0.000000 0.000000 3.217090 0.000000 -2.419963
# 5 0.001396 0.004541 0.004136 0.000000 0.030495 0.000000
# 6 0.000000 0.000000 0.000000 -2.419963 0.000000 1.859937
#
#
# Mechanical properties :
#
#
# Convention : Reuss Voigt Hill
#
# Bulk Modulus (GPa) = 40.91612 55.76598 48.34105
# Shear Modulus (GPa) = 0.96906 35.23674 18.10290
#
# Velocity S-wave (km/s) = 0.64756 3.90485 2.79886
# Velocity P-wave (km/s) = 4.27371 6.66798 5.60029
#
# Compressibility (1/GPa) = 0.02444025
#
# Stress axis : x y z
#
# Youngs Moduli (GPa) = 87.34455 131.40702 66.00383
#
# Poissons Ratio (x) = 0.43608 0.26448
# Poissons Ratio (y) = 0.28986 -0.16111
# Poissons Ratio (z) = 0.34999 -0.32075
#
# Static dielectric constant tensor:
#      x y z
#    x 2.124310 0.000000 -0.451720 
#    y 0.000000 1.875220 0.000000 
#    z -0.451720 0.000000 2.671610 
# 
# From -- ./inp_files/16192.got.cif
#   From: 2010.05.17/outbox.cif.g08.bks.cpg/sg12_9_cif.got.tgz:16192.got - 2010.06.03 13:09:07.
