data_PCOD9208842
_publ_section_title
;
Structure prediction by ZEFSAII (Michael W. Deem and Ramdas Pophale) SiO2 
 PCOD9208842
Probable space group: C 2/M
;
_chemical_formula_sum "Si O2"
_cell_formula_units_Z 64
_cell_length_a 31.352745
_cell_length_b 9.127207
_cell_length_c 17.575573
_cell_angle_alpha 90.000000
_cell_angle_beta 41.108454
_cell_angle_gamma 90.000000
_cell_volume 3306.813904
_symmetry_space_group_name_H-M "C 2/M"
_symmetry_group_IT_number 12
_symmetry_cell_setting 'monoclinic'
loop_
_space_group_symop_operation_xyz
x,y,z
-x,y,-z
-x,-y,-z
x,-y,z
1/2+x,1/2+y,z
1/2-x,1/2+y,-z
1/2-x,1/2-y,-z
1/2+x,1/2-y,z
loop_
_atom_site_type_symbol
_atom_site_label
_atom_site_fract_x
_atom_site_fract_y
_atom_site_fract_z
Si Si1 0.357520 0.827212 0.087090
Si Si2 0.513621 0.826658 0.392683
Si Si3 0.350578 0.674905 0.830244
Si Si4 0.267412 0.325682 0.094856
Si Si5 0.813491 0.831824 0.440137
Si Si6 0.907596 0.167666 0.167883
Si Si7 0.020982 0.170891 0.127870
Si Si8 0.077155 0.173648 0.599060
O O1 0.296656 0.744203 0.131881
O O2 0.378380 0.769765 0.142281
O O3 0.347499 0.000000 0.100233
O O4 0.418957 0.778855 0.953319
O O5 0.500000 0.802070 0.500000
O O6 0.578669 0.744584 0.276845
O O7 0.451893 0.764410 0.430435
O O8 0.521326 0.000000 0.369109
O O9 0.354027 0.500000 0.814000
O O10 0.299078 0.748910 0.842008
O O11 0.319196 0.699106 0.956239
O O12 0.258551 0.500000 0.114379
O O13 0.750000 0.750000 0.500000
O O14 0.861101 0.830022 0.303735
O O15 0.854760 0.774479 0.456452
O O16 0.797356 0.000000 0.479056
O O17 0.977447 0.201154 0.111413
O O18 0.909587 0.000000 0.136450
O O19 0.975247 0.186603 0.262215
O O20 0.042146 0.000000 0.097761
O O21 0.082195 0.000000 0.574437
#
# Coordination Sequence:
#
# PCOD9208842 Si02
#       8
#     8   8   8   8   8   8   8   8
#     4  12  23  32  48  81 117 146 183 226 274 328
#     4  11  24  40  58  85 119 155 195 238 290 345
#     4  10  21  39  63  87 111 144 189 238 289 340
#     4  10  21  38  60  84 113 150 188 230 284 349
#     4   9  19  37  60  84 109 143 186 232 282 336
#     4   9  19  36  54  74 106 148 186 223 275 336
#     4   9  18  34  56  78 106 145 187 227 276 338
#     4   9  19  37  60  85 109 142 191 236 280 336
#
# _framework density 19.353978000000001
#
# number of rings (size 3 to 8) (size 9 to 14) (size 15 to 20)
#    0.000    2.125    0.000    4.875    0.000    9.000 
#    2.250    2.500    0.000    0.000    0.000    0.000 
#    0.000    0.000    0.000    0.000    0.000    0.000 
#
# Total GULP energy -178684.384242 kJ/mol
# GULP energy per Si atom -5583.887008 kJ/mol
# Density = 1.930993 g / cm^3
# Si number density = 19.353978 Si / 1000 Ang^3
#
#
#
# Elastic Constant Matrix: (Units=GPa)
#
#
# Indices 1 2 3 4 5 6 
#
# 1 155.2329 82.2096 28.0515 -0.0008 -12.3793 0.0005
# 2 82.2096 87.8427 20.1588 0.0005 -4.6316 -0.0037
# 3 28.0515 20.1588 23.5074 0.0004 -13.1436 -0.0024
# 4 -0.0008 0.0005 0.0004 24.2503 -0.0005 -8.4342
# 5 -12.3793 -4.6316 -13.1436 -0.0005 28.0427 0.0011
# 6 0.0005 -0.0037 -0.0024 -8.4342 0.0011 28.1501
#
#
#
# Elastic Compliance Matrix: (Units=1/GPa)
#
#
# Indices 1 2 3 4 5 6 
#
# 1 0.013588 -0.011338 -0.005672 0.000000 0.001468 -0.000002
# 2 -0.011338 0.024075 -0.010422 0.000000 -0.005914 0.000003
# 3 -0.005672 -0.010422 0.075729 0.000001 0.031269 0.000004
# 4 0.000000 0.000000 0.000001 0.046034 0.000001 0.013792
# 5 0.001468 -0.005914 0.031269 0.000001 0.049987 0.000000
# 6 -0.000002 0.000003 0.000004 0.013792 0.000000 0.039656
#
#
# Mechanical properties :
#
#
# Convention : Reuss Voigt Hill
#
# Bulk Modulus (GPa) = 17.08579 58.60253 37.84416
# Shear Modulus (GPa) = 15.45875 25.16616 20.31246
#
# Velocity S-wave (km/s) = 2.82926 3.60989 3.24315
# Velocity P-wave (km/s) = 4.41816 6.90798 5.79829
#
# Compressibility (1/GPa) = 0.05852816
#
# Stress axis : x y z
#
# Youngs Moduli (GPa) = 73.59245 41.53698 13.20506
#
# Poissons Ratio (x) = 0.47095 0.07489
# Poissons Ratio (y) = 0.83439 0.13763
# Poissons Ratio (z) = 0.41738 0.43291
#
# Static dielectric constant tensor:
#      x y z
#    x 1.694650 0.000000 0.000180 
#    y 0.000000 1.647040 0.000000 
#    z 0.000180 0.000000 1.692760 
# 
# From -- ./inp_files/295582.got.cif
#   From: 2010.05.17/outbox.cif.g08.bks.cpg/sg12_148_cif.got.tgz:295582.got - 2010.06.03 13:09:07.
