data_PCOD9208690
_publ_section_title
;
Structure prediction by ZEFSAII (Michael W. Deem and Ramdas Pophale) SiO2 
 PCOD9208690
Probable space group: C 2/M
;
_chemical_formula_sum "Si O2"
_cell_formula_units_Z 40
_cell_length_a 27.196768
_cell_length_b 11.115160
_cell_length_c 12.852790
_cell_angle_alpha 90.000000
_cell_angle_beta 27.766956
_cell_angle_gamma 90.000000
_cell_volume 1810.094043
_symmetry_space_group_name_H-M "C 2/M"
_symmetry_group_IT_number 12
_symmetry_cell_setting 'monoclinic'
loop_
_space_group_symop_operation_xyz
x,y,z
-x,y,-z
-x,-y,-z
x,-y,z
1/2+x,1/2+y,z
1/2-x,1/2+y,-z
1/2-x,1/2-y,-z
1/2+x,1/2-y,z
loop_
_atom_site_type_symbol
_atom_site_label
_atom_site_fract_x
_atom_site_fract_y
_atom_site_fract_z
Si Si1 0.381211 0.635334 0.815968
Si Si2 0.520293 0.768599 0.707842
Si Si3 0.343830 0.631581 0.380446
Si Si4 0.397011 0.179524 0.129503
Si Si5 0.638982 0.866530 0.295703
O O1 0.391931 0.500000 0.750632
O O2 0.467759 0.660620 0.741306
O O3 0.385550 0.749571 0.729408
O O4 0.263801 0.640820 0.083259
O O5 0.607865 0.720384 0.623940
O O6 0.573419 0.854019 0.523838
O O7 0.429138 0.827297 0.949451
O O8 0.387102 0.500000 0.316754
O O9 0.379533 0.683572 0.202348
O O10 0.217007 0.627750 0.628464
O O11 0.500000 0.134353 0.000000
O O12 0.620595 0.000000 0.282312
#
# Coordination Sequence:
#
# PCOD9208690 Si02
#       5
#     8   8   8   8   8
#     4  10  22  40  61  87 121 160 201 248 301 356
#     4  11  21  36  60  89 118 152 198 248 298 350
#     4  10  21  38  59  84 117 156 197 241 292 352
#     4   9  21  39  57  85 119 152 193 240 295 351
#     4  10  23  42  62  87 121 160 202 248 300 359
#
# _framework density 22.098299000000001
#
# number of rings (size 3 to 8) (size 9 to 14) (size 15 to 20)
#    0.000    2.000    0.000    2.400    0.000    9.600 
#    0.000   16.000    0.000    0.000    0.000    0.000 
#    0.000    0.000    0.000    0.000    0.000    0.000 
#
# Total GULP energy -111566.610450 kJ/mol
# GULP energy per Si atom -5578.330523 kJ/mol
# Density = 2.204800 g / cm^3
# Si number density = 22.098299 Si / 1000 Ang^3
#
#
#
# Elastic Constant Matrix: (Units=GPa)
#
#
# Indices 1 2 3 4 5 6 
#
# 1 56.1627 17.8365 25.7552 0.0000 -5.4092 0.0000
# 2 17.8365 133.2631 27.4168 0.0000 15.2096 0.0000
# 3 25.7552 27.4168 159.2788 0.0000 5.1188 0.0000
# 4 0.0000 0.0000 0.0000 -6.6063 0.0000 25.8899
# 5 -5.4092 15.2096 5.1188 0.0000 46.8922 0.0000
# 6 0.0000 0.0000 0.0000 25.8899 0.0000 -29.7299
#
#
#
# Elastic Compliance Matrix: (Units=1/GPa)
#
#
# Indices 1 2 3 4 5 6 
#
# 1 0.020294 -0.002504 -0.002962 0.000000 0.003476 0.000000
# 2 -0.002504 0.008364 -0.000942 0.000000 -0.002899 0.000000
# 3 -0.002962 -0.000942 0.006945 0.000000 -0.000794 0.000000
# 4 0.000000 0.000000 0.000000 0.062737 0.000000 0.054634
# 5 0.003476 -0.002899 -0.000794 0.000000 0.022753 0.000000
# 6 0.000000 0.000000 0.000000 0.054634 0.000000 0.013941
#
#
# Mechanical properties :
#
#
# Convention : Reuss Voigt Hill
#
# Bulk Modulus (GPa) = 43.88394 54.52462 49.20428
# Shear Modulus (GPa) = 32.16582 20.62426 26.39504
#
# Velocity S-wave (km/s) = 3.81934 3.05830 3.45981
# Velocity P-wave (km/s) = 6.27308 6.09903 6.18667
#
# Compressibility (1/GPa) = 0.02278738
#
# Stress axis : x y z
#
# Youngs Moduli (GPa) = 49.27621 119.56555 143.99029
#
# Poissons Ratio (x) = 0.29934 0.42654
# Poissons Ratio (y) = 0.12336 0.13559
# Poissons Ratio (z) = 0.14597 0.11259
#
# Static dielectric constant tensor:
#      x y z
#    x 1.808800 0.000000 -0.012590 
#    y 0.000000 1.846190 0.000000 
#    z -0.012590 0.000000 1.813400 
# 
# From -- ./inp_files/182722.got.cif
#   From: 2010.05.17/outbox.cif.g08.bks.cpg/sg12_92_cif.got.tgz:182722.got - 2010.06.03 13:09:07.
