data_PCOD9208441
_publ_section_title
;
Structure prediction by ZEFSAII (Michael W. Deem and Ramdas Pophale) SiO2 
 PCOD9208441
Probable space group: C 2/M
;
_chemical_formula_sum "Si O2"
_cell_formula_units_Z 58
_cell_length_a 25.035167
_cell_length_b 9.992479
_cell_length_c 20.467386
_cell_angle_alpha 90.000000
_cell_angle_beta 141.613708
_cell_angle_gamma 90.000000
_cell_volume 3179.434827
_symmetry_space_group_name_H-M "C 2/M"
_symmetry_group_IT_number 12
_symmetry_cell_setting 'monoclinic'
loop_
_space_group_symop_operation_xyz
x,y,z
-x,y,-z
-x,-y,-z
x,-y,z
1/2+x,1/2+y,z
1/2-x,1/2+y,-z
1/2-x,1/2-y,-z
1/2+x,1/2-y,z
loop_
_atom_site_type_symbol
_atom_site_label
_atom_site_fract_x
_atom_site_fract_y
_atom_site_fract_z
Si Si1 0.494437 0.844380 0.727273
Si Si2 0.816120 0.654073 0.026265
Si Si3 0.198528 0.847066 0.232326
Si Si4 0.410234 0.753049 0.990785
Si Si5 0.930671 0.153653 0.775592
Si Si6 0.500000 0.000000 0.000000
Si Si7 0.996474 0.154606 0.387443
Si Si8 0.143421 0.153121 0.638879
O O1 0.592048 0.842369 0.848431
O O2 0.437881 0.762223 0.725338
O O3 0.492588 0.761909 0.658624
O O4 0.468857 0.000000 0.696344
O O5 0.785703 0.500000 0.996097
O O6 0.750000 0.750000 0.000000
O O7 0.838102 0.703360 0.974240
O O8 0.132527 0.826007 0.109548
O O9 0.147710 0.817783 0.250496
O O10 0.277976 0.750156 0.297315
O O11 0.227596 0.000000 0.261937
O O12 0.482445 0.669692 0.098482
O O13 0.456404 0.882930 0.004816
O O14 0.924441 0.000000 0.746058
O O15 0.074705 0.162598 0.514058
O O16 0.910093 0.180236 0.346437
O O17 0.993095 0.000000 0.360054
O O18 0.174530 0.000000 0.671596
#
# Coordination Sequence:
#
# PCOD9208441 Si02
#       8
#     8   8   8   8   8   2   8   8
#     4  10  22  37  59  84 111 148 193 234 283 342
#     4  10  23  38  52  80 117 152 192 232 279 340
#     4  11  23  36  56  88 119 148 189 241 292 339
#     4  11  22  36  59  83 116 156 199 239 287 337
#     4  10  21  38  57  81 115 156 193 232 281 340
#     4  12  20  36  62  88 112 158 206 256 284 340
#     4   9  19  41  62  84 111 147 188 233 287 349
#     4   9  21  38  62  86 112 144 189 236 285 345
#
# _framework density 18.242235000000001
#
# number of rings (size 3 to 8) (size 9 to 14) (size 15 to 20)
#    0.000    1.931    2.069    1.655    3.862    6.069 
#    0.000    2.069    0.000    0.000    0.000    0.000 
#    0.000    0.000    0.000    0.000    0.000    0.000 
#
# Total GULP energy -161656.941289 kJ/mol
# GULP energy per Si atom -5574.377286 kJ/mol
# Density = 1.820071 g / cm^3
# Si number density = 18.242235 Si / 1000 Ang^3
#
#
#
# Elastic Constant Matrix: (Units=GPa)
#
#
# Indices 1 2 3 4 5 6 
#
# 1 137.3114 101.4528 29.6172 0.0000 -14.2321 0.0000
# 2 101.4528 141.7739 38.6157 0.0000 -8.0407 0.0000
# 3 29.6172 38.6157 21.2485 0.0000 -3.1627 0.0000
# 4 0.0000 0.0000 0.0000 18.1343 0.0000 -0.1827
# 5 -14.2321 -8.0407 -3.1627 0.0000 24.6784 0.0000
# 6 0.0000 0.0000 0.0000 -0.1827 0.0000 35.2637
#
#
#
# Elastic Compliance Matrix: (Units=1/GPa)
#
#
# Indices 1 2 3 4 5 6 
#
# 1 0.016262 -0.010639 -0.002500 0.000000 0.005592 0.000000
# 2 -0.010639 0.020970 -0.023628 0.000000 -0.002331 0.000000
# 3 -0.002500 -0.023628 0.093917 0.000000 0.002896 0.000000
# 4 0.000000 0.000000 0.000000 0.055147 0.000000 0.000286
# 5 0.005592 -0.002331 0.002896 0.000000 0.043358 0.000000
# 6 0.000000 0.000000 0.000000 0.000286 0.000000 0.028359
#
#
# Mechanical properties :
#
#
# Convention : Reuss Voigt Hill
#
# Bulk Modulus (GPa) = 17.35617 71.07836 44.21727
# Shear Modulus (GPa) = 14.25508 24.32515 19.29011
#
# Velocity S-wave (km/s) = 2.79844 3.65561 3.25536
# Velocity P-wave (km/s) = 4.46953 7.54097 6.19850
#
# Compressibility (1/GPa) = 0.05761640
#
# Stress axis : x y z
#
# Youngs Moduli (GPa) = 61.49201 47.68669 10.64768
#
# Poissons Ratio (x) = 0.50735 0.02662
# Poissons Ratio (y) = 0.65423 0.25158
# Poissons Ratio (z) = 0.15372 1.12672
#
# Static dielectric constant tensor:
#      x y z
#    x 1.613820 0.000000 -0.007680 
#    y 0.000000 1.611970 0.000000 
#    z -0.007680 0.000000 1.620160 
# 
# From -- ./inp_files/324622.got.cif
#   From: 2010.05.17/outbox.cif.g08.bks.cpg/sg12_163_cif.got.tgz:324622.got - 2010.06.03 13:09:07.
