data_PCOD9208346
_publ_section_title
;
Structure prediction by ZEFSAII (Michael W. Deem and Ramdas Pophale) SiO2 
 PCOD9208346
Probable space group: C 2/M
;
_chemical_formula_sum "Si O2"
_cell_formula_units_Z 56
_cell_length_a 12.571113
_cell_length_b 28.851507
_cell_length_c 14.003057
_cell_angle_alpha 90.000000
_cell_angle_beta 38.808859
_cell_angle_gamma 90.000000
_cell_volume 3183.036555
_symmetry_space_group_name_H-M "C 2/M"
_symmetry_group_IT_number 12
_symmetry_cell_setting 'monoclinic'
loop_
_space_group_symop_operation_xyz
x,y,z
-x,y,-z
-x,-y,-z
x,-y,z
1/2+x,1/2+y,z
1/2-x,1/2+y,-z
1/2-x,1/2-y,-z
1/2+x,1/2-y,z
loop_
_atom_site_type_symbol
_atom_site_label
_atom_site_fract_x
_atom_site_fract_y
_atom_site_fract_z
Si Si1 0.225128 0.711678 0.719926
Si Si2 0.515994 0.052400 0.604404
Si Si3 0.787711 0.121289 0.370483
Si Si4 0.307358 0.684466 0.173811
Si Si5 0.400572 0.780087 0.846686
Si Si6 0.644075 0.554764 0.832692
Si Si7 0.027804 0.196527 0.632490
O O1 0.205774 0.763889 0.772999
O O2 0.342006 0.686675 0.717359
O O3 0.341235 0.708306 0.543972
O O4 0.033654 0.697369 0.827055
O O5 0.500000 0.049524 0.500000
O O6 0.636534 0.096556 0.535105
O O7 0.321114 0.061953 0.764639
O O8 0.567140 0.000000 0.600718
O O9 0.747927 0.151367 0.302176
O O10 0.871145 0.077291 0.260336
O O11 0.900133 0.154111 0.357064
O O12 0.183441 0.684795 0.169413
O O13 0.500000 0.677827 0.000000
O O14 0.507348 0.741847 0.712543
O O15 0.250000 0.750000 0.000000
O O16 0.626695 0.500000 0.833528
O O17 0.500000 0.574358 0.000000
#
# Coordination Sequence:
#
# PCOD9208346 Si02
#       7
#     8   8   8   8   8   8   8
#     4  10  21  38  50  66 100 140 184 221 263 309
#     4   8  16  31  49  74 104 133 160 200 261 323
#     4  11  19  31  50  77 109 132 177 216 259 313
#     4  11  21  33  51  76 101 135 182 223 268 315
#     4  11  20  34  53  68  97 138 181 223 269 307
#     4   9  18  33  53  78 112 141 161 202 268 333
#     4  10  22  35  50  71  98 141 179 225 259 312
#
# _framework density 17.593264000000001
#
# number of rings (size 3 to 8) (size 9 to 14) (size 15 to 20)
#    0.000    2.000    2.857    2.143    0.000    3.429 
#    7.714    0.000    0.000    0.000    0.000    8.000 
#    0.000    4.571    0.000   62.286    0.000    0.429 
#
# Total GULP energy -155912.512966 kJ/mol
# GULP energy per Si atom -5568.304034 kJ/mol
# Density = 1.755322 g / cm^3
# Si number density = 17.593264 Si / 1000 Ang^3
#
#
#
# Elastic Constant Matrix: (Units=GPa)
#
#
# Indices 1 2 3 4 5 6 
#
# 1 109.3233 43.4488 22.2963 0.0000 -23.4166 0.0000
# 2 43.4488 88.0106 26.6750 0.0000 -11.1298 0.0000
# 3 22.2963 26.6750 73.6874 0.0000 -14.7356 0.0000
# 4 0.0000 0.0000 0.0000 -23.7966 0.0000 -10.8614
# 5 -23.4166 -11.1298 -14.7356 0.0000 26.0647 0.0000
# 6 0.0000 0.0000 0.0000 -10.8614 0.0000 12.5446
#
#
#
# Elastic Compliance Matrix: (Units=1/GPa)
#
#
# Indices 1 2 3 4 5 6 
#
# 1 0.013363 -0.005322 -0.000192 0.000000 0.009624 0.000000
# 2 -0.005322 0.015123 -0.003979 0.000000 -0.000573 0.000000
# 3 -0.000192 -0.003979 0.016568 0.000000 0.007495 0.000000
# 4 0.000000 0.000000 0.000000 -0.030120 0.000000 -0.026078
# 5 0.009624 -0.000573 0.007495 0.000000 0.051005 0.000000
# 6 0.000000 0.000000 0.000000 -0.026078 0.000000 0.057136
#
#
# Mechanical properties :
#
#
# Convention : Reuss Voigt Hill
#
# Bulk Modulus (GPa) = 38.36055 50.65125 44.50590
# Shear Modulus (GPa) = 33.16742 14.86929 24.01836
#
# Velocity S-wave (km/s) = 4.34664 2.91033 3.69887
# Velocity P-wave (km/s) = 6.85875 6.33609 6.60259
#
# Compressibility (1/GPa) = 0.02606845
#
# Stress axis : x y z
#
# Youngs Moduli (GPa) = 74.83457 66.12485 60.35660
#
# Poissons Ratio (x) = 0.35189 0.01161
# Poissons Ratio (y) = 0.39824 0.24015
# Poissons Ratio (z) = 0.01439 0.26310
#
# Static dielectric constant tensor:
#      x y z
#    x 1.633860 0.000000 -0.030490 
#    y 0.000000 1.625020 0.000000 
#    z -0.030490 0.000000 1.701580 
# 
# From -- ./inp_files/209685.got.cif
#   From: 2010.05.17/outbox.cif.g08.bks.cpg/sg12_105_cif.got.tgz:209685.got - 2010.06.03 13:09:07.
