data_PCOD9208060
_publ_section_title
;
Structure prediction by ZEFSAII (Michael W. Deem and Ramdas Pophale) SiO2 
 PCOD9208060
Probable space group: C 2/M
;
_chemical_formula_sum "Si O2"
_cell_formula_units_Z 48
_cell_length_a 25.222662
_cell_length_b 8.730871
_cell_length_c 12.735627
_cell_angle_alpha 90.000000
_cell_angle_beta 109.481964
_cell_angle_gamma 90.000000
_cell_volume 2644.014069
_symmetry_space_group_name_H-M "C 2/M"
_symmetry_group_IT_number 12
_symmetry_cell_setting 'monoclinic'
loop_
_space_group_symop_operation_xyz
x,y,z
-x,y,-z
-x,-y,-z
x,-y,z
1/2+x,1/2+y,z
1/2-x,1/2+y,-z
1/2-x,1/2-y,-z
1/2+x,1/2-y,z
loop_
_atom_site_type_symbol
_atom_site_label
_atom_site_fract_x
_atom_site_fract_y
_atom_site_fract_z
Si Si1 0.756732 0.817332 0.887477
Si Si2 0.142026 0.817196 0.737608
Si Si3 0.936995 0.183698 0.726018
Si Si4 0.936465 0.316591 0.494173
Si Si5 0.062786 0.182985 0.885731
Si Si6 0.372772 0.182197 0.877916
O O1 0.701539 0.766015 0.787775
O O2 0.812977 0.750221 0.873461
O O3 0.760804 0.000000 0.896381
O O4 0.750000 0.750000 0.000000
O O5 0.106719 0.759774 0.615065
O O6 0.105364 0.784044 0.818118
O O7 0.150157 0.000000 0.738093
O O8 0.928158 0.256186 0.606211
O O9 0.893663 0.246722 0.782750
O O10 0.999954 0.222704 0.807965
O O11 0.933444 0.000000 0.716618
O O12 0.930598 0.500000 0.486662
O O13 0.000000 0.277157 0.500000
O O14 0.064723 0.000000 0.907847
O O15 0.083115 0.269707 0.002355
O O16 0.369461 0.000000 0.868408
#
# Coordination Sequence:
#
# PCOD9208060 Si02
#       6
#     8   8   8   8   8   8
#     4  12  24  41  64  91 123 162 206 254 306 363
#     4  11  22  39  64  94 125 160 205 255 305 361
#     4  11  23  41  63  89 125 167 209 253 307 368
#     4  11  23  39  62  92 127 163 206 255 303 361
#     4  10  21  37  61  91 126 163 203 252 307 367
#     4  12  25  40  61  91 127 165 205 254 312 369
#
# _framework density 18.154214
#
# number of rings (size 3 to 8) (size 9 to 14) (size 15 to 20)
#    0.000    0.833    3.333    5.000    0.000    4.667 
#    0.000    0.833    0.000    0.000    0.000    0.000 
#    0.000    0.000    0.000    0.000    0.000    0.000 
#
# Total GULP energy -134299.389269 kJ/mol
# GULP energy per Si atom -5595.807886 kJ/mol
# Density = 1.811289 g / cm^3
# Si number density = 18.154214 Si / 1000 Ang^3
#
#
#
# Elastic Constant Matrix: (Units=GPa)
#
#
# Indices 1 2 3 4 5 6 
#
# 1 51.2492 2.7518 22.3287 0.0000 -13.5534 0.0000
# 2 2.7518 45.0524 18.4862 0.0000 -8.4475 0.0000
# 3 22.3287 18.4862 104.3169 0.0000 -12.3378 0.0000
# 4 0.0000 0.0000 0.0000 36.2354 0.0000 -2.9260
# 5 -13.5534 -8.4475 -12.3378 0.0000 35.2327 0.0000
# 6 0.0000 0.0000 0.0000 -2.9260 0.0000 23.4798
#
#
#
# Elastic Compliance Matrix: (Units=1/GPa)
#
#
# Indices 1 2 3 4 5 6 
#
# 1 0.023426 0.001862 -0.004408 0.000000 0.007914 0.000000
# 2 0.001862 0.024769 -0.004174 0.000000 0.005193 0.000000
# 3 -0.004408 -0.004174 0.011424 0.000000 0.001304 0.000000
# 4 0.000000 0.000000 0.000000 0.027878 0.000000 0.003474
# 5 0.007914 0.005193 0.001304 0.000000 0.033129 0.000000
# 6 0.000000 0.000000 0.000000 0.003474 0.000000 0.043023
#
#
# Mechanical properties :
#
#
# Convention : Reuss Voigt Hill
#
# Bulk Modulus (GPa) = 21.65494 31.97242 26.81368
# Shear Modulus (GPa) = 25.97657 29.45971 27.71814
#
# Velocity S-wave (km/s) = 3.78681 4.03270 3.91169
# Velocity P-wave (km/s) = 5.57441 6.27164 5.93328
#
# Compressibility (1/GPa) = 0.04617884
#
# Stress axis : x y z
#
# Youngs Moduli (GPa) = 42.68732 40.37306 87.53836
#
# Poissons Ratio (x) = -0.07517 0.38589
# Poissons Ratio (y) = -0.07948 0.36536
# Poissons Ratio (z) = 0.18817 0.16850
#
# Static dielectric constant tensor:
#      x y z
#    x 1.604390 0.000000 0.005080 
#    y 0.000000 1.604180 0.000000 
#    z 0.005080 0.000000 1.590140 
# 
# From -- ./inp_files/172945.got.cif
#   From: 2010.05.17/outbox.cif.g08.bks.cpg/sg12_87_cif.got.tgz:172945.got - 2010.06.03 13:09:07.
