data_PCOD9208488
_publ_section_title
;
Structure prediction by ZEFSAII (Michael W. Deem and Ramdas Pophale) SiO2 
 PCOD9208488
Probable space group: C 2/M
;
_chemical_formula_sum "Si O2"
_cell_formula_units_Z 60
_cell_length_a 9.433435
_cell_length_b 28.728515
_cell_length_c 12.239489
_cell_angle_alpha 90.000000
_cell_angle_beta 68.812490
_cell_angle_gamma 90.000000
_cell_volume 3092.785538
_symmetry_space_group_name_H-M "C 2/M"
_symmetry_group_IT_number 12
_symmetry_cell_setting 'monoclinic'
loop_
_space_group_symop_operation_xyz
x,y,z
-x,y,-z
-x,-y,-z
x,-y,z
1/2+x,1/2+y,z
1/2-x,1/2+y,-z
1/2-x,1/2-y,-z
1/2+x,1/2-y,z
loop_
_atom_site_type_symbol
_atom_site_label
_atom_site_fract_x
_atom_site_fract_y
_atom_site_fract_z
Si Si1 0.823478 0.946577 0.514565
Si Si2 0.714778 0.783307 0.613106
Si Si3 0.859327 0.398673 0.248961
Si Si4 0.595400 0.176224 0.270115
Si Si5 0.611941 0.322174 0.247354
Si Si6 0.741957 0.305674 0.988683
Si Si7 0.715322 0.646594 0.581440
Si Si8 0.500000 0.121549 0.000000
O O1 0.714028 0.935148 0.647848
O O2 0.785679 0.908762 0.432041
O O3 0.000000 0.938952 0.500000
O O4 0.806589 0.000000 0.485442
O O5 0.750000 0.750000 0.500000
O O6 0.538062 0.784837 0.694907
O O7 0.839777 0.666953 0.628475
O O8 0.755424 0.832696 0.546192
O O9 0.723655 0.364808 0.246010
O O10 0.997454 0.369308 0.264275
O O11 0.935236 0.411374 0.112517
O O12 0.687799 0.281510 0.302781
O O13 0.733865 0.185452 0.147517
O O14 0.613103 0.316201 0.115798
O O15 0.445889 0.334178 0.334953
O O16 0.750000 0.250000 0.000000
O O17 0.874621 0.340693 0.993968
#
# Coordination Sequence:
#
# PCOD9208488 Si02
#       8
#     8   8   8   8   8   8   8   4
#     4  11  21  37  64  94 119 151 196 253 308 370
#     4  11  24  37  58  81 117 160 204 236 295 350
#     4   9  17  39  57  79 113 152 194 234 298 352
#     4  10  23  38  56  83 119 161 190 252 291 346
#     4  10  21  38  58  78 113 160 195 248 289 346
#     4  10  22  36  56  79 116 153 215 243 290 337
#     4  12  22  37  58  87 124 149 196 242 303 362
#     4   8  18  36  59  74 108 164 194 254 291 340
#
# _framework density 19.399989000000001
#
# number of rings (size 3 to 8) (size 9 to 14) (size 15 to 20)
#    0.000    1.733    4.000    1.600    3.733    2.667 
#    0.000    1.667    0.000    0.000    0.000    2.800 
#    0.000    0.000    0.000    0.000    0.000    0.000 
#
# Total GULP energy -167014.773803 kJ/mol
# GULP energy per Si atom -5567.159127 kJ/mol
# Density = 1.935583 g / cm^3
# Si number density = 19.399989 Si / 1000 Ang^3
#
#
#
# Elastic Constant Matrix: (Units=GPa)
#
#
# Indices 1 2 3 4 5 6 
#
# 1 59.4341 9.2292 37.9087 0.0000 -17.0707 0.0000
# 2 9.2292 67.4690 19.8700 0.0000 -0.9965 0.0000
# 3 37.9087 19.8700 156.3909 0.0000 -6.7524 0.0000
# 4 0.0000 0.0000 0.0000 25.2167 0.0000 -0.1500
# 5 -17.0707 -0.9965 -6.7524 0.0000 12.6154 0.0000
# 6 0.0000 0.0000 0.0000 -0.1500 0.0000 14.9342
#
#
#
# Elastic Compliance Matrix: (Units=1/GPa)
#
#
# Indices 1 2 3 4 5 6 
#
# 1 0.032638 -0.002130 -0.005877 0.000000 0.040850 0.000000
# 2 -0.002130 0.015537 -0.001565 0.000000 -0.002493 0.000000
# 3 -0.005877 -0.001565 0.007850 0.000000 -0.003874 0.000000
# 4 0.000000 0.000000 0.000000 0.039659 0.000000 0.000398
# 5 0.040850 -0.002493 -0.003874 0.000000 0.132275 0.000000
# 6 0.000000 0.000000 0.000000 0.000398 0.000000 0.066965
#
#
# Mechanical properties :
#
#
# Convention : Reuss Voigt Hill
#
# Bulk Modulus (GPa) = 27.11500 46.36778 36.74139
# Shear Modulus (GPa) = 15.32045 24.97233 20.14639
#
# Velocity S-wave (km/s) = 2.81323 3.59170 3.22603
# Velocity P-wave (km/s) = 4.95576 6.41508 5.73205
#
# Compressibility (1/GPa) = 0.03687995
#
# Stress axis : x y z
#
# Youngs Moduli (GPa) = 30.63957 64.36164 127.38258
#
# Poissons Ratio (x) = 0.13712 0.74860
# Poissons Ratio (y) = 0.06528 0.19939
# Poissons Ratio (z) = 0.18006 0.10075
#
# Static dielectric constant tensor:
#      x y z
#    x 1.692030 0.000000 -0.004080 
#    y 0.000000 1.723140 0.000000 
#    z -0.004080 0.000000 1.764500 
# 
# From -- ./inp_files/272500.got.cif
#   From: 2010.05.17/outbox.cif.g08.bks.cpg/sg12_137_cif.got.tgz:272500.got - 2010.06.03 13:09:07.
