data_PCOD9208081
_publ_section_title
;
Structure prediction by ZEFSAII (Michael W. Deem and Ramdas Pophale) SiO2 
 PCOD9208081
Probable space group: C 2/M
;
_chemical_formula_sum "Si O2"
_cell_formula_units_Z 48
_cell_length_a 29.916300
_cell_length_b 12.964671
_cell_length_c 5.270629
_cell_angle_alpha 90.000000
_cell_angle_beta 91.202874
_cell_angle_gamma 90.000000
_cell_volume 2043.789257
_symmetry_space_group_name_H-M "C 2/M"
_symmetry_group_IT_number 12
_symmetry_cell_setting 'monoclinic'
loop_
_space_group_symop_operation_xyz
x,y,z
-x,y,-z
-x,-y,-z
x,-y,z
1/2+x,1/2+y,z
1/2-x,1/2+y,-z
1/2-x,1/2-y,-z
1/2+x,1/2-y,z
loop_
_atom_site_type_symbol
_atom_site_label
_atom_site_fract_x
_atom_site_fract_y
_atom_site_fract_z
Si Si1 0.563685 0.380870 0.790927
Si Si2 0.286309 0.199563 0.191922
Si Si3 0.525401 0.833120 0.752905
Si Si4 0.882280 0.181605 0.700522
Si Si5 0.875085 0.381893 0.370140
Si Si6 0.206776 0.109535 0.442825
O O1 0.549283 0.500000 0.811371
O O2 0.588007 0.343338 0.052161
O O3 0.526789 0.292419 0.746123
O O4 0.596327 0.370471 0.549631
O O5 0.335331 0.150516 0.169748
O O6 0.255537 0.115789 0.328156
O O7 0.296429 0.295938 0.371009
O O8 0.250000 0.250000 0.000000
O O9 0.500000 0.869471 0.500000
O O10 0.576505 0.869515 0.751400
O O11 0.500000 0.866702 0.000000
O O12 0.876676 0.300490 0.606549
O O13 0.833921 0.131796 0.752112
O O14 0.868177 0.500000 0.449301
O O15 0.200004 0.000000 0.568813
#
# Coordination Sequence:
#
# PCOD9208081 Si02
#       6
#     8   8   8   8   8   8
#     4  11  22  41  69 102 141 184 227 281 357 423
#     4  10  23  41  65  99 137 173 228 289 332 417
#     4  11  25  45  69 102 141 181 237 301 350 415
#     4  10  23  40  66 104 142 178 232 286 332 417
#     4  10  23  46  72  98 138 187 234 291 358 416
#     4  10  21  37  61  92 135 180 220 271 339 404
#
# _framework density 23.485786000000001
#
# number of rings (size 3 to 8) (size 9 to 14) (size 15 to 20)
#    0.000    1.667    0.000    4.000    7.000    2.667 
#    3.000    6.667    0.000    0.000    0.000    0.000 
#    0.000    0.000    0.000    0.000    0.000    0.000 
#
# Total GULP energy -134027.137373 kJ/mol
# GULP energy per Si atom -5584.464057 kJ/mol
# Density = 2.343233 g / cm^3
# Si number density = 23.485786 Si / 1000 Ang^3
#
#
#
# Elastic Constant Matrix: (Units=GPa)
#
#
# Indices 1 2 3 4 5 6 
#
# 1 154.5005 5.0203 53.7557 0.0000 -3.3463 0.0000
# 2 5.0203 141.1946 16.8861 0.0000 -5.0652 0.0000
# 3 53.7557 16.8861 128.3268 0.0000 10.5662 0.0000
# 4 0.0000 0.0000 0.0000 4.8940 0.0000 -10.2175
# 5 -3.3463 -5.0652 10.5662 0.0000 28.8779 0.0000
# 6 0.0000 0.0000 0.0000 -10.2175 0.0000 24.4244
#
#
#
# Elastic Compliance Matrix: (Units=1/GPa)
#
#
# Indices 1 2 3 4 5 6 
#
# 1 0.007709 0.000216 -0.003438 0.000000 0.002189 0.000000
# 2 0.000216 0.007280 -0.001191 0.000000 0.001738 0.000000
# 3 -0.003438 -0.001191 0.009733 0.000000 -0.004168 0.000000
# 4 0.000000 0.000000 0.000000 1.613883 0.000000 0.675141
# 5 0.002189 0.001738 -0.004168 0.000000 0.036712 0.000000
# 6 0.000000 0.000000 0.000000 0.675141 0.000000 0.323377
#
#
# Mechanical properties :
#
#
# Convention : Reuss Voigt Hill
#
# Bulk Modulus (GPa) = 62.91636 63.92734 63.42185
# Shear Modulus (GPa) = 2.48408 34.86324 18.67366
#
# Velocity S-wave (km/s) = 1.02956 3.85702 2.82282
# Velocity P-wave (km/s) = 5.31607 6.86398 6.13901
#
# Compressibility (1/GPa) = 0.01589412
#
# Stress axis : x y z
#
# Youngs Moduli (GPa) = 129.71803 137.37086 102.74636
#
# Poissons Ratio (x) = -0.02961 0.35323
# Poissons Ratio (y) = -0.02796 0.12240
# Poissons Ratio (z) = 0.44596 0.16365
#
# Static dielectric constant tensor:
#      x y z
#    x 2.014100 0.000000 0.060420 
#    y 0.000000 1.909700 0.000000 
#    z 0.060420 0.000000 1.958750 
# 
# From -- ./inp_files/31296.got.cif
#   From: 2010.05.17/outbox.cif.g08.bks.cpg/sg12_16_cif.got.tgz:31296.got - 2010.06.03 13:09:07.
