data_PCOD9208595
_publ_section_title
;
Structure prediction by ZEFSAII (Michael W. Deem and Ramdas Pophale) SiO2 
 PCOD9208595
Probable space group: C 2/M
;
_chemical_formula_sum "Si O2"
_cell_formula_units_Z 32
_cell_length_a 7.739188
_cell_length_b 27.466983
_cell_length_c 9.168758
_cell_angle_alpha 90.000000
_cell_angle_beta 46.680056
_cell_angle_gamma 90.000000
_cell_volume 1417.980154
_symmetry_space_group_name_H-M "C 2/M"
_symmetry_group_IT_number 12
_symmetry_cell_setting 'monoclinic'
loop_
_space_group_symop_operation_xyz
x,y,z
-x,y,-z
-x,-y,-z
x,-y,z
1/2+x,1/2+y,z
1/2-x,1/2+y,-z
1/2-x,1/2-y,-z
1/2+x,1/2-y,z
loop_
_atom_site_type_symbol
_atom_site_label
_atom_site_fract_x
_atom_site_fract_y
_atom_site_fract_z
Si Si1 0.754325 0.855041 0.550484
Si Si2 0.878424 0.301538 0.914166
Si Si3 0.260615 0.053676 0.273666
Si Si4 0.445685 0.606336 0.878054
O O1 0.579466 0.809731 0.674221
O O2 0.629258 0.901091 0.703187
O O3 0.000000 0.845485 0.500000
O O4 0.831483 0.874346 0.347986
O O5 0.750000 0.250000 0.000000
O O6 0.689235 0.344013 0.006228
O O7 0.000000 0.309998 0.000000
O O8 0.206092 0.072040 0.142211
O O9 0.000000 0.050192 0.500000
O O10 0.367592 0.000000 0.221500
O O11 0.500000 0.581452 0.000000
#
# Coordination Sequence:
#
# PCOD9208595 Si02
#       4
#     8   8   8   8
#     4   9  19  39  61  86 124 159 204 248 299 357
#     4  12  23  40  61  88 117 157 208 256 301 362
#     4   8  15  32  62  90 119 160 204 244 297 359
#     4  10  21  38  58  88 128 161 196 251 302 352
#
# _framework density 22.567311
#
# number of rings (size 3 to 8) (size 9 to 14) (size 15 to 20)
#    0.000    2.750    5.000    0.750    0.000    2.500 
#    0.000    2.500    0.000    0.000    0.000   17.500 
#    0.000    0.000    0.000    0.000    0.000    0.000 
#
# Total GULP energy -89297.654765 kJ/mol
# GULP energy per Si atom -5581.103423 kJ/mol
# Density = 2.251595 g / cm^3
# Si number density = 22.567311 Si / 1000 Ang^3
#
#
#
# Elastic Constant Matrix: (Units=GPa)
#
#
# Indices 1 2 3 4 5 6 
#
# 1 52.8823 22.0073 32.9723 0.0000 20.0632 0.0000
# 2 22.0073 113.1712 24.9775 0.0000 -24.9421 0.0000
# 3 32.9723 24.9775 143.2409 0.0000 4.6564 0.0000
# 4 0.0000 0.0000 0.0000 10.5007 0.0000 -4.3778
# 5 20.0632 -24.9421 4.6564 0.0000 37.2137 0.0000
# 6 0.0000 0.0000 0.0000 -4.3778 0.0000 19.5275
#
#
#
# Elastic Compliance Matrix: (Units=1/GPa)
#
#
# Indices 1 2 3 4 5 6 
#
# 1 0.038434 -0.012451 -0.005754 0.000000 -0.028346 0.000000
# 2 -0.012451 0.015032 -0.000302 0.000000 0.016826 0.000000
# 3 -0.005754 -0.000302 0.008298 0.000000 0.001862 0.000000
# 4 0.000000 0.000000 0.000000 0.105051 0.000000 0.023551
# 5 -0.028346 0.016826 0.001862 0.000000 0.053199 0.000000
# 6 0.000000 0.000000 0.000000 0.023551 0.000000 0.056490
#
#
# Mechanical properties :
#
#
# Convention : Reuss Voigt Hill
#
# Bulk Modulus (GPa) = 40.40579 52.13429 46.27004
# Shear Modulus (GPa) = 15.53913 28.73753 22.13833
#
# Velocity S-wave (km/s) = 2.62691 3.57236 3.13548
# Velocity P-wave (km/s) = 5.21002 6.33779 5.80137
#
# Compressibility (1/GPa) = 0.02474893
#
# Stress axis : x y z
#
# Youngs Moduli (GPa) = 26.01882 66.52287 120.51099
#
# Poissons Ratio (x) = 0.82828 0.69346
# Poissons Ratio (y) = 0.32396 0.03641
# Poissons Ratio (z) = 0.14972 0.02010
#
# Static dielectric constant tensor:
#      x y z
#    x 2.432130 0.000000 0.163900 
#    y 0.000000 1.840200 0.000000 
#    z 0.163900 0.000000 1.988310 
# 
# From -- ./inp_files/40962.got.cif
#   From: 2010.05.17/outbox.cif.g08.bks.cpg/sg12_21_cif.got.tgz:40962.got - 2010.06.03 13:09:07.
