data_PCOD9208399
_publ_section_title
;
Structure prediction by ZEFSAII (Michael W. Deem and Ramdas Pophale) SiO2 
 PCOD9208399
Probable space group: C 2/M
;
_chemical_formula_sum "Si O2"
_cell_formula_units_Z 56
_cell_length_a 20.799315
_cell_length_b 18.188525
_cell_length_c 5.771964
_cell_angle_alpha 90.000000
_cell_angle_beta 98.047271
_cell_angle_gamma 90.000000
_cell_volume 2162.083165
_symmetry_space_group_name_H-M "C 2/M"
_symmetry_group_IT_number 12
_symmetry_cell_setting 'monoclinic'
loop_
_space_group_symop_operation_xyz
x,y,z
-x,y,-z
-x,-y,-z
x,-y,z
1/2+x,1/2+y,z
1/2-x,1/2+y,-z
1/2-x,1/2-y,-z
1/2+x,1/2-y,z
loop_
_atom_site_type_symbol
_atom_site_label
_atom_site_fract_x
_atom_site_fract_y
_atom_site_fract_z
Si Si1 0.251201 0.081522 0.186436
Si Si2 0.577850 0.582371 0.510617
Si Si3 0.415628 0.141007 0.764380
Si Si4 0.098209 0.614128 0.728434
Si Si5 0.853692 0.221965 0.221588
Si Si6 0.070003 0.194377 0.146161
Si Si7 0.740813 0.848256 0.313748
O O1 0.330199 0.079731 0.227026
O O2 0.236025 0.117448 0.430534
O O3 0.223540 0.000000 0.177598
O O4 0.237926 0.113804 0.921717
O O5 0.500000 0.581966 0.500000
O O6 0.602130 0.500000 0.566242
O O7 0.608326 0.650535 0.666336
O O8 0.586718 0.615598 0.261879
O O9 0.431884 0.096157 0.538594
O O10 0.442887 0.224319 0.751361
O O11 0.336645 0.148001 0.723810
O O12 0.431595 0.107615 0.027867
O O13 0.110544 0.701960 0.714974
O O14 0.782679 0.225842 0.294946
O O15 0.863928 0.213055 0.956174
O O16 0.000000 0.180705 0.000000
#
# Coordination Sequence:
#
# PCOD9208399 Si02
#       7
#     8   8   8   8   8   8   8
#     4  10  21  38  56  84 122 157 193 235 293 365
#     4  11  24  41  58  80 116 161 208 254 301 345
#     4   9  19  36  57  88 114 144 192 242 302 354
#     4   9  19  34  59  82 112 151 191 239 296 354
#     4  11  23  39  59  82 115 153 206 249 303 358
#     4  11  22  38  60  82 111 153 200 256 298 350
#     4  10  23  37  60  86 121 157 194 245 304 362
#
# _framework density 25.900946999999999
#
# number of rings (size 3 to 8) (size 9 to 14) (size 15 to 20)
#    0.000    1.857    2.857    0.429    2.000    9.429 
#    0.000    0.000    0.000    0.000    0.000    0.000 
#    0.000  152.000    0.000    0.000    0.000    0.000 
#
# Total GULP energy -155989.997622 kJ/mol
# GULP energy per Si atom -5571.071344 kJ/mol
# Density = 2.584200 g / cm^3
# Si number density = 25.900947 Si / 1000 Ang^3
#
#
#
# Elastic Constant Matrix: (Units=GPa)
#
#
# Indices 1 2 3 4 5 6 
#
# 1 107.9601 -6.0411 36.2508 0.0000 -18.1429 0.0000
# 2 -6.0411 70.6296 29.7736 0.0000 9.7171 0.0000
# 3 36.2508 29.7736 162.5190 0.0000 -10.2387 0.0000
# 4 0.0000 0.0000 0.0000 7.5661 0.0000 2.3694
# 5 -18.1429 9.7171 -10.2387 0.0000 28.4023 0.0000
# 6 0.0000 0.0000 0.0000 2.3694 0.0000 16.6802
#
#
#
# Elastic Compliance Matrix: (Units=1/GPa)
#
#
# Indices 1 2 3 4 5 6 
#
# 1 0.011086 0.001113 -0.002307 0.000000 0.005869 0.000000
# 2 0.001113 0.016686 -0.003704 0.000000 -0.006333 0.000000
# 3 -0.002307 -0.003704 0.007504 0.000000 0.002499 0.000000
# 4 0.000000 0.000000 0.000000 0.138323 0.000000 -0.019649
# 5 0.005869 -0.006333 0.002499 0.000000 0.042025 0.000000
# 6 0.000000 0.000000 0.000000 -0.019649 0.000000 0.062742
#
#
# Mechanical properties :
#
#
# Convention : Reuss Voigt Hill
#
# Bulk Modulus (GPa) = 39.24633 51.23060 45.23846
# Shear Modulus (GPa) = 16.85459 29.27141 23.06300
#
# Velocity S-wave (km/s) = 2.55371 3.36539 2.98725
# Velocity P-wave (km/s) = 4.88678 5.90961 5.42237
#
# Compressibility (1/GPa) = 0.02548009
#
# Stress axis : x y z
#
# Youngs Moduli (GPa) = 90.20463 59.92907 133.26664
#
# Poissons Ratio (x) = -0.06672 0.30744
# Poissons Ratio (y) = -0.10042 0.49365
# Poissons Ratio (z) = 0.20810 0.22199
#
# Static dielectric constant tensor:
#      x y z
#    x 2.054650 0.000000 -0.009730 
#    y 0.000000 2.046810 0.000000 
#    z -0.009730 0.000000 2.309600 
# 
# From -- ./inp_files/25438.got.cif
#   From: 2010.05.17/outbox.cif.g08.bks.cpg/sg12_13_cif.got.tgz:25438.got - 2010.06.03 13:09:07.
