data_PCOD9208485
_publ_section_title
;
Structure prediction by ZEFSAII (Michael W. Deem and Ramdas Pophale) SiO2 
 PCOD9208485
Probable space group: C 2/M
;
_chemical_formula_sum "Si O2"
_cell_formula_units_Z 48
_cell_length_a 12.217499
_cell_length_b 13.684205
_cell_length_c 20.626022
_cell_angle_alpha 90.000000
_cell_angle_beta 40.914240
_cell_angle_gamma 90.000000
_cell_volume 2258.454519
_symmetry_space_group_name_H-M "C 2/M"
_symmetry_group_IT_number 12
_symmetry_cell_setting 'monoclinic'
loop_
_space_group_symop_operation_xyz
x,y,z
-x,y,-z
-x,-y,-z
x,-y,z
1/2+x,1/2+y,z
1/2-x,1/2+y,-z
1/2-x,1/2-y,-z
1/2+x,1/2-y,z
loop_
_atom_site_type_symbol
_atom_site_label
_atom_site_fract_x
_atom_site_fract_y
_atom_site_fract_z
Si Si1 0.025851 0.194715 0.645984
Si Si2 0.954598 0.254774 0.228057
Si Si3 0.156106 0.888180 0.387389
Si Si4 0.893534 0.889046 0.148702
Si Si5 0.758766 0.611384 0.924709
Si Si6 0.406645 0.883950 0.471677
O O1 0.965670 0.200116 0.746775
O O2 0.211207 0.146809 0.564650
O O3 0.028657 0.301199 0.608357
O O4 0.906624 0.125967 0.657337
O O5 0.821548 0.326198 0.321182
O O6 0.860216 0.184155 0.221360
O O7 0.093189 0.315025 0.127337
O O8 0.000000 0.852649 0.500000
O O9 0.187160 0.000000 0.390685
O O10 0.792975 0.874153 0.127387
O O11 0.863482 0.000000 0.183542
O O12 0.089097 0.879001 0.041434
O O13 0.817744 0.500000 0.905501
O O14 0.500000 0.874992 0.500000
O O15 0.420545 0.000000 0.446248
#
# Coordination Sequence:
#
# PCOD9208485 Si02
#       6
#     8   8   8   8   8   8
#     4  11  22  36  54  80 112 146 184 232 288 333
#     4  12  22  35  59  88 114 146 191 234 276 336
#     4  11  24  41  57  77 112 156 195 232 275 325
#     4   9  20  39  61  86 117 146 178 229 292 345
#     4   9  19  38  62  86 112 146 186 230 281 340
#     4  10  21  38  58  78 105 146 196 243 282 326
#
# _framework density 21.253471999999999
#
# number of rings (size 3 to 8) (size 9 to 14) (size 15 to 20)
#    0.000    1.667    0.000    7.000    0.000    4.000 
#    0.000    4.167    0.000    1.000    0.000   10.500 
#    0.000    0.000    0.000    0.000    0.000    0.000 
#
# Total GULP energy -134144.187190 kJ/mol
# GULP energy per Si atom -5589.341133 kJ/mol
# Density = 2.120510 g / cm^3
# Si number density = 21.253472 Si / 1000 Ang^3
#
#
#
# Elastic Constant Matrix: (Units=GPa)
#
#
# Indices 1 2 3 4 5 6 
#
# 1 67.5034 18.3806 -5.8100 0.0000 0.4780 0.0000
# 2 18.3806 110.9105 19.9577 0.0000 1.9821 0.0000
# 3 -5.8100 19.9577 18.0426 -0.0001 -4.0362 0.0000
# 4 0.0000 0.0000 -0.0001 9.9540 0.0000 -8.8255
# 5 0.4780 1.9821 -4.0362 0.0000 30.2319 0.0000
# 6 0.0000 0.0000 0.0000 -8.8255 0.0000 24.2703
#
#
#
# Elastic Compliance Matrix: (Units=1/GPa)
#
#
# Indices 1 2 3 4 5 6 
#
# 1 0.017104 -0.004889 0.011263 0.000000 0.001554 0.000000
# 2 -0.004889 0.012837 -0.016436 0.000000 -0.002959 0.000000
# 3 0.011263 -0.016436 0.079817 0.000001 0.011556 0.000000
# 4 0.000000 0.000000 0.000001 0.148263 0.000000 0.053914
# 5 0.001554 -0.002959 0.011556 0.000000 0.034790 0.000000
# 6 0.000000 0.000000 0.000000 0.053914 0.000000 0.060807
#
#
# Mechanical properties :
#
#
# Convention : Reuss Voigt Hill
#
# Bulk Modulus (GPa) = 11.15645 29.05704 20.10675
# Shear Modulus (GPa) = 12.38792 23.81977 18.10385
#
# Velocity S-wave (km/s) = 2.41688 3.35139 2.92174
# Velocity P-wave (km/s) = 3.61235 5.35510 4.56761
#
# Compressibility (1/GPa) = 0.08963427
#
# Stress axis : x y z
#
# Youngs Moduli (GPa) = 58.46683 77.90047 12.52872
#
# Poissons Ratio (x) = 0.38086 -0.14111
# Poissons Ratio (y) = 0.28585 0.20592
# Poissons Ratio (z) = -0.65852 1.28035
#
# Static dielectric constant tensor:
#      x y z
#    x 1.743260 0.000000 0.005070 
#    y 0.000000 1.774110 0.000000 
#    z 0.005070 0.000000 1.790830 
# 
# From -- ./inp_files/305629.got.cif
#   From: 2010.05.17/outbox.cif.g08.bks.cpg/sg12_153_cif.got.tgz:305629.got - 2010.06.03 13:09:07.
