data_PCOD9208403
_publ_section_title
;
Structure prediction by ZEFSAII (Michael W. Deem and Ramdas Pophale) SiO2 
 PCOD9208403
Probable space group: C 2/M
;
_chemical_formula_sum "Si O2"
_cell_formula_units_Z 64
_cell_length_a 13.585215
_cell_length_b 18.207173
_cell_length_c 22.802876
_cell_angle_alpha 90.000000
_cell_angle_beta 150.089022
_cell_angle_gamma 90.000000
_cell_volume 2812.534247
_symmetry_space_group_name_H-M "C 2/M"
_symmetry_group_IT_number 12
_symmetry_cell_setting 'monoclinic'
loop_
_space_group_symop_operation_xyz
x,y,z
-x,y,-z
-x,-y,-z
x,-y,z
1/2+x,1/2+y,z
1/2-x,1/2+y,-z
1/2-x,1/2-y,-z
1/2+x,1/2-y,z
loop_
_atom_site_type_symbol
_atom_site_label
_atom_site_fract_x
_atom_site_fract_y
_atom_site_fract_z
Si Si1 0.782741 0.231501 0.722423
Si Si2 0.951718 0.304140 0.232860
Si Si3 0.378464 0.694612 0.026816
Si Si4 0.719425 0.087459 0.035369
Si Si5 0.035783 0.809560 0.381801
Si Si6 0.229958 0.587813 0.173506
Si Si7 0.176897 0.578489 0.637666
Si Si8 0.394248 0.084415 0.601698
O O1 0.906316 0.288773 0.748852
O O2 0.559376 0.258723 0.616472
O O3 0.792088 0.153930 0.693579
O O4 0.895493 0.216910 0.842729
O O5 0.008671 0.382302 0.289961
O O6 0.012373 0.242529 0.312563
O O7 0.728670 0.303307 0.091350
O O8 0.335450 0.619522 0.040124
O O9 0.250000 0.750000 0.000000
O O10 0.781313 0.110850 0.133177
O O11 0.726301 0.000000 0.036565
O O12 0.488764 0.109762 0.918953
O O13 0.882453 0.875134 0.294562
O O14 0.236502 0.853542 0.498699
O O15 0.237330 0.500000 0.178082
O O16 0.285006 0.500000 0.686142
O O17 0.000000 0.579314 0.500000
O O18 0.068708 0.580753 0.644222
O O19 0.317137 0.000000 0.567194
#
# Coordination Sequence:
#
# PCOD9208403 Si02
#       8
#     8   8   8   8   8   8   8   8
#     4  11  24  39  65  97 129 169 220 262 324 394
#     4  11  24  42  65  94 131 171 214 266 328 384
#     4  10  21  38  56  89 127 167 209 261 311 386
#     4   9  18  33  55  83 122 164 210 257 315 380
#     4  12  23  39  63  92 125 170 209 272 325 387
#     4   9  17  31  54  86 119 161 209 263 316 377
#     4  10  22  42  67  94 127 169 220 274 321 376
#     4  11  25  46  66  94 130 171 220 271 329 388
#
# _framework density 22.755279000000002
#
# number of rings (size 3 to 8) (size 9 to 14) (size 15 to 20)
#    0.000    1.625    1.250    5.250    1.750    2.500 
#    0.000    5.000    0.000    1.500    0.000    0.000 
#    0.000    0.000    0.000    0.000    0.000    0.000 
#
# Total GULP energy -178644.455368 kJ/mol
# GULP energy per Si atom -5582.639230 kJ/mol
# Density = 2.270349 g / cm^3
# Si number density = 22.755279 Si / 1000 Ang^3
#
#
#
# Elastic Constant Matrix: (Units=GPa)
#
#
# Indices 1 2 3 4 5 6 
#
# 1 70.2319 20.4122 6.4913 0.0000 -8.2763 0.0001
# 2 20.4122 94.9715 35.6089 0.0000 -7.5438 0.0001
# 3 6.4913 35.6089 72.3605 -0.0042 -2.2414 0.0005
# 4 0.0000 0.0000 -0.0042 42.4150 -0.0004 -14.8205
# 5 -8.2763 -7.5438 -2.2414 -0.0004 30.1812 0.0002
# 6 0.0001 0.0001 0.0005 -14.8205 0.0002 50.0420
#
#
#
# Elastic Compliance Matrix: (Units=1/GPa)
#
#
# Indices 1 2 3 4 5 6 
#
# 1 0.015545 -0.003165 0.000271 0.000000 0.003492 0.000000
# 2 -0.003165 0.013790 -0.006437 -0.000001 0.002101 0.000000
# 3 0.000271 -0.006437 0.016955 0.000002 -0.000275 0.000000
# 4 0.000000 -0.000001 0.000002 0.026298 0.000000 0.007788
# 5 0.003492 0.002101 -0.000275 0.000000 0.034595 0.000000
# 6 0.000000 0.000000 0.000000 0.007788 0.000000 0.022290
#
#
# Mechanical properties :
#
#
# Convention : Reuss Voigt Hill
#
# Bulk Modulus (GPa) = 36.19617 40.28764 38.24191
# Shear Modulus (GPa) = 31.77738 36.19775 33.98757
#
# Velocity S-wave (km/s) = 3.74101 3.99274 3.86892
# Velocity P-wave (km/s) = 5.88230 6.24493 6.06632
#
# Compressibility (1/GPa) = 0.02762723
#
# Stress axis : x y z
#
# Youngs Moduli (GPa) = 64.32964 72.51477 58.98107
#
# Poissons Ratio (x) = 0.22954 -0.01601
# Poissons Ratio (y) = 0.20363 0.37967
# Poissons Ratio (z) = -0.01746 0.46679
#
# Static dielectric constant tensor:
#      x y z
#    x 1.857020 0.000000 -0.000820 
#    y 0.000000 1.923780 0.000000 
#    z -0.000820 0.000000 1.920910 
# 
# From -- ./inp_files/216789.got.cif
#   From: 2010.05.17/outbox.cif.g08.bks.cpg/sg12_109_cif.got.tgz:216789.got - 2010.06.03 13:09:07.
