data_PCOD9208435
_publ_section_title
;
Structure prediction by ZEFSAII (Michael W. Deem and Ramdas Pophale) SiO2 
 PCOD9208435
Probable space group: C 2/M
;
_chemical_formula_sum "Si O2"
_cell_formula_units_Z 52
_cell_length_a 28.309693
_cell_length_b 11.519003
_cell_length_c 9.523797
_cell_angle_alpha 90.000000
_cell_angle_beta 87.025859
_cell_angle_gamma 90.000000
_cell_volume 3101.521637
_symmetry_space_group_name_H-M "C 2/M"
_symmetry_group_IT_number 12
_symmetry_cell_setting 'monoclinic'
loop_
_space_group_symop_operation_xyz
x,y,z
-x,y,-z
-x,-y,-z
x,-y,z
1/2+x,1/2+y,z
1/2-x,1/2+y,-z
1/2-x,1/2-y,-z
1/2+x,1/2-y,z
loop_
_atom_site_type_symbol
_atom_site_label
_atom_site_fract_x
_atom_site_fract_y
_atom_site_fract_z
Si Si1 0.444896 0.808314 0.538701
Si Si2 0.539708 0.000000 0.232439
Si Si3 0.570620 0.000000 0.689633
Si Si4 0.775362 0.131116 0.151669
Si Si5 0.173680 0.284566 0.087028
Si Si6 0.870215 0.866225 0.661669
Si Si7 0.279670 0.631491 0.472783
Si Si8 0.886625 0.500000 0.016028
O O1 0.500000 0.781706 0.500000
O O2 0.444278 0.889864 0.676942
O O3 0.412715 0.698433 0.575663
O O4 0.425822 0.887879 0.413033
O O5 0.483042 0.000000 0.243060
O O6 0.564330 0.000000 0.078511
O O7 0.604561 0.000000 0.818509
O O8 0.720156 0.167296 0.160252
O O9 0.793715 0.134855 0.307315
O O10 0.778063 0.000000 0.096734
O O11 0.804769 0.212582 0.045231
O O12 0.143969 0.204237 0.196587
O O13 0.142590 0.388532 0.030980
O O14 0.824363 0.863771 0.568196
O O15 0.881444 0.000000 0.691581
O O16 0.257406 0.500000 0.497292
O O17 0.250000 0.750000 0.500000
#
# Coordination Sequence:
#
# PCOD9208435 Si02
#       8
#     8   4   4   8   8   8   8   4
#     4   9  19  38  60  84 113 146 180 228 288 342
#     4   9  17  37  61  83 113 145 173 231 289 338
#     4   9  21  35  57  89 119 137 175 231 291 332
#     4  10  21  39  53  72 111 152 184 229 276 325
#     4  11  22  35  56  80 110 145 193 224 272 334
#     4  11  22  37  58  83 109 148 193 235 280 331
#     4  10  21  38  57  81 112 149 192 239 290 332
#     4  12  21  34  56  92 108 148 186 228 273 346
#
# _framework density 16.765964
#
# number of rings (size 3 to 8) (size 9 to 14) (size 15 to 20)
#    0.000    1.846    3.846    1.615    2.154    0.308 
#    4.154    0.000    0.000    0.000    0.000    2.154 
#    0.000    0.000    0.000    0.000    0.000    0.000 
#
# Total GULP energy -144956.602629 kJ/mol
# GULP energy per Si atom -5575.253947 kJ/mol
# Density = 1.672780 g / cm^3
# Si number density = 16.765964 Si / 1000 Ang^3
#
#
#
# Elastic Constant Matrix: (Units=GPa)
#
#
# Indices 1 2 3 4 5 6 
#
# 1 53.1662 57.2203 36.1145 0.0000 -2.2747 0.0000
# 2 57.2203 147.0346 46.8381 0.0000 -1.7571 0.0000
# 3 36.1145 46.8381 89.3648 0.0000 10.6602 0.0000
# 4 0.0000 0.0000 0.0000 16.0299 0.0000 -1.5787
# 5 -2.2747 -1.7571 10.6602 0.0000 23.2441 0.0000
# 6 0.0000 0.0000 0.0000 -1.5787 0.0000 21.0934
#
#
#
# Elastic Compliance Matrix: (Units=1/GPa)
#
#
# Indices 1 2 3 4 5 6 
#
# 1 0.038839 -0.011678 -0.010497 0.000000 0.007732 0.000000
# 2 -0.011678 0.011843 -0.001542 0.000000 0.000460 0.000000
# 3 -0.010497 -0.001542 0.017325 0.000000 -0.009089 0.000000
# 4 0.000000 0.000000 0.000000 0.062847 0.000000 0.004704
# 5 0.007732 0.000460 -0.009089 0.000000 0.047982 0.000000
# 6 0.000000 0.000000 0.000000 0.004704 0.000000 0.047760
#
#
# Mechanical properties :
#
#
# Convention : Reuss Voigt Hill
#
# Bulk Modulus (GPa) = 48.61271 63.32348 55.96809
# Shear Modulus (GPa) = 17.80064 22.03300 19.91682
#
# Velocity S-wave (km/s) = 3.26193 3.62905 3.45038
# Velocity P-wave (km/s) = 6.57607 7.44386 7.02338
#
# Compressibility (1/GPa) = 0.02057075
#
# Stress axis : x y z
#
# Youngs Moduli (GPa) = 25.74710 84.43994 57.72015
#
# Poissons Ratio (x) = 0.98613 0.60591
# Poissons Ratio (y) = 0.30069 0.08902
# Poissons Ratio (z) = 0.27028 0.13024
#
# Static dielectric constant tensor:
#      x y z
#    x 1.552910 0.000000 0.000960 
#    y 0.000000 1.575940 0.000000 
#    z 0.000960 0.000000 1.545080 
# 
# From -- ./inp_files/102586.got.cif
#   From: 2010.05.17/outbox.cif.g08.bks.cpg/sg12_52_cif.got.tgz:102586.got - 2010.06.03 13:09:07.
