data_PCOD9208543
_publ_section_title
;
Structure prediction by ZEFSAII (Michael W. Deem and Ramdas Pophale) SiO2 
 PCOD9208543
Probable space group: C 2/M
;
_chemical_formula_sum "Si O2"
_cell_formula_units_Z 42
_cell_length_a 14.782410
_cell_length_b 7.847815
_cell_length_c 18.998734
_cell_angle_alpha 90.000000
_cell_angle_beta 47.871219
_cell_angle_gamma 90.000000
_cell_volume 1634.598923
_symmetry_space_group_name_H-M "C 2/M"
_symmetry_group_IT_number 12
_symmetry_cell_setting 'monoclinic'
loop_
_space_group_symop_operation_xyz
x,y,z
-x,y,-z
-x,-y,-z
x,-y,z
1/2+x,1/2+y,z
1/2-x,1/2+y,-z
1/2-x,1/2-y,-z
1/2+x,1/2-y,z
loop_
_atom_site_type_symbol
_atom_site_label
_atom_site_fract_x
_atom_site_fract_y
_atom_site_fract_z
Si Si1 0.808276 0.700330 0.369033
Si Si2 0.941620 0.197683 0.429348
Si Si3 0.293934 0.196834 0.718072
Si Si4 0.325336 0.196633 0.856307
Si Si5 0.500000 0.000000 0.000000
Si Si6 0.442467 0.311028 0.932446
O O1 0.816836 0.500000 0.379018
O O2 0.912520 0.785345 0.361357
O O3 0.679319 0.764843 0.468936
O O4 0.796575 0.727634 0.292249
O O5 0.067233 0.287511 0.381479
O O6 0.955760 0.000000 0.440594
O O7 0.302284 0.275753 0.791650
O O8 0.262166 0.000000 0.742507
O O9 0.415689 0.285885 0.863681
O O10 0.367303 0.000000 0.825839
O O11 0.192911 0.193243 0.962053
O O12 0.492933 0.847919 0.064693
O O13 0.494491 0.500000 0.918573
#
# Coordination Sequence:
#
# PCOD9208543 Si02
#       6
#     8   8   8   8   2   8
#     4  10  21  38  58  83 116 155 200 251 301 356
#     4  10  21  38  58  83 117 154 200 252 300 357
#     4  11  22  37  60  88 119 157 199 244 301 358
#     4   9  20  41  61  85 118 159 199 245 294 364
#     4  12  22  40  64 102 120 150 206 260 288 370
#     4  10  21  40  66  89 123 162 199 243 306 358
#
# _framework density 25.694375999999998
#
# number of rings (size 3 to 8) (size 9 to 14) (size 15 to 20)
#    0.000    1.905    0.952    2.571    1.333    6.095 
#    3.429    0.000    0.000    0.000    0.000    0.000 
#    0.000    0.000    0.000    0.000    0.000    0.000 
#
# Total GULP energy -117343.290702 kJ/mol
# GULP energy per Si atom -5587.775748 kJ/mol
# Density = 2.563589 g / cm^3
# Si number density = 25.694376 Si / 1000 Ang^3
#
#
#
# Elastic Constant Matrix: (Units=GPa)
#
#
# Indices 1 2 3 4 5 6 
#
# 1 152.9803 37.3725 50.9880 0.0000 27.0752 0.0000
# 2 37.3725 130.8304 9.2180 0.0000 15.6085 0.0000
# 3 50.9880 9.2180 82.2631 0.0000 27.9666 0.0000
# 4 0.0000 0.0000 0.0000 13.3941 0.0000 17.4142
# 5 27.0752 15.6085 27.9666 0.0000 65.5038 0.0000
# 6 0.0000 0.0000 0.0000 17.4142 0.0000 14.7175
#
#
#
# Elastic Compliance Matrix: (Units=1/GPa)
#
#
# Indices 1 2 3 4 5 6 
#
# 1 0.008862 -0.002058 -0.004894 0.000000 -0.001083 0.000000
# 2 -0.002058 0.008351 0.000850 0.000000 -0.001502 0.000000
# 3 -0.004894 0.000850 0.016933 0.000000 -0.005409 0.000000
# 4 0.000000 0.000000 0.000000 -0.138676 0.000000 0.164086
# 5 -0.001083 -0.001502 -0.005409 0.000000 0.018382 0.000000
# 6 0.000000 0.000000 0.000000 0.164086 0.000000 -0.126206
#
#
# Mechanical properties :
#
#
# Convention : Reuss Voigt Hill
#
# Bulk Modulus (GPa) = 45.57168 62.35897 53.96532
# Shear Modulus (GPa) = -25.92868 36.62278 5.34705
#
# Velocity S-wave (km/s) = -3.18011 3.77944 1.44414
# Velocity P-wave (km/s) = 2.07134 6.58542 4.88150
#
# Compressibility (1/GPa) = 0.02194345
#
# Stress axis : x y z
#
# Youngs Moduli (GPa) = 112.83641 119.75256 59.05526
#
# Poissons Ratio (x) = 0.24639 0.28903
# Poissons Ratio (y) = 0.23216 -0.05022
# Poissons Ratio (z) = 0.55224 -0.10183
#
# Static dielectric constant tensor:
#      x y z
#    x 1.983430 0.000000 0.001090 
#    y 0.000000 1.877080 0.000000 
#    z 0.001090 0.000000 2.115740 
# 
# From -- ./inp_files/267074.got.cif
#   From: 2010.05.17/outbox.cif.g08.bks.cpg/sg12_134_cif.got.tgz:267074.got - 2010.06.03 13:09:07.
