data_PCOD9208958
_publ_section_title
;
Structure prediction by ZEFSAII (Michael W. Deem and Ramdas Pophale) SiO2 
 PCOD9208958
Probable space group: C 2/M
;
_chemical_formula_sum "Si O2"
_cell_formula_units_Z 56
_cell_length_a 15.516646
_cell_length_b 10.341299
_cell_length_c 17.505613
_cell_angle_alpha 90.000000
_cell_angle_beta 82.508592
_cell_angle_gamma 90.000000
_cell_volume 2785.014148
_symmetry_space_group_name_H-M "C 2/M"
_symmetry_group_IT_number 12
_symmetry_cell_setting 'monoclinic'
loop_
_space_group_symop_operation_xyz
x,y,z
-x,y,-z
-x,-y,-z
x,-y,z
1/2+x,1/2+y,z
1/2-x,1/2+y,-z
1/2-x,1/2-y,-z
1/2+x,1/2-y,z
loop_
_atom_site_type_symbol
_atom_site_label
_atom_site_fract_x
_atom_site_fract_y
_atom_site_fract_z
Si Si1 0.141944 0.293455 0.177791
Si Si2 0.397643 0.648469 0.528995
Si Si3 0.666119 0.342138 0.894488
Si Si4 0.639047 0.347337 0.631717
Si Si5 0.527237 0.348146 0.781114
Si Si6 0.336784 0.858109 0.653600
Si Si7 0.599657 0.139657 0.014710
O O1 0.244502 0.285446 0.149562
O O2 0.074099 0.176287 0.194329
O O3 0.136104 0.358085 0.261327
O O4 0.106863 0.360078 0.105118
O O5 0.500000 0.644852 0.500000
O O6 0.368661 0.500000 0.547767
O O7 0.356699 0.703643 0.455029
O O8 0.378154 0.742340 0.601171
O O9 0.672565 0.500000 0.901353
O O10 0.587301 0.308582 0.845773
O O11 0.646806 0.265112 0.974578
O O12 0.618803 0.500000 0.621966
O O13 0.566905 0.291455 0.697733
O O14 0.732502 0.339791 0.660700
O O15 0.542202 0.500000 0.773540
O O16 0.356451 0.000000 0.617805
O O17 0.635670 0.000000 0.983076
O O18 0.500000 0.146370 0.000000
#
# Coordination Sequence:
#
# PCOD9208958 Si02
#       7
#     8   8   8   8   8   8   8
#     4  12  23  39  65  94 125 167 213 259 313 377
#     4  10  21  38  60  87 122 162 205 253 309 369
#     4  11  23  43  68  93 122 165 216 261 310 380
#     4   9  18  37  62  88 122 165 208 253 305 370
#     4  10  21  39  65  95 127 165 213 262 311 375
#     4  11  22  37  62  91 121 161 209 256 309 370
#     4  11  24  42  63  92 131 168 204 261 327 376
#
# _framework density 20.107619
#
# number of rings (size 3 to 8) (size 9 to 14) (size 15 to 20)
#    0.000    1.429    2.857    3.000    0.000    3.429 
#    0.000    0.000    0.000    3.429    0.000    0.000 
#    0.000    0.000    0.000    0.000    0.000    0.000 
#
# Total GULP energy -156046.812771 kJ/mol
# GULP energy per Si atom -5573.100456 kJ/mol
# Density = 2.006185 g / cm^3
# Si number density = 20.107619 Si / 1000 Ang^3
#
#
#
# Elastic Constant Matrix: (Units=GPa)
#
#
# Indices 1 2 3 4 5 6 
#
# 1 65.8670 25.8603 30.6558 0.0000 8.3767 0.0000
# 2 25.8603 64.9013 57.1065 0.0000 -12.9081 0.0000
# 3 30.6558 57.1065 139.6251 0.0000 5.5604 0.0000
# 4 0.0000 0.0000 0.0000 15.7720 0.0000 -7.0036
# 5 8.3767 -12.9081 5.5604 0.0000 35.9902 0.0000
# 6 0.0000 0.0000 0.0000 -7.0036 0.0000 -0.6455
#
#
#
# Elastic Compliance Matrix: (Units=1/GPa)
#
#
# Indices 1 2 3 4 5 6 
#
# 1 0.019968 -0.009307 -0.000261 0.000000 -0.007945 0.000000
# 2 -0.009307 0.032827 -0.012012 0.000000 0.015796 0.000000
# 3 -0.000261 -0.012012 0.012378 0.000000 -0.006160 0.000000
# 4 0.000000 0.000000 0.000000 0.010898 0.000000 -0.118242
# 5 -0.007945 0.015796 -0.006160 0.000000 0.036251 0.000000
# 6 0.000000 0.000000 0.000000 -0.118242 0.000000 -0.266281
#
#
# Mechanical properties :
#
#
# Convention : Reuss Voigt Hill
#
# Bulk Modulus (GPa) = 45.42780 55.29317 50.36049
# Shear Modulus (GPa) = -48.32739 20.67473 -13.82633
#
# Velocity S-wave (km/s) = -4.90780 3.21004 -2.62509
# Velocity P-wave (km/s) = 3.07799 6.42631 3.98895
#
# Compressibility (1/GPa) = 0.02201295
#
# Stress axis : x y z
#
# Youngs Moduli (GPa) = 50.07994 30.46262 80.79123
#
# Poissons Ratio (x) = 0.28350 0.02111
# Poissons Ratio (y) = 0.46608 0.97046
# Poissons Ratio (z) = 0.01309 0.36592
#
# Static dielectric constant tensor:
#      x y z
#    x 1.724410 0.000000 0.023830 
#    y 0.000000 1.703700 0.000000 
#    z 0.023830 0.000000 1.755760 
# 
# From -- ./inp_files/213416.got.cif
#   From: 2010.05.17/outbox.cif.g08.bks.cpg/sg12_107_cif.got.tgz:213416.got - 2010.06.03 13:09:07.
