data_PCOD9208204
_publ_section_title
;
Structure prediction by ZEFSAII (Michael W. Deem and Ramdas Pophale) SiO2 
 PCOD9208204
Probable space group: C 2/M
;
_chemical_formula_sum "Si O2"
_cell_formula_units_Z 48
_cell_length_a 28.206042
_cell_length_b 14.638924
_cell_length_c 13.352047
_cell_angle_alpha 90.000000
_cell_angle_beta 152.453850
_cell_angle_gamma 90.000000
_cell_volume 2549.623639
_symmetry_space_group_name_H-M "C 2/M"
_symmetry_group_IT_number 12
_symmetry_cell_setting 'monoclinic'
loop_
_space_group_symop_operation_xyz
x,y,z
-x,y,-z
-x,-y,-z
x,-y,z
1/2+x,1/2+y,z
1/2-x,1/2+y,-z
1/2-x,1/2-y,-z
1/2+x,1/2-y,z
loop_
_atom_site_type_symbol
_atom_site_label
_atom_site_fract_x
_atom_site_fract_y
_atom_site_fract_z
Si Si1 0.737063 0.814365 0.619358
Si Si2 0.599166 0.314520 0.249822
Si Si3 0.465152 0.500000 0.760196
Si Si4 0.740351 0.199817 0.149122
Si Si5 0.756577 0.000000 0.968033
Si Si6 0.204742 0.000000 0.185153
Si Si7 0.879377 0.682878 0.269324
Si Si8 0.672351 0.500000 0.686126
O O1 0.633752 0.765002 0.390135
O O2 0.809203 0.825940 0.658121
O O3 0.783727 0.748846 0.792068
O O4 0.732505 0.912261 0.662026
O O5 0.578105 0.408847 0.268275
O O6 0.500000 0.289878 0.000000
O O7 0.424943 0.500000 0.569959
O O8 0.587883 0.500000 0.005796
O O9 0.838223 0.247143 0.276932
O O10 0.764563 0.093577 0.214557
O O11 0.652675 0.215566 0.901914
O O12 0.684592 0.910789 0.838957
O O13 0.808255 0.000000 0.957832
O O14 0.836724 0.000000 0.209959
O O15 0.000000 0.669113 0.500000
#
# Coordination Sequence:
#
# PCOD9208204 Si02
#       8
#     8   8   4   8   4   4   8   4
#     4  11  23  40  64  89 129 163 205 273 321 365
#     4  11  23  41  65  95 121 164 216 265 322 383
#     4  12  22  41  70  95 125 166 219 258 324 380
#     4  10  21  40  58  91 123 164 210 263 316 372
#     4  10  21  40  60  92 132 163 208 253 314 376
#     4  12  23  40  67  97 127 170 209 265 313 377
#     4  10  21  37  63  86 124 169 211 250 310 385
#     4  10  22  40  59  91 131 159 205 269 305 374
#
# _framework density 18.826307
#
# number of rings (size 3 to 8) (size 9 to 14) (size 15 to 20)
#    0.000    1.333    5.000    1.000    0.000    3.000 
#    0.000    0.417    0.000    0.000    0.000    0.000 
#    0.000    0.000    0.000    0.000    0.000    0.000 
#
# Total GULP energy -133921.080266 kJ/mol
# GULP energy per Si atom -5580.045011 kJ/mol
# Density = 1.878346 g / cm^3
# Si number density = 18.826307 Si / 1000 Ang^3
#
#
#
# Elastic Constant Matrix: (Units=GPa)
#
#
# Indices 1 2 3 4 5 6 
#
# 1 58.4967 38.4830 34.8983 0.0000 -19.4292 0.0000
# 2 38.4830 138.7336 44.4991 0.0000 -13.0740 0.0000
# 3 34.8983 44.4991 102.9578 0.0000 -9.6654 0.0000
# 4 0.0000 0.0000 0.0000 -880.5528 0.0000 314.8536
# 5 -19.4292 -13.0740 -9.6654 0.0000 26.5840 0.0000
# 6 0.0000 0.0000 0.0000 314.8536 0.0000 -91.0047
#
#
#
# Elastic Compliance Matrix: (Units=1/GPa)
#
#
# Indices 1 2 3 4 5 6 
#
# 1 0.029600 -0.004527 -0.006476 0.000000 0.017053 0.000000
# 2 -0.004527 0.009282 -0.002443 0.000000 0.000368 0.000000
# 3 -0.006476 -0.002443 0.012845 0.000000 -0.001264 0.000000
# 4 0.000000 0.000000 0.000000 0.004790 0.000000 0.016573
# 5 0.017053 0.000368 -0.001264 0.000000 0.049802 0.000000
# 6 0.000000 0.000000 0.000000 0.016573 0.000000 0.046349
#
#
# Mechanical properties :
#
#
# Convention : Reuss Voigt Hill
#
# Bulk Modulus (GPa) = 40.26330 59.54991 49.90660
# Shear Modulus (GPa) = 26.61879 -176.84085 -75.11103
#
# Velocity S-wave (km/s) = 3.76428 -9.70241 -6.32325
# Velocity P-wave (km/s) = 6.35030 9.68586 5.17153
#
# Compressibility (1/GPa) = 0.02483651
#
# Stress axis : x y z
#
# Youngs Moduli (GPa) = 33.78340 107.73625 77.85183
#
# Poissons Ratio (x) = 0.48767 0.50417
# Poissons Ratio (y) = 0.15292 0.19018
# Poissons Ratio (z) = 0.21878 0.26318
#
# Static dielectric constant tensor:
#      x y z
#    x 1.660990 0.000000 -0.029110 
#    y 0.000000 1.657320 0.000000 
#    z -0.029110 0.000000 1.641800 
# 
# From -- ./inp_files/183731.got.cif
#   From: 2010.05.17/outbox.cif.g08.bks.cpg/sg12_92_cif.got.tgz:183731.got - 2010.06.03 13:09:07.
