data_PCOD9208737
_publ_section_title
;
Structure prediction by ZEFSAII (Michael W. Deem and Ramdas Pophale) SiO2 
 PCOD9208737
Probable space group: C 2/M
;
_chemical_formula_sum "Si O2"
_cell_formula_units_Z 44
_cell_length_a 25.384257
_cell_length_b 16.643388
_cell_length_c 6.863716
_cell_angle_alpha 90.000000
_cell_angle_beta 51.610598
_cell_angle_gamma 90.000000
_cell_volume 2272.874092
_symmetry_space_group_name_H-M "C 2/M"
_symmetry_group_IT_number 12
_symmetry_cell_setting 'monoclinic'
loop_
_space_group_symop_operation_xyz
x,y,z
-x,y,-z
-x,-y,-z
x,-y,z
1/2+x,1/2+y,z
1/2-x,1/2+y,-z
1/2-x,1/2-y,-z
1/2+x,1/2-y,z
loop_
_atom_site_type_symbol
_atom_site_label
_atom_site_fract_x
_atom_site_fract_y
_atom_site_fract_z
Si Si1 0.181694 0.319078 0.871217
Si Si2 0.052642 0.090884 0.054725
Si Si3 0.500000 0.287764 0.500000
Si Si4 0.127256 0.293054 0.404804
Si Si5 0.681257 0.332215 0.598758
Si Si6 0.421276 0.904533 0.156832
O O1 0.246917 0.364437 0.636695
O O2 0.188880 0.230523 0.760145
O O3 0.114345 0.359688 0.941244
O O4 0.176638 0.312128 0.113542
O O5 0.125919 0.105187 0.794896
O O6 0.046115 0.000000 0.144398
O O7 0.036238 0.155537 0.257979
O O8 0.000000 0.102333 0.000000
O O9 0.443258 0.235081 0.525651
O O10 0.153160 0.221595 0.484478
O O11 0.115688 0.369568 0.568499
O O12 0.415092 0.000000 0.151842
O O13 0.500000 0.884114 0.000000
#
# Coordination Sequence:
#
# PCOD9208737 Si02
#       6
#     8   8   4   8   8   8
#     4  10  21  38  62  85 114 157 194 241 294 347
#     4  11  23  39  58  85 122 159 194 244 296 347
#     4  12  21  36  63  90 118 158 204 240 291 356
#     4  11  21  35  63  89 117 152 200 246 291 341
#     4  10  21  38  59  86 118 152 199 241 289 348
#     4  10  23  40  58  87 122 153 192 241 297 355
#
# _framework density 19.358750000000001
#
# number of rings (size 3 to 8) (size 9 to 14) (size 15 to 20)
#    0.000    1.455    3.636    1.909    2.545    1.455 
#    0.000    2.273    0.000    0.000    0.000    0.000 
#    0.000    0.000    0.000    0.000    0.000    0.000 
#
# Total GULP energy -122904.367410 kJ/mol
# GULP energy per Si atom -5586.562155 kJ/mol
# Density = 1.931469 g / cm^3
# Si number density = 19.358750 Si / 1000 Ang^3
#
#
#
# Elastic Constant Matrix: (Units=GPa)
#
#
# Indices 1 2 3 4 5 6 
#
# 1 38.6998 -8.2117 4.0760 0.0000 -9.4223 0.0000
# 2 -8.2117 27.8164 9.8504 0.0000 1.7382 0.0000
# 3 4.0760 9.8504 101.5985 0.0000 5.6274 0.0000
# 4 0.0000 0.0000 0.0000 11.3185 0.0000 5.4544
# 5 -9.4223 1.7382 5.6274 0.0000 33.2857 0.0000
# 6 0.0000 0.0000 0.0000 5.4544 0.0000 -1.7276
#
#
#
# Elastic Compliance Matrix: (Units=1/GPa)
#
#
# Indices 1 2 3 4 5 6 
#
# 1 0.030147 0.009283 -0.002579 0.000000 0.008485 0.000000
# 2 0.009283 0.040147 -0.004335 0.000000 0.001264 0.000000
# 3 -0.002579 -0.004335 0.010493 0.000000 -0.002278 0.000000
# 4 0.000000 0.000000 0.000000 0.035040 0.000000 0.110626
# 5 0.008485 0.001264 -0.002278 0.000000 0.032764 0.000000
# 6 0.000000 0.000000 0.000000 0.110626 0.000000 -0.229564
#
#
# Mechanical properties :
#
#
# Convention : Reuss Voigt Hill
#
# Bulk Modulus (GPa) = 11.69262 19.94933 15.82098
# Shear Modulus (GPa) = -87.40861 19.40198 -34.00332
#
# Velocity S-wave (km/s) = -6.72681 3.16924 -4.19559
# Velocity P-wave (km/s) = 7.36751 4.87027 3.90901
#
# Compressibility (1/GPa) = 0.08552401
#
# Stress axis : x y z
#
# Youngs Moduli (GPa) = 33.17042 24.90874 95.30530
#
# Poissons Ratio (x) = -0.23123 0.24584
# Poissons Ratio (y) = -0.30792 0.41313
# Poissons Ratio (z) = 0.08556 0.10798
#
# Static dielectric constant tensor:
#      x y z
#    x 1.697490 0.000000 -0.029910 
#    y 0.000000 1.642680 0.000000 
#    z -0.029910 0.000000 1.675740 
# 
# From -- ./inp_files/20469.got.cif
#   From: 2010.05.17/outbox.cif.g08.bks.cpg/sg12_11_cif.got.tgz:20469.got - 2010.06.03 13:09:07.
