data_PCOD9208360
_publ_section_title
;
Structure prediction by ZEFSAII (Michael W. Deem and Ramdas Pophale) SiO2 
 PCOD9208360
Probable space group: C 2/M
;
_chemical_formula_sum "Si O2"
_cell_formula_units_Z 42
_cell_length_a 19.737963
_cell_length_b 16.572318
_cell_length_c 5.133525
_cell_angle_alpha 90.000000
_cell_angle_beta 85.023676
_cell_angle_gamma 90.000000
_cell_volume 1672.866020
_symmetry_space_group_name_H-M "C 2/M"
_symmetry_group_IT_number 12
_symmetry_cell_setting 'monoclinic'
loop_
_space_group_symop_operation_xyz
x,y,z
-x,y,-z
-x,-y,-z
x,-y,z
1/2+x,1/2+y,z
1/2-x,1/2+y,-z
1/2-x,1/2-y,-z
1/2+x,1/2-y,z
loop_
_atom_site_type_symbol
_atom_site_label
_atom_site_fract_x
_atom_site_fract_y
_atom_site_fract_z
Si Si1 0.561002 0.124728 0.294069
Si Si2 0.180405 0.346825 0.634963
Si Si3 0.956598 0.186418 0.765357
Si Si4 0.500000 0.000000 0.000000
Si Si5 0.678867 0.500000 0.653469
Si Si6 0.838196 0.169274 0.441676
Si Si7 0.770547 0.500000 0.111421
O O1 0.500000 0.091886 0.500000
O O2 0.629935 0.120372 0.431934
O O3 0.544213 0.216309 0.233451
O O4 0.555656 0.070062 0.046524
O O5 0.150387 0.256351 0.702362
O O6 0.257011 0.334490 0.504105
O O7 0.191533 0.415784 0.844384
O O8 0.878962 0.167855 0.702642
O O9 0.000000 0.160198 0.500000
O O10 0.000000 0.159069 0.000000
O O11 0.641676 0.585577 0.703646
O O12 0.709282 0.500000 0.349366
O O13 0.740340 0.500000 0.835600
#
# Coordination Sequence:
#
# PCOD9208360 Si02
#       7
#     8   8   8   2   4   8   4
#     4  10  21  38  54  86 124 165 214 253 316 377
#     4   9  19  40  62  90 126 168 216 265 316 383
#     4  10  21  40  64  89 125 164 208 265 319 380
#     4  12  20  34  60  82 124 166 210 254 314 386
#     4  10  22  40  61  90 125 158 202 269 319 375
#     4   9  20  40  66  92 126 167 216 265 326 378
#     4  10  21  39  58  91 129 160 206 257 317 370
#
# _framework density 25.106614
#
# number of rings (size 3 to 8) (size 9 to 14) (size 15 to 20)
#    0.000    2.286    0.952    0.857    0.000    3.810 
#   13.714    6.667    0.000    0.000    0.000    0.000 
#    0.000    0.000    0.000    0.000    0.000    0.000 
#
# Total GULP energy -117049.845378 kJ/mol
# GULP energy per Si atom -5573.802161 kJ/mol
# Density = 2.504947 g / cm^3
# Si number density = 25.106614 Si / 1000 Ang^3
#
#
#
# Elastic Constant Matrix: (Units=GPa)
#
#
# Indices 1 2 3 4 5 6 
#
# 1 130.4025 3.5376 48.6598 0.0000 39.9135 0.0000
# 2 3.5376 193.2941 34.3882 0.0000 33.0460 0.0000
# 3 48.6598 34.3882 111.4649 0.0000 38.7511 0.0000
# 4 0.0000 0.0000 0.0000 -2.9021 0.0000 31.5290
# 5 39.9135 33.0460 38.7511 0.0000 55.5199 0.0000
# 6 0.0000 0.0000 0.0000 31.5290 0.0000 5.3834
#
#
#
# Elastic Compliance Matrix: (Units=1/GPa)
#
#
# Indices 1 2 3 4 5 6 
#
# 1 0.010694 0.001430 -0.002827 0.000000 -0.006566 0.000000
# 2 0.001430 0.006002 -0.001157 0.000000 -0.003792 0.000000
# 3 -0.002827 -0.001157 0.012698 0.000000 -0.006141 0.000000
# 4 0.000000 0.000000 0.000000 -0.005332 0.000000 0.031226
# 5 -0.006566 -0.003792 -0.006141 0.000000 0.029276 0.000000
# 6 0.000000 0.000000 0.000000 0.031226 0.000000 0.002874
#
#
# Mechanical properties :
#
#
# Convention : Reuss Voigt Hill
#
# Bulk Modulus (GPa) = 41.17843 67.59254 54.38549
# Shear Modulus (GPa) = 72.02983 34.83865 53.43424
#
# Velocity S-wave (km/s) = 5.36208 3.72913 4.61835
# Velocity P-wave (km/s) = 7.40087 6.74704 7.08150
#
# Compressibility (1/GPa) = 0.02428456
#
# Stress axis : x y z
#
# Youngs Moduli (GPa) = 93.50660 166.62432 78.75463
#
# Poissons Ratio (x) = -0.23824 0.22264
# Poissons Ratio (y) = -0.13369 0.09114
# Poissons Ratio (z) = 0.26434 0.19284
#
# Static dielectric constant tensor:
#      x y z
#    x 2.040030 0.000000 -0.082380 
#    y 0.000000 1.735020 0.000000 
#    z -0.082380 0.000000 2.051970 
# 
# From -- ./inp_files/20539.got.cif
#   From: 2010.05.17/outbox.cif.g08.bks.cpg/sg12_11_cif.got.tgz:20539.got - 2010.06.03 13:09:07.
