data_PCOD9208417
_publ_section_title
;
Structure prediction by ZEFSAII (Michael W. Deem and Ramdas Pophale) SiO2 
 PCOD9208417
Probable space group: C 2/M
;
_chemical_formula_sum "Si O2"
_cell_formula_units_Z 48
_cell_length_a 14.886123
_cell_length_b 8.882441
_cell_length_c 18.906170
_cell_angle_alpha 90.000000
_cell_angle_beta 96.636898
_cell_angle_gamma 90.000000
_cell_volume 2483.117615
_symmetry_space_group_name_H-M "C 2/M"
_symmetry_group_IT_number 12
_symmetry_cell_setting 'monoclinic'
loop_
_space_group_symop_operation_xyz
x,y,z
-x,y,-z
-x,-y,-z
x,-y,z
1/2+x,1/2+y,z
1/2-x,1/2+y,-z
1/2-x,1/2-y,-z
1/2+x,1/2-y,z
loop_
_atom_site_type_symbol
_atom_site_label
_atom_site_fract_x
_atom_site_fract_y
_atom_site_fract_z
Si Si1 0.216247 0.181224 0.261169
Si Si2 0.849480 0.179126 0.516233
Si Si3 0.732326 0.818774 0.891212
Si Si4 0.569109 0.822707 0.334905
Si Si5 0.602050 0.318670 0.989957
Si Si6 0.619824 0.821768 0.624622
O O1 0.253412 0.228814 0.188394
O O2 0.120698 0.250808 0.273802
O O3 0.287266 0.223117 0.329127
O O4 0.209431 0.000000 0.260319
O O5 0.750000 0.250000 0.500000
O O6 0.894517 0.246502 0.590121
O O7 0.897551 0.229518 0.448101
O O8 0.844743 0.000000 0.521305
O O9 0.646154 0.748390 0.922864
O O10 0.723411 0.000000 0.892276
O O11 0.823839 0.779184 0.942972
O O12 0.461550 0.802270 0.327637
O O13 0.588614 0.000000 0.339557
O O14 0.600145 0.500000 0.983953
O O15 0.500000 0.268827 0.000000
O O16 0.624292 0.000000 0.606803
#
# Coordination Sequence:
#
# PCOD9208417 Si02
#       6
#     8   8   8   8   8   8
#     4  10  21  38  57  78 111 150 183 225 277 332
#     4  12  23  37  59  83 108 142 186 234 282 331
#     4   9  19  35  55  81 111 145 186 224 269 326
#     4  11  23  38  57  82 110 144 186 231 280 334
#     4   9  18  34  56  82 112 145 181 225 275 322
#     4  10  22  39  57  79 110 146 184 230 284 333
#
# _framework density 19.330538000000001
#
# number of rings (size 3 to 8) (size 9 to 14) (size 15 to 20)
#    0.000    1.833    1.667    2.500    0.000    5.667 
#    0.000    0.000    0.000    0.000    0.000    0.000 
#    0.000    0.000    0.000    0.000    0.000    0.000 
#
# Total GULP energy -134031.825972 kJ/mol
# GULP energy per Si atom -5584.659416 kJ/mol
# Density = 1.928654 g / cm^3
# Si number density = 19.330538 Si / 1000 Ang^3
#
#
#
# Elastic Constant Matrix: (Units=GPa)
#
#
# Indices 1 2 3 4 5 6 
#
# 1 101.7222 24.3021 24.3994 0.0000 -32.0549 0.0000
# 2 24.3021 30.5221 21.0131 0.0000 -10.5906 0.0000
# 3 24.3994 21.0131 91.1944 0.0000 -34.1577 0.0000
# 4 0.0000 0.0000 0.0000 27.0376 0.0000 -10.5004
# 5 -32.0549 -10.5906 -34.1577 0.0000 28.7148 0.0000
# 6 0.0000 0.0000 0.0000 -10.5004 0.0000 28.3304
#
#
#
# Elastic Compliance Matrix: (Units=1/GPa)
#
#
# Indices 1 2 3 4 5 6 
#
# 1 0.018669 -0.010932 0.006889 0.000000 0.025004 0.000000
# 2 -0.010932 0.046059 -0.010634 0.000000 -0.007866 0.000000
# 3 0.006889 -0.010634 0.023418 0.000000 0.031626 0.000000
# 4 0.000000 0.000000 0.000000 0.043204 0.000000 0.016013
# 5 0.025004 -0.007866 0.031626 0.000000 0.097457 0.000000
# 6 0.000000 0.000000 0.000000 0.016013 0.000000 0.041233
#
#
# Mechanical properties :
#
#
# Convention : Reuss Voigt Hill
#
# Bulk Modulus (GPa) = 17.00868 40.31866 28.66367
# Shear Modulus (GPa) = 15.67435 27.06485 21.36960
#
# Velocity S-wave (km/s) = 2.85065 3.74586 3.32849
# Velocity P-wave (km/s) = 4.43316 6.29376 5.44354
#
# Compressibility (1/GPa) = 0.05879350
#
# Stress axis : x y z
#
# Youngs Moduli (GPa) = 53.56418 21.71128 42.70141
#
# Poissons Ratio (x) = 0.23734 -0.29419
# Poissons Ratio (y) = 0.58555 0.45410
# Poissons Ratio (z) = -0.36903 0.23088
#
# Static dielectric constant tensor:
#      x y z
#    x 1.695970 0.000000 -0.020310 
#    y 0.000000 1.648090 0.000000 
#    z -0.020310 0.000000 1.671440 
# 
# From -- ./inp_files/267630.got.cif
#   From: 2010.05.17/outbox.cif.g08.bks.cpg/sg12_134_cif.got.tgz:267630.got - 2010.06.03 13:09:07.
