data_PCOD9208250
_publ_section_title
;
Structure prediction by ZEFSAII (Michael W. Deem and Ramdas Pophale) SiO2 
 PCOD9208250
Probable space group: C 2/M
;
_chemical_formula_sum "Si O2"
_cell_formula_units_Z 44
_cell_length_a 5.109874
_cell_length_b 21.758368
_cell_length_c 17.903702
_cell_angle_alpha 90.000000
_cell_angle_beta 96.011310
_cell_angle_gamma 90.000000
_cell_volume 1979.632977
_symmetry_space_group_name_H-M "C 2/M"
_symmetry_group_IT_number 12
_symmetry_cell_setting 'monoclinic'
loop_
_space_group_symop_operation_xyz
x,y,z
-x,y,-z
-x,-y,-z
x,-y,z
1/2+x,1/2+y,z
1/2-x,1/2+y,-z
1/2-x,1/2-y,-z
1/2+x,1/2-y,z
loop_
_atom_site_type_symbol
_atom_site_label
_atom_site_fract_x
_atom_site_fract_y
_atom_site_fract_z
Si Si1 0.231104 0.500000 0.947096
Si Si2 0.127510 0.284072 0.214248
Si Si3 0.034852 0.931870 0.733367
Si Si4 0.886903 0.293413 0.607854
Si Si5 0.212710 0.071406 0.572022
Si Si6 0.091054 0.599133 0.822494
O O1 0.200734 0.557989 0.891563
O O2 0.500000 0.500000 0.000000
O O3 0.000000 0.500000 0.000000
O O4 0.426496 0.271726 0.204639
O O5 0.108166 0.302874 0.301524
O O6 0.008058 0.334653 0.156695
O O7 0.816462 0.892060 0.767262
O O8 0.063445 0.922688 0.646551
O O9 0.324815 0.928140 0.777608
O O10 0.928693 0.000000 0.743350
O O11 0.634339 0.248216 0.589360
O O12 0.872382 0.363321 0.574576
O O13 0.000000 0.072265 0.500000
O O14 0.332135 0.000000 0.575572
#
# Coordination Sequence:
#
# PCOD9208250 Si02
#       6
#     4   8   8   8   8   8
#     4  12  26  44  68 106 141 164 203 258 332 400
#     4  10  21  37  63  96 127 165 225 277 315 377
#     4  11  21  38  63  96 125 171 229 262 322 401
#     4  10  22  40  65  92 129 174 230 288 340 401
#     4  10  23  42  64  95 139 182 231 295 350 399
#     4  12  22  41  69  95 131 173 207 267 320 390
#
# _framework density 22.226344000000001
#
# number of rings (size 3 to 8) (size 9 to 14) (size 15 to 20)
#    0.000    1.273    3.636    2.182    5.091    0.727 
#    0.000    3.636    0.000   14.182    0.000    0.000 
#    0.000    0.000    0.000    0.000    0.000    0.000 
#
# Total GULP energy -122817.667950 kJ/mol
# GULP energy per Si atom -5582.621270 kJ/mol
# Density = 2.217576 g / cm^3
# Si number density = 22.226344 Si / 1000 Ang^3
#
#
#
# Elastic Constant Matrix: (Units=GPa)
#
#
# Indices 1 2 3 4 5 6 
#
# 1 118.2879 54.0460 30.7671 0.0000 12.5851 0.0000
# 2 54.0460 175.1863 24.2208 0.0000 12.0735 0.0000
# 3 30.7671 24.2208 82.7183 0.0000 13.4571 0.0000
# 4 0.0000 0.0000 0.0000 -8.8541 0.0000 11.9392
# 5 12.5851 12.0735 13.4571 0.0000 30.8052 0.0000
# 6 0.0000 0.0000 0.0000 11.9392 0.0000 24.4763
#
#
#
# Elastic Compliance Matrix: (Units=1/GPa)
#
#
# Indices 1 2 3 4 5 6 
#
# 1 0.010667 -0.002759 -0.002828 0.000000 -0.002041 0.000000
# 2 -0.002759 0.006746 -0.000756 0.000000 -0.001186 0.000000
# 3 -0.002828 -0.000756 0.014130 0.000000 -0.004721 0.000000
# 4 0.000000 0.000000 0.000000 -0.068129 0.000000 0.033233
# 5 -0.002041 -0.001186 -0.004721 0.000000 0.035824 0.000000
# 6 0.000000 0.000000 0.000000 0.033233 0.000000 0.024645
#
#
# Mechanical properties :
#
#
# Convention : Reuss Voigt Hill
#
# Bulk Modulus (GPa) = 53.02863 66.02892 59.52877
# Shear Modulus (GPa) = 116.67350 27.09603 71.88477
#
# Velocity S-wave (km/s) = 7.25309 3.49534 5.69319
# Velocity P-wave (km/s) = 9.69811 6.78689 8.37004
#
# Compressibility (1/GPa) = 0.01885774
#
# Stress axis : x y z
#
# Youngs Moduli (GPa) = 93.74389 148.24159 70.76933
#
# Poissons Ratio (x) = 0.40904 0.20011
# Poissons Ratio (y) = 0.25867 0.05349
# Poissons Ratio (z) = 0.26508 0.11205
#
# Static dielectric constant tensor:
#      x y z
#    x 1.795670 0.000000 -0.009780 
#    y 0.000000 1.949150 0.000000 
#    z -0.009780 0.000000 1.785060 
# 
# From -- ./inp_files/252929.got.cif
#   From: 2010.05.17/outbox.cif.g08.bks.cpg/sg12_127_cif.got.tgz:252929.got - 2010.06.03 13:09:07.
