data_PCOD9208059
_publ_section_title
;
Structure prediction by ZEFSAII (Michael W. Deem and Ramdas Pophale) SiO2 
 PCOD9208059
Probable space group: C 2/M
;
_chemical_formula_sum "Si O2"
_cell_formula_units_Z 52
_cell_length_a 11.377792
_cell_length_b 16.154550
_cell_length_c 24.648830
_cell_angle_alpha 90.000000
_cell_angle_beta 147.357168
_cell_angle_gamma 90.000000
_cell_volume 2443.770640
_symmetry_space_group_name_H-M "C 2/M"
_symmetry_group_IT_number 12
_symmetry_cell_setting 'monoclinic'
loop_
_space_group_symop_operation_xyz
x,y,z
-x,y,-z
-x,-y,-z
x,-y,z
1/2+x,1/2+y,z
1/2-x,1/2+y,-z
1/2-x,1/2-y,-z
1/2+x,1/2-y,z
loop_
_atom_site_type_symbol
_atom_site_label
_atom_site_fract_x
_atom_site_fract_y
_atom_site_fract_z
Si Si1 0.112489 0.000000 0.708236
Si Si2 0.449921 0.595069 0.838741
Si Si3 0.269218 0.500000 0.672577
Si Si4 0.640873 0.236320 0.743782
Si Si5 0.257680 0.729436 0.098629
Si Si6 0.743489 0.139321 0.401124
Si Si7 0.116931 0.355714 0.230649
Si Si8 0.303114 0.000000 0.528852
O O1 0.278949 0.923672 0.767968
O O2 0.943256 0.000000 0.692042
O O3 0.936996 0.000000 0.590666
O O4 0.495345 0.500000 0.876508
O O5 0.332368 0.577268 0.735569
O O6 0.277223 0.650482 0.804756
O O7 0.654367 0.655086 0.905372
O O8 0.006481 0.500000 0.566250
O O9 0.674686 0.285565 0.812549
O O10 0.386425 0.222680 0.637925
O O11 0.735969 0.276471 0.726889
O O12 0.378076 0.816067 0.129404
O O13 0.000000 0.736370 0.000000
O O14 0.657566 0.114646 0.307761
O O15 0.679444 0.076939 0.423623
O O16 0.000000 0.146635 0.500000
#
# Coordination Sequence:
#
# PCOD9208059 Si02
#       8
#     4   8   4   8   8   8   8   4
#     4  12  22  40  59  91 130 165 222 259 316 375
#     4   9  19  38  63  91 120 164 209 253 319 377
#     4  10  21  37  61  91 124 166 208 255 313 376
#     4  10  21  40  62  88 128 167 207 261 323 377
#     4  10  22  41  67  94 126 167 213 260 329 385
#     4  11  20  37  60  88 123 161 214 252 308 382
#     4  10  23  38  62  91 124 170 204 267 317 370
#     4  12  21  38  63  91 121 171 212 263 312 375
#
# _framework density 21.278592
#
# number of rings (size 3 to 8) (size 9 to 14) (size 15 to 20)
#    0.462    1.231    3.077    1.846    0.000    3.385 
#    1.385    0.385    3.385    0.000    0.000    0.000 
#    0.000    0.000    0.000    0.000    0.000    0.000 
#
# Total GULP energy -144790.400588 kJ/mol
# GULP energy per Si atom -5568.861561 kJ/mol
# Density = 2.123016 g / cm^3
# Si number density = 21.278592 Si / 1000 Ang^3
#
#
#
# Elastic Constant Matrix: (Units=GPa)
#
#
# Indices 1 2 3 4 5 6 
#
# 1 113.5561 31.3199 21.5667 0.0000 32.7703 0.0001
# 2 31.3199 76.9343 30.5825 0.0001 22.0393 0.0000
# 3 21.5667 30.5825 60.0121 -0.0005 39.9109 0.0002
# 4 0.0000 0.0001 -0.0005 -5.5753 -0.0002 11.0227
# 5 32.7703 22.0393 39.9109 -0.0002 46.8387 0.0000
# 6 0.0001 0.0000 0.0002 11.0227 0.0000 27.3576
#
#
#
# Elastic Compliance Matrix: (Units=1/GPa)
#
#
# Indices 1 2 3 4 5 6 
#
# 1 0.012003 -0.003684 0.004606 0.000000 -0.010590 0.000000
# 2 -0.003684 0.017469 -0.008829 0.000001 0.001881 0.000000
# 3 0.004606 -0.008829 0.043589 -0.000002 -0.036210 0.000000
# 4 0.000000 0.000001 -0.000002 -0.099836 0.000001 0.040225
# 5 -0.010590 0.001881 -0.036210 0.000001 0.058728 0.000000
# 6 0.000000 0.000000 0.000000 0.040225 0.000000 0.020346
#
#
# Mechanical properties :
#
#
# Convention : Reuss Voigt Hill
#
# Bulk Modulus (GPa) = 17.46827 46.38228 31.92528
# Shear Modulus (GPa) = 57.34255 24.85977 41.10116
#
# Velocity S-wave (km/s) = 5.19682 3.42175 4.39973
# Velocity P-wave (km/s) = 6.65105 6.12014 6.39111
#
# Compressibility (1/GPa) = 0.05724666
#
# Stress axis : x y z
#
# Youngs Moduli (GPa) = 83.30919 57.24510 22.94176
#
# Poissons Ratio (x) = 0.21090 -0.10568
# Poissons Ratio (y) = 0.30692 0.20256
# Poissons Ratio (z) = -0.38375 0.50544
#
# Static dielectric constant tensor:
#      x y z
#    x 1.798500 0.000000 -0.000300 
#    y 0.000000 1.846780 0.000000 
#    z -0.000300 0.000000 1.761940 
# 
# From -- ./inp_files/358756.got.cif
#   From: 2010.05.17/outbox.cif.g08.bks.cpg/sg12_180_cif.got.tgz:358756.got - 2010.06.03 13:09:07.
