data_PCOD9208394
_publ_section_title
;
Structure prediction by ZEFSAII (Michael W. Deem and Ramdas Pophale) SiO2 
 PCOD9208394
Probable space group: C 2/M
;
_chemical_formula_sum "Si O2"
_cell_formula_units_Z 56
_cell_length_a 11.145227
_cell_length_b 29.831883
_cell_length_c 9.944855
_cell_angle_alpha 90.000000
_cell_angle_beta 110.762178
_cell_angle_gamma 90.000000
_cell_volume 3091.772049
_symmetry_space_group_name_H-M "C 2/M"
_symmetry_group_IT_number 12
_symmetry_cell_setting 'monoclinic'
loop_
_space_group_symop_operation_xyz
x,y,z
-x,y,-z
-x,-y,-z
x,-y,z
1/2+x,1/2+y,z
1/2-x,1/2+y,-z
1/2-x,1/2-y,-z
1/2+x,1/2-y,z
loop_
_atom_site_type_symbol
_atom_site_label
_atom_site_fract_x
_atom_site_fract_y
_atom_site_fract_z
Si Si1 0.759836 0.175340 0.615209
Si Si2 0.599195 0.750554 0.656056
Si Si3 0.778674 0.165491 0.172321
Si Si4 0.381655 0.447459 0.849854
Si Si5 0.019884 0.111165 0.357910
Si Si6 0.804322 0.625933 0.142637
Si Si7 0.559674 0.164416 0.308584
O O1 0.723051 0.227022 0.630043
O O2 0.886484 0.155065 0.597855
O O3 0.759858 0.153784 0.761979
O O4 0.640977 0.158257 0.477275
O O5 0.500000 0.735734 0.500000
O O6 0.646776 0.712408 0.775494
O O7 0.523811 0.790327 0.703079
O O8 0.662071 0.167318 0.230798
O O9 0.882908 0.127889 0.251077
O O10 0.725887 0.152433 0.005765
O O11 0.358780 0.500000 0.820583
O O12 0.418660 0.423289 0.723983
O O13 0.261809 0.422192 0.870871
O O14 0.500000 0.441699 0.000000
O O15 0.000000 0.093049 0.500000
O O16 0.955403 0.626730 0.233193
#
# Coordination Sequence:
#
# PCOD9208394 Si02
#       7
#     8   8   8   8   8   8   8
#     4   9  20  37  57  79 114 165 198 236 286 335
#     4   9  21  35  54  80 117 160 211 248 277 334
#     4  12  22  33  56  86 115 157 198 248 290 326
#     4  10  21  41  67  90 114 145 184 238 301 366
#     4  11  21  36  60  92 117 151 194 243 291 347
#     4  10  21  39  59  83 114 148 194 234 293 358
#     4  10  21  38  56  81 116 164 198 239 287 337
#
# _framework density 18.112590999999998
#
# number of rings (size 3 to 8) (size 9 to 14) (size 15 to 20)
#    0.000    1.857    2.857    2.143    2.000    3.714 
#    0.000    0.000    3.143    9.429    0.000    0.000 
#    0.000    0.000    0.000    0.000    0.000    0.000 
#
# Total GULP energy -156138.612585 kJ/mol
# GULP energy per Si atom -5576.379021 kJ/mol
# Density = 1.807137 g / cm^3
# Si number density = 18.112591 Si / 1000 Ang^3
#
#
#
# Elastic Constant Matrix: (Units=GPa)
#
#
# Indices 1 2 3 4 5 6 
#
# 1 81.2765 36.5139 20.2861 0.0000 -3.8735 0.0000
# 2 36.5139 87.6266 36.0966 0.0000 -3.3702 0.0000
# 3 20.2861 36.0966 109.5228 0.0000 -7.3127 0.0000
# 4 0.0000 0.0000 0.0000 20.1300 0.0000 -6.7797
# 5 -3.8735 -3.3702 -7.3127 0.0000 25.2629 0.0000
# 6 0.0000 0.0000 0.0000 -6.7797 0.0000 15.1335
#
#
#
# Elastic Compliance Matrix: (Units=1/GPa)
#
#
# Indices 1 2 3 4 5 6 
#
# 1 0.015247 -0.005989 -0.000762 0.000000 0.001318 0.000000
# 2 -0.005989 0.015564 -0.004021 0.000000 -0.000006 0.000000
# 3 -0.000762 -0.004021 0.010761 0.000000 0.002462 0.000000
# 4 0.000000 0.000000 0.000000 0.058504 0.000000 0.026209
# 5 0.001318 -0.000006 0.002462 0.000000 0.040498 0.000000
# 6 0.000000 0.000000 0.000000 0.026209 0.000000 0.077820
#
#
# Mechanical properties :
#
#
# Convention : Reuss Voigt Hill
#
# Bulk Modulus (GPa) = 49.92853 51.57992 50.75422
# Shear Modulus (GPa) = 20.27466 24.47391 22.37429
#
# Velocity S-wave (km/s) = 3.34933 3.67987 3.51848
# Velocity P-wave (km/s) = 6.52555 6.82601 6.67747
#
# Compressibility (1/GPa) = 0.02002863
#
# Stress axis : x y z
#
# Youngs Moduli (GPa) = 65.58546 64.25254 92.92652
#
# Poissons Ratio (x) = 0.38480 0.07084
# Poissons Ratio (y) = 0.39278 0.37362
# Poissons Ratio (z) = 0.05000 0.25833
#
# Static dielectric constant tensor:
#      x y z
#    x 1.661970 0.000000 -0.006900 
#    y 0.000000 1.632290 0.000000 
#    z -0.006900 0.000000 1.620610 
# 
# From -- ./inp_files/54339.got.cif
#   From: 2010.05.17/outbox.cif.g08.bks.cpg/sg12_28_cif.got.tgz:54339.got - 2010.06.03 13:09:07.
