data_PCOD9208876
_publ_section_title
;
Structure prediction by ZEFSAII (Michael W. Deem and Ramdas Pophale) SiO2 
 PCOD9208876
Probable space group: C 2/M
;
_chemical_formula_sum "Si O2"
_cell_formula_units_Z 56
_cell_length_a 29.093442
_cell_length_b 8.748610
_cell_length_c 20.608743
_cell_angle_alpha 90.000000
_cell_angle_beta 148.278401
_cell_angle_gamma 90.000000
_cell_volume 2758.035970
_symmetry_space_group_name_H-M "C 2/M"
_symmetry_group_IT_number 12
_symmetry_cell_setting 'monoclinic'
loop_
_space_group_symop_operation_xyz
x,y,z
-x,y,-z
-x,-y,-z
x,-y,z
1/2+x,1/2+y,z
1/2-x,1/2+y,-z
1/2-x,1/2-y,-z
1/2+x,1/2-y,z
loop_
_atom_site_type_symbol
_atom_site_label
_atom_site_fract_x
_atom_site_fract_y
_atom_site_fract_z
Si Si1 0.112345 0.320341 0.035109
Si Si2 0.019799 0.182490 0.317320
Si Si3 0.312688 0.318381 0.237111
Si Si4 0.659445 0.181008 0.866387
Si Si5 0.317971 0.179443 0.739461
Si Si6 0.360912 0.819622 0.430255
Si Si7 0.936267 0.819439 0.772600
O O1 0.093059 0.500000 0.000546
O O2 0.208488 0.288300 0.121220
O O3 0.122766 0.297563 0.125063
O O4 0.034666 0.220963 0.913203
O O5 0.064157 0.260232 0.432294
O O6 0.070216 0.219333 0.311226
O O7 0.921507 0.243688 0.193835
O O8 0.019278 0.000000 0.324555
O O9 0.323440 0.500000 0.240234
O O10 0.347346 0.227010 0.217209
O O11 0.358440 0.266294 0.358389
O O12 0.658579 0.000000 0.874144
O O13 0.750000 0.250000 0.000000
O O14 0.230878 0.276899 0.645671
O O15 0.370549 0.227273 0.739241
O O16 0.293993 0.000000 0.709443
O O17 0.367534 0.000000 0.427856
O O18 0.921072 0.000000 0.762393
#
# Coordination Sequence:
#
# PCOD9208876 Si02
#       7
#     8   8   8   8   8   8   8
#     4   9  19  35  57  86 119 155 195 238 292 359
#     4  11  25  44  62  85 120 160 202 249 301 357
#     4  10  21  40  65  91 122 161 199 243 301 358
#     4  12  25  42  65  95 126 158 199 245 297 355
#     4  10  21  38  60  85 118 160 200 242 297 359
#     4  11  23  41  64  91 120 153 200 251 298 354
#     4  11  23  36  56  86 118 155 200 250 301 351
#
# _framework density 20.304304999999999
#
# number of rings (size 3 to 8) (size 9 to 14) (size 15 to 20)
#    0.000    1.429    0.000    6.429    0.000   10.857 
#    0.000    2.857    0.000    0.000    0.000    0.000 
#    0.000    0.000    0.000    0.000    0.000    0.000 
#
# Total GULP energy -156675.226541 kJ/mol
# GULP energy per Si atom -5595.543805 kJ/mol
# Density = 2.025809 g / cm^3
# Si number density = 20.304305 Si / 1000 Ang^3
#
#
#
# Elastic Constant Matrix: (Units=GPa)
#
#
# Indices 1 2 3 4 5 6 
#
# 1 68.3186 1.5918 -12.0316 0.0000 -7.2514 0.0000
# 2 1.5918 38.1888 3.8397 0.0000 -0.8906 0.0000
# 3 -12.0316 3.8397 46.0768 0.0000 -5.9792 0.0000
# 4 0.0000 0.0000 0.0000 34.3308 0.0000 -0.3547
# 5 -7.2514 -0.8906 -5.9792 0.0000 11.8682 0.0000
# 6 0.0000 0.0000 0.0000 -0.3547 0.0000 34.9953
#
#
#
# Elastic Compliance Matrix: (Units=1/GPa)
#
#
# Indices 1 2 3 4 5 6 
#
# 1 0.017230 -0.001039 0.006357 0.000000 0.013652 0.000000
# 2 -0.001039 0.026479 -0.002464 0.000000 0.000111 0.000000
# 3 0.006357 -0.002464 0.025730 0.000000 0.016662 0.000000
# 4 0.000000 0.000000 0.000000 0.029131 0.000000 0.000295
# 5 0.013652 0.000111 0.016662 0.000000 0.101003 0.000000
# 6 0.000000 0.000000 0.000000 0.000295 0.000000 0.028578
#
#
# Mechanical properties :
#
#
# Convention : Reuss Voigt Hill
#
# Bulk Modulus (GPa) = 13.30678 15.48711 14.39695
# Shear Modulus (GPa) = 20.20259 26.85114 23.52686
#
# Velocity S-wave (km/s) = 3.15777 3.64048 3.40768
# Velocity P-wave (km/s) = 4.45682 5.03138 4.75279
#
# Compressibility (1/GPa) = 0.07514963
#
# Stress axis : x y z
#
# Youngs Moduli (GPa) = 58.03767 37.76537 38.86445
#
# Poissons Ratio (x) = 0.03924 -0.24708
# Poissons Ratio (y) = 0.06030 0.09574
# Poissons Ratio (z) = -0.36897 0.09304
#
# Static dielectric constant tensor:
#      x y z
#    x 1.719470 0.000000 -0.008060 
#    y 0.000000 1.667510 0.000000 
#    z -0.008060 0.000000 1.688310 
# 
# From -- ./inp_files/329623.got.cif
#   From: 2010.05.17/outbox.cif.g08.bks.cpg/sg12_165_cif.got.tgz:329623.got - 2010.06.03 13:09:07.
