data_PCOD9208217
_publ_section_title
;
Structure prediction by ZEFSAII (Michael W. Deem and Ramdas Pophale) SiO2 
 PCOD9208217
Probable space group: C 2/M
;
_chemical_formula_sum "Si O2"
_cell_formula_units_Z 56
_cell_length_a 20.679168
_cell_length_b 8.262416
_cell_length_c 19.965413
_cell_angle_alpha 90.000000
_cell_angle_beta 123.029775
_cell_angle_gamma 90.000000
_cell_volume 2859.981150
_symmetry_space_group_name_H-M "C 2/M"
_symmetry_group_IT_number 12
_symmetry_cell_setting 'monoclinic'
loop_
_space_group_symop_operation_xyz
x,y,z
-x,y,-z
-x,-y,-z
x,-y,z
1/2+x,1/2+y,z
1/2-x,1/2+y,-z
1/2-x,1/2-y,-z
1/2+x,1/2-y,z
loop_
_atom_site_type_symbol
_atom_site_label
_atom_site_fract_x
_atom_site_fract_y
_atom_site_fract_z
Si Si1 0.371152 0.697309 0.265509
Si Si2 0.467341 0.697932 0.194238
Si Si3 0.696941 0.193746 0.143251
Si Si4 0.667340 0.307130 0.981563
Si Si5 0.232677 0.693203 0.565148
Si Si6 0.639416 0.304176 0.255152
Si Si7 0.912859 0.804253 0.437844
O O1 0.371176 0.500000 0.266206
O O2 0.435727 0.748301 0.249020
O O3 0.286418 0.748821 0.194060
O O4 0.386299 0.752378 0.349419
O O5 0.468157 0.500000 0.193813
O O6 0.553830 0.751652 0.227255
O O7 0.403770 0.752212 0.104089
O O8 0.658815 0.256795 0.053857
O O9 0.659778 0.250254 0.191662
O O10 0.696307 0.000000 0.141131
O O11 0.667421 0.500000 0.977064
O O12 0.750000 0.250000 0.000000
O O13 0.235767 0.500000 0.567847
O O14 0.250000 0.750000 0.500000
O O15 0.296199 0.753512 0.655197
O O16 0.148889 0.748437 0.542711
O O17 0.639968 0.500000 0.256726
O O18 0.000000 0.749684 0.500000
O O19 0.912822 0.000000 0.437756
#
# Coordination Sequence:
#
# PCOD9208217 Si02
#       7
#     8   8   8   8   8   8   8
#     4   9  17  33  58  85 112 149 194 236 280 338
#     4   9  19  36  59  85 113 151 197 241 284 339
#     4  11  21  37  61  85 118 156 191 237 294 352
#     4  11  21  36  59  87 117 150 196 246 295 346
#     4  11  24  40  61  87 121 157 196 245 299 355
#     4  10  22  40  62  86 114 153 200 241 283 346
#     4  10  21  37  63  92 118 153 198 241 290 356
#
# _framework density 19.580549000000001
#
# number of rings (size 3 to 8) (size 9 to 14) (size 15 to 20)
#    0.000    1.857    2.857    1.286    2.000    1.429 
#    0.000    4.286    0.000    0.000    0.000    0.000 
#    0.000    0.000    0.000    0.000    0.000    0.000 
#
# Total GULP energy -156395.968990 kJ/mol
# GULP energy per Si atom -5585.570321 kJ/mol
# Density = 1.953598 g / cm^3
# Si number density = 19.580549 Si / 1000 Ang^3
#
#
#
# Elastic Constant Matrix: (Units=GPa)
#
#
# Indices 1 2 3 4 5 6 
#
# 1 176.0326 14.8384 66.5092 0.0000 -11.3441 0.0000
# 2 14.8384 17.3627 13.1085 0.0000 2.1491 0.0000
# 3 66.5092 13.1085 115.2585 0.0000 -17.7836 0.0000
# 4 0.0000 0.0000 0.0000 23.1725 0.0000 -6.8969
# 5 -11.3441 2.1491 -17.7836 0.0000 38.0488 0.0000
# 6 0.0000 0.0000 0.0000 -6.8969 0.0000 25.8394
#
#
#
# Elastic Compliance Matrix: (Units=1/GPa)
#
#
# Indices 1 2 3 4 5 6 
#
# 1 0.007459 -0.003590 -0.003795 0.000000 0.000653 0.000000
# 2 -0.003590 0.066752 -0.006754 0.000000 -0.007998 0.000000
# 3 -0.003795 -0.006754 0.012414 0.000000 0.005052 0.000000
# 4 0.000000 0.000000 0.000000 0.046879 0.000000 0.012513
# 5 0.000653 -0.007998 0.005052 0.000000 0.029290 0.000000
# 6 0.000000 0.000000 0.000000 0.012513 0.000000 0.042040
#
#
# Mechanical properties :
#
#
# Convention : Reuss Voigt Hill
#
# Bulk Modulus (GPa) = 17.13911 55.28512 36.21212
# Shear Modulus (GPa) = 19.79708 31.69199 25.74453
#
# Velocity S-wave (km/s) = 3.18316 4.02748 3.62995
# Velocity P-wave (km/s) = 4.72040 7.06565 6.00856
#
# Compressibility (1/GPa) = 0.05834608
#
# Stress axis : x y z
#
# Youngs Moduli (GPa) = 134.05799 14.98078 80.55505
#
# Poissons Ratio (x) = 0.05379 0.30574
# Poissons Ratio (y) = 0.48132 0.54407
# Poissons Ratio (z) = 0.50880 0.10118
#
# Static dielectric constant tensor:
#      x y z
#    x 1.659660 0.000000 0.012570 
#    y 0.000000 1.692920 0.000000 
#    z 0.012570 0.000000 1.684390 
# 
# From -- ./inp_files/275635.got.cif
#   From: 2010.05.17/outbox.cif.g08.bks.cpg/sg12_138_cif.got.tgz:275635.got - 2010.06.03 13:09:07.
