data_PCOD9208512
_publ_section_title
;
Structure prediction by ZEFSAII (Michael W. Deem and Ramdas Pophale) SiO2 
 PCOD9208512
Probable space group: C 2/M
;
_chemical_formula_sum "Si O2"
_cell_formula_units_Z 48
_cell_length_a 19.844030
_cell_length_b 8.582022
_cell_length_c 27.835529
_cell_angle_alpha 90.000000
_cell_angle_beta 145.730375
_cell_angle_gamma 90.000000
_cell_volume 2669.286958
_symmetry_space_group_name_H-M "C 2/M"
_symmetry_group_IT_number 12
_symmetry_cell_setting 'monoclinic'
loop_
_space_group_symop_operation_xyz
x,y,z
-x,y,-z
-x,-y,-z
x,-y,z
1/2+x,1/2+y,z
1/2-x,1/2+y,-z
1/2-x,1/2-y,-z
1/2+x,1/2-y,z
loop_
_atom_site_type_symbol
_atom_site_label
_atom_site_fract_x
_atom_site_fract_y
_atom_site_fract_z
Si Si1 0.786649 0.687656 0.969178
Si Si2 0.130505 0.312092 0.286230
Si Si3 0.813015 0.186730 0.259912
Si Si4 0.122875 0.686246 0.598139
Si Si5 0.589311 0.813550 0.779738
Si Si6 0.946503 0.311393 0.867099
O O1 0.785009 0.500000 0.969246
O O2 0.693472 0.746790 0.875057
O O3 0.750000 0.750000 0.000000
O O4 0.923143 0.740922 0.039183
O O5 0.143607 0.500000 0.294596
O O6 0.260936 0.236714 0.363841
O O7 0.072209 0.270675 0.200093
O O8 0.038279 0.264085 0.273169
O O9 0.861927 0.236128 0.340726
O O10 0.887106 0.258000 0.260136
O O11 0.673389 0.240677 0.176231
O O12 0.814372 0.000000 0.257073
O O13 0.122979 0.500000 0.604080
O O14 0.000000 0.733187 0.500000
O O15 0.593553 0.000000 0.784770
O O16 0.946742 0.500000 0.869678
#
# Coordination Sequence:
#
# PCOD9208512 Si02
#       6
#     8   8   8   8   8   8
#     4  11  20  33  53  79 110 148 193 235 275 321
#     4   9  18  35  57  79 108 147 185 222 272 328
#     4  10  21  38  58  81 110 147 186 224 276 331
#     4  10  21  38  61  88 113 137 173 224 276 330
#     4  11  22  37  54  80 116 149 184 232 281 319
#     4   8  16  33  53  74 105 145 186 227 270 316
#
# _framework density 17.982330000000001
#
# number of rings (size 3 to 8) (size 9 to 14) (size 15 to 20)
#    0.000    2.167    1.667    3.000    0.000    3.333 
#    0.000    6.667    0.000    0.000    0.000    0.000 
#    0.000    0.000    0.000    0.000    0.000    0.000 
#
# Total GULP energy -133930.554950 kJ/mol
# GULP energy per Si atom -5580.439790 kJ/mol
# Density = 1.794140 g / cm^3
# Si number density = 17.982330 Si / 1000 Ang^3
#
#
#
# Elastic Constant Matrix: (Units=GPa)
#
#
# Indices 1 2 3 4 5 6 
#
# 1 135.1603 26.4941 53.5176 0.0000 21.7197 0.0000
# 2 26.4941 40.3975 25.7543 0.0000 6.6784 0.0000
# 3 53.5176 25.7543 117.1147 0.0000 26.7547 0.0000
# 4 0.0000 0.0000 0.0000 26.9984 0.0000 -0.9659
# 5 21.7197 6.6784 26.7547 0.0000 21.6848 0.0000
# 6 0.0000 0.0000 0.0000 -0.9659 0.0000 28.1930
#
#
#
# Elastic Compliance Matrix: (Units=1/GPa)
#
#
# Indices 1 2 3 4 5 6 
#
# 1 0.010094 -0.004143 -0.002344 0.000000 -0.005942 0.000000
# 2 -0.004143 0.030525 -0.005040 0.000000 0.000968 0.000000
# 3 -0.002344 -0.005040 0.013684 0.000000 -0.012984 0.000000
# 4 0.000000 0.000000 0.000000 0.037085 0.000000 0.001271
# 5 -0.005942 0.000968 -0.012984 0.000000 0.067788 0.000000
# 6 0.000000 0.000000 0.000000 0.001271 0.000000 0.035513
#
#
# Mechanical properties :
#
#
# Convention : Reuss Voigt Hill
#
# Bulk Modulus (GPa) = 32.00249 56.02273 44.01261
# Shear Modulus (GPa) = 21.91451 27.83568 24.87509
#
# Velocity S-wave (km/s) = 3.49473 3.93866 3.72332
# Velocity P-wave (km/s) = 5.84119 7.20458 6.55841
#
# Compressibility (1/GPa) = 0.03124757
#
# Stress axis : x y z
#
# Youngs Moduli (GPa) = 99.07151 32.76051 73.07671
#
# Poissons Ratio (x) = 0.13573 0.17129
# Poissons Ratio (y) = 0.41047 0.36833
# Poissons Ratio (z) = 0.23222 0.16513
#
# Static dielectric constant tensor:
#      x y z
#    x 1.613100 0.000000 0.025610 
#    y 0.000000 1.612510 0.000000 
#    z 0.025610 0.000000 1.602000 
# 
# From -- ./inp_files/380254.got.cif
#   From: 2010.05.17/outbox.cif.g08.bks.cpg/sg12_191_cif.got.tgz:380254.got - 2010.06.03 13:09:07.
