data_PCOD9208629
_publ_section_title
;
Structure prediction by ZEFSAII (Michael W. Deem and Ramdas Pophale) SiO2 
 PCOD9208629
Probable space group: C 2/M
;
_chemical_formula_sum "Si O2"
_cell_formula_units_Z 56
_cell_length_a 8.818170
_cell_length_b 28.491899
_cell_length_c 11.509399
_cell_angle_alpha 90.000000
_cell_angle_beta 104.847322
_cell_angle_gamma 90.000000
_cell_volume 2795.147481
_symmetry_space_group_name_H-M "C 2/M"
_symmetry_group_IT_number 12
_symmetry_cell_setting 'monoclinic'
loop_
_space_group_symop_operation_xyz
x,y,z
-x,y,-z
-x,-y,-z
x,-y,z
1/2+x,1/2+y,z
1/2-x,1/2+y,-z
1/2-x,1/2-y,-z
1/2+x,1/2-y,z
loop_
_atom_site_type_symbol
_atom_site_label
_atom_site_fract_x
_atom_site_fract_y
_atom_site_fract_z
Si Si1 0.741774 0.725450 0.126033
Si Si2 0.313040 0.197751 0.489254
Si Si3 0.297332 0.636582 0.309228
Si Si4 0.374952 0.647939 0.754761
Si Si5 0.821541 0.446129 0.597670
Si Si6 0.939412 0.688573 0.856167
Si Si7 0.812672 0.555652 0.318194
O O1 0.628764 0.681671 0.132109
O O2 0.684657 0.769602 0.187800
O O3 0.910723 0.704422 0.186266
O O4 0.750000 0.750000 0.000000
O O5 0.500000 0.196935 0.500000
O O6 0.250000 0.250000 0.500000
O O7 0.254012 0.167742 0.589359
O O8 0.231143 0.174408 0.361696
O O9 0.453740 0.647513 0.269540
O O10 0.302838 0.584644 0.359527
O O11 0.149634 0.642163 0.194687
O O12 0.299429 0.596030 0.757277
O O13 0.803806 0.500000 0.623259
O O14 0.797432 0.440602 0.455066
O O15 0.002231 0.433146 0.664130
O O16 0.000000 0.686576 0.000000
O O17 0.785636 0.500000 0.282462
#
# Coordination Sequence:
#
# PCOD9208629 Si02
#       7
#     8   8   8   8   8   8   8
#     4  10  21  38  59  82 111 151 200 252 303 356
#     4  12  24  38  55  80 118 161 203 243 299 369
#     4  12  23  36  56  87 121 159 202 249 308 367
#     4  12  23  36  56  88 124 160 200 249 305 369
#     4   9  18  34  57  85 120 163 208 247 294 365
#     4  10  21  38  59  81 110 149 201 255 302 357
#     4   9  18  34  57  86 122 164 206 248 298 363
#
# _framework density 20.034721000000001
#
# number of rings (size 3 to 8) (size 9 to 14) (size 15 to 20)
#    0.000    1.429    1.429    6.429    0.000    1.714 
#    0.000    1.429    0.000    0.429    0.000    3.000 
#    0.000   16.571    0.000    0.000    0.000    0.000 
#
# Total GULP energy -156172.281741 kJ/mol
# GULP energy per Si atom -5577.581491 kJ/mol
# Density = 1.998912 g / cm^3
# Si number density = 20.034721 Si / 1000 Ang^3
#
#
#
# Elastic Constant Matrix: (Units=GPa)
#
#
# Indices 1 2 3 4 5 6 
#
# 1 118.8464 39.5566 30.0270 0.0000 -21.4933 0.0000
# 2 39.5566 101.1083 29.2000 0.0000 -12.5424 0.0000
# 3 30.0270 29.2000 57.5935 0.0000 -1.6973 0.0000
# 4 0.0000 0.0000 0.0000 18.4683 0.0000 -7.0066
# 5 -21.4933 -12.5424 -1.6973 0.0000 23.3184 0.0000
# 6 0.0000 0.0000 0.0000 -7.0066 0.0000 33.5773
#
#
#
# Elastic Compliance Matrix: (Units=1/GPa)
#
#
# Indices 1 2 3 4 5 6 
#
# 1 0.012120 -0.002107 -0.004965 0.000000 0.009677 0.000000
# 2 -0.002107 0.012798 -0.005256 0.000000 0.004559 0.000000
# 3 -0.004965 -0.005256 0.022446 0.000000 -0.005770 0.000000
# 4 0.000000 0.000000 0.000000 0.058802 0.000000 0.012270
# 5 0.009677 0.004559 -0.005770 0.000000 0.053836 0.000000
# 6 0.000000 0.000000 0.000000 0.012270 0.000000 0.032342
#
#
# Mechanical properties :
#
#
# Convention : Reuss Voigt Hill
#
# Bulk Modulus (GPa) = 44.03737 52.79058 48.41398
# Shear Modulus (GPa) = 22.26465 26.99045 24.62755
#
# Velocity S-wave (km/s) = 3.33724 3.67438 3.50986
# Velocity P-wave (km/s) = 6.07271 6.66395 6.37519
#
# Compressibility (1/GPa) = 0.02270798
#
# Stress axis : x y z
#
# Youngs Moduli (GPa) = 82.50712 78.13596 44.55058
#
# Poissons Ratio (x) = 0.16466 0.22121
# Poissons Ratio (y) = 0.17388 0.23414
# Poissons Ratio (z) = 0.40968 0.41065
#
# Static dielectric constant tensor:
#      x y z
#    x 1.764160 0.000000 -0.031120 
#    y 0.000000 1.743670 0.000000 
#    z -0.031120 0.000000 1.790560 
# 
# From -- ./inp_files/124371.got.cif
#   From: 2010.05.17/outbox.cif.g08.bks.cpg/sg12_63_cif.got.tgz:124371.got - 2010.06.03 13:09:07.
