data_PCOD9208657
_publ_section_title
;
Structure prediction by ZEFSAII (Michael W. Deem and Ramdas Pophale) SiO2 
 PCOD9208657
Probable space group: C 2/M
;
_chemical_formula_sum "Si O2"
_cell_formula_units_Z 48
_cell_length_a 32.676727
_cell_length_b 8.672834
_cell_length_c 16.334617
_cell_angle_alpha 90.000000
_cell_angle_beta 35.461004
_cell_angle_gamma 90.000000
_cell_volume 2685.640537
_symmetry_space_group_name_H-M "C 2/M"
_symmetry_group_IT_number 12
_symmetry_cell_setting 'monoclinic'
loop_
_space_group_symop_operation_xyz
x,y,z
-x,y,-z
-x,-y,-z
x,-y,z
1/2+x,1/2+y,z
1/2-x,1/2+y,-z
1/2-x,1/2-y,-z
1/2+x,1/2-y,z
loop_
_atom_site_type_symbol
_atom_site_label
_atom_site_fract_x
_atom_site_fract_y
_atom_site_fract_z
Si Si1 0.147367 0.315632 0.111482
Si Si2 0.683074 0.315556 0.561269
Si Si3 0.466280 0.815062 0.142628
Si Si4 0.135008 0.315705 0.470361
Si Si5 0.485564 0.684274 0.768240
Si Si6 0.694760 0.315637 0.204868
O O1 0.138478 0.500000 0.128798
O O2 0.083377 0.240112 0.166931
O O3 0.153869 0.249901 0.192598
O O4 0.222470 0.281971 0.945763
O O5 0.684584 0.500000 0.557107
O O6 0.750000 0.250000 0.500000
O O7 0.611107 0.257672 0.721218
O O8 0.678690 0.251279 0.475959
O O9 0.511909 0.749370 0.143470
O O10 0.460843 0.000000 0.160027
O O11 0.500000 0.779521 0.000000
O O12 0.133601 0.500000 0.477414
O O13 0.167361 0.260097 0.332430
O O14 0.055836 0.250993 0.610761
O O15 0.489699 0.500000 0.763190
O O16 0.686116 0.500000 0.222779
#
# Coordination Sequence:
#
# PCOD9208657 Si02
#       6
#     8   8   8   8   8   8
#     4  10  21  38  59  83 113 147 184 228 277 329
#     4  11  22  38  59  83 113 147 186 230 277 328
#     4  10  21  38  59  83 113 147 184 228 278 330
#     4  11  22  38  59  83 113 147 186 229 277 330
#     4  11  22  37  58  83 113 147 186 230 276 328
#     4  10  21  38  59  84 114 146 184 229 277 329
#
# _framework density 17.872831000000001
#
# number of rings (size 3 to 8) (size 9 to 14) (size 15 to 20)
#    0.000    1.500    0.000    8.000    0.000    5.333 
#    0.000    5.000    0.000    0.000    0.000    0.000 
#    0.000    0.000    0.000    0.000    0.000    0.000 
#
# Total GULP energy -134154.982406 kJ/mol
# GULP energy per Si atom -5589.790934 kJ/mol
# Density = 1.783215 g / cm^3
# Si number density = 17.872831 Si / 1000 Ang^3
#
#
#
# Elastic Constant Matrix: (Units=GPa)
#
#
# Indices 1 2 3 4 5 6 
#
# 1 196.5377 98.3248 111.8130 0.0001 0.3434 0.0000
# 2 98.3248 157.4472 81.5857 0.0006 11.9330 0.0000
# 3 111.8130 81.5857 117.0722 0.0003 31.9932 0.0000
# 4 0.0001 0.0006 0.0003 30.7599 0.0000 1.4381
# 5 0.3434 11.9330 31.9932 0.0000 27.7202 0.0000
# 6 0.0000 0.0000 0.0000 1.4381 0.0000 37.8745
#
#
#
# Elastic Compliance Matrix: (Units=1/GPa)
#
#
# Indices 1 2 3 4 5 6 
#
# 1 0.024104 -0.000992 -0.032669 0.000000 0.037833 0.000000
# 2 -0.000992 0.010575 -0.007568 0.000000 0.004195 0.000000
# 3 -0.032669 -0.007568 0.064296 0.000000 -0.070544 0.000000
# 4 0.000000 0.000000 0.000000 0.032568 0.000001 -0.001237
# 5 0.037833 0.004195 -0.070544 0.000001 0.115219 0.000000
# 6 0.000000 0.000000 0.000000 -0.001237 0.000000 0.026450
#
#
# Mechanical properties :
#
#
# Convention : Reuss Voigt Hill
#
# Bulk Modulus (GPa) = 60.54860 117.16712 88.85786
# Shear Modulus (GPa) = 13.84371 31.22648 22.53510
#
# Velocity S-wave (km/s) = 2.78612 4.18442 3.55471
# Velocity P-wave (km/s) = 6.65590 9.43632 8.16533
#
# Compressibility (1/GPa) = 0.01651566
#
# Stress axis : x y z
#
# Youngs Moduli (GPa) = 41.48669 94.56650 15.55312
#
# Poissons Ratio (x) = 0.09380 0.50811
# Poissons Ratio (y) = 0.04115 0.11771
# Poissons Ratio (z) = 1.35533 0.71572
#
# Static dielectric constant tensor:
#      x y z
#    x 1.581640 0.000000 0.000830 
#    y 0.000000 1.595350 0.000000 
#    z 0.000830 0.000000 1.587700 
# 
# From -- ./inp_files/229959.got.cif
#   From: 2010.05.17/outbox.cif.g08.bks.cpg/sg12_115_cif.got.tgz:229959.got - 2010.06.03 13:09:07.
