data_PCOD9208343
_publ_section_title
;
Structure prediction by ZEFSAII (Michael W. Deem and Ramdas Pophale) SiO2 
 PCOD9208343
Probable space group: C 2/M
;
_chemical_formula_sum "Si O2"
_cell_formula_units_Z 42
_cell_length_a 14.880958
_cell_length_b 17.908059
_cell_length_c 7.886657
_cell_angle_alpha 90.000000
_cell_angle_beta 118.358536
_cell_angle_gamma 90.000000
_cell_volume 1849.487299
_symmetry_space_group_name_H-M "C 2/M"
_symmetry_group_IT_number 12
_symmetry_cell_setting 'monoclinic'
loop_
_space_group_symop_operation_xyz
x,y,z
-x,y,-z
-x,-y,-z
x,-y,z
1/2+x,1/2+y,z
1/2-x,1/2+y,-z
1/2-x,1/2-y,-z
1/2+x,1/2-y,z
loop_
_atom_site_type_symbol
_atom_site_label
_atom_site_fract_x
_atom_site_fract_y
_atom_site_fract_z
Si Si1 0.244962 0.875894 0.464899
Si Si2 0.741446 0.245215 0.231662
Si Si3 0.521150 0.419042 0.316962
Si Si4 0.527042 0.107147 0.328769
Si Si5 0.932414 0.761645 0.153958
Si Si6 0.000000 0.500000 0.000000
O O1 0.237599 0.811346 0.598839
O O2 0.250605 0.831370 0.293748
O O3 0.141909 0.920911 0.391024
O O4 0.353807 0.913000 0.588902
O O5 0.832301 0.229815 0.182978
O O6 0.624564 0.235835 0.067605
O O7 0.500000 0.411119 0.500000
O O8 0.476621 0.500000 0.223890
O O9 0.481971 0.343311 0.194485
O O10 0.500000 0.087850 0.500000
O O11 0.504018 0.195980 0.289049
O O12 0.474956 0.064509 0.125440
#
# Coordination Sequence:
#
# PCOD9208343 Si02
#       6
#     8   8   8   8   8   2
#     4  11  22  40  68 102 136 191 237 290 360 427
#     4  10  21  37  70 103 138 184 244 295 345 434
#     4  11  24  43  68 103 145 190 234 294 353 434
#     4  12  25  47  74 105 145 190 243 310 367 450
#     4  11  21  43  70 107 142 188 243 296 363 427
#     4  12  30  48  72 102 140 188 236 312 394 420
#
# _framework density 22.708995999999999
#
# number of rings (size 3 to 8) (size 9 to 14) (size 15 to 20)
#    0.000    0.952    3.810    4.286    1.333    2.286 
#    0.000    1.905    0.000    0.000    0.000    0.000 
#    0.000    0.000    0.000    0.000    0.000    0.000 
#
# Total GULP energy -117017.498043 kJ/mol
# GULP energy per Si atom -5572.261812 kJ/mol
# Density = 2.265731 g / cm^3
# Si number density = 22.708996 Si / 1000 Ang^3
#
#
#
# Elastic Constant Matrix: (Units=GPa)
#
#
# Indices 1 2 3 4 5 6 
#
# 1 91.0778 34.1516 10.6804 0.0000 11.8493 0.0000
# 2 34.1516 168.8647 37.6859 0.0000 5.5247 0.0000
# 3 10.6804 37.6859 56.9349 0.0000 -4.1639 0.0000
# 4 0.0000 0.0000 0.0000 16.0598 0.0000 -19.7360
# 5 11.8493 5.5247 -4.1639 0.0000 42.6440 0.0000
# 6 0.0000 0.0000 0.0000 -19.7360 0.0000 35.8633
#
#
#
# Elastic Compliance Matrix: (Units=1/GPa)
#
#
# Indices 1 2 3 4 5 6 
#
# 1 0.012338 -0.002134 -0.001141 0.000000 -0.003263 0.000000
# 2 -0.002134 0.007396 -0.004555 0.000000 -0.000810 0.000000
# 3 -0.001141 -0.004555 0.021009 0.000000 0.002958 0.000000
# 4 0.000000 0.000000 0.000000 0.192348 0.000000 0.105851
# 5 -0.003263 -0.000810 0.002958 0.000000 0.024751 0.000000
# 6 0.000000 0.000000 0.000000 0.105851 0.000000 0.086135
#
#
# Mechanical properties :
#
#
# Convention : Reuss Voigt Hill
#
# Bulk Modulus (GPa) = 39.86458 53.54591 46.70524
# Shear Modulus (GPa) = 13.58706 34.53738 24.06222
#
# Velocity S-wave (km/s) = 2.44869 3.90406 3.25867
# Velocity P-wave (km/s) = 5.05840 6.62968 5.89661
#
# Compressibility (1/GPa) = 0.02508493
#
# Stress axis : x y z
#
# Youngs Moduli (GPa) = 81.04964 135.19966 47.59847
#
# Poissons Ratio (x) = 0.28851 0.05429
# Poissons Ratio (y) = 0.17296 0.21680
# Poissons Ratio (z) = 0.09245 0.61580
#
# Static dielectric constant tensor:
#      x y z
#    x 1.841530 0.000000 -0.023260 
#    y 0.000000 1.898560 0.000000 
#    z -0.023260 0.000000 1.962350 
# 
# From -- ./inp_files/61852.got.cif
#   From: 2010.05.17/outbox.cif.g08.bks.cpg/sg12_31_cif.got.tgz:61852.got - 2010.06.03 13:09:07.
