data_PCOD9208542
_publ_section_title
;
Structure prediction by ZEFSAII (Michael W. Deem and Ramdas Pophale) SiO2 
 PCOD9208542
Probable space group: C 2/M
;
_chemical_formula_sum "Si O2"
_cell_formula_units_Z 64
_cell_length_a 29.674422
_cell_length_b 8.944908
_cell_length_c 15.631499
_cell_angle_alpha 90.000000
_cell_angle_beta 48.644851
_cell_angle_gamma 90.000000
_cell_volume 3114.467700
_symmetry_space_group_name_H-M "C 2/M"
_symmetry_group_IT_number 12
_symmetry_cell_setting 'monoclinic'
loop_
_space_group_symop_operation_xyz
x,y,z
-x,y,-z
-x,-y,-z
x,-y,z
1/2+x,1/2+y,z
1/2-x,1/2+y,-z
1/2-x,1/2-y,-z
1/2+x,1/2-y,z
loop_
_atom_site_type_symbol
_atom_site_label
_atom_site_fract_x
_atom_site_fract_y
_atom_site_fract_z
Si Si1 0.337299 0.677179 0.836804
Si Si2 0.004463 0.326736 0.212292
Si Si3 0.208988 0.676138 0.929931
Si Si4 0.929646 0.678266 0.599441
Si Si5 0.184933 0.177807 0.585971
Si Si6 0.907261 0.177120 0.452467
Si Si7 0.089295 0.327045 0.826370
Si Si8 0.396143 0.676650 0.017810
O O1 0.343070 0.500000 0.846843
O O2 0.280622 0.697722 0.843336
O O3 0.396891 0.743002 0.719744
O O4 0.316650 0.761941 0.948049
O O5 0.013535 0.500000 0.225131
O O6 0.966865 0.241191 0.331539
O O7 0.962742 0.322083 0.179537
O O8 0.065520 0.248702 0.107131
O O9 0.196957 0.500000 0.937770
O O10 0.171752 0.763603 0.905217
O O11 0.924348 0.500000 0.614571
O O12 0.898801 0.736822 0.551431
O O13 0.000000 0.716031 0.500000
O O14 0.250000 0.250000 0.500000
O O15 0.147110 0.201202 0.545980
O O16 0.146978 0.257310 0.707792
O O17 0.188029 0.000000 0.597041
O O18 0.913323 0.000000 0.459877
O O19 0.098458 0.500000 0.838791
O O20 0.076971 0.233984 0.926755
O O21 0.398476 0.500000 0.009247
#
# Coordination Sequence:
#
# PCOD9208542 Si02
#       8
#     8   8   8   8   8   8   8   8
#     4  10  22  42  66  90 119 155 198 251 307 359
#     4  10  21  38  60  84 118 158 196 242 297 356
#     4  10  22  41  64  89 120 158 199 247 303 363
#     4  11  25  42  63  91 124 164 206 252 306 366
#     4  10  21  38  61  88 119 157 199 245 299 358
#     4  10  22  40  61  88 120 156 201 251 301 358
#     4  10  21  38  58  83 116 155 197 243 296 351
#     4  12  24  36  57  88 119 155 199 244 292 351
#
# _framework density 20.549258999999999
#
# number of rings (size 3 to 8) (size 9 to 14) (size 15 to 20)
#    0.000    1.625    0.000    4.125    1.750    8.000 
#    0.000    1.250    0.000    0.000    0.000    0.000 
#    0.000    0.000    0.000    0.000    0.000    0.000 
#
# Total GULP energy -178983.466917 kJ/mol
# GULP energy per Si atom -5593.233341 kJ/mol
# Density = 2.050249 g / cm^3
# Si number density = 20.549259 Si / 1000 Ang^3
#
#
#
# Elastic Constant Matrix: (Units=GPa)
#
#
# Indices 1 2 3 4 5 6 
#
# 1 44.0797 31.5258 12.8507 0.0000 -11.8340 0.0000
# 2 31.5258 95.1336 21.4300 -0.0001 -22.7944 0.0000
# 3 12.8507 21.4300 69.6333 0.0000 -17.6512 0.0000
# 4 0.0000 -0.0001 0.0000 30.5011 0.0000 -0.5341
# 5 -11.8340 -22.7944 -17.6512 0.0000 30.8936 0.0000
# 6 0.0000 0.0000 0.0000 -0.5341 0.0000 29.6265
#
#
#
# Elastic Compliance Matrix: (Units=1/GPa)
#
#
# Indices 1 2 3 4 5 6 
#
# 1 0.030594 -0.008701 -0.001900 0.000000 0.004214 0.000000
# 2 -0.008701 0.015440 -0.001290 0.000000 0.007322 0.000000
# 3 -0.001900 -0.001290 0.017170 0.000000 0.008130 0.000000
# 4 0.000000 0.000000 0.000000 0.032796 0.000000 0.000591
# 5 0.004214 0.007322 0.008130 0.000000 0.044031 0.000000
# 6 0.000000 0.000000 0.000000 0.000591 0.000000 0.033764
#
#
# Mechanical properties :
#
#
# Convention : Reuss Voigt Hill
#
# Bulk Modulus (GPa) = 25.36669 37.82887 31.59778
# Shear Modulus (GPa) = 23.72846 27.74023 25.73434
#
# Velocity S-wave (km/s) = 3.40179 3.67814 3.54266
# Velocity P-wave (km/s) = 5.27264 6.04045 5.66956
#
# Compressibility (1/GPa) = 0.03942178
#
# Stress axis : x y z
#
# Youngs Moduli (GPa) = 32.68593 64.76762 58.24274
#
# Poissons Ratio (x) = 0.56353 0.11068
# Poissons Ratio (y) = 0.28439 0.07513
# Poissons Ratio (z) = 0.06211 0.08354
#
# Static dielectric constant tensor:
#      x y z
#    x 1.773360 0.000000 -0.002380 
#    y 0.000000 1.678230 0.000000 
#    z -0.002380 0.000000 1.652930 
# 
# From -- ./inp_files/249854.got.cif
#   From: 2010.05.17/outbox.cif.g08.bks.cpg/sg12_125_cif.got.tgz:249854.got - 2010.06.03 13:09:07.
