data_PCOD9208725
_publ_section_title
;
Structure prediction by ZEFSAII (Michael W. Deem and Ramdas Pophale) SiO2 
 PCOD9208725
Probable space group: C 2/M
;
_chemical_formula_sum "Si O2"
_cell_formula_units_Z 64
_cell_length_a 25.869204
_cell_length_b 19.410122
_cell_length_c 14.672072
_cell_angle_alpha 90.000000
_cell_angle_beta 150.666566
_cell_angle_gamma 90.000000
_cell_volume 3609.129478
_symmetry_space_group_name_H-M "C 2/M"
_symmetry_group_IT_number 12
_symmetry_cell_setting 'monoclinic'
loop_
_space_group_symop_operation_xyz
x,y,z
-x,y,-z
-x,-y,-z
x,-y,z
1/2+x,1/2+y,z
1/2-x,1/2+y,-z
1/2-x,1/2-y,-z
1/2+x,1/2-y,z
loop_
_atom_site_type_symbol
_atom_site_label
_atom_site_fract_x
_atom_site_fract_y
_atom_site_fract_z
Si Si1 0.291641 0.644100 0.012290
Si Si2 0.671949 0.201331 0.996822
Si Si3 0.877209 0.081963 0.807050
Si Si4 0.791853 0.418195 0.298327
Si Si5 0.728920 0.830627 0.451081
Si Si6 0.008319 0.080433 0.404440
Si Si7 0.572458 0.173575 0.364659
Si Si8 0.815540 0.814903 0.394733
O O1 0.328446 0.721039 0.042574
O O2 0.394930 0.598281 0.187395
O O3 0.224619 0.652666 0.001390
O O4 0.224251 0.614005 0.825526
O O5 0.552414 0.179555 0.831322
O O6 0.744311 0.200897 0.197633
O O7 0.813903 0.095662 0.803603
O O8 0.818386 0.124918 0.639142
O O9 0.869675 0.000000 0.777573
O O10 0.000000 0.100665 0.000000
O O11 0.805982 0.500000 0.314627
O O12 0.885581 0.382308 0.498404
O O13 0.750000 0.750000 0.500000
O O14 0.621973 0.845020 0.342207
O O15 0.740924 0.840862 0.362182
O O16 0.097267 0.128700 0.497701
O O17 0.000000 0.094584 0.500000
O O18 0.032967 0.000000 0.429531
O O19 0.623813 0.246042 0.477668
#
# Coordination Sequence:
#
# PCOD9208725 Si02
#       8
#     8   8   8   8   8   8   8   8
#     4  11  22  38  59  90 117 154 201 246 290 355
#     4  11  23  37  63  87 115 159 201 239 290 356
#     4   9  19  35  58  87 117 151 193 241 295 352
#     4  10  21  38  59  85 120 154 191 245 297 342
#     4   9  21  37  56  85 122 154 192 241 294 348
#     4  11  23  39  60  88 124 159 196 253 304 347
#     4  10  21  41  60  86 119 155 199 243 291 354
#     4  11  21  40  59  86 121 156 199 242 297 354
#
# _framework density 17.732809
#
# number of rings (size 3 to 8) (size 9 to 14) (size 15 to 20)
#    0.000    1.750    3.750    0.375    1.750    1.500 
#    0.000    2.500    0.000    0.000    0.000    4.375 
#    0.000    0.000    0.000    0.000    0.000    0.000 
#
# Total GULP energy -178617.059478 kJ/mol
# GULP energy per Si atom -5581.783109 kJ/mol
# Density = 1.769245 g / cm^3
# Si number density = 17.732809 Si / 1000 Ang^3
#
#
#
# Elastic Constant Matrix: (Units=GPa)
#
#
# Indices 1 2 3 4 5 6 
#
# 1 98.5616 24.5385 35.6022 0.0000 -0.8915 0.0000
# 2 24.5385 46.8047 8.7783 0.0000 6.6896 0.0000
# 3 35.6022 8.7783 64.7717 0.0000 23.5050 0.0000
# 4 0.0000 0.0000 0.0000 32.9482 0.0000 -1.1003
# 5 -0.8915 6.6896 23.5050 0.0000 26.2747 0.0000
# 6 0.0000 0.0000 0.0000 -1.1003 0.0000 17.8985
#
#
#
# Elastic Compliance Matrix: (Units=1/GPa)
#
#
# Indices 1 2 3 4 5 6 
#
# 1 0.017534 -0.008759 -0.014030 0.000000 0.015376 0.000000
# 2 -0.008759 0.026636 0.005587 0.000000 -0.012077 0.000000
# 3 -0.014030 0.005587 0.034178 0.000000 -0.032473 0.000000
# 4 0.000000 0.000000 0.000000 0.030413 0.000000 0.001870
# 5 0.015376 -0.012077 -0.032473 0.000000 0.070706 0.000000
# 6 0.000000 0.000000 0.000000 0.001870 0.000000 0.055986
#
#
# Mechanical properties :
#
#
# Convention : Reuss Voigt Hill
#
# Bulk Modulus (GPa) = 22.75688 38.66401 30.71045
# Shear Modulus (GPa) = 17.57451 24.83889 21.20670
#
# Velocity S-wave (km/s) = 3.15155 3.74669 3.46193
# Velocity P-wave (km/s) = 5.10921 6.36930 5.77373
#
# Compressibility (1/GPa) = 0.04394275
#
# Stress axis : x y z
#
# Youngs Moduli (GPa) = 57.03341 37.54384 29.25888
#
# Poissons Ratio (x) = 0.32883 0.41051
# Poissons Ratio (y) = 0.49954 -0.16347
# Poissons Ratio (z) = 0.80019 -0.20975
#
# Static dielectric constant tensor:
#      x y z
#    x 1.621070 0.000000 0.000670 
#    y 0.000000 1.582750 0.000000 
#    z 0.000670 0.000000 1.566010 
# 
# From -- ./inp_files/241498.got.cif
#   From: 2010.05.17/outbox.cif.g08.bks.cpg/sg12_121_cif.got.tgz:241498.got - 2010.06.03 13:09:07.
