data_PCOD9208383
_publ_section_title
;
Structure prediction by ZEFSAII (Michael W. Deem and Ramdas Pophale) SiO2 
 PCOD9208383
Probable space group: C 2/M
;
_chemical_formula_sum "Si O2"
_cell_formula_units_Z 64
_cell_length_a 14.866426
_cell_length_b 7.570947
_cell_length_c 26.863685
_cell_angle_alpha 90.000000
_cell_angle_beta 100.529267
_cell_angle_gamma 90.000000
_cell_volume 2972.674202
_symmetry_space_group_name_H-M "C 2/M"
_symmetry_group_IT_number 12
_symmetry_cell_setting 'monoclinic'
loop_
_space_group_symop_operation_xyz
x,y,z
-x,y,-z
-x,-y,-z
x,-y,z
1/2+x,1/2+y,z
1/2-x,1/2+y,-z
1/2-x,1/2-y,-z
1/2+x,1/2-y,z
loop_
_atom_site_type_symbol
_atom_site_label
_atom_site_fract_x
_atom_site_fract_y
_atom_site_fract_z
Si Si1 0.294913 0.711649 0.867007
Si Si2 0.575562 0.202116 0.409818
Si Si3 0.816483 0.282208 0.672940
Si Si4 0.086999 0.287790 0.217589
Si Si5 0.411390 0.210965 0.142123
Si Si6 0.528741 0.713210 0.057271
Si Si7 0.376999 0.298955 0.374215
Si Si8 0.346786 0.789833 0.483754
O O1 0.290560 0.500000 0.872969
O O2 0.338433 0.747637 0.817429
O O3 0.191732 0.780930 0.862651
O O4 0.372003 0.778111 0.913605
O O5 0.640364 0.282476 0.374538
O O6 0.473133 0.203754 0.379415
O O7 0.582491 0.274534 0.466487
O O8 0.606474 0.000000 0.418797
O O9 0.816876 0.500000 0.672188
O O10 0.876229 0.223811 0.725756
O O11 0.710764 0.227117 0.663652
O O12 0.079765 0.500000 0.220225
O O13 0.988648 0.219832 0.188369
O O14 0.454478 0.241505 0.091999
O O15 0.406564 0.000000 0.149270
O O16 0.533464 0.500000 0.055701
O O17 0.500000 0.778049 0.000000
O O18 0.392175 0.500000 0.359933
O O19 0.352759 0.296120 0.430501
O O20 0.250000 0.750000 0.500000
O O21 0.358897 0.000000 0.475832
#
# Coordination Sequence:
#
# PCOD9208383 Si02
#       8
#     8   8   8   8   8   8   8   8
#     4   9  18  33  51  74 104 133 168 217 259 297
#     4  10  21  38  56  77 105 138 170 208 258 310
#     4   9  19  37  55  73 104 137 166 207 261 310
#     4   9  18  34  55  74  96 133 174 210 254 309
#     4   9  18  32  51  75 100 132 173 214 255 298
#     4   9  18  32  49  72 105 141 171 205 255 307
#     4  11  22  37  55  79 106 136 171 211 255 307
#     4  11  21  36  58  80 105 138 172 208 255 309
#
# _framework density 21.529436
#
# number of rings (size 3 to 8) (size 9 to 14) (size 15 to 20)
#    0.000    2.375    1.250    1.125    0.000    4.750 
#    0.000    3.125    0.000    0.000    0.000    0.000 
#    0.000    0.000    0.000    0.000    0.000    0.000 
#
# Total GULP energy -178610.824130 kJ/mol
# GULP energy per Si atom -5581.588254 kJ/mol
# Density = 2.148043 g / cm^3
# Si number density = 21.529436 Si / 1000 Ang^3
#
#
#
# Elastic Constant Matrix: (Units=GPa)
#
#
# Indices 1 2 3 4 5 6 
#
# 1 128.2628 5.5521 39.1510 0.0000 16.3011 0.0000
# 2 5.5521 53.1207 -0.2271 0.0000 5.3160 0.0000
# 3 39.1510 -0.2271 92.6584 0.0000 30.1055 0.0000
# 4 0.0000 0.0000 0.0000 13.7710 0.0000 -7.1225
# 5 16.3011 5.3160 30.1055 0.0000 18.6658 0.0000
# 6 0.0000 0.0000 0.0000 -7.1225 0.0000 9.3948
#
#
#
# Elastic Compliance Matrix: (Units=1/GPa)
#
#
# Indices 1 2 3 4 5 6 
#
# 1 0.009088 -0.000634 -0.002776 0.000000 -0.003278 0.000000
# 2 -0.000634 0.020104 0.004197 0.000000 -0.011941 0.000000
# 3 -0.002776 0.004197 0.024322 0.000000 -0.037998 0.000000
# 4 0.000000 0.000000 0.000000 0.119458 0.000000 0.090565
# 5 -0.003278 -0.011941 -0.037998 0.000000 0.121123 0.000000
# 6 0.000000 0.000000 0.000000 0.090565 0.000000 0.175102
#
#
# Mechanical properties :
#
#
# Convention : Reuss Voigt Hill
#
# Bulk Modulus (GPa) = 18.15301 40.33266 29.24283
# Shear Modulus (GPa) = 10.28836 23.67072 16.97954
#
# Velocity S-wave (km/s) = 2.18840 3.31941 2.81137
# Velocity P-wave (km/s) = 3.85169 5.78495 4.91432
#
# Compressibility (1/GPa) = 0.05508729
#
# Stress axis : x y z
#
# Youngs Moduli (GPa) = 110.03484 49.74080 41.11580
#
# Poissons Ratio (x) = 0.03152 0.11415
# Poissons Ratio (y) = 0.06972 -0.17255
# Poissons Ratio (z) = 0.30550 -0.20875
#
# Static dielectric constant tensor:
#      x y z
#    x 1.794390 0.000000 0.039120 
#    y 0.000000 1.797750 0.000000 
#    z 0.039120 0.000000 1.765620 
# 
# From -- ./inp_files/338874.got.cif
#   From: 2010.05.17/outbox.cif.g08.bks.cpg/sg12_170_cif.got.tgz:338874.got - 2010.06.03 13:09:07.
