data_PCOD9208514
_publ_section_title
;
Structure prediction by ZEFSAII (Michael W. Deem and Ramdas Pophale) SiO2 
 PCOD9208514
Probable space group: C 2/M
;
_chemical_formula_sum "Si O2"
_cell_formula_units_Z 56
_cell_length_a 11.682179
_cell_length_b 14.926776
_cell_length_c 16.495413
_cell_angle_alpha 90.000000
_cell_angle_beta 90.982109
_cell_angle_gamma 90.000000
_cell_volume 2876.002514
_symmetry_space_group_name_H-M "C 2/M"
_symmetry_group_IT_number 12
_symmetry_cell_setting 'monoclinic'
loop_
_space_group_symop_operation_xyz
x,y,z
-x,y,-z
-x,-y,-z
x,-y,z
1/2+x,1/2+y,z
1/2-x,1/2+y,-z
1/2-x,1/2-y,-z
1/2+x,1/2-y,z
loop_
_atom_site_type_symbol
_atom_site_label
_atom_site_fract_x
_atom_site_fract_y
_atom_site_fract_z
Si Si1 0.834459 0.231652 0.202252
Si Si2 0.964081 0.689649 0.349601
Si Si3 0.043127 0.898184 0.909894
Si Si4 0.386746 0.346531 0.466057
Si Si5 0.770603 0.101955 0.615512
Si Si6 0.679290 0.399004 0.205396
Si Si7 0.791341 0.396709 0.672162
O O1 0.764081 0.320658 0.180193
O O2 0.757767 0.166488 0.257533
O O3 0.938261 0.263679 0.262401
O O4 0.873423 0.175986 0.125213
O O5 0.087131 0.643935 0.354043
O O6 0.939833 0.762159 0.419162
O O7 0.860017 0.619788 0.360974
O O8 0.934687 0.897050 0.848341
O O9 0.091025 0.000000 0.908853
O O10 0.000000 0.880174 0.000000
O O11 0.500000 0.396836 0.500000
O O12 0.311505 0.332115 0.545863
O O13 0.302131 0.392153 0.400912
O O14 0.842375 0.115158 0.698738
O O15 0.783757 0.000000 0.587120
O O16 0.728660 0.500000 0.199439
O O17 0.804882 0.500000 0.697535
#
# Coordination Sequence:
#
# PCOD9208514 Si02
#       7
#     8   8   8   8   8   8   8
#     4  10  21  38  63  89 117 153 195 238 292 349
#     4  10  23  38  60  82 115 153 198 245 297 350
#     4  10  21  38  61  90 121 153 190 234 287 348
#     4  11  26  37  56  79 115 155 202 244 294 349
#     4  10  21  38  58  81 111 151 197 244 297 350
#     4   9  20  38  61  85 116 154 192 235 291 352
#     4  11  24  40  59  86 118 154 199 250 298 342
#
# _framework density 19.471471000000001
#
# number of rings (size 3 to 8) (size 9 to 14) (size 15 to 20)
#    0.000    1.857    0.000    2.571   12.000    2.286 
#    0.000    1.429    0.000    0.429    0.000    0.000 
#    0.000    0.000    0.000    0.000    0.000    0.000 
#
# Total GULP energy -156373.053572 kJ/mol
# GULP energy per Si atom -5584.751913 kJ/mol
# Density = 1.942715 g / cm^3
# Si number density = 19.471471 Si / 1000 Ang^3
#
#
#
# Elastic Constant Matrix: (Units=GPa)
#
#
# Indices 1 2 3 4 5 6 
#
# 1 61.0190 26.7693 -6.2315 0.0000 -9.7340 0.0000
# 2 26.7693 123.6900 26.1552 0.0000 -16.5468 0.0000
# 3 -6.2315 26.1552 48.7583 0.0000 -20.6592 0.0000
# 4 0.0000 0.0000 0.0000 23.2145 0.0000 -5.3208
# 5 -9.7340 -16.5468 -20.6592 0.0000 18.3851 0.0000
# 6 0.0000 0.0000 0.0000 -5.3208 0.0000 21.5906
#
#
#
# Elastic Compliance Matrix: (Units=1/GPa)
#
#
# Indices 1 2 3 4 5 6 
#
# 1 0.025432 -0.005511 0.018726 0.000000 0.029547 0.000000
# 2 -0.005511 0.010579 -0.006836 0.000000 -0.001078 0.000000
# 3 0.018726 -0.006836 0.053759 0.000000 0.064171 0.000000
# 4 0.000000 0.000000 0.000000 0.045655 0.000000 0.011251
# 5 0.029547 -0.001078 0.064171 0.000000 0.141174 0.000000
# 6 0.000000 0.000000 0.000000 0.011251 0.000000 0.049089
#
#
# Mechanical properties :
#
#
# Convention : Reuss Voigt Hill
#
# Bulk Modulus (GPa) = 9.75345 36.31703 23.03524
# Shear Modulus (GPa) = 14.40478 25.08966 19.74722
#
# Velocity S-wave (km/s) = 2.72286 3.59351 3.18805
# Velocity P-wave (km/s) = 3.86073 5.99247 5.04058
#
# Compressibility (1/GPa) = 0.10252784
#
# Stress axis : x y z
#
# Youngs Moduli (GPa) = 39.32066 94.52958 18.60141
#
# Poissons Ratio (x) = 0.52096 -0.34833
# Poissons Ratio (y) = 0.21670 0.12716
# Poissons Ratio (z) = -0.73632 0.64620
#
# Static dielectric constant tensor:
#      x y z
#    x 1.693380 0.000000 0.010270 
#    y 0.000000 1.708890 0.000000 
#    z 0.010270 0.000000 1.668350 
# 
# From -- ./inp_files/205004.got.cif
#   From: 2010.05.17/outbox.cif.g08.bks.cpg/sg12_103_cif.got.tgz:205004.got - 2010.06.03 13:09:07.
