data_PCOD9208964
_publ_section_title
;
Structure prediction by ZEFSAII (Michael W. Deem and Ramdas Pophale) SiO2 
 PCOD9208964
Probable space group: C 2/M
;
_chemical_formula_sum "Si O2"
_cell_formula_units_Z 64
_cell_length_a 27.376658
_cell_length_b 18.459003
_cell_length_c 9.192134
_cell_angle_alpha 90.000000
_cell_angle_beta 135.731319
_cell_angle_gamma 90.000000
_cell_volume 3242.465425
_symmetry_space_group_name_H-M "C 2/M"
_symmetry_group_IT_number 12
_symmetry_cell_setting 'monoclinic'
loop_
_space_group_symop_operation_xyz
x,y,z
-x,y,-z
-x,-y,-z
x,-y,z
1/2+x,1/2+y,z
1/2-x,1/2+y,-z
1/2-x,1/2-y,-z
1/2+x,1/2-y,z
loop_
_atom_site_type_symbol
_atom_site_label
_atom_site_fract_x
_atom_site_fract_y
_atom_site_fract_z
Si Si1 0.715875 0.187631 0.528887
Si Si2 0.499591 0.916653 0.323666
Si Si3 0.905582 0.287107 0.512304
Si Si4 0.529750 0.300043 0.903038
Si Si5 0.221340 0.086129 0.095476
Si Si6 0.937659 0.085799 0.256877
Si Si7 0.697490 0.812854 0.934902
Si Si8 0.631184 0.163242 0.088166
O O1 0.750000 0.250000 0.500000
O O2 0.660637 0.222526 0.524056
O O3 0.765163 0.136231 0.732776
O O4 0.669824 0.140775 0.317492
O O5 0.500000 0.907011 0.500000
O O6 0.558777 0.864815 0.384331
O O7 0.425872 0.891480 0.098982
O O8 0.513075 0.000000 0.321219
O O9 0.877365 0.288607 0.288505
O O10 0.965461 0.230274 0.670871
O O11 0.555373 0.371526 0.878610
O O12 0.589045 0.237838 0.030090
O O13 0.500000 0.311313 0.000000
O O14 0.276708 0.115600 0.094675
O O15 0.229348 0.000000 0.140389
O O16 0.142772 0.098921 0.866597
O O17 0.000000 0.107561 0.500000
O O18 0.945011 0.000000 0.250187
O O19 0.688484 0.822997 0.085632
O O20 0.750000 0.750000 0.000000
#
# Coordination Sequence:
#
# PCOD9208964 Si02
#       8
#     8   8   8   8   8   8   8   8
#     4  11  22  41  63  88 129 164 207 254 314 377
#     4  10  21  38  60  87 125 164 204 255 305 360
#     4  10  22  37  58  93 119 162 206 252 306 369
#     4  11  22  37  63  87 128 164 203 258 308 360
#     4  10  24  44  64  91 127 167 205 254 321 386
#     4  10  23  43  66  91 117 154 207 262 319 376
#     4  11  22  37  62  92 125 161 210 260 313 371
#     4  11  22  38  59  95 124 160 212 254 301 364
#
# _framework density 19.738067000000001
#
# number of rings (size 3 to 8) (size 9 to 14) (size 15 to 20)
#    0.000    1.500    2.500    3.000    3.500    3.250 
#    0.000    0.625    0.000    0.000    0.000    0.000 
#    0.000    0.000    0.000    0.000    0.000    0.000 
#
# Total GULP energy -178689.265898 kJ/mol
# GULP energy per Si atom -5584.039559 kJ/mol
# Density = 1.969314 g / cm^3
# Si number density = 19.738067 Si / 1000 Ang^3
#
#
#
# Elastic Constant Matrix: (Units=GPa)
#
#
# Indices 1 2 3 4 5 6 
#
# 1 69.4380 14.6429 -0.1566 0.0000 -4.5166 0.0000
# 2 14.6429 50.0136 4.1319 0.0000 3.7664 0.0000
# 3 -0.1566 4.1319 103.4531 0.0000 5.5615 0.0000
# 4 0.0000 0.0000 0.0000 20.1794 0.0000 -4.6322
# 5 -4.5166 3.7664 5.5615 0.0000 32.4447 0.0000
# 6 0.0000 0.0000 0.0000 -4.6322 0.0000 18.2840
#
#
#
# Elastic Compliance Matrix: (Units=1/GPa)
#
#
# Indices 1 2 3 4 5 6 
#
# 1 0.015584 -0.004773 0.000068 0.000000 0.002712 0.000000
# 2 -0.004773 0.021681 -0.000709 0.000000 -0.003060 0.000000
# 3 0.000068 -0.000709 0.009780 0.000000 -0.001585 0.000000
# 4 0.000000 0.000000 0.000000 0.052615 0.000000 0.013330
# 5 0.002712 -0.003060 -0.001585 0.000000 0.031826 0.000000
# 6 0.000000 0.000000 0.000000 0.013330 0.000000 0.058070
#
#
# Mechanical properties :
#
#
# Convention : Reuss Voigt Hill
#
# Bulk Modulus (GPa) = 27.60964 28.90458 28.25711
# Shear Modulus (GPa) = 23.53441 27.80071 25.66756
#
# Velocity S-wave (km/s) = 3.45677 3.75705 3.61003
# Velocity P-wave (km/s) = 5.47272 5.78761 5.63237
#
# Compressibility (1/GPa) = 0.03621924
#
# Stress axis : x y z
#
# Youngs Moduli (GPa) = 64.16709 46.12360 102.25143
#
# Poissons Ratio (x) = 0.22013 -0.00700
# Poissons Ratio (y) = 0.30625 0.07246
# Poissons Ratio (z) = -0.00439 0.03269
#
# Static dielectric constant tensor:
#      x y z
#    x 1.699050 0.000000 0.020520 
#    y 0.000000 1.675420 0.000000 
#    z 0.020520 0.000000 1.735640 
# 
# From -- ./inp_files/112860.got.cif
#   From: 2010.05.17/outbox.cif.g08.bks.cpg/sg12_57_cif.got.tgz:112860.got - 2010.06.03 13:09:07.
