data_PCOD9208831
_publ_section_title
;
Structure prediction by ZEFSAII (Michael W. Deem and Ramdas Pophale) SiO2 
 PCOD9208831
Probable space group: C 2/M
;
_chemical_formula_sum "Si O2"
_cell_formula_units_Z 56
_cell_length_a 17.334777
_cell_length_b 9.103075
_cell_length_c 22.418757
_cell_angle_alpha 90.000000
_cell_angle_beta 56.546973
_cell_angle_gamma 90.000000
_cell_volume 2951.616664
_symmetry_space_group_name_H-M "C 2/M"
_symmetry_group_IT_number 12
_symmetry_cell_setting 'monoclinic'
loop_
_space_group_symop_operation_xyz
x,y,z
-x,y,-z
-x,-y,-z
x,-y,z
1/2+x,1/2+y,z
1/2-x,1/2+y,-z
1/2-x,1/2-y,-z
1/2+x,1/2-y,z
loop_
_atom_site_type_symbol
_atom_site_label
_atom_site_fract_x
_atom_site_fract_y
_atom_site_fract_z
Si Si1 0.589311 0.831841 0.006632
Si Si2 0.799190 0.831969 0.134566
Si Si3 0.023703 0.169045 0.850699
Si Si4 0.860258 0.324897 0.294909
Si Si5 0.337752 0.673655 0.432010
Si Si6 0.198477 0.326098 0.290795
Si Si7 0.504865 0.167943 0.569231
O O1 0.674076 0.768715 0.932213
O O2 0.604094 0.000000 0.017483
O O3 0.500000 0.827785 0.000000
O O4 0.560436 0.735495 0.075669
O O5 0.887890 0.828199 0.141702
O O6 0.714803 0.790256 0.214048
O O7 0.788014 0.000000 0.119234
O O8 0.054859 0.265412 0.781232
O O9 0.008107 0.000000 0.840691
O O10 0.863392 0.500000 0.298970
O O11 0.856810 0.246894 0.360038
O O12 0.768036 0.272252 0.299493
O O13 0.323192 0.500000 0.432229
O O14 0.250000 0.750000 0.500000
O O15 0.424620 0.713779 0.435982
O O16 0.224353 0.500000 0.286568
O O17 0.095271 0.310552 0.358586
O O18 0.500000 0.177022 0.500000
O O19 0.535739 0.000000 0.570945
#
# Coordination Sequence:
#
# PCOD9208831 Si02
#       7
#     8   8   8   8   8   8   8
#     4   9  15  22  35  60  94 131 172 218 264 307
#     4   8  14  24  39  62  95 136 175 211 257 311
#     4   9  16  27  43  65  97 136 175 215 263 315
#     4  11  21  34  54  80 110 142 179 221 265 314
#     4  12  25  41  60  82 109 140 177 218 262 313
#     4   9  18  33  53  78 110 145 179 218 267 320
#     4  10  21  38  60  84 110 140 174 215 264 316
#
# _framework density 18.972653999999999
#
# number of rings (size 3 to 8) (size 9 to 14) (size 15 to 20)
#    0.000    2.286    0.000    5.143    0.000    7.143 
#    0.000    0.000    0.000    0.000    0.000    1.000 
#    0.000    0.000    0.000    0.000    0.000    0.000 
#
# Total GULP energy -156267.571975 kJ/mol
# GULP energy per Si atom -5580.984713 kJ/mol
# Density = 1.892947 g / cm^3
# Si number density = 18.972654 Si / 1000 Ang^3
#
#
#
# Elastic Constant Matrix: (Units=GPa)
#
#
# Indices 1 2 3 4 5 6 
#
# 1 16.3037 31.4261 26.7222 0.0000 1.9259 0.0000
# 2 31.4261 153.6035 82.7092 0.0000 6.9761 0.0000
# 3 26.7222 82.7092 170.8475 0.0000 -3.3725 0.0000
# 4 0.0000 0.0000 0.0000 34.9052 0.0000 1.7543
# 5 1.9259 6.9761 -3.3725 0.0000 15.3832 0.0000
# 6 0.0000 0.0000 0.0000 1.7543 0.0000 20.9812
#
#
#
# Elastic Compliance Matrix: (Units=1/GPa)
#
#
# Indices 1 2 3 4 5 6 
#
# 1 0.110640 -0.017412 -0.009032 0.000000 -0.007936 0.000000
# 2 -0.017412 0.011938 -0.003133 0.000000 -0.003921 0.000000
# 3 -0.009032 -0.003133 0.008872 0.000000 0.004497 0.000000
# 4 0.000000 0.000000 0.000000 0.028770 0.000000 -0.002405
# 5 -0.007936 -0.003921 0.004497 0.000000 0.068763 0.000000
# 6 0.000000 0.000000 0.000000 -0.002405 0.000000 0.047863
#
#
# Mechanical properties :
#
#
# Convention : Reuss Voigt Hill
#
# Bulk Modulus (GPa) = 13.83237 69.16329 41.49783
# Shear Modulus (GPa) = 13.88505 27.58040 20.73273
#
# Velocity S-wave (km/s) = 2.70820 3.81687 3.30929
# Velocity P-wave (km/s) = 4.13348 7.48051 6.04333
#
# Compressibility (1/GPa) = 0.07229417
#
# Stress axis : x y z
#
# Youngs Moduli (GPa) = 9.03829 83.76740 112.72030
#
# Poissons Ratio (x) = 1.45857 1.01814
# Poissons Ratio (y) = 0.15738 0.35318
# Poissons Ratio (z) = 0.08164 0.26246
#
# Static dielectric constant tensor:
#      x y z
#    x 1.665530 0.000000 -0.003020 
#    y 0.000000 1.648170 0.000000 
#    z -0.003020 0.000000 1.667300 
# 
# From -- ./inp_files/342213.got.cif
#   From: 2010.05.17/outbox.cif.g08.bks.cpg/sg12_172_cif.got.tgz:342213.got - 2010.06.03 13:09:07.
