data_PCOD9208137
_publ_section_title
;
Structure prediction by ZEFSAII (Michael W. Deem and Ramdas Pophale) SiO2 
 PCOD9208137
Probable space group: C 2/M
;
_chemical_formula_sum "Si O2"
_cell_formula_units_Z 50
_cell_length_a 28.226061
_cell_length_b 7.588845
_cell_length_c 29.615756
_cell_angle_alpha 90.000000
_cell_angle_beta 20.371805
_cell_angle_gamma 90.000000
_cell_volume 2208.341556
_symmetry_space_group_name_H-M "C 2/M"
_symmetry_group_IT_number 12
_symmetry_cell_setting 'monoclinic'
loop_
_space_group_symop_operation_xyz
x,y,z
-x,y,-z
-x,-y,-z
x,-y,z
1/2+x,1/2+y,z
1/2-x,1/2+y,-z
1/2-x,1/2-y,-z
1/2+x,1/2-y,z
loop_
_atom_site_type_symbol
_atom_site_label
_atom_site_fract_x
_atom_site_fract_y
_atom_site_fract_z
Si Si1 0.477679 0.207877 0.317054
Si Si2 0.994775 0.790805 0.453764
Si Si3 0.779845 0.704766 0.570624
Si Si4 0.000000 0.000000 0.000000
Si Si5 0.012257 0.296890 0.186071
Si Si6 0.193386 0.708145 0.849841
Si Si7 0.218544 0.713311 0.927631
O O1 0.362367 0.280423 0.453598
O O2 0.489930 0.283565 0.255654
O O3 0.626125 0.227912 0.206348
O O4 0.447379 0.000000 0.339905
O O5 0.880039 0.716553 0.523557
O O6 0.000000 0.720733 0.500000
O O7 0.144790 0.769087 0.299346
O O8 0.966694 0.000000 0.481408
O O9 0.750658 0.500000 0.588399
O O10 0.634244 0.793512 0.706848
O O11 0.113969 0.842809 0.889618
O O12 0.054010 0.500000 0.156345
O O13 0.127318 0.219663 0.050656
O O14 0.164042 0.500000 0.868762
O O15 0.158638 0.763589 0.932471
O O16 0.218766 0.500000 0.927781
#
# Coordination Sequence:
#
# PCOD9208137 Si02
#       7
#     8   8   8   2   8   8   8
#     4  10  21  37  62  89 123 163 207 255 308 383
#     4  10  22  42  67  89 117 162 212 261 319 384
#     4  11  23  38  60  91 125 160 205 260 313 369
#     4  12  26  40  70  94 128 172 214 270 328 370
#     4  10  22  39  58  90 126 164 207 253 313 375
#     4  10  23  44  66  95 127 168 217 262 322 392
#     4  10  21  38  63  88 123 165 206 255 314 381
#
# _framework density 22.641425000000002
#
# number of rings (size 3 to 8) (size 9 to 14) (size 15 to 20)
#    0.000    1.760    1.600    1.680    2.240    3.520 
#    2.880    4.800    0.000    0.000    0.000    0.000 
#    0.000    0.000    0.000    0.000    0.000    0.000 
#
# Total GULP energy -139444.856080 kJ/mol
# GULP energy per Si atom -5577.794243 kJ/mol
# Density = 2.258989 g / cm^3
# Si number density = 22.641425 Si / 1000 Ang^3
#
#
#
# Elastic Constant Matrix: (Units=GPa)
#
#
# Indices 1 2 3 4 5 6 
#
# 1 56.7650 7.4793 -0.0308 0.0126 12.1897 -0.0207
# 2 7.4793 68.5841 2.3023 0.0606 1.2022 -0.0529
# 3 -0.0308 2.3023 33.9438 0.0392 -0.9622 -0.0361
# 4 0.0126 0.0606 0.0392 15.4169 -0.0142 -17.4241
# 5 12.1897 1.2022 -0.9622 -0.0142 37.8988 0.0151
# 6 -0.0207 -0.0529 -0.0361 -17.4241 0.0151 13.5620
#
#
#
# Elastic Compliance Matrix: (Units=1/GPa)
#
#
# Indices 1 2 3 4 5 6 
#
# 1 0.019190 -0.001985 -0.000021 -0.000041 -0.006110 -0.000025
# 2 -0.001985 0.014828 -0.001003 -0.000011 0.000143 0.000038
# 3 -0.000021 -0.001003 0.029551 -0.000029 0.000789 0.000037
# 4 -0.000041 -0.000011 -0.000029 -0.143491 0.000033 -0.184354
# 5 -0.006110 0.000143 0.000789 0.000033 0.028367 0.000004
# 6 -0.000025 0.000038 0.000037 -0.184354 0.000004 -0.163117
#
#
# Mechanical properties :
#
#
# Convention : Reuss Voigt Hill
#
# Bulk Modulus (GPa) = 17.37610 19.86605 18.62108
# Shear Modulus (GPa) = -26.38951 23.34501 -1.52225
#
# Velocity S-wave (km/s) = -3.41771 3.21452 -0.82085
# Velocity P-wave (km/s) = 2.80770 4.75087 2.70995
#
# Compressibility (1/GPa) = 0.05755030
#
# Stress axis : x y z
#
# Youngs Moduli (GPa) = 52.11039 67.43855 33.83987
#
# Poissons Ratio (x) = 0.13386 0.00071
# Poissons Ratio (y) = 0.10343 0.03396
# Poissons Ratio (z) = 0.00110 0.06767
#
# Static dielectric constant tensor:
#      x y z
#    x 1.884920 -0.000010 0.039790 
#    y -0.000010 1.857590 0.000000 
#    z 0.039790 0.000000 1.826650 
# 
# From -- ./inp_files/384736.got.cif
#   From: 2010.05.17/outbox.cif.g08.bks.cpg/sg12_193_cif.got.tgz:384736.got - 2010.06.03 13:09:07.
