data_PCOD9208710
_publ_section_title
;
Structure prediction by ZEFSAII (Michael W. Deem and Ramdas Pophale) SiO2 
 PCOD9208710
Probable space group: C 2/M
;
_chemical_formula_sum "Si O2"
_cell_formula_units_Z 50
_cell_length_a 14.988633
_cell_length_b 8.913382
_cell_length_c 19.810714
_cell_angle_alpha 90.000000
_cell_angle_beta 120.668440
_cell_angle_gamma 90.000000
_cell_volume 2276.514738
_symmetry_space_group_name_H-M "C 2/M"
_symmetry_group_IT_number 12
_symmetry_cell_setting 'monoclinic'
loop_
_space_group_symop_operation_xyz
x,y,z
-x,y,-z
-x,-y,-z
x,-y,z
1/2+x,1/2+y,z
1/2-x,1/2+y,-z
1/2-x,1/2-y,-z
1/2+x,1/2-y,z
loop_
_atom_site_type_symbol
_atom_site_label
_atom_site_fract_x
_atom_site_fract_y
_atom_site_fract_z
Si Si1 0.884969 0.323392 0.425883
Si Si2 0.597689 0.674941 0.854081
Si Si3 0.819640 0.320734 0.626687
Si Si4 0.371617 0.685165 0.792122
Si Si5 0.967856 0.822536 0.327957
Si Si6 0.209037 0.164829 0.099777
Si Si7 0.500000 0.500000 0.000000
O O1 0.860713 0.500000 0.414373
O O2 0.795039 0.240839 0.433139
O O3 0.000000 0.303207 0.500000
O O4 0.895217 0.256923 0.354541
O O5 0.605077 0.500000 0.871898
O O6 0.492339 0.727168 0.848969
O O7 0.572725 0.695131 0.764403
O O8 0.707985 0.746253 0.910779
O O9 0.823159 0.500000 0.623946
O O10 0.836344 0.260103 0.709619
O O11 0.917470 0.250615 0.625408
O O12 0.368511 0.500000 0.786332
O O13 0.307236 0.733137 0.832135
O O14 0.974173 0.000000 0.344454
O O15 0.258241 0.000000 0.129153
O O16 0.093265 0.127632 0.030467
#
# Coordination Sequence:
#
# PCOD9208710 Si02
#       7
#     8   8   8   8   8   8   2
#     4  11  24  40  57  79 112 154 196 232 282 344
#     4   9  18  32  54  83 107 133 176 228 281 323
#     4  11  22  36  57  86 116 144 186 238 288 340
#     4   9  18  34  56  79 108 143 178 226 283 330
#     4  10  21  38  59  85 115 144 185 240 290 337
#     4   9  18  34  55  72 108 144 179 218 262 327
#     4   8  20  36  54  76 108 146 192 212 260 328
#
# _framework density 21.963398999999999
#
# number of rings (size 3 to 8) (size 9 to 14) (size 15 to 20)
#    0.480    1.760    0.000    4.320    0.000    8.320 
#    0.000    1.200    0.000    0.000    0.000    0.000 
#    0.000    0.000    0.000    0.000    0.000    0.000 
#
# Total GULP energy -139303.433307 kJ/mol
# GULP energy per Si atom -5572.137332 kJ/mol
# Density = 2.191341 g / cm^3
# Si number density = 21.963399 Si / 1000 Ang^3
#
#
#
# Elastic Constant Matrix: (Units=GPa)
#
#
# Indices 1 2 3 4 5 6 
#
# 1 124.9459 34.8521 19.6247 0.0000 38.8147 0.0000
# 2 34.8521 54.1783 17.9463 0.0000 23.6761 0.0000
# 3 19.6247 17.9463 54.9761 0.0000 11.2626 0.0000
# 4 0.0000 0.0000 0.0000 22.4615 0.0000 16.8302
# 5 38.8147 23.6761 11.2626 0.0000 37.4149 0.0000
# 6 0.0000 0.0000 0.0000 16.8302 0.0000 33.2375
#
#
#
# Elastic Compliance Matrix: (Units=1/GPa)
#
#
# Indices 1 2 3 4 5 6 
#
# 1 0.012279 -0.002868 -0.001289 0.000000 -0.010535 0.000000
# 2 -0.002868 0.027750 -0.005379 0.000000 -0.012966 0.000000
# 3 -0.001289 -0.005379 0.020712 0.000000 -0.001494 0.000000
# 4 0.000000 0.000000 0.000000 0.071739 0.000000 -0.036326
# 5 -0.010535 -0.012966 -0.001494 0.000000 0.046311 0.000000
# 6 0.000000 0.000000 0.000000 -0.036326 0.000000 0.048481
#
#
# Mechanical properties :
#
#
# Convention : Reuss Voigt Hill
#
# Bulk Modulus (GPa) = 23.99797 42.10518 33.05158
# Shear Modulus (GPa) = 19.21361 29.40127 24.30744
#
# Velocity S-wave (km/s) = 2.96091 3.66272 3.33036
# Velocity P-wave (km/s) = 4.75809 6.09095 5.46530
#
# Compressibility (1/GPa) = 0.04167018
#
# Stress axis : x y z
#
# Youngs Moduli (GPa) = 81.44235 36.03565 48.28208
#
# Poissons Ratio (x) = 0.10334 0.06222
# Poissons Ratio (y) = 0.23356 0.25970
# Poissons Ratio (z) = 0.10495 0.19383
#
# Static dielectric constant tensor:
#      x y z
#    x 1.794870 0.000000 0.008400 
#    y 0.000000 1.736220 0.000000 
#    z 0.008400 0.000000 1.918690 
# 
# From -- ./inp_files/337761.got.cif
#   From: 2010.05.17/outbox.cif.g08.bks.cpg/sg12_169_cif.got.tgz:337761.got - 2010.06.03 13:09:07.
