data_PCOD9208339
_publ_section_title
;
Structure prediction by ZEFSAII (Michael W. Deem and Ramdas Pophale) SiO2 
 PCOD9208339
Probable space group: C 2/M
;
_chemical_formula_sum "Si O2"
_cell_formula_units_Z 60
_cell_length_a 17.767037
_cell_length_b 28.916955
_cell_length_c 6.452313
_cell_angle_alpha 90.000000
_cell_angle_beta 112.012672
_cell_angle_gamma 90.000000
_cell_volume 3073.335930
_symmetry_space_group_name_H-M "C 2/M"
_symmetry_group_IT_number 12
_symmetry_cell_setting 'monoclinic'
loop_
_space_group_symop_operation_xyz
x,y,z
-x,y,-z
-x,-y,-z
x,-y,z
1/2+x,1/2+y,z
1/2-x,1/2+y,-z
1/2-x,1/2-y,-z
1/2+x,1/2-y,z
loop_
_atom_site_type_symbol
_atom_site_label
_atom_site_fract_x
_atom_site_fract_y
_atom_site_fract_z
Si Si1 0.806434 0.947333 0.079647
Si Si2 0.129634 0.628408 0.441078
Si Si3 0.168317 0.193442 0.882196
Si Si4 0.201332 0.274509 0.640456
Si Si5 0.697961 0.617762 0.577318
Si Si6 0.908232 0.124028 0.919488
Si Si7 0.616128 0.947422 0.777761
Si Si8 0.000000 0.407865 0.000000
O O1 0.827808 0.928304 0.329267
O O2 0.830270 0.000000 0.075695
O O3 0.851029 0.914768 0.961782
O O4 0.709154 0.943718 0.952143
O O5 0.148007 0.681479 0.519582
O O6 0.216447 0.610971 0.445436
O O7 0.105450 0.593724 0.601300
O O8 0.061706 0.623048 0.196684
O O9 0.150402 0.236862 0.717676
O O10 0.207645 0.155897 0.767545
O O11 0.231803 0.207322 0.126264
O O12 0.096799 0.167876 0.931059
O O13 0.250000 0.250000 0.500000
O O14 0.631700 0.634358 0.343733
O O15 0.000000 0.108133 0.000000
O O16 0.554071 0.938485 0.900499
O O17 0.605278 0.000000 0.683656
#
# Coordination Sequence:
#
# PCOD9208339 Si02
#       8
#     8   8   8   8   8   8   8   4
#     4  10  22  39  65  99 129 173 225 269 330 404
#     4  12  23  41  68  94 134 172 221 263 335 389
#     4  10  21  37  68  97 121 167 224 265 324 403
#     4  11  21  39  72  97 124 171 219 270 330 399
#     4  11  20  41  66  92 126 176 211 272 334 396
#     4  11  23  41  67  95 130 170 222 275 330 391
#     4  11  24  44  67  97 132 175 226 270 327 398
#     4  12  27  40  66  98 136 176 216 278 325 388
#
# _framework density 19.522759000000001
#
# number of rings (size 3 to 8) (size 9 to 14) (size 15 to 20)
#    0.000    1.067    5.333    1.400    0.000    5.067 
#    0.000    0.667   22.000    0.000    0.000    0.000 
#    0.000    0.000    0.000    0.000    0.000    0.000 
#
# Total GULP energy -167514.627762 kJ/mol
# GULP energy per Si atom -5583.820925 kJ/mol
# Density = 1.947832 g / cm^3
# Si number density = 19.522759 Si / 1000 Ang^3
#
#
#
# Elastic Constant Matrix: (Units=GPa)
#
#
# Indices 1 2 3 4 5 6 
#
# 1 89.6935 24.3270 42.1986 0.0000 0.8403 0.0000
# 2 24.3270 126.0643 53.5073 0.0000 -3.7168 0.0000
# 3 42.1986 53.5073 110.0175 0.0000 -10.7157 0.0000
# 4 0.0000 0.0000 0.0000 21.7221 0.0000 -3.1809
# 5 0.8403 -3.7168 -10.7157 0.0000 21.5048 0.0000
# 6 0.0000 0.0000 0.0000 -3.1809 0.0000 2.8983
#
#
#
# Elastic Compliance Matrix: (Units=1/GPa)
#
#
# Indices 1 2 3 4 5 6 
#
# 1 0.013852 -0.000477 -0.005404 0.000000 -0.003317 0.000000
# 2 -0.000477 0.010023 -0.004752 0.000000 -0.000617 0.000000
# 3 -0.005404 -0.004752 0.014098 0.000000 0.006415 0.000000
# 4 0.000000 0.000000 0.000000 0.054851 0.000000 0.060200
# 5 -0.003317 -0.000617 0.006415 0.000000 0.049721 0.000000
# 6 0.000000 0.000000 0.000000 0.060200 0.000000 0.411105
#
#
# Mechanical properties :
#
#
# Convention : Reuss Voigt Hill
#
# Bulk Modulus (GPa) = 59.85436 62.87126 61.36281
# Shear Modulus (GPa) = 8.61347 22.94120 15.77734
#
# Velocity S-wave (km/s) = 2.10276 3.43169 2.84588
# Velocity P-wave (km/s) = 6.05151 6.92647 6.50372
#
# Compressibility (1/GPa) = 0.01670722
#
# Stress axis : x y z
#
# Youngs Moduli (GPa) = 72.19141 99.76788 70.93099
#
# Poissons Ratio (x) = 0.04760 0.38332
# Poissons Ratio (y) = 0.03444 0.33706
# Poissons Ratio (z) = 0.39013 0.47409
#
# Static dielectric constant tensor:
#      x y z
#    x 1.660330 0.000000 -0.017120 
#    y 0.000000 1.706930 0.000000 
#    z -0.017120 0.000000 1.697880 
# 
# From -- ./inp_files/18339.got.cif
#   From: 2010.05.17/outbox.cif.g08.bks.cpg/sg12_10_cif.got.tgz:18339.got - 2010.06.03 13:09:07.
