data_PCOD9208667
_publ_section_title
;
Structure prediction by ZEFSAII (Michael W. Deem and Ramdas Pophale) SiO2 
 PCOD9208667
Probable space group: C 2/M
;
_chemical_formula_sum "Si O2"
_cell_formula_units_Z 48
_cell_length_a 20.820070
_cell_length_b 8.792527
_cell_length_c 16.957853
_cell_angle_alpha 90.000000
_cell_angle_beta 62.377990
_cell_angle_gamma 90.000000
_cell_volume 2750.508573
_symmetry_space_group_name_H-M "C 2/M"
_symmetry_group_IT_number 12
_symmetry_cell_setting 'monoclinic'
loop_
_space_group_symop_operation_xyz
x,y,z
-x,y,-z
-x,-y,-z
x,-y,z
1/2+x,1/2+y,z
1/2-x,1/2+y,-z
1/2-x,1/2-y,-z
1/2+x,1/2-y,z
loop_
_atom_site_type_symbol
_atom_site_label
_atom_site_fract_x
_atom_site_fract_y
_atom_site_fract_z
Si Si1 0.420273 0.816453 0.575914
Si Si2 0.348924 0.681004 0.768581
Si Si3 0.083738 0.817379 0.957787
Si Si4 0.225437 0.317720 0.431302
Si Si5 0.169675 0.318952 0.054961
Si Si6 0.292653 0.682493 0.229614
O O1 0.500000 0.775943 0.500000
O O2 0.401740 0.740893 0.669981
O O3 0.355284 0.772968 0.552671
O O4 0.416781 0.000000 0.586925
O O5 0.351489 0.500000 0.772954
O O6 0.363018 0.755679 0.845034
O O7 0.268995 0.734917 0.786341
O O8 0.129638 0.784364 0.852487
O O9 0.087708 0.000000 0.968335
O O10 0.122635 0.735220 0.007889
O O11 0.000000 0.773914 0.000000
O O12 0.226010 0.500000 0.437886
O O13 0.250000 0.250000 0.500000
O O14 0.278911 0.275395 0.328386
O O15 0.174867 0.500000 0.055016
O O16 0.250000 0.250000 0.000000
O O17 0.279931 0.500000 0.230529
#
# Coordination Sequence:
#
# PCOD9208667 Si02
#       6
#     8   8   8   8   8   8
#     4   9  19  38  60  80 111 148 183 227 283 336
#     4  11  21  34  57  87 113 144 189 236 280 331
#     4  10  21  38  59  83 115 150 185 231 287 339
#     4   9  18  33  54  79 105 141 182 222 270 326
#     4  12  23  37  59  85 114 148 191 237 280 335
#     4   9  18  35  57  78 108 149 187 226 278 336
#
# _framework density 17.451318000000001
#
# number of rings (size 3 to 8) (size 9 to 14) (size 15 to 20)
#    0.000    2.000    1.667    4.000    0.000    3.333 
#    3.000    0.000    0.000    0.000    0.000    0.000 
#    0.000    0.000    0.000    0.000    0.000    0.000 
#
# Total GULP energy -133958.518260 kJ/mol
# GULP energy per Si atom -5581.604927 kJ/mol
# Density = 1.741160 g / cm^3
# Si number density = 17.451318 Si / 1000 Ang^3
#
#
#
# Elastic Constant Matrix: (Units=GPa)
#
#
# Indices 1 2 3 4 5 6 
#
# 1 117.8059 54.5088 102.5539 0.0000 -10.1417 0.0000
# 2 54.5088 58.5015 59.5574 0.0000 -2.0352 0.0000
# 3 102.5539 59.5574 168.1129 0.0000 -1.4657 0.0000
# 4 0.0000 0.0000 0.0000 29.2075 0.0000 7.7935
# 5 -10.1417 -2.0352 -1.4657 0.0000 36.4086 0.0000
# 6 0.0000 0.0000 0.0000 7.7935 0.0000 24.7628
#
#
#
# Elastic Compliance Matrix: (Units=1/GPa)
#
#
# Indices 1 2 3 4 5 6 
#
# 1 0.022514 -0.010728 -0.009888 0.000000 0.005274 0.000000
# 2 -0.010728 0.031893 -0.004767 0.000000 -0.001397 0.000000
# 3 -0.009888 -0.004767 0.013647 0.000000 -0.002471 0.000000
# 4 0.000000 0.000000 0.000000 0.037377 0.000000 -0.011763
# 5 0.005274 -0.001397 -0.002471 0.000000 0.028757 0.000000
# 6 0.000000 0.000000 0.000000 -0.011763 0.000000 0.044085
#
#
# Mechanical properties :
#
#
# Convention : Reuss Voigt Hill
#
# Bulk Modulus (GPa) = 57.83619 86.40672 72.12145
# Shear Modulus (GPa) = 21.29461 26.59579 23.94520
#
# Velocity S-wave (km/s) = 3.49697 3.90808 3.70822
# Velocity P-wave (km/s) = 7.03693 8.36568 7.72991
#
# Compressibility (1/GPa) = 0.01729021
#
# Stress axis : x y z
#
# Youngs Moduli (GPa) = 44.41754 31.35448 73.27454
#
# Poissons Ratio (x) = 0.33636 0.72450
# Poissons Ratio (y) = 0.47649 0.34929
# Poissons Ratio (z) = 0.43918 0.14946
#
# Static dielectric constant tensor:
#      x y z
#    x 1.568790 0.000000 -0.014300 
#    y 0.000000 1.586930 0.000000 
#    z -0.014300 0.000000 1.600040 
# 
# From -- ./inp_files/229935.got.cif
#   From: 2010.05.17/outbox.cif.g08.bks.cpg/sg12_115_cif.got.tgz:229935.got - 2010.06.03 13:09:07.
