data_PCOD9208879
_publ_section_title
;
Structure prediction by ZEFSAII (Michael W. Deem and Ramdas Pophale) SiO2 
 PCOD9208879
Probable space group: C 2/M
;
_chemical_formula_sum "Si O2"
_cell_formula_units_Z 64
_cell_length_a 13.949074
_cell_length_b 29.980531
_cell_length_c 8.994408
_cell_angle_alpha 90.000000
_cell_angle_beta 58.717687
_cell_angle_gamma 90.000000
_cell_volume 3214.621977
_symmetry_space_group_name_H-M "C 2/M"
_symmetry_group_IT_number 12
_symmetry_cell_setting 'monoclinic'
loop_
_space_group_symop_operation_xyz
x,y,z
-x,y,-z
-x,-y,-z
x,-y,z
1/2+x,1/2+y,z
1/2-x,1/2+y,-z
1/2-x,1/2-y,-z
1/2+x,1/2-y,z
loop_
_atom_site_type_symbol
_atom_site_label
_atom_site_fract_x
_atom_site_fract_y
_atom_site_fract_z
Si Si1 0.196625 0.670469 0.057607
Si Si2 0.126990 0.805172 0.565321
Si Si3 0.472642 0.865956 0.372595
Si Si4 0.176561 0.284529 0.368660
Si Si5 0.471534 0.450340 0.280291
Si Si6 0.186972 0.951402 0.321493
Si Si7 0.046769 0.855094 0.117344
Si Si8 0.300161 0.136011 0.252432
O O1 0.190199 0.711666 0.179623
O O2 0.093314 0.642207 0.203683
O O3 0.319491 0.649001 0.981568
O O4 0.173804 0.671676 0.898997
O O5 0.126067 0.761821 0.463667
O O6 0.203468 0.791820 0.646986
O O7 0.196066 0.843208 0.424893
O O8 0.008957 0.825254 0.709058
O O9 0.500000 0.894145 0.500000
O O10 0.403817 0.823235 0.497591
O O11 0.394176 0.876858 0.296393
O O12 0.465158 0.500000 0.213426
O O13 0.577434 0.452005 0.306350
O O14 0.361325 0.445194 0.472339
O O15 0.496415 0.405233 0.171149
O O16 0.262252 0.910455 0.212432
O O17 0.241486 0.000000 0.268264
O O18 0.000000 0.836932 0.000000
#
# Coordination Sequence:
#
# PCOD9208879 Si02
#       8
#     8   8   8   8   8   8   8   8
#     4  11  22  38  57  90 117 155 203 255 299 355
#     4  10  21  38  60  85 118 163 197 250 307 357
#     4   9  21  41  61  81 115 163 202 245 308 363
#     4   9  20  43  58  78 121 162 202 247 306 361
#     4   9  18  33  53  84 128 163 195 244 309 373
#     4   9  17  32  56  86 121 160 195 240 307 374
#     4  12  22  36  60  90 125 157 210 253 306 368
#     4  11  20  36  65  88 116 154 210 251 295 366
#
# _framework density 19.909029
#
# number of rings (size 3 to 8) (size 9 to 14) (size 15 to 20)
#    0.000    2.000    3.750    1.125    0.000    1.250 
#    9.000    0.000    0.000    2.625    0.000    0.000 
#    0.000    0.000    0.000    0.000    0.000    0.000 
#
# Total GULP energy -178184.151969 kJ/mol
# GULP energy per Si atom -5568.254749 kJ/mol
# Density = 1.986372 g / cm^3
# Si number density = 19.909029 Si / 1000 Ang^3
#
#
#
# Elastic Constant Matrix: (Units=GPa)
#
#
# Indices 1 2 3 4 5 6 
#
# 1 77.6933 2.7714 29.9667 0.0000 5.7459 0.0000
# 2 2.7714 81.6981 28.4124 0.0000 2.8048 0.0000
# 3 29.9667 28.4124 94.0287 0.0000 1.7725 0.0000
# 4 0.0000 0.0000 0.0000 14.7676 0.0000 8.9695
# 5 5.7459 2.8048 1.7725 0.0000 37.3505 0.0000
# 6 0.0000 0.0000 0.0000 8.9695 0.0000 8.9846
#
#
#
# Elastic Compliance Matrix: (Units=1/GPa)
#
#
# Indices 1 2 3 4 5 6 
#
# 1 0.014964 0.001353 -0.005137 0.000000 -0.002160 0.000000
# 2 0.001353 0.013826 -0.004590 0.000000 -0.001029 0.000000
# 3 -0.005137 -0.004590 0.013650 0.000000 0.000487 0.000000
# 4 0.000000 0.000000 0.000000 0.172024 0.000000 -0.171736
# 5 -0.002160 -0.001029 0.000487 0.000000 0.027160 0.000000
# 6 0.000000 0.000000 0.000000 -0.171736 0.000000 0.282750
#
#
# Mechanical properties :
#
#
# Convention : Reuss Voigt Hill
#
# Bulk Modulus (GPa) = 38.92191 41.74678 40.33434
# Shear Modulus (GPa) = 9.09612 25.03851 17.06731
#
# Velocity S-wave (km/s) = 2.13980 3.55018 2.93109
# Velocity P-wave (km/s) = 5.06925 6.14974 5.63545
#
# Compressibility (1/GPa) = 0.02569247
#
# Stress axis : x y z
#
# Youngs Moduli (GPa) = 66.82701 72.32905 73.26089
#
# Poissons Ratio (x) = -0.09787 0.37635
# Poissons Ratio (y) = -0.09042 0.33623
# Poissons Ratio (z) = 0.34330 0.33195
#
# Static dielectric constant tensor:
#      x y z
#    x 1.746570 0.000000 0.054470 
#    y 0.000000 1.745010 0.000000 
#    z 0.054470 0.000000 1.734410 
# 
# From -- ./inp_files/68589.got.cif
#   From: 2010.05.17/outbox.cif.g08.bks.cpg/sg12_35_cif.got.tgz:68589.got - 2010.06.03 13:09:07.
