data_PCOD9208231
_publ_section_title
;
Structure prediction by ZEFSAII (Michael W. Deem and Ramdas Pophale) SiO2 
 PCOD9208231
Probable space group: C 2/M
;
_chemical_formula_sum "Si O2"
_cell_formula_units_Z 64
_cell_length_a 17.757892
_cell_length_b 29.211353
_cell_length_c 8.820993
_cell_angle_alpha 90.000000
_cell_angle_beta 135.539016
_cell_angle_gamma 90.000000
_cell_volume 3204.949662
_symmetry_space_group_name_H-M "C 2/M"
_symmetry_group_IT_number 12
_symmetry_cell_setting 'monoclinic'
loop_
_space_group_symop_operation_xyz
x,y,z
-x,y,-z
-x,-y,-z
x,-y,z
1/2+x,1/2+y,z
1/2-x,1/2+y,-z
1/2-x,1/2-y,-z
1/2+x,1/2-y,z
loop_
_atom_site_type_symbol
_atom_site_label
_atom_site_fract_x
_atom_site_fract_y
_atom_site_fract_z
Si Si1 0.698723 0.678796 0.592022
Si Si2 0.790749 0.197664 0.042872
Si Si3 0.075685 0.673076 0.229321
Si Si4 0.381442 0.863108 0.387155
Si Si5 0.497821 0.270303 0.818763
Si Si6 0.399726 0.597558 0.752575
Si Si7 0.456400 0.446068 0.283954
Si Si8 0.243496 0.054879 0.190633
O O1 0.699849 0.675935 0.775766
O O2 0.817875 0.690337 0.704223
O O3 0.613491 0.717072 0.421482
O O4 0.655722 0.635007 0.435138
O O5 0.906108 0.203543 0.127220
O O6 0.750000 0.250000 0.000000
O O7 0.707873 0.168776 0.821292
O O8 0.116268 0.645452 0.430524
O O9 0.002344 0.715113 0.183585
O O10 0.000000 0.647278 0.000000
O O11 0.500000 0.852199 0.500000
O O12 0.349573 0.915829 0.316039
O O13 0.500000 0.281917 0.000000
O O14 0.458331 0.562023 0.725843
O O15 0.314806 0.572929 0.740224
O O16 0.500000 0.615614 0.000000
O O17 0.500000 0.424061 0.500000
O O18 0.443181 0.500000 0.288351
O O19 0.340946 0.430068 0.061132
O O20 0.255241 0.000000 0.210020
#
# Coordination Sequence:
#
# PCOD9208231 Si02
#       8
#     8   8   8   8   8   8   8   8
#     4  12  23  38  63  95 125 167 212 267 317 381
#     4  12  26  43  63  95 132 172 217 268 324 389
#     4  11  23  44  64  88 123 174 217 261 319 386
#     4  12  25  43  67  92 128 173 220 274 325 391
#     4  11  23  39  64  92 130 168 212 265 319 387
#     4  10  21  37  63  93 129 165 210 263 325 389
#     4   9  19  35  61  95 135 169 201 255 326 397
#     4  10  22  42  66  95 129 172 218 267 330 394
#
# _framework density 19.969113
#
# number of rings (size 3 to 8) (size 9 to 14) (size 15 to 20)
#    0.000    1.125    1.250    6.000    5.250    1.750 
#    0.000    0.000    0.000    0.375    0.000    0.000 
#    0.000    0.000    0.000    0.000    0.000    0.000 
#
# Total GULP energy -178729.887982 kJ/mol
# GULP energy per Si atom -5585.308999 kJ/mol
# Density = 1.992366 g / cm^3
# Si number density = 19.969113 Si / 1000 Ang^3
#
#
#
# Elastic Constant Matrix: (Units=GPa)
#
#
# Indices 1 2 3 4 5 6 
#
# 1 87.5063 12.4275 52.1873 0.0000 0.0984 0.0000
# 2 12.4275 62.9132 40.7736 0.0000 -2.0449 0.0000
# 3 52.1873 40.7736 160.6891 0.0000 -16.2001 0.0000
# 4 0.0000 0.0000 0.0000 26.1887 0.0000 1.8968
# 5 0.0984 -2.0449 -16.2001 0.0000 41.0420 0.0000
# 6 0.0000 0.0000 0.0000 1.8968 0.0000 28.2142
#
#
#
# Elastic Compliance Matrix: (Units=1/GPa)
#
#
# Indices 1 2 3 4 5 6 
#
# 1 0.014326 0.000299 -0.004926 0.000000 -0.001964 0.000000
# 2 0.000299 0.019069 -0.005041 0.000000 -0.001040 0.000000
# 3 -0.004926 -0.005041 0.009454 0.000000 0.003492 0.000000
# 4 0.000000 0.000000 0.000000 0.038371 0.000000 -0.002580
# 5 -0.001964 -0.001040 0.003492 0.000000 0.025697 0.000000
# 6 0.000000 0.000000 0.000000 -0.002580 0.000000 0.035617
#
#
# Mechanical properties :
#
#
# Convention : Reuss Voigt Hill
#
# Bulk Modulus (GPa) = 42.52992 57.98728 50.25860
# Shear Modulus (GPa) = 29.46263 32.80366 31.13314
#
# Velocity S-wave (km/s) = 3.84527 4.05744 3.95278
# Velocity P-wave (km/s) = 6.40772 7.14507 6.78642
#
# Compressibility (1/GPa) = 0.02351286
#
# Stress axis : x y z
#
# Youngs Moduli (GPa) = 69.80546 52.44173 105.77218
#
# Poissons Ratio (x) = -0.01569 0.52108
# Poissons Ratio (y) = -0.02088 0.53316
# Poissons Ratio (z) = 0.34389 0.26434
#
# Static dielectric constant tensor:
#      x y z
#    x 1.715810 0.000000 -0.015880 
#    y 0.000000 1.709440 0.000000 
#    z -0.015880 0.000000 1.725260 
# 
# From -- ./inp_files/80784.got.cif
#   From: 2010.05.17/outbox.cif.g08.bks.cpg/sg12_41_cif.got.tgz:80784.got - 2010.06.03 13:09:07.
