data_PCOD9208139
_publ_section_title
;
Structure prediction by ZEFSAII (Michael W. Deem and Ramdas Pophale) SiO2 
 PCOD9208139
Probable space group: C 2/M
;
_chemical_formula_sum "Si O2"
_cell_formula_units_Z 48
_cell_length_a 8.345174
_cell_length_b 23.419181
_cell_length_c 15.214649
_cell_angle_alpha 90.000000
_cell_angle_beta 142.210921
_cell_angle_gamma 90.000000
_cell_volume 1822.035845
_symmetry_space_group_name_H-M "C 2/M"
_symmetry_group_IT_number 12
_symmetry_cell_setting 'monoclinic'
loop_
_space_group_symop_operation_xyz
x,y,z
-x,y,-z
-x,-y,-z
x,-y,z
1/2+x,1/2+y,z
1/2-x,1/2+y,-z
1/2-x,1/2-y,-z
1/2+x,1/2-y,z
loop_
_atom_site_type_symbol
_atom_site_label
_atom_site_fract_x
_atom_site_fract_y
_atom_site_fract_z
Si Si1 0.977545 0.067276 0.852640
Si Si2 0.223704 0.066062 0.410072
Si Si3 0.007973 0.392317 0.103375
Si Si4 0.111629 0.410859 0.335441
Si Si5 0.408659 0.778081 0.649112
Si Si6 0.944909 0.740312 0.851403
O O1 0.973859 0.088993 0.748440
O O2 0.685109 0.073233 0.763862
O O3 0.052055 0.000000 0.893211
O O4 0.199226 0.104536 0.994408
O O5 0.500000 0.093366 0.500000
O O6 0.209768 0.065427 0.508539
O O7 0.234101 0.000000 0.387315
O O8 0.140980 0.423733 0.244393
O O9 0.098436 0.326562 0.144327
O O10 0.000000 0.415819 0.000000
O O11 0.160563 0.343835 0.370699
O O12 0.250000 0.750000 0.500000
O O13 0.724298 0.776803 0.803520
O O14 0.332597 0.746783 0.705470
O O15 0.250000 0.750000 0.000000
#
# Coordination Sequence:
#
# PCOD9208139 Si02
#       6
#     8   8   8   8   8   8
#     4  10  21  39  64  91 118 155 208 265 316 373
#     4   8  16  33  58  87 114 142 187 251 312 359
#     4  11  24  39  56  84 124 164 201 251 316 381
#     4  10  21  37  62  90 117 158 208 257 311 371
#     4  11  24  40  61  93 128 165 213 264 315 376
#     4  11  23  41  63  88 124 170 214 259 317 379
#
# _framework density 26.344159000000001
#
# number of rings (size 3 to 8) (size 9 to 14) (size 15 to 20)
#    0.000    1.833    0.000    5.000    0.000   11.667 
#    0.000    2.500    0.000    2.000    0.000    0.000 
#    0.000    0.000    0.000    0.000    0.000    0.000 
#
# Total GULP energy -133801.858210 kJ/mol
# GULP energy per Si atom -5575.077425 kJ/mol
# Density = 2.628420 g / cm^3
# Si number density = 26.344159 Si / 1000 Ang^3
#
#
#
# Elastic Constant Matrix: (Units=GPa)
#
#
# Indices 1 2 3 4 5 6 
#
# 1 72.7859 -3.3618 64.3277 0.0000 -27.2360 0.0000
# 2 -3.3618 53.6646 10.2340 0.0000 -1.3463 0.0000
# 3 64.3277 10.2340 202.7965 0.0000 -19.6824 0.0000
# 4 0.0000 0.0000 0.0000 19.8957 0.0000 -1.6888
# 5 -27.2360 -1.3463 -19.6824 0.0000 78.2591 0.0000
# 6 0.0000 0.0000 0.0000 -1.6888 0.0000 9.4931
#
#
#
# Elastic Compliance Matrix: (Units=1/GPa)
#
#
# Indices 1 2 3 4 5 6 
#
# 1 0.021852 0.002757 -0.006486 0.000000 0.006021 0.000000
# 2 0.002757 0.019164 -0.001759 0.000000 0.000847 0.000000
# 3 -0.006486 -0.001759 0.007027 0.000000 -0.000520 0.000000
# 4 0.000000 0.000000 0.000000 0.051033 0.000000 0.009079
# 5 0.006021 0.000847 -0.000520 0.000000 0.014757 0.000000
# 6 0.000000 0.000000 0.000000 0.009079 0.000000 0.106955
#
#
# Mechanical properties :
#
#
# Convention : Reuss Voigt Hill
#
# Bulk Modulus (GPa) = 26.97977 52.40518 39.69248
# Shear Modulus (GPa) = 20.48177 38.73272 29.60725
#
# Velocity S-wave (km/s) = 2.79134 3.83855 3.35604
# Velocity P-wave (km/s) = 4.54448 6.29140 5.48789
#
# Compressibility (1/GPa) = 0.03706480
#
# Stress axis : x y z
#
# Youngs Moduli (GPa) = 45.76294 52.18191 142.31278
#
# Poissons Ratio (x) = -0.14386 0.92307
# Poissons Ratio (y) = -0.12616 0.25039
# Poissons Ratio (z) = 0.29683 0.09181
#
# Static dielectric constant tensor:
#      x y z
#    x 3.092900 0.000000 -0.126210 
#    y 0.000000 1.968390 0.000000 
#    z -0.126210 0.000000 2.090160 
# 
# From -- ./inp_files/200217.got.cif
#   From: 2010.05.17/outbox.cif.g08.bks.cpg/sg12_101_cif.got.tgz:200217.got - 2010.06.03 13:09:07.
