data_PCOD9208263
_publ_section_title
;
Structure prediction by ZEFSAII (Michael W. Deem and Ramdas Pophale) SiO2 
 PCOD9208263
Probable space group: C 2/M
;
_chemical_formula_sum "Si O2"
_cell_formula_units_Z 64
_cell_length_a 18.250126
_cell_length_b 14.417330
_cell_length_c 14.952934
_cell_angle_alpha 90.000000
_cell_angle_beta 48.334834
_cell_angle_gamma 90.000000
_cell_volume 2939.154548
_symmetry_space_group_name_H-M "C 2/M"
_symmetry_group_IT_number 12
_symmetry_cell_setting 'monoclinic'
loop_
_space_group_symop_operation_xyz
x,y,z
-x,y,-z
-x,-y,-z
x,-y,z
1/2+x,1/2+y,z
1/2-x,1/2+y,-z
1/2-x,1/2-y,-z
1/2+x,1/2-y,z
loop_
_atom_site_type_symbol
_atom_site_label
_atom_site_fract_x
_atom_site_fract_y
_atom_site_fract_z
Si Si1 0.480764 0.896189 0.411279
Si Si2 0.296828 0.850886 0.464703
Si Si3 0.744901 0.607995 0.181738
Si Si4 0.114502 0.893696 0.883353
Si Si5 0.402899 0.399111 0.310653
Si Si6 0.073406 0.220035 0.251464
Si Si7 0.884949 0.728530 0.978551
Si Si8 0.416023 0.108936 0.188658
O O1 0.500000 0.896340 0.500000
O O2 0.368023 0.867395 0.489695
O O3 0.547983 0.821196 0.308338
O O4 0.495298 0.000000 0.363233
O O5 0.250000 0.750000 0.500000
O O6 0.198823 0.908581 0.555352
O O7 0.367455 0.872817 0.324396
O O8 0.721654 0.500000 0.196259
O O9 0.645029 0.666425 0.260739
O O10 0.824162 0.622908 0.196476
O O11 0.807973 0.645408 0.047711
O O12 0.120127 0.867893 0.773048
O O13 0.156398 0.000000 0.860579
O O14 0.143885 0.808701 0.925435
O O15 0.000000 0.901812 0.000000
O O16 0.451771 0.500000 0.260926
O O17 0.472612 0.333603 0.311539
O O18 0.118374 0.227498 0.116265
O O19 0.992846 0.679138 0.902175
O O20 0.447044 0.000000 0.155476
#
# Coordination Sequence:
#
# PCOD9208263 Si02
#       8
#     8   8   8   8   8   8   8   8
#     4  11  26  47  70  99 140 183 228 285 346 410
#     4  12  24  43  71 106 135 175 231 285 339 408
#     4  11  27  44  65  99 139 181 227 282 347 414
#     4  10  21  37  63  99 136 175 227 283 335 400
#     4  11  23  41  69 102 139 185 230 283 346 404
#     4  12  25  43  67  98 138 182 227 282 343 415
#     4  12  23  42  71 100 133 184 234 286 346 405
#     4  11  24  44  72 102 137 177 231 291 341 408
#
# _framework density 21.77497
#
# number of rings (size 3 to 8) (size 9 to 14) (size 15 to 20)
#    0.000    0.750    3.750    3.375    3.500    2.000 
#    0.000    1.875    0.000    3.750    0.000    0.000 
#    0.000    0.000    0.000    0.000    0.000    0.000 
#
# Total GULP energy -178689.561348 kJ/mol
# GULP energy per Si atom -5584.048792 kJ/mol
# Density = 2.172541 g / cm^3
# Si number density = 21.774970 Si / 1000 Ang^3
#
#
#
# Elastic Constant Matrix: (Units=GPa)
#
#
# Indices 1 2 3 4 5 6 
#
# 1 113.8736 61.1860 26.3034 0.0000 -7.4425 0.0000
# 2 61.1860 169.3622 30.5114 0.0000 7.6659 0.0000
# 3 26.3034 30.5114 58.4564 0.0000 -15.7823 0.0000
# 4 0.0000 0.0000 0.0000 16.5571 0.0000 -2.3729
# 5 -7.4425 7.6659 -15.7823 0.0000 8.8238 0.0000
# 6 0.0000 0.0000 0.0000 -2.3729 0.0000 37.6724
#
#
#
# Elastic Compliance Matrix: (Units=1/GPa)
#
#
# Indices 1 2 3 4 5 6 
#
# 1 0.012842 -0.006374 0.003806 0.000000 0.023177 0.000000
# 2 -0.006374 0.013367 -0.016817 0.000000 -0.047068 0.000000
# 3 0.003806 -0.016817 0.056048 0.000000 0.118068 0.000000
# 4 0.000000 0.000000 0.000000 0.060947 0.000000 0.003839
# 5 0.023177 -0.047068 0.118068 0.000000 0.384949 0.000000
# 6 0.000000 0.000000 0.000000 0.003839 0.000000 0.026786
#
#
# Mechanical properties :
#
#
# Convention : Reuss Voigt Hill
#
# Bulk Modulus (GPa) = 22.99474 64.18819 43.59146
# Shear Modulus (GPa) = 8.22089 27.52342 17.87215
#
# Velocity S-wave (km/s) = 1.94514 3.55913 2.86801
# Velocity P-wave (km/s) = 3.95321 6.81409 5.57044
#
# Compressibility (1/GPa) = 0.04348821
#
# Stress axis : x y z
#
# Youngs Moduli (GPa) = 77.86709 74.80867 17.84180
#
# Poissons Ratio (x) = 0.47686 -0.06791
# Poissons Ratio (y) = 0.49635 0.30004
# Poissons Ratio (z) = -0.29636 1.25802
#
# Static dielectric constant tensor:
#      x y z
#    x 1.817090 0.000000 0.006500 
#    y 0.000000 1.993370 0.000000 
#    z 0.006500 0.000000 1.788500 
# 
# From -- ./inp_files/225697.got.cif
#   From: 2010.05.17/outbox.cif.g08.bks.cpg/sg12_113_cif.got.tgz:225697.got - 2010.06.03 13:09:07.
