data_PCOD9208719
_publ_section_title
;
Structure prediction by ZEFSAII (Michael W. Deem and Ramdas Pophale) SiO2 
 PCOD9208719
Probable space group: C 2/M
;
_chemical_formula_sum "Si O2"
_cell_formula_units_Z 40
_cell_length_a 14.738353
_cell_length_b 25.937502
_cell_length_c 15.858646
_cell_angle_alpha 90.000000
_cell_angle_beta 161.366246
_cell_angle_gamma 90.000000
_cell_volume 1937.037347
_symmetry_space_group_name_H-M "C 2/M"
_symmetry_group_IT_number 12
_symmetry_cell_setting 'monoclinic'
loop_
_space_group_symop_operation_xyz
x,y,z
-x,y,-z
-x,-y,-z
x,-y,z
1/2+x,1/2+y,z
1/2-x,1/2+y,-z
1/2-x,1/2-y,-z
1/2+x,1/2-y,z
loop_
_atom_site_type_symbol
_atom_site_label
_atom_site_fract_x
_atom_site_fract_y
_atom_site_fract_z
Si Si1 0.630026 0.399457 0.923743
Si Si2 0.253755 0.557670 0.153449
Si Si3 0.332039 0.660070 0.276702
Si Si4 0.514990 0.939587 0.413946
Si Si5 0.486103 0.713325 0.243791
O O1 0.798741 0.419643 0.987768
O O2 0.342625 0.432662 0.676325
O O3 0.517475 0.340219 0.813645
O O4 0.819462 0.408795 0.174317
O O5 0.370789 0.500000 0.249418
O O6 0.452709 0.602515 0.365915
O O7 0.000000 0.554179 0.000000
O O8 0.500000 0.684511 0.500000
O O9 0.378867 0.692882 0.237412
O O10 0.000000 0.656317 0.000000
O O11 0.500000 0.923689 0.500000
O O12 0.431500 0.000000 0.335950
O O13 0.750000 0.750000 0.500000
O O14 0.250000 0.750000 0.000000
#
# Coordination Sequence:
#
# PCOD9208719 Si02
#       5
#     8   8   8   8   8
#     4  11  23  41  64  92 127 164 209 260 310 370
#     4   9  19  35  59  92 126 159 195 238 295 368
#     4  10  21  38  59  85 118 154 194 239 293 363
#     4  11  23  41  65  93 128 168 208 254 313 376
#     4  11  23  42  64  87 118 159 206 259 316 362
#
# _framework density 20.650092999999998
#
# number of rings (size 3 to 8) (size 9 to 14) (size 15 to 20)
#    0.000    1.600    0.000    4.800    0.000   10.000 
#    0.000   14.000    0.000    0.000    0.000    0.000 
#    0.000    0.000    0.000    0.000    0.000    0.000 
#
# Total GULP energy -111366.403744 kJ/mol
# GULP energy per Si atom -5568.320187 kJ/mol
# Density = 2.060309 g / cm^3
# Si number density = 20.650093 Si / 1000 Ang^3
#
#
#
# Elastic Constant Matrix: (Units=GPa)
#
#
# Indices 1 2 3 4 5 6 
#
# 1 114.8963 55.3704 51.5719 -0.0028 -23.7814 -0.0032
# 2 55.3704 134.2010 44.6177 -0.0004 -9.3596 -0.0005
# 3 51.5719 44.6177 140.5794 -0.0036 -22.7782 0.0047
# 4 -0.0028 -0.0004 -0.0036 16.6812 -0.0065 6.0306
# 5 -23.7814 -9.3596 -22.7782 -0.0065 42.5819 -0.0017
# 6 -0.0032 -0.0005 0.0047 6.0306 -0.0017 23.9507
#
#
#
# Elastic Compliance Matrix: (Units=1/GPa)
#
#
# Indices 1 2 3 4 5 6 
#
# 1 0.012867 -0.004094 -0.002630 0.000003 0.004879 0.000002
# 2 -0.004094 0.009641 -0.001736 -0.000001 -0.001096 0.000000
# 3 -0.002630 -0.001736 0.009120 0.000004 0.003028 -0.000003
# 4 0.000003 -0.000001 0.000004 0.065951 0.000013 -0.016606
# 5 0.004879 -0.001096 0.003028 0.000013 0.027588 -0.000001
# 6 0.000002 0.000000 -0.000003 -0.016606 -0.000001 0.045934
#
#
# Mechanical properties :
#
#
# Convention : Reuss Voigt Hill
#
# Bulk Modulus (GPa) = 67.98961 76.97743 72.48352
# Shear Modulus (GPa) = 25.91697 32.51720 29.21708
#
# Velocity S-wave (km/s) = 3.54652 3.97252 3.76555
# Velocity P-wave (km/s) = 7.05453 7.64194 7.35410
#
# Compressibility (1/GPa) = 0.01470813
#
# Stress axis : x y z
#
# Youngs Moduli (GPa) = 77.71806 103.72032 109.65093
#
# Poissons Ratio (x) = 0.42464 0.28842
# Poissons Ratio (y) = 0.31818 0.19031
# Poissons Ratio (z) = 0.20443 0.18002
#
# Static dielectric constant tensor:
#      x y z
#    x 1.771840 0.000000 -0.003820 
#    y 0.000000 1.798740 0.000000 
#    z -0.003820 0.000000 1.655690 
# 
# From -- ./inp_files/219197.got.cif
#   From: 2010.05.17/outbox.cif.g08.bks.cpg/sg12_110_cif.got.tgz:219197.got - 2010.06.03 13:09:07.
