data_PCOD9208473
_publ_section_title
;
Structure prediction by ZEFSAII (Michael W. Deem and Ramdas Pophale) SiO2 
 PCOD9208473
Probable space group: C 2/M
;
_chemical_formula_sum "Si O2"
_cell_formula_units_Z 48
_cell_length_a 20.530189
_cell_length_b 13.686693
_cell_length_c 11.320455
_cell_angle_alpha 90.000000
_cell_angle_beta 41.806284
_cell_angle_gamma 90.000000
_cell_volume 2120.459268
_symmetry_space_group_name_H-M "C 2/M"
_symmetry_group_IT_number 12
_symmetry_cell_setting 'monoclinic'
loop_
_space_group_symop_operation_xyz
x,y,z
-x,y,-z
-x,-y,-z
x,-y,z
1/2+x,1/2+y,z
1/2-x,1/2+y,-z
1/2-x,1/2-y,-z
1/2+x,1/2-y,z
loop_
_atom_site_type_symbol
_atom_site_label
_atom_site_fract_x
_atom_site_fract_y
_atom_site_fract_z
Si Si1 0.390216 0.887460 0.376098
Si Si2 0.889322 0.387365 0.648605
Si Si3 0.944160 0.253900 0.956615
Si Si4 0.277629 0.116921 0.301136
Si Si5 0.894516 0.887007 0.612155
Si Si6 0.191112 0.114852 0.013581
O O1 0.358369 0.884071 0.554123
O O2 0.477533 0.814107 0.226632
O O3 0.301896 0.868337 0.405335
O O4 0.423872 0.000000 0.307853
O O5 0.897944 0.500000 0.678323
O O6 0.800453 0.344056 0.843338
O O7 0.000000 0.350722 0.500000
O O8 0.862311 0.329312 0.114395
O O9 0.888855 0.172984 0.954204
O O10 0.000000 0.217277 0.000000
O O11 0.172554 0.155189 0.400475
O O12 0.281833 0.000000 0.271618
O O13 0.000000 0.846296 0.500000
O O14 0.912319 0.000000 0.553544
O O15 0.833764 0.883664 0.814912
O O16 0.190047 0.000000 0.978651
#
# Coordination Sequence:
#
# PCOD9208473 Si02
#       6
#     8   8   8   8   8   8
#     4   9  18  36  62  91 118 148 193 246 304 352
#     4   9  19  37  61  88 120 157 195 242 295 349
#     4  10  21  38  57  89 119 153 198 245 293 350
#     4   9  18  35  61  87 116 152 192 249 301 342
#     4   9  19  38  61  86 117 156 201 243 289 348
#     4  10  22  41  60  83 119 160 200 239 288 351
#
# _framework density 22.636606
#
# number of rings (size 3 to 8) (size 9 to 14) (size 15 to 20)
#    0.000    2.667    0.000    0.500    2.333    3.000 
#    6.000    1.667    0.000    0.000    0.000    0.000 
#    0.000    0.000    0.000    0.000    0.000    0.000 
#
# Total GULP energy -134140.313291 kJ/mol
# GULP energy per Si atom -5589.179720 kJ/mol
# Density = 2.258508 g / cm^3
# Si number density = 22.636606 Si / 1000 Ang^3
#
#
#
# Elastic Constant Matrix: (Units=GPa)
#
#
# Indices 1 2 3 4 5 6 
#
# 1 136.6594 12.9363 38.9309 0.0000 -36.6074 0.0000
# 2 12.9363 98.4701 -10.8539 0.0000 -15.6665 0.0000
# 3 38.9309 -10.8539 84.1716 0.0000 -24.4856 0.0000
# 4 0.0000 0.0000 0.0000 -29.5803 0.0000 -20.2767
# 5 -36.6074 -15.6665 -24.4856 0.0000 33.2152 0.0000
# 6 0.0000 0.0000 0.0000 -20.2767 0.0000 15.1634
#
#
#
# Elastic Compliance Matrix: (Units=1/GPa)
#
#
# Indices 1 2 3 4 5 6 
#
# 1 0.010621 0.000036 -0.001906 0.000000 0.010317 0.000000
# 2 0.000036 0.011978 0.004052 0.000000 0.008676 0.000000
# 3 -0.001906 0.004052 0.016841 0.000000 0.012225 0.000000
# 4 0.000000 0.000000 0.000000 -0.017638 0.000000 -0.023586
# 5 0.010317 0.008676 0.012225 0.000000 0.054581 0.000000
# 6 0.000000 0.000000 0.000000 -0.023586 0.000000 0.034408
#
#
# Mechanical properties :
#
#
# Convention : Reuss Voigt Hill
#
# Bulk Modulus (GPa) = 22.83011 44.59198 33.71105
# Shear Modulus (GPa) = 41.31249 22.31218 31.81234
#
# Velocity S-wave (km/s) = 4.27667 3.14294 3.75287
# Velocity P-wave (km/s) = 5.87315 5.73695 5.80545
#
# Compressibility (1/GPa) = 0.04380181
#
# Stress axis : x y z
#
# Youngs Moduli (GPa) = 94.15456 83.48944 59.37937
#
# Poissons Ratio (x) = -0.00301 0.11320
# Poissons Ratio (y) = -0.00339 -0.24059
# Poissons Ratio (z) = 0.17950 -0.33827
#
# Static dielectric constant tensor:
#      x y z
#    x 1.844900 0.000000 -0.020830 
#    y 0.000000 1.883290 0.000000 
#    z -0.020830 0.000000 1.799120 
# 
# From -- ./inp_files/143878.got.cif
#   From: 2010.05.17/outbox.cif.g08.bks.cpg/sg12_72_cif.got.tgz:143878.got - 2010.06.03 13:09:07.
