data_PCOD9208930
_publ_section_title
;
Structure prediction by ZEFSAII (Michael W. Deem and Ramdas Pophale) SiO2 
 PCOD9208930
Probable space group: C 2/M
;
_chemical_formula_sum "Si O2"
_cell_formula_units_Z 56
_cell_length_a 31.325365
_cell_length_b 7.614780
_cell_length_c 21.275817
_cell_angle_alpha 90.000000
_cell_angle_beta 150.831538
_cell_angle_gamma 90.000000
_cell_volume 2473.469968
_symmetry_space_group_name_H-M "C 2/M"
_symmetry_group_IT_number 12
_symmetry_cell_setting 'monoclinic'
loop_
_space_group_symop_operation_xyz
x,y,z
-x,y,-z
-x,-y,-z
x,-y,z
1/2+x,1/2+y,z
1/2-x,1/2+y,-z
1/2-x,1/2-y,-z
1/2+x,1/2-y,z
loop_
_atom_site_type_symbol
_atom_site_label
_atom_site_fract_x
_atom_site_fract_y
_atom_site_fract_z
Si Si1 0.436814 0.201569 0.589424
Si Si2 0.626679 0.296251 0.858716
Si Si3 0.657248 0.290743 0.412377
Si Si4 0.772898 0.297711 0.134456
Si Si5 0.539067 0.285828 0.147905
Si Si6 0.178750 0.284345 0.667927
Si Si7 0.366434 0.286426 0.858261
O O1 0.522820 0.287639 0.729197
O O2 0.358999 0.211074 0.540206
O O3 0.401428 0.277096 0.478383
O O4 0.461559 0.000000 0.611169
O O5 0.652621 0.500000 0.886480
O O6 0.659765 0.210017 0.836803
O O7 0.682550 0.222913 0.989214
O O8 0.649911 0.500000 0.409530
O O9 0.750000 0.250000 0.500000
O O10 0.581871 0.226251 0.267593
O O11 0.752941 0.500000 0.125403
O O12 0.814340 0.223401 0.251253
O O13 0.539359 0.500000 0.149528
O O14 0.600083 0.231959 0.167470
O O15 0.440707 0.231327 0.003869
O O16 0.173734 0.500000 0.659579
O O17 0.269975 0.230323 0.752846
O O18 0.366425 0.500000 0.858093
#
# Coordination Sequence:
#
# PCOD9208930 Si02
#       7
#     8   8   8   8   8   8   8
#     4  11  23  38  57  84 117 151 190 235 281 335
#     4  10  21  38  60  87 116 146 183 231 289 348
#     4  11  22  36  55  81 113 153 194 233 283 335
#     4   9  19  37  62  86 110 146 191 239 282 331
#     4   8  15  26  46  75 104 136 178 230 277 318
#     4   9  18  32  54  81 109 145 191 238 277 324
#     4   8  13  25  46  75 105 132 176 234 277 310
#
# _framework density 22.640260000000001
#
# number of rings (size 3 to 8) (size 9 to 14) (size 15 to 20)
#    0.000    2.571    0.000    3.000    2.000    3.429 
#    0.000    4.286    0.000    0.000    0.000    5.000 
#    0.000    0.000    0.000    0.000    0.000    0.000 
#
# Total GULP energy -156334.678034 kJ/mol
# GULP energy per Si atom -5583.381358 kJ/mol
# Density = 2.258873 g / cm^3
# Si number density = 22.640260 Si / 1000 Ang^3
#
#
#
# Elastic Constant Matrix: (Units=GPa)
#
#
# Indices 1 2 3 4 5 6 
#
# 1 61.0509 -5.5115 48.3295 0.0000 -21.0667 0.0000
# 2 -5.5115 50.6333 6.2485 0.0000 -4.9827 0.0000
# 3 48.3295 6.2485 102.1133 0.0000 -22.3355 0.0000
# 4 0.0000 0.0000 0.0000 10.8327 0.0000 4.0875
# 5 -21.0667 -4.9827 -22.3355 0.0000 42.3913 0.0000
# 6 0.0000 0.0000 0.0000 4.0875 0.0000 15.2627
#
#
#
# Elastic Compliance Matrix: (Units=1/GPa)
#
#
# Indices 1 2 3 4 5 6 
#
# 1 0.029905 0.005682 -0.012551 0.000000 0.008916 0.000000
# 2 0.005682 0.021119 -0.003188 0.000000 0.003626 0.000000
# 3 -0.012551 -0.003188 0.016369 0.000000 0.002012 0.000000
# 4 0.000000 0.000000 0.000000 0.102690 0.000000 -0.027501
# 5 0.008916 0.003626 0.002012 0.000000 0.029507 0.000000
# 6 0.000000 0.000000 0.000000 -0.027501 0.000000 0.072884
#
#
# Mechanical properties :
#
#
# Convention : Reuss Voigt Hill
#
# Bulk Modulus (GPa) = 21.15201 34.65894 27.90548
# Shear Modulus (GPa) = 16.21540 24.67942 20.44741
#
# Velocity S-wave (km/s) = 2.67913 3.30520 3.00850
# Velocity P-wave (km/s) = 4.35124 5.46878 4.94170
#
# Compressibility (1/GPa) = 0.04727682
#
# Stress axis : x y z
#
# Youngs Moduli (GPa) = 33.43867 47.35164 61.09202
#
# Poissons Ratio (x) = -0.26903 0.76679
# Poissons Ratio (y) = -0.18999 0.19478
# Poissons Ratio (z) = 0.41970 0.15097
#
# Static dielectric constant tensor:
#      x y z
#    x 1.812420 0.000000 -0.028080 
#    y 0.000000 1.898720 0.000000 
#    z -0.028080 0.000000 1.851360 
# 
# From -- ./inp_files/329630.got.cif
#   From: 2010.05.17/outbox.cif.g08.bks.cpg/sg12_165_cif.got.tgz:329630.got - 2010.06.03 13:09:07.
