data_PCOD9208332
_publ_section_title
;
Structure prediction by ZEFSAII (Michael W. Deem and Ramdas Pophale) SiO2 
 PCOD9208332
Probable space group: C 2/M
;
_chemical_formula_sum "Si O2"
_cell_formula_units_Z 40
_cell_length_a 15.874132
_cell_length_b 21.217939
_cell_length_c 5.058832
_cell_angle_alpha 90.000000
_cell_angle_beta 92.052396
_cell_angle_gamma 90.000000
_cell_volume 1702.804342
_symmetry_space_group_name_H-M "C 2/M"
_symmetry_group_IT_number 12
_symmetry_cell_setting 'monoclinic'
loop_
_space_group_symop_operation_xyz
x,y,z
-x,y,-z
-x,-y,-z
x,-y,z
1/2+x,1/2+y,z
1/2-x,1/2+y,-z
1/2-x,1/2-y,-z
1/2+x,1/2-y,z
loop_
_atom_site_type_symbol
_atom_site_label
_atom_site_fract_x
_atom_site_fract_y
_atom_site_fract_z
Si Si1 0.325728 0.865943 0.804329
Si Si2 0.919619 0.000000 0.798867
Si Si3 0.000000 0.386858 0.000000
Si Si4 0.743252 0.310202 0.304928
Si Si5 0.055989 0.859979 0.271657
Si Si6 0.578696 0.000000 0.698650
Si Si7 0.733396 0.000000 0.976700
O O1 0.290314 0.858404 0.506419
O O2 0.427041 0.853778 0.822861
O O3 0.286923 0.818471 0.022723
O O4 0.295469 0.936223 0.881837
O O5 0.922981 0.933123 0.652145
O O6 0.832311 0.000000 0.946858
O O7 0.000000 0.000000 0.000000
O O8 0.942876 0.434662 0.159726
O O9 0.750000 0.250000 0.500000
O O10 0.645250 0.326185 0.251513
O O11 0.000000 0.832135 0.500000
O O12 0.000000 0.858812 0.000000
O O13 0.500000 0.000000 0.500000
O O14 0.679247 0.000000 0.695941
#
# Coordination Sequence:
#
# PCOD9208332 Si02
#       7
#     8   4   4   8   8   4   4
#     4  11  25  44  72 101 139 177 228 289 345 419
#     4  10  21  37  67 100 139 173 225 278 357 419
#     4   9  22  38  60 104 132 174 226 273 342 408
#     4  12  27  49  71  97 138 187 236 283 343 414
#     4  11  24  44  69 102 137 177 225 290 350 412
#     4   9  19  34  61  93 146 177 209 271 345 420
#     4  10  21  41  66 105 135 181 216 287 358 411
#
# _framework density 23.490660999999999
#
# number of rings (size 3 to 8) (size 9 to 14) (size 15 to 20)
#    0.000    1.400    2.000    2.700    8.400    1.600 
#    5.400    0.000    0.000    0.000    0.000    0.000 
#    0.000    0.000    0.000    0.000    0.000    0.000 
#
# Total GULP energy -111534.946800 kJ/mol
# GULP energy per Si atom -5576.747340 kJ/mol
# Density = 2.343719 g / cm^3
# Si number density = 23.490661 Si / 1000 Ang^3
#
#
#
# Elastic Constant Matrix: (Units=GPa)
#
#
# Indices 1 2 3 4 5 6 
#
# 1 172.5480 3.9590 36.1128 0.0000 35.6096 0.0000
# 2 3.9590 65.1702 -7.2549 0.0000 -0.1757 0.0000
# 3 36.1128 -7.2549 106.3459 0.0000 13.9111 0.0000
# 4 0.0000 0.0000 0.0000 29.0127 0.0000 31.1055
# 5 35.6096 -0.1757 13.9111 0.0000 43.9466 0.0000
# 6 0.0000 0.0000 0.0000 31.1055 0.0000 144.7740
#
#
#
# Elastic Compliance Matrix: (Units=1/GPa)
#
#
# Indices 1 2 3 4 5 6 
#
# 1 0.007293 -0.000660 -0.001824 0.000000 -0.005335 0.000000
# 2 -0.000660 0.015525 0.001257 0.000000 0.000199 0.000000
# 3 -0.001824 0.001257 0.010343 0.000000 -0.001791 0.000000
# 4 0.000000 0.000000 0.000000 0.044784 0.000000 -0.009622
# 5 -0.005335 0.000199 -0.001791 0.000000 0.027646 0.000000
# 6 0.000000 0.000000 0.000000 -0.009622 0.000000 0.008975
#
#
# Mechanical properties :
#
#
# Convention : Reuss Voigt Hill
#
# Bulk Modulus (GPa) = 32.56571 45.52199 39.04385
# Shear Modulus (GPa) = 39.29122 64.29649 51.79385
#
# Velocity S-wave (km/s) = 4.09422 5.23741 4.70070
# Velocity P-wave (km/s) = 6.02026 7.48297 6.79111
#
# Compressibility (1/GPa) = 0.03070714
#
# Stress axis : x y z
#
# Youngs Moduli (GPa) = 137.11049 64.41194 96.68673
#
# Poissons Ratio (x) = 0.04254 0.17634
# Poissons Ratio (y) = 0.09056 -0.12157
# Poissons Ratio (z) = 0.25007 -0.08099
#
# Static dielectric constant tensor:
#      x y z
#    x 1.799230 0.000000 -0.080460 
#    y 0.000000 1.819100 0.000000 
#    z -0.080460 0.000000 1.943430 
# 
# From -- ./inp_files/11745.got.cif
#   From: 2010.05.17/outbox.cif.g08.bks.cpg/sg12_6_cif.got.tgz:11745.got - 2010.06.03 13:09:07.
