data_PCOD9208552
_publ_section_title
;
Structure prediction by ZEFSAII (Michael W. Deem and Ramdas Pophale) SiO2 
 PCOD9208552
Probable space group: C 2/M
;
_chemical_formula_sum "Si O2"
_cell_formula_units_Z 48
_cell_length_a 31.584479
_cell_length_b 8.750051
_cell_length_c 9.423377
_cell_angle_alpha 90.000000
_cell_angle_beta 90.095472
_cell_angle_gamma 90.000000
_cell_volume 2604.295527
_symmetry_space_group_name_H-M "C 2/M"
_symmetry_group_IT_number 12
_symmetry_cell_setting 'monoclinic'
loop_
_space_group_symop_operation_xyz
x,y,z
-x,y,-z
-x,-y,-z
x,-y,z
1/2+x,1/2+y,z
1/2-x,1/2+y,-z
1/2-x,1/2-y,-z
1/2+x,1/2-y,z
loop_
_atom_site_type_symbol
_atom_site_label
_atom_site_fract_x
_atom_site_fract_y
_atom_site_fract_z
Si Si1 0.616786 0.684591 0.593584
Si Si2 0.618843 0.817133 0.910788
Si Si3 0.457952 0.683154 0.908860
Si Si4 0.458567 0.182925 0.593942
Si Si5 0.709753 0.682779 0.919570
Si Si6 0.711422 0.318293 0.585675
O O1 0.615023 0.500000 0.599689
O O2 0.611160 0.748314 0.753178
O O3 0.581489 0.748905 0.489238
O O4 0.663992 0.731928 0.543769
O O5 0.664968 0.757916 0.960551
O O6 0.618607 0.000000 0.903328
O O7 0.582329 0.757627 0.014294
O O8 0.452920 0.500000 0.906052
O O9 0.462402 0.745496 0.749733
O O10 0.500000 0.719265 0.000000
O O11 0.500000 0.217013 0.500000
O O12 0.454530 0.000000 0.605716
O O13 0.707072 0.500000 0.938520
O O14 0.715537 0.715576 0.752498
O O15 0.750000 0.750000 0.000000
O O16 0.712759 0.500000 0.568497
O O17 0.750000 0.250000 0.500000
#
# Coordination Sequence:
#
# PCOD9208552 Si02
#       6
#     8   8   8   8   8   8
#     4  10  21  39  60  84 116 153 194 238 287 345
#     4  11  22  38  61  87 116 152 194 242 295 347
#     4  11  24  41  62  87 116 153 194 237 289 349
#     4  11  24  40  60  88 119 151 190 237 288 343
#     4  10  21  38  58  84 117 153 195 240 290 347
#     4   9  20  36  56  82 112 147 187 232 280 334
#
# _framework density 18.431087999999999
#
# number of rings (size 3 to 8) (size 9 to 14) (size 15 to 20)
#    0.000    1.667    0.000    5.500    0.000   10.667 
#    0.000    3.333    0.000    0.000    0.000    0.000 
#    0.000    0.000    0.000    0.000    0.000    0.000 
#
# Total GULP energy -134125.951172 kJ/mol
# GULP energy per Si atom -5588.581299 kJ/mol
# Density = 1.838914 g / cm^3
# Si number density = 18.431088 Si / 1000 Ang^3
#
#
#
# Elastic Constant Matrix: (Units=GPa)
#
#
# Indices 1 2 3 4 5 6 
#
# 1 203.4587 92.2064 113.1131 0.0000 3.3206 0.0000
# 2 92.2064 83.5867 64.3854 0.0000 1.8268 0.0000
# 3 113.1131 64.3854 115.5828 0.0000 2.9306 0.0000
# 4 0.0000 0.0000 0.0000 36.5958 0.0000 -1.0305
# 5 3.3206 1.8268 2.9306 0.0000 42.6553 0.0000
# 6 0.0000 0.0000 0.0000 -1.0305 0.0000 30.6758
#
#
#
# Elastic Compliance Matrix: (Units=1/GPa)
#
#
# Indices 1 2 3 4 5 6 
#
# 1 0.013352 -0.008168 -0.008514 0.000000 -0.000105 0.000000
# 2 -0.008168 0.025953 -0.006462 0.000000 -0.000032 0.000000
# 3 -0.008514 -0.006462 0.020595 0.000000 -0.000475 0.000000
# 4 0.000000 0.000000 0.000000 0.027351 0.000000 0.000919
# 5 -0.000105 -0.000032 -0.000475 0.000000 0.023486 0.000000
# 6 0.000000 0.000000 0.000000 0.000919 0.000000 0.032630
#
#
# Mechanical properties :
#
#
# Convention : Reuss Voigt Hill
#
# Bulk Modulus (GPa) = 73.46834 104.67087 89.06961
# Shear Modulus (GPa) = 25.74756 30.84693 28.29725
#
# Velocity S-wave (km/s) = 3.74165 4.09545 3.92254
# Velocity P-wave (km/s) = 7.65599 8.90378 8.30336
#
# Compressibility (1/GPa) = 0.01361130
#
# Stress axis : x y z
#
# Youngs Moduli (GPa) = 74.89664 38.53121 48.55467
#
# Poissons Ratio (x) = 0.31474 0.41337
# Poissons Ratio (y) = 0.61179 0.31378
# Poissons Ratio (z) = 0.63764 0.24900
#
# Static dielectric constant tensor:
#      x y z
#    x 1.621580 0.000000 0.005010 
#    y 0.000000 1.619340 0.000000 
#    z 0.005010 0.000000 1.584360 
# 
# From -- ./inp_files/108682.got.cif
#   From: 2010.05.17/outbox.cif.g08.bks.cpg/sg12_55_cif.got.tgz:108682.got - 2010.06.03 13:09:07.
