data_PCOD9208677
_publ_section_title
;
Structure prediction by ZEFSAII (Michael W. Deem and Ramdas Pophale) SiO2 
 PCOD9208677
Probable space group: C 2/M
;
_chemical_formula_sum "Si O2"
_cell_formula_units_Z 56
_cell_length_a 14.432215
_cell_length_b 8.744025
_cell_length_c 29.445492
_cell_angle_alpha 90.000000
_cell_angle_beta 130.001316
_cell_angle_gamma 90.000000
_cell_volume 2846.484296
_symmetry_space_group_name_H-M "C 2/M"
_symmetry_group_IT_number 12
_symmetry_cell_setting 'monoclinic'
loop_
_space_group_symop_operation_xyz
x,y,z
-x,y,-z
-x,-y,-z
x,-y,z
1/2+x,1/2+y,z
1/2-x,1/2+y,-z
1/2-x,1/2-y,-z
1/2+x,1/2-y,z
loop_
_atom_site_type_symbol
_atom_site_label
_atom_site_fract_x
_atom_site_fract_y
_atom_site_fract_z
Si Si1 0.663521 0.820561 0.632999
Si Si2 0.651608 0.317004 0.935241
Si Si3 0.310473 0.675414 0.450070
Si Si4 0.901890 0.317272 0.748400
Si Si5 0.620708 0.684272 0.157763
Si Si6 0.161190 0.815928 0.832350
Si Si7 0.576462 0.322180 0.413714
O O1 0.637887 0.785103 0.572136
O O2 0.792465 0.745368 0.683916
O O3 0.558590 0.741768 0.629416
O O4 0.666436 0.000000 0.642671
O O5 0.659470 0.500000 0.939483
O O6 0.512914 0.275212 0.903357
O O7 0.672884 0.272041 0.889356
O O8 0.750000 0.250000 0.000000
O O9 0.320959 0.500000 0.437615
O O10 0.377431 0.687072 0.519458
O O11 0.171861 0.722691 0.415676
O O12 0.905739 0.500000 0.748824
O O13 0.875510 0.256270 0.790930
O O14 0.032014 0.249299 0.775614
O O15 0.627881 0.500000 0.163677
O O16 0.728484 0.748059 0.161295
O O17 0.159582 0.000000 0.828854
O O18 0.581931 0.500000 0.401679
#
# Coordination Sequence:
#
# PCOD9208677 Si02
#       7
#     8   8   8   8   8   8   8
#     4  12  24  38  58  84 114 148 187 232 281 336
#     4   9  20  36  56  84 120 153 189 234 276 325
#     4  10  21  38  59  84 114 147 185 230 280 336
#     4  11  23  40  60  83 111 146 188 236 285 335
#     4  10  21  39  60  85 115 151 191 233 281 333
#     4  10  21  39  60  85 115 151 191 233 281 333
#     4  10  21  38  59  84 114 147 185 230 280 336
#
# _framework density 19.673392
#
# number of rings (size 3 to 8) (size 9 to 14) (size 15 to 20)
#    0.000    1.714    0.000    5.571    0.000    8.571 
#    0.000    8.571    0.000    0.000    0.000    0.000 
#    0.000    0.000    0.000    0.000    0.000    0.000 
#
# Total GULP energy -156515.944612 kJ/mol
# GULP energy per Si atom -5589.855165 kJ/mol
# Density = 1.962861 g / cm^3
# Si number density = 19.673392 Si / 1000 Ang^3
#
#
#
# Elastic Constant Matrix: (Units=GPa)
#
#
# Indices 1 2 3 4 5 6 
#
# 1 116.8046 28.4213 22.1331 0.0000 25.3855 0.0000
# 2 28.4213 96.0227 28.8621 0.0000 13.1170 0.0000
# 3 22.1331 28.8621 56.6632 0.0000 21.0821 0.0000
# 4 0.0000 0.0000 0.0000 32.9339 0.0000 1.7662
# 5 25.3855 13.1170 21.0821 0.0000 18.7495 0.0000
# 6 0.0000 0.0000 0.0000 1.7662 0.0000 34.0498
#
#
#
# Elastic Compliance Matrix: (Units=1/GPa)
#
#
# Indices 1 2 3 4 5 6 
#
# 1 0.012664 -0.002101 0.003363 0.000000 -0.019458 0.000000
# 2 -0.002101 0.012724 -0.005858 0.000000 0.000529 0.000000
# 3 0.003363 -0.005858 0.033504 0.000000 -0.038127 0.000000
# 4 0.000000 0.000000 0.000000 0.030449 0.000000 -0.001579
# 5 -0.019458 0.000529 -0.038127 0.000000 0.122180 0.000000
# 6 0.000000 0.000000 0.000000 -0.001579 0.000000 0.029451
#
#
# Mechanical properties :
#
#
# Convention : Reuss Voigt Hill
#
# Bulk Modulus (GPa) = 20.12034 47.59149 33.85592
# Shear Modulus (GPa) = 18.74557 29.81824 24.28190
#
# Velocity S-wave (km/s) = 3.09016 3.89738 3.51700
# Velocity P-wave (km/s) = 4.79390 6.67053 5.80851
#
# Compressibility (1/GPa) = 0.04970095
#
# Stress axis : x y z
#
# Youngs Moduli (GPa) = 78.96305 78.58871 29.84738
#
# Poissons Ratio (x) = 0.16513 -0.10038
# Poissons Ratio (y) = 0.16592 0.17483
# Poissons Ratio (z) = -0.26556 0.46033
#
# Static dielectric constant tensor:
#      x y z
#    x 1.680390 0.000000 -0.005220 
#    y 0.000000 1.655300 0.000000 
#    z -0.005220 0.000000 1.713570 
# 
# From -- ./inp_files/375132.got.cif
#   From: 2010.05.17/outbox.cif.g08.bks.cpg/sg12_188_cif.got.tgz:375132.got - 2010.06.03 13:09:07.
