data_PCOD9208159
_publ_section_title
;
Structure prediction by ZEFSAII (Michael W. Deem and Ramdas Pophale) SiO2 
 PCOD9208159
Probable space group: C 2/M
;
_chemical_formula_sum "Si O2"
_cell_formula_units_Z 64
_cell_length_a 19.541795
_cell_length_b 18.041693
_cell_length_c 11.922031
_cell_angle_alpha 90.000000
_cell_angle_beta 50.914664
_cell_angle_gamma 90.000000
_cell_volume 3262.646244
_symmetry_space_group_name_H-M "C 2/M"
_symmetry_group_IT_number 12
_symmetry_cell_setting 'monoclinic'
loop_
_space_group_symop_operation_xyz
x,y,z
-x,y,-z
-x,-y,-z
x,-y,z
1/2+x,1/2+y,z
1/2-x,1/2+y,-z
1/2-x,1/2-y,-z
1/2+x,1/2-y,z
loop_
_atom_site_type_symbol
_atom_site_label
_atom_site_fract_x
_atom_site_fract_y
_atom_site_fract_z
Si Si1 0.350625 0.916784 0.191544
Si Si2 0.881766 0.082177 0.013689
Si Si3 0.646020 0.583043 0.471172
Si Si4 0.778408 0.304966 0.824703
Si Si5 0.643657 0.821789 0.022377
Si Si6 0.576712 0.379635 0.781782
Si Si7 0.086236 0.248326 0.485226
Si Si8 0.444825 0.216641 0.222815
O O1 0.249041 0.914029 0.335013
O O2 0.402926 0.854835 0.207822
O O3 0.384456 0.000000 0.174640
O O4 0.354287 0.894434 0.056710
O O5 0.797947 0.134228 0.089880
O O6 0.902360 0.079960 0.124920
O O7 0.863936 0.000000 0.988872
O O8 0.972258 0.111347 0.864623
O O9 0.613673 0.500000 0.470069
O O10 0.630147 0.590938 0.620962
O O11 0.603490 0.659007 0.467421
O O12 0.845378 0.326012 0.855462
O O13 0.832461 0.291627 0.655634
O O14 0.726699 0.228294 0.900711
O O15 0.549552 0.784701 0.094834
O O16 0.594188 0.292825 0.785666
O O17 0.073005 0.275936 0.625943
O O18 0.000000 0.262116 0.500000
#
# Coordination Sequence:
#
# PCOD9208159 Si02
#       8
#     8   8   8   8   8   8   8   8
#     4  11  25  42  63  94 127 166 212 260 316 371
#     4  11  22  37  61  93 125 162 203 255 317 372
#     4  10  22  39  61  93 131 163 203 259 313 370
#     4  11  23  40  64  91 123 163 211 256 302 377
#     4  11  22  41  64  88 122 166 208 258 306 361
#     4  10  21  37  62  92 129 161 207 255 312 371
#     4  11  23  42  66  94 123 164 212 252 312 378
#     4  11  23  39  67  93 121 165 208 259 309 369
#
# _framework density 19.615978999999999
#
# number of rings (size 3 to 8) (size 9 to 14) (size 15 to 20)
#    0.000    1.250    3.750    2.625    3.500    2.750 
#    0.000    0.000    0.000    0.750    0.000    0.000 
#    0.000    0.000    0.000    0.000    0.000    0.000 
#
# Total GULP energy -178648.974889 kJ/mol
# GULP energy per Si atom -5582.780465 kJ/mol
# Density = 1.957133 g / cm^3
# Si number density = 19.615979 Si / 1000 Ang^3
#
#
#
# Elastic Constant Matrix: (Units=GPa)
#
#
# Indices 1 2 3 4 5 6 
#
# 1 41.4950 21.7147 -3.5696 0.0000 3.9512 0.0000
# 2 21.7147 121.7208 2.9702 0.0000 12.1333 0.0000
# 3 -3.5696 2.9702 88.7346 0.0000 8.8700 0.0000
# 4 0.0000 0.0000 0.0000 8.8872 0.0000 -36.8865
# 5 3.9512 12.1333 8.8700 0.0000 18.5302 0.0000
# 6 0.0000 0.0000 0.0000 -36.8865 0.0000 -222.3619
#
#
#
# Elastic Compliance Matrix: (Units=1/GPa)
#
#
# Indices 1 2 3 4 5 6 
#
# 1 0.026923 -0.004487 0.001589 0.000000 -0.003564 0.000000
# 2 -0.004487 0.009544 0.000031 0.000000 -0.005307 0.000000
# 3 0.001589 0.000031 0.011940 0.000000 -0.006074 0.000000
# 4 0.000000 0.000000 0.000000 0.066640 0.000000 -0.011055
# 5 -0.003564 -0.005307 -0.006074 0.000000 0.061109 0.000000
# 6 0.000000 0.000000 0.000000 -0.011055 0.000000 -0.002663
#
#
# Mechanical properties :
#
#
# Convention : Reuss Voigt Hill
#
# Bulk Modulus (GPa) = 23.43339 32.68679 28.06009
# Shear Modulus (GPa) = 25.84652 -23.59988 1.12332
#
# Velocity S-wave (km/s) = 3.63385 -3.47233 0.75756
# Velocity P-wave (km/s) = 5.43861 0.78958 3.88600
#
# Compressibility (1/GPa) = 0.04267414
#
# Stress axis : x y z
#
# Youngs Moduli (GPa) = 37.14262 104.77555 83.75449
#
# Poissons Ratio (x) = 0.47008 -0.13313
# Poissons Ratio (y) = 0.16664 -0.00256
# Poissons Ratio (z) = -0.05904 -0.00320
#
# Static dielectric constant tensor:
#      x y z
#    x 1.683020 0.000000 0.002400 
#    y 0.000000 1.699340 0.000000 
#    z 0.002400 0.000000 1.675240 
# 
# From -- ./inp_files/168769.got.cif
#   From: 2010.05.17/outbox.cif.g08.bks.cpg/sg12_85_cif.got.tgz:168769.got - 2010.06.03 13:09:07.
