data_PCOD9208452
_publ_section_title
;
Structure prediction by ZEFSAII (Michael W. Deem and Ramdas Pophale) SiO2 
 PCOD9208452
Probable space group: C 2/M
;
_chemical_formula_sum "Si O2"
_cell_formula_units_Z 32
_cell_length_a 8.613865
_cell_length_b 27.856463
_cell_length_c 14.093557
_cell_angle_alpha 90.000000
_cell_angle_beta 26.964617
_cell_angle_gamma 90.000000
_cell_volume 1533.432428
_symmetry_space_group_name_H-M "C 2/M"
_symmetry_group_IT_number 12
_symmetry_cell_setting 'monoclinic'
loop_
_space_group_symop_operation_xyz
x,y,z
-x,y,-z
-x,-y,-z
x,-y,z
1/2+x,1/2+y,z
1/2-x,1/2+y,-z
1/2-x,1/2-y,-z
1/2+x,1/2-y,z
loop_
_atom_site_type_symbol
_atom_site_label
_atom_site_fract_x
_atom_site_fract_y
_atom_site_fract_z
Si Si1 0.924046 0.310454 0.837241
Si Si2 0.109212 0.500000 0.835376
Si Si3 0.086455 0.581118 0.709404
Si Si4 0.081070 0.500000 0.567891
Si Si5 0.802024 0.270568 0.703173
O O1 0.969718 0.282302 0.712548
O O2 0.944877 0.365898 0.799803
O O3 0.214036 0.286150 0.743936
O O4 0.564929 0.297383 0.083103
O O5 0.974197 0.546356 0.855160
O O6 0.519855 0.500000 0.617735
O O7 0.000000 0.500000 0.000000
O O8 0.500000 0.585207 0.500000
O O9 0.974213 0.550280 0.677567
O O10 0.000000 0.500000 0.500000
O O11 0.000000 0.286086 0.500000
#
# Coordination Sequence:
#
# PCOD9208452 Si02
#       5
#     8   4   8   4   8
#     4  10  21  39  58  87 117 160 200 244 298 354
#     4   9  19  41  58  86 116 152 195 244 301 377
#     4   9  19  39  62  81 120 155 193 245 305 362
#     4   9  19  39  64  92 117 150 199 255 308 357
#     4  10  21  38  57  82 125 154 202 249 291 347
#
# _framework density 20.868216
#
# number of rings (size 3 to 8) (size 9 to 14) (size 15 to 20)
#    0.000    2.500    0.000    3.000    0.000    1.000 
#   27.000    1.250    0.000    0.000    0.000    2.625 
#    0.000    0.000    0.000    0.000    0.000    0.000 
#
# Total GULP energy -89148.934519 kJ/mol
# GULP energy per Si atom -5571.808407 kJ/mol
# Density = 2.082072 g / cm^3
# Si number density = 20.868216 Si / 1000 Ang^3
#
#
#
# Elastic Constant Matrix: (Units=GPa)
#
#
# Indices 1 2 3 4 5 6 
#
# 1 116.9939 70.0819 28.3599 0.0000 25.1971 0.0000
# 2 70.0819 194.9716 31.0732 0.0000 20.8733 0.0000
# 3 28.3599 31.0732 90.7350 0.0000 26.0304 0.0000
# 4 0.0000 0.0000 0.0000 14.5634 0.0000 -5.8348
# 5 25.1971 20.8733 26.0304 0.0000 39.0086 0.0000
# 6 0.0000 0.0000 0.0000 -5.8348 0.0000 6.1429
#
#
#
# Elastic Compliance Matrix: (Units=1/GPa)
#
#
# Indices 1 2 3 4 5 6 
#
# 1 0.012086 -0.003623 -0.001055 0.000000 -0.005164 0.000000
# 2 -0.003623 0.006648 -0.000983 0.000000 -0.000561 0.000000
# 3 -0.001055 -0.000983 0.014026 0.000000 -0.008152 0.000000
# 4 0.000000 0.000000 0.000000 0.110849 0.000000 0.105289
# 5 -0.005164 -0.000561 -0.008152 0.000000 0.034711 0.000000
# 6 0.000000 0.000000 0.000000 0.105289 0.000000 0.262797
#
#
# Mechanical properties :
#
#
# Convention : Reuss Voigt Hill
#
# Bulk Modulus (GPa) = 46.64946 73.52559 60.08752
# Shear Modulus (GPa) = 10.87937 30.15535 20.51736
#
# Velocity S-wave (km/s) = 2.28576 3.80549 3.13898
# Velocity P-wave (km/s) = 5.41933 7.39045 6.48027
#
# Compressibility (1/GPa) = 0.02143648
#
# Stress axis : x y z
#
# Youngs Moduli (GPa) = 82.74218 150.42012 71.29425
#
# Poissons Ratio (x) = 0.54500 0.07524
# Poissons Ratio (y) = 0.29979 0.07011
# Poissons Ratio (z) = 0.08732 0.14792
#
# Static dielectric constant tensor:
#      x y z
#    x 1.796460 0.000000 -0.072760 
#    y 0.000000 1.732420 0.000000 
#    z -0.072760 0.000000 1.761200 
# 
# From -- ./inp_files/41215.got.cif
#   From: 2010.05.17/outbox.cif.g08.bks.cpg/sg12_21_cif.got.tgz:41215.got - 2010.06.03 13:09:07.
