data_PCOD9208504
_publ_section_title
;
Structure prediction by ZEFSAII (Michael W. Deem and Ramdas Pophale) SiO2 
 PCOD9208504
Probable space group: C 2/M
;
_chemical_formula_sum "Si O2"
_cell_formula_units_Z 32
_cell_length_a 18.846656
_cell_length_b 8.512583
_cell_length_c 11.613160
_cell_angle_alpha 90.000000
_cell_angle_beta 66.080421
_cell_angle_gamma 90.000000
_cell_volume 1703.127359
_symmetry_space_group_name_H-M "C 2/M"
_symmetry_group_IT_number 12
_symmetry_cell_setting 'monoclinic'
loop_
_space_group_symop_operation_xyz
x,y,z
-x,y,-z
-x,-y,-z
x,-y,z
1/2+x,1/2+y,z
1/2-x,1/2+y,-z
1/2-x,1/2-y,-z
1/2+x,1/2-y,z
loop_
_atom_site_type_symbol
_atom_site_label
_atom_site_fract_x
_atom_site_fract_y
_atom_site_fract_z
Si Si1 0.297620 0.189496 0.637005
Si Si2 0.176245 0.688467 0.118830
Si Si3 0.366324 0.689457 0.363351
Si Si4 0.984155 0.190216 0.878789
O O1 0.317847 0.242526 0.752074
O O2 0.354882 0.250531 0.500387
O O3 0.210602 0.239826 0.656892
O O4 0.298970 0.000000 0.634377
O O5 0.177955 0.500000 0.117319
O O6 0.097129 0.746808 0.113556
O O7 0.250000 0.750000 0.000000
O O8 0.366535 0.500000 0.364714
O O9 0.444468 0.742327 0.248947
O O10 0.981645 0.000000 0.878496
O O11 0.000000 0.238379 0.000000
#
# Coordination Sequence:
#
# PCOD9208504 Si02
#       4
#     8   8   8   8
#     4   9  19  36  56  79 109 143 178 221 272 320
#     4  11  23  38  57  81 110 144 183 227 275 326
#     4   9  18  34  57  81 106 142 183 220 265 322
#     4  10  21  38  58  80 111 147 182 225 275 324
#
# _framework density 18.788964
#
# number of rings (size 3 to 8) (size 9 to 14) (size 15 to 20)
#    0.000    2.250    0.000    2.250    0.000    8.500 
#    0.000   10.000    0.000    0.000    0.000    0.000 
#    0.000    0.000    0.000    0.000    0.000    0.000 
#
# Total GULP energy -89348.167696 kJ/mol
# GULP energy per Si atom -5584.260481 kJ/mol
# Density = 1.874620 g / cm^3
# Si number density = 18.788964 Si / 1000 Ang^3
#
#
#
# Elastic Constant Matrix: (Units=GPa)
#
#
# Indices 1 2 3 4 5 6 
#
# 1 155.7908 28.0257 140.1606 0.0000 0.5658 0.0000
# 2 28.0257 11.5827 34.8231 0.0000 0.5931 0.0000
# 3 140.1606 34.8231 220.1787 0.0000 -0.8509 0.0000
# 4 0.0000 0.0000 0.0000 31.2922 0.0000 -0.9116
# 5 0.5658 0.5931 -0.8509 0.0000 43.3114 0.0000
# 6 0.0000 0.0000 0.0000 -0.9116 0.0000 30.4491
#
#
#
# Elastic Compliance Matrix: (Units=1/GPa)
#
#
# Indices 1 2 3 4 5 6 
#
# 1 0.016416 -0.015811 -0.007950 0.000000 -0.000154 0.000000
# 2 -0.015811 0.180167 -0.018440 0.000000 -0.002623 0.000000
# 3 -0.007950 -0.018440 0.012521 0.000000 0.000602 0.000000
# 4 0.000000 0.000000 0.000000 0.031985 0.000000 0.000958
# 5 -0.000154 -0.002623 0.000602 0.000000 0.023138 0.000000
# 6 0.000000 0.000000 0.000000 0.000958 0.000000 0.032870
#
#
# Mechanical properties :
#
#
# Convention : Reuss Voigt Hill
#
# Bulk Modulus (GPa) = 8.01913 88.17456 48.09684
# Shear Modulus (GPa) = 11.81842 33.31337 22.56590
#
# Velocity S-wave (km/s) = 2.51073 4.21530 3.46933
# Velocity P-wave (km/s) = 3.56122 8.40967 6.45774
#
# Compressibility (1/GPa) = 0.12470186
#
# Stress axis : x y z
#
# Youngs Moduli (GPa) = 60.91520 5.55041 79.86330
#
# Poissons Ratio (x) = 0.08776 0.63492
# Poissons Ratio (y) = 0.96315 1.47268
# Poissons Ratio (z) = 0.48428 0.10235
#
# Static dielectric constant tensor:
#      x y z
#    x 1.622640 0.000000 0.005900 
#    y 0.000000 1.648300 0.000000 
#    z 0.005900 0.000000 1.634270 
# 
# From -- ./inp_files/109654.got.cif
#   From: 2010.05.17/outbox.cif.g08.bks.cpg/sg12_55_cif.got.tgz:109654.got - 2010.06.03 13:09:07.
