data_PCOD9208802
_publ_section_title
;
Structure prediction by ZEFSAII (Michael W. Deem and Ramdas Pophale) SiO2 
 PCOD9208802
Probable space group: C 2/M
;
_chemical_formula_sum "Si O2"
_cell_formula_units_Z 44
_cell_length_a 17.699575
_cell_length_b 23.588291
_cell_length_c 5.608753
_cell_angle_alpha 90.000000
_cell_angle_beta 124.038090
_cell_angle_gamma 90.000000
_cell_volume 1940.461192
_symmetry_space_group_name_H-M "C 2/M"
_symmetry_group_IT_number 12
_symmetry_cell_setting 'monoclinic'
loop_
_space_group_symop_operation_xyz
x,y,z
-x,y,-z
-x,-y,-z
x,-y,z
1/2+x,1/2+y,z
1/2-x,1/2+y,-z
1/2-x,1/2-y,-z
1/2+x,1/2-y,z
loop_
_atom_site_type_symbol
_atom_site_label
_atom_site_fract_x
_atom_site_fract_y
_atom_site_fract_z
Si Si1 0.352676 0.720195 0.466286
Si Si2 0.212016 0.000000 0.866623
Si Si3 0.399805 0.882537 0.918962
Si Si4 0.791974 0.901985 0.519570
Si Si5 0.404317 0.000000 0.203631
Si Si6 0.859112 0.263941 0.979449
Si Si7 0.404089 0.500000 0.958045
O O1 0.342248 0.654833 0.526008
O O2 0.249803 0.744722 0.247821
O O3 0.395230 0.749576 0.776315
O O4 0.392548 0.729808 0.270929
O O5 0.218365 0.943513 0.723097
O O6 0.308463 0.000000 0.181511
O O7 0.109886 0.000000 0.786601
O O8 0.311365 0.885264 0.587372
O O9 0.375491 0.830582 0.050719
O O10 0.500000 0.870745 0.000000
O O11 0.405163 0.943631 0.047867
O O12 0.848590 0.942591 0.793454
O O13 0.500000 0.000000 0.500000
O O14 0.500000 0.500000 0.000000
#
# Coordination Sequence:
#
# PCOD9208802 Si02
#       7
#     8   4   8   8   4   8   4
#     4   9  18  36  62  89 122 168 221 263 320 386
#     4   9  21  39  61  93 131 163 210 271 335 391
#     4  10  21  38  59  90 138 171 215 263 326 391
#     4   9  21  39  62  94 125 172 213 268 333 396
#     4  10  22  35  58  98 128 178 216 258 318 399
#     4   9  19  35  59  90 124 170 215 267 318 376
#     4  11  24  41  67  92 124 163 219 280 338 382
#
# _framework density 22.675022999999999
#
# number of rings (size 3 to 8) (size 9 to 14) (size 15 to 20)
#    0.000    2.545    0.000    0.818    5.091    2.909 
#    6.545    0.909    4.000    0.000    0.000    0.000 
#    0.000    0.000    0.000    0.000    0.000    0.000 
#
# Total GULP energy -122493.708797 kJ/mol
# GULP energy per Si atom -5567.895854 kJ/mol
# Density = 2.262341 g / cm^3
# Si number density = 22.675023 Si / 1000 Ang^3
#
#
#
# Elastic Constant Matrix: (Units=GPa)
#
#
# Indices 1 2 3 4 5 6 
#
# 1 94.1553 -5.2410 29.4126 0.0000 14.3612 0.0000
# 2 -5.2410 133.6053 35.8237 0.0000 -5.3759 0.0000
# 3 29.4126 35.8237 53.1861 0.0000 -14.6148 0.0000
# 4 0.0000 0.0000 0.0000 -10.0678 0.0000 -10.1030
# 5 14.3612 -5.3759 -14.6148 0.0000 32.2457 0.0000
# 6 0.0000 0.0000 0.0000 -10.1030 0.0000 28.5061
#
#
#
# Elastic Compliance Matrix: (Units=1/GPa)
#
#
# Indices 1 2 3 4 5 6 
#
# 1 0.019039 0.005007 -0.018278 0.000000 -0.015929 0.000000
# 2 0.005007 0.010511 -0.011399 0.000000 -0.005644 0.000000
# 3 -0.018278 -0.011399 0.043752 0.000000 0.026070 0.000000
# 4 0.000000 0.000000 0.000000 -0.073269 0.000000 -0.025968
# 5 -0.015929 -0.005644 0.026070 0.000000 0.048981 0.000000
# 6 0.000000 0.000000 0.000000 -0.025968 0.000000 0.025877
#
#
# Mechanical properties :
#
#
# Convention : Reuss Voigt Hill
#
# Bulk Modulus (GPa) = 41.73632 44.54859 43.14245
# Shear Modulus (GPa) = 37.81639 24.86689 31.34164
#
# Velocity S-wave (km/s) = 4.08825 3.31519 3.72184
# Velocity P-wave (km/s) = 6.38211 5.86030 6.12676
#
# Compressibility (1/GPa) = 0.02395994
#
# Stress axis : x y z
#
# Youngs Moduli (GPa) = 52.52416 95.14281 22.85631
#
# Poissons Ratio (x) = -0.47637 0.41777
# Poissons Ratio (y) = -0.26298 0.26054
# Poissons Ratio (z) = 0.96005 1.08455
#
# Static dielectric constant tensor:
#      x y z
#    x 1.950150 0.000000 -0.003110 
#    y 0.000000 1.768920 0.000000 
#    z -0.003110 0.000000 1.939110 
# 
# From -- ./inp_files/17044.got.cif
#   From: 2010.05.17/outbox.cif.g08.bks.cpg/sg12_9_cif.got.tgz:17044.got - 2010.06.03 13:09:07.
