data_PCOD9208658
_publ_section_title
;
Structure prediction by ZEFSAII (Michael W. Deem and Ramdas Pophale) SiO2 
 PCOD9208658
Probable space group: C 2/M
;
_chemical_formula_sum "Si O2"
_cell_formula_units_Z 56
_cell_length_a 26.187123
_cell_length_b 14.265196
_cell_length_c 17.526898
_cell_angle_alpha 90.000000
_cell_angle_beta 26.727530
_cell_angle_gamma 90.000000
_cell_volume 2944.693015
_symmetry_space_group_name_H-M "C 2/M"
_symmetry_group_IT_number 12
_symmetry_cell_setting 'monoclinic'
loop_
_space_group_symop_operation_xyz
x,y,z
-x,y,-z
-x,-y,-z
x,-y,z
1/2+x,1/2+y,z
1/2-x,1/2+y,-z
1/2-x,1/2-y,-z
1/2+x,1/2-y,z
loop_
_atom_site_type_symbol
_atom_site_label
_atom_site_fract_x
_atom_site_fract_y
_atom_site_fract_z
Si Si1 0.975862 0.764337 0.946797
Si Si2 0.388120 0.609509 0.352214
Si Si3 0.454376 0.609473 0.441150
Si Si4 0.872637 0.611269 0.322675
Si Si5 0.291346 0.763317 0.720543
Si Si6 0.358711 0.236387 0.801798
Si Si7 0.935896 0.611755 0.414658
O O1 0.030849 0.833087 0.811262
O O2 0.042307 0.667250 0.844722
O O3 0.842445 0.754070 0.111550
O O4 0.000000 0.798516 0.000000
O O5 0.392146 0.500000 0.325635
O O6 0.426136 0.618076 0.388945
O O7 0.257356 0.640490 0.518587
O O8 0.461062 0.500000 0.452186
O O9 0.355967 0.665945 0.616223
O O10 0.569712 0.667185 0.300481
O O11 0.880339 0.500000 0.299556
O O12 0.905424 0.630257 0.366991
O O13 0.321574 0.791896 0.766425
O O14 0.343364 0.838654 0.592234
O O15 0.445395 0.160910 0.721932
O O16 0.250000 0.250000 0.000000
O O17 0.939253 0.500000 0.421629
#
# Coordination Sequence:
#
# PCOD9208658 Si02
#       7
#     8   8   8   8   8   8   8
#     4  12  23  36  59  86 115 150 184 226 282 336
#     4  10  21  38  59  83 113 148 188 233 277 328
#     4  10  21  39  61  82 110 150 189 228 279 331
#     4  10  21  38  59  83 113 148 188 233 277 328
#     4  11  23  37  57  85 115 145 184 236 276 325
#     4  11  23  39  57  83 117 145 184 234 276 329
#     4  10  21  39  61  82 110 150 189 228 279 331
#
# _framework density 19.017261999999999
#
# number of rings (size 3 to 8) (size 9 to 14) (size 15 to 20)
#    0.000    1.429    0.000    7.286    0.000    4.571 
#    0.000    0.000    0.000    0.000    0.000    0.000 
#    0.000    0.000    0.000    0.000    0.000    0.000 
#
# Total GULP energy -156568.847724 kJ/mol
# GULP energy per Si atom -5591.744562 kJ/mol
# Density = 1.897398 g / cm^3
# Si number density = 19.017262 Si / 1000 Ang^3
#
#
#
# Elastic Constant Matrix: (Units=GPa)
#
#
# Indices 1 2 3 4 5 6 
#
# 1 69.6556 7.7428 29.2147 0.0000 -10.7687 0.0000
# 2 7.7428 73.1430 30.1307 0.0000 -7.9905 0.0000
# 3 29.2147 30.1307 137.4646 0.0000 -27.6687 0.0000
# 4 0.0000 0.0000 0.0000 1.1080 0.0000 -13.6712
# 5 -10.7687 -7.9905 -27.6687 0.0000 36.1990 0.0000
# 6 0.0000 0.0000 0.0000 -13.6712 0.0000 -0.6328
#
#
#
# Elastic Compliance Matrix: (Units=1/GPa)
#
#
# Indices 1 2 3 4 5 6 
#
# 1 0.015962 -0.000248 -0.002828 0.000000 0.002532 0.000000
# 2 -0.000248 0.015060 -0.003066 0.000000 0.000907 0.000000
# 3 -0.002828 -0.003066 0.009741 0.000000 0.005927 0.000000
# 4 0.000000 0.000000 0.000000 0.003373 0.000000 -0.072873
# 5 0.002532 0.000907 0.005927 0.000000 0.033109 0.000000
# 6 0.000000 0.000000 0.000000 -0.072873 0.000000 -0.005906
#
#
# Mechanical properties :
#
#
# Convention : Reuss Voigt Hill
#
# Bulk Modulus (GPa) = 35.11433 46.04886 40.58160
# Shear Modulus (GPa) = 53.69702 21.54651 37.62176
#
# Velocity S-wave (km/s) = 5.31951 3.36965 4.45263
# Velocity P-wave (km/s) = 7.49895 6.27744 6.91522
#
# Compressibility (1/GPa) = 0.02847840
#
# Stress axis : x y z
#
# Youngs Moduli (GPa) = 62.65055 66.40066 102.66248
#
# Poissons Ratio (x) = 0.01647 0.29036
# Poissons Ratio (y) = 0.01554 0.31473
# Poissons Ratio (z) = 0.17719 0.20356
#
# Static dielectric constant tensor:
#      x y z
#    x 1.654540 0.000000 0.004260 
#    y 0.000000 1.663250 0.000000 
#    z 0.004260 0.000000 1.614560 
# 
# From -- ./inp_files/189639.got.cif
#   From: 2010.05.17/outbox.cif.g08.bks.cpg/sg12_95_cif.got.tgz:189639.got - 2010.06.03 13:09:07.
