data_PCOD9208035
_publ_section_title
;
Structure prediction by ZEFSAII (Michael W. Deem and Ramdas Pophale) SiO2 
 PCOD9208035
Probable space group: C 2/M
;
_chemical_formula_sum "Si O2"
_cell_formula_units_Z 56
_cell_length_a 21.307630
_cell_length_b 31.316777
_cell_length_c 8.543657
_cell_angle_alpha 90.000000
_cell_angle_beta 151.054982
_cell_angle_gamma 90.000000
_cell_volume 2759.145100
_symmetry_space_group_name_H-M "C 2/M"
_symmetry_group_IT_number 12
_symmetry_cell_setting 'monoclinic'
loop_
_space_group_symop_operation_xyz
x,y,z
-x,y,-z
-x,-y,-z
x,-y,z
1/2+x,1/2+y,z
1/2-x,1/2+y,-z
1/2-x,1/2-y,-z
1/2+x,1/2-y,z
loop_
_atom_site_type_symbol
_atom_site_label
_atom_site_fract_x
_atom_site_fract_y
_atom_site_fract_z
Si Si1 0.283619 0.327287 0.849178
Si Si2 0.753503 0.116581 0.275500
Si Si3 0.889760 0.899944 0.873683
Si Si4 0.010536 0.342163 0.848223
Si Si5 0.332331 0.703342 0.299386
Si Si6 0.901817 0.253292 0.049623
Si Si7 0.935479 0.950808 0.528122
O O1 0.350895 0.368415 0.925691
O O2 0.131682 0.335335 0.529446
O O3 0.337547 0.315072 0.136109
O O4 0.319421 0.287531 0.813561
O O5 0.774947 0.097721 0.497402
O O6 0.825482 0.161797 0.397042
O O7 0.817729 0.081932 0.301785
O O8 0.602991 0.129445 0.941007
O O9 0.000000 0.881543 0.000000
O O10 0.957254 0.940152 0.103826
O O11 0.074305 0.294969 0.001672
O O12 0.000000 0.360082 0.000000
O O13 0.456587 0.733525 0.601531
O O14 0.195213 0.727804 0.028052
O O15 0.000000 0.943884 0.500000
O O16 0.894746 0.000000 0.450837
#
# Coordination Sequence:
#
# PCOD9208035 Si02
#       7
#     8   8   8   8   8   8   8
#     4  12  23  38  62  83 124 166 218 270 321 366
#     4  10  22  40  61  90 127 161 209 252 319 379
#     4  10  21  37  61  90 121 162 200 252 315 375
#     4  11  24  40  58  85 121 171 218 265 314 377
#     4  11  24  38  61  87 123 165 218 272 323 373
#     4  11  23  37  58  84 118 163 222 274 321 368
#     4  10  21  40  69 103 129 155 198 253 315 379
#
# _framework density 20.296142
#
# number of rings (size 3 to 8) (size 9 to 14) (size 15 to 20)
#    0.000    1.286    2.857    3.429    2.000    6.571 
#    0.000    0.000    0.000    1.286    0.000    3.000 
#    0.000    0.000    0.000    0.000    0.000    0.000 
#
# Total GULP energy -156162.361267 kJ/mol
# GULP energy per Si atom -5577.227188 kJ/mol
# Density = 2.024995 g / cm^3
# Si number density = 20.296142 Si / 1000 Ang^3
#
#
#
# Elastic Constant Matrix: (Units=GPa)
#
#
# Indices 1 2 3 4 5 6 
#
# 1 95.0624 49.5824 35.5566 0.0000 19.6115 0.0000
# 2 49.5824 107.4491 34.8879 0.0000 19.9340 0.0000
# 3 35.5566 34.8879 91.8670 0.0000 24.8385 0.0000
# 4 0.0000 0.0000 0.0000 20.8503 0.0000 -0.9193
# 5 19.6115 19.9340 24.8385 0.0000 35.5294 0.0000
# 6 0.0000 0.0000 0.0000 -0.9193 0.0000 19.8134
#
#
#
# Elastic Compliance Matrix: (Units=1/GPa)
#
#
# Indices 1 2 3 4 5 6 
#
# 1 0.015108 -0.005422 -0.002905 0.000000 -0.003266 0.000000
# 2 -0.005422 0.013011 -0.002069 0.000000 -0.002861 0.000000
# 3 -0.002905 -0.002069 0.014856 0.000000 -0.007621 0.000000
# 4 0.000000 0.000000 0.000000 0.048059 0.000000 0.002230
# 5 -0.003266 -0.002861 -0.007621 0.000000 0.036882 0.000000
# 6 0.000000 0.000000 0.000000 0.002230 0.000000 0.050574
#
#
# Mechanical properties :
#
#
# Convention : Reuss Voigt Hill
#
# Bulk Modulus (GPa) = 45.08128 59.38137 52.23133
# Shear Modulus (GPa) = 24.19219 26.86206 25.52713
#
# Velocity S-wave (km/s) = 3.45622 3.64195 3.55030
# Velocity P-wave (km/s) = 6.17958 6.85609 6.52661
#
# Compressibility (1/GPa) = 0.02218216
#
# Stress axis : x y z
#
# Youngs Moduli (GPa) = 66.18998 76.85551 67.31212
#
# Poissons Ratio (x) = 0.41674 0.19555
# Poissons Ratio (y) = 0.35891 0.13928
# Poissons Ratio (z) = 0.19229 0.15903
#
# Static dielectric constant tensor:
#      x y z
#    x 1.763850 0.000000 -0.025770 
#    y 0.000000 1.724830 0.000000 
#    z -0.025770 0.000000 1.829470 
# 
# From -- ./inp_files/91649.got.cif
#   From: 2010.05.17/outbox.cif.g08.bks.cpg/sg12_46_cif.got.tgz:91649.got - 2010.06.03 13:09:07.
