data_PCOD9208921
_publ_section_title
;
Structure prediction by ZEFSAII (Michael W. Deem and Ramdas Pophale) SiO2 
 PCOD9208921
Probable space group: C 2/M
;
_chemical_formula_sum "Si O2"
_cell_formula_units_Z 48
_cell_length_a 30.089894
_cell_length_b 7.820249
_cell_length_c 14.851826
_cell_angle_alpha 90.000000
_cell_angle_beta 38.433786
_cell_angle_gamma 90.000000
_cell_volume 2172.395744
_symmetry_space_group_name_H-M "C 2/M"
_symmetry_group_IT_number 12
_symmetry_cell_setting 'monoclinic'
loop_
_space_group_symop_operation_xyz
x,y,z
-x,y,-z
-x,-y,-z
x,-y,z
1/2+x,1/2+y,z
1/2-x,1/2+y,-z
1/2-x,1/2-y,-z
1/2+x,1/2-y,z
loop_
_atom_site_type_symbol
_atom_site_label
_atom_site_fract_x
_atom_site_fract_y
_atom_site_fract_z
Si Si1 0.054072 0.698743 0.487185
Si Si2 0.810882 0.695916 0.973447
Si Si3 0.933777 0.209217 0.041584
Si Si4 0.959902 0.196465 0.795236
Si Si5 0.221440 0.205032 0.643085
Si Si6 0.291827 0.208444 0.709834
O O1 0.063569 0.500000 0.446430
O O2 0.133463 0.772125 0.368455
O O3 0.000000 0.777106 0.500000
O O4 0.017635 0.708421 0.642762
O O5 0.829443 0.500000 0.926540
O O6 0.885001 0.795612 0.860115
O O7 0.750000 0.750000 0.000000
O O8 0.773477 0.722374 0.128633
O O9 0.857871 0.267998 0.203257
O O10 0.931680 0.000000 0.042676
O O11 0.946253 0.263932 0.918045
O O12 0.000000 0.259245 0.000000
O O13 0.983152 0.000000 0.766068
O O14 0.250000 0.250000 0.500000
O O15 0.277997 0.260093 0.629335
O O16 0.217257 0.000000 0.654392
O O17 0.290546 0.000000 0.717260
#
# Coordination Sequence:
#
# PCOD9208921 Si02
#       6
#     8   8   8   8   8   8
#     4  10  22  39  59  85 120 160 199 245 305 364
#     4  12  24  39  63  91 121 156 201 250 303 366
#     4   9  19  37  60  86 118 157 198 246 301 356
#     4  11  22  39  63  89 122 159 203 251 302 360
#     4  10  21  38  60  86 120 156 199 249 304 363
#     4  10  21  40  61  85 123 162 199 251 309 360
#
# _framework density 22.095421999999999
#
# number of rings (size 3 to 8) (size 9 to 14) (size 15 to 20)
#    0.000    1.667    1.667    3.000    2.333    3.000 
#    0.000    0.000    0.000    2.500    0.000    0.000 
#    0.000    0.000    0.000    0.000    0.000    0.000 
#
# Total GULP energy -134128.442965 kJ/mol
# GULP energy per Si atom -5588.685124 kJ/mol
# Density = 2.204513 g / cm^3
# Si number density = 22.095422 Si / 1000 Ang^3
#
#
#
# Elastic Constant Matrix: (Units=GPa)
#
#
# Indices 1 2 3 4 5 6 
#
# 1 92.8875 7.9137 8.0619 -0.0002 -0.7872 0.0000
# 2 7.9137 31.5238 -6.6920 -0.0013 -2.4996 0.0002
# 3 8.0619 -6.6920 78.9933 -0.0002 -4.4866 0.0000
# 4 -0.0002 -0.0013 -0.0002 25.4400 0.0002 8.5721
# 5 -0.7872 -2.4996 -4.4866 0.0002 44.0276 0.0000
# 6 0.0000 0.0002 0.0000 8.5721 0.0000 13.1129
#
#
#
# Elastic Compliance Matrix: (Units=1/GPa)
#
#
# Indices 1 2 3 4 5 6 
#
# 1 0.011152 -0.003108 -0.001408 0.000000 -0.000121 0.000000
# 2 -0.003108 0.033368 0.003267 0.000002 0.002172 -0.000002
# 3 -0.001408 0.003267 0.013165 0.000000 0.001502 0.000000
# 4 0.000000 0.000002 0.000000 0.050413 0.000000 -0.032955
# 5 -0.000121 0.002172 0.001502 0.000000 0.022987 0.000000
# 6 0.000000 -0.000002 0.000000 -0.032955 0.000000 0.097804
#
#
# Mechanical properties :
#
#
# Convention : Reuss Voigt Hill
#
# Bulk Modulus (GPa) = 18.12016 24.66352 21.39184
# Shear Modulus (GPa) = 20.01742 29.45751 24.73747
#
# Velocity S-wave (km/s) = 3.01317 3.65526 3.34963
# Velocity P-wave (km/s) = 4.50824 5.38526 4.96615
#
# Compressibility (1/GPa) = 0.05518715
#
# Stress axis : x y z
#
# Youngs Moduli (GPa) = 89.67239 29.96873 75.95821
#
# Poissons Ratio (x) = 0.09314 0.10697
# Poissons Ratio (y) = 0.27870 -0.24818
# Poissons Ratio (z) = 0.12628 -0.09792
#
# Static dielectric constant tensor:
#      x y z
#    x 1.830960 0.000000 0.013810 
#    y 0.000000 1.889720 0.000000 
#    z 0.013810 0.000000 1.780280 
# 
# From -- ./inp_files/244595.got.cif
#   From: 2010.05.17/outbox.cif.g08.bks.cpg/sg12_123_cif.got.tgz:244595.got - 2010.06.03 13:09:07.
