data_PCOD9208821
_publ_section_title
;
Structure prediction by ZEFSAII (Michael W. Deem and Ramdas Pophale) SiO2 
 PCOD9208821
Probable space group: C 2/M
;
_chemical_formula_sum "Si O2"
_cell_formula_units_Z 64
_cell_length_a 15.554621
_cell_length_b 23.898664
_cell_length_c 14.490588
_cell_angle_alpha 90.000000
_cell_angle_beta 149.535594
_cell_angle_gamma 90.000000
_cell_volume 2731.049608
_symmetry_space_group_name_H-M "C 2/M"
_symmetry_group_IT_number 12
_symmetry_cell_setting 'monoclinic'
loop_
_space_group_symop_operation_xyz
x,y,z
-x,y,-z
-x,-y,-z
x,-y,z
1/2+x,1/2+y,z
1/2-x,1/2+y,-z
1/2-x,1/2-y,-z
1/2+x,1/2-y,z
loop_
_atom_site_type_symbol
_atom_site_label
_atom_site_fract_x
_atom_site_fract_y
_atom_site_fract_z
Si Si1 0.388623 0.265784 0.550684
Si Si2 0.996337 0.169932 0.181784
Si Si3 0.689114 0.626503 0.632515
Si Si4 0.183508 0.891286 0.122208
Si Si5 0.177294 0.435722 0.076338
Si Si6 0.056742 0.061313 0.347282
Si Si7 0.141647 0.345874 0.544089
Si Si8 0.958335 0.435020 0.247532
O O1 0.250000 0.250000 0.500000
O O2 0.527347 0.297101 0.744840
O O3 0.303980 0.311740 0.405191
O O4 0.462900 0.211184 0.569751
O O5 0.037882 0.106452 0.250849
O O6 0.171997 0.183241 0.294340
O O7 0.852921 0.163977 0.973373
O O8 0.500000 0.624934 0.500000
O O9 0.815147 0.604899 0.828229
O O10 0.685746 0.582881 0.544515
O O11 0.324190 0.877950 0.329454
O O12 0.280837 0.931985 0.141287
O O13 0.000000 0.906690 0.000000
O O14 0.129833 0.500000 0.054209
O O15 0.373096 0.439537 0.225167
O O16 0.078769 0.417574 0.892688
O O17 0.098326 0.000000 0.351663
O O18 0.082524 0.390992 0.413079
O O19 0.012732 0.500000 0.299260
#
# Coordination Sequence:
#
# PCOD9208821 Si02
#       8
#     8   8   8   8   8   8   8   8
#     4   9  19  38  60  82 118 157 195 244 299 352
#     4   9  18  36  60  82 111 149 199 246 290 352
#     4   9  17  29  53  86 115 144 189 242 291 343
#     4  10  21  38  60  83 109 149 204 255 299 354
#     4   9  17  31  52  82 121 152 185 235 291 355
#     4   9  15  27  52  82 112 144 182 232 286 339
#     4  10  22  38  56  81 117 156 195 248 304 362
#     4  11  23  39  57  82 122 162 194 244 312 368
#
# _framework density 23.434213
#
# number of rings (size 3 to 8) (size 9 to 14) (size 15 to 20)
#    0.000    2.500    1.250    0.750    0.000    4.250 
#    2.250    3.125    2.750    2.250    0.000   16.625 
#    0.000    0.000    0.000    0.000    0.000    0.000 
#
# Total GULP energy -178326.151005 kJ/mol
# GULP energy per Si atom -5572.692219 kJ/mol
# Density = 2.338088 g / cm^3
# Si number density = 23.434213 Si / 1000 Ang^3
#
#
#
# Elastic Constant Matrix: (Units=GPa)
#
#
# Indices 1 2 3 4 5 6 
#
# 1 66.4087 -9.0527 44.9012 0.0000 -13.6031 0.0000
# 2 -9.0527 78.9693 56.7684 0.0000 -29.7160 0.0000
# 3 44.9012 56.7684 180.5798 0.0000 -33.6654 0.0000
# 4 0.0000 0.0000 0.0000 15.0718 0.0000 -2.4336
# 5 -13.6031 -29.7160 -33.6654 0.0000 51.5074 0.0000
# 6 0.0000 0.0000 0.0000 -2.4336 0.0000 68.7099
#
#
#
# Elastic Compliance Matrix: (Units=1/GPa)
#
#
# Indices 1 2 3 4 5 6 
#
# 1 0.023535 0.011264 -0.007997 0.000000 0.007487 0.000000
# 2 0.011264 0.024249 -0.008269 0.000000 0.011560 0.000000
# 3 -0.007997 -0.008269 0.010069 0.000000 -0.000301 0.000000
# 4 0.000000 0.000000 0.000000 0.066731 0.000000 0.002364
# 5 0.007487 0.011560 -0.000301 0.000000 0.027865 0.000000
# 6 0.000000 0.000000 0.000000 0.002364 0.000000 0.014638
#
#
# Mechanical properties :
#
#
# Convention : Reuss Voigt Hill
#
# Bulk Modulus (GPa) = 20.89893 56.79907 38.84900
# Shear Modulus (GPa) = 25.90158 42.61390 34.25774
#
# Velocity S-wave (km/s) = 3.32820 4.26895 3.82759
# Velocity P-wave (km/s) = 4.86895 6.97057 6.01230
#
# Compressibility (1/GPa) = 0.04784935
#
# Stress axis : x y z
#
# Youngs Moduli (GPa) = 42.49072 41.23964 99.31001
#
# Poissons Ratio (x) = -0.46453 0.79420
# Poissons Ratio (y) = -0.47862 0.82116
# Poissons Ratio (z) = 0.33980 0.34100
#
# Static dielectric constant tensor:
#      x y z
#    x 2.056940 0.000000 0.023720 
#    y 0.000000 1.948620 0.000000 
#    z 0.023720 0.000000 1.989920 
# 
# From -- ./inp_files/228190.got.cif
#   From: 2010.05.17/outbox.cif.g08.bks.cpg/sg12_115_cif.got.tgz:228190.got - 2010.06.03 13:09:07.
