data_PCOD9208234
_publ_section_title
;
Structure prediction by ZEFSAII (Michael W. Deem and Ramdas Pophale) SiO2 
 PCOD9208234
Probable space group: C 2/M
;
_chemical_formula_sum "Si O2"
_cell_formula_units_Z 48
_cell_length_a 30.219318
_cell_length_b 8.817605
_cell_length_c 15.422266
_cell_angle_alpha 90.000000
_cell_angle_beta 140.209474
_cell_angle_gamma 90.000000
_cell_volume 2629.975427
_symmetry_space_group_name_H-M "C 2/M"
_symmetry_group_IT_number 12
_symmetry_cell_setting 'monoclinic'
loop_
_space_group_symop_operation_xyz
x,y,z
-x,y,-z
-x,-y,-z
x,-y,z
1/2+x,1/2+y,z
1/2-x,1/2+y,-z
1/2-x,1/2-y,-z
1/2+x,1/2-y,z
loop_
_atom_site_type_symbol
_atom_site_label
_atom_site_fract_x
_atom_site_fract_y
_atom_site_fract_z
Si Si1 0.182807 0.181071 0.676177
Si Si2 0.576864 0.180590 0.861746
Si Si3 0.676587 0.682599 0.360893
Si Si4 0.324818 0.318892 0.135093
Si Si5 0.830147 0.181449 0.848573
Si Si6 0.575136 0.682667 0.362771
O O1 0.161134 0.211380 0.742396
O O2 0.253296 0.268068 0.760688
O O3 0.123614 0.219512 0.518006
O O4 0.196665 0.000000 0.689500
O O5 0.618685 0.247616 0.843055
O O6 0.498480 0.238200 0.742995
O O7 0.580062 0.000000 0.864189
O O8 0.615697 0.240974 0.005832
O O9 0.682290 0.500000 0.372563
O O10 0.750000 0.750000 0.500000
O O11 0.660086 0.725846 0.237225
O O12 0.617754 0.727120 0.340859
O O13 0.322787 0.500000 0.119071
O O14 0.250000 0.250000 0.000000
O O15 0.836558 0.000000 0.865591
O O16 0.565328 0.500000 0.346621
#
# Coordination Sequence:
#
# PCOD9208234 Si02
#       6
#     8   8   8   8   8   8
#     4  10  21  38  64  92 121 158 201 247 301 366
#     4  12  26  42  60  87 124 165 207 256 309 358
#     4  10  21  37  63  94 123 159 201 248 303 365
#     4  11  22  38  63  94 123 158 203 251 304 365
#     4  11  22  37  62  93 123 159 203 252 303 362
#     4  10  22  42  63  88 125 163 199 249 308 366
#
# _framework density 18.251121999999999
#
# number of rings (size 3 to 8) (size 9 to 14) (size 15 to 20)
#    0.000    1.333    3.333    2.500    0.000    4.000 
#    0.000    6.667    0.000    0.000    0.000    0.000 
#    0.000    0.000    0.000    0.000    0.000    0.000 
#
# Total GULP energy -134164.920785 kJ/mol
# GULP energy per Si atom -5590.205033 kJ/mol
# Density = 1.820958 g / cm^3
# Si number density = 18.251122 Si / 1000 Ang^3
#
#
#
# Elastic Constant Matrix: (Units=GPa)
#
#
# Indices 1 2 3 4 5 6 
#
# 1 164.4243 64.2836 89.0036 0.0000 -4.7880 0.0000
# 2 64.2836 68.1039 64.7676 0.0000 -3.6314 0.0000
# 3 89.0036 64.7676 138.4868 0.0000 -3.6954 0.0000
# 4 0.0000 0.0000 0.0000 34.1051 0.0000 6.6664
# 5 -4.7880 -3.6314 -3.6954 0.0000 38.0948 0.0000
# 6 0.0000 0.0000 0.0000 6.6664 0.0000 27.7723
#
#
#
# Elastic Compliance Matrix: (Units=1/GPa)
#
#
# Indices 1 2 3 4 5 6 
#
# 1 0.010683 -0.006384 -0.003871 0.000000 0.000359 0.000000
# 2 -0.006384 0.030327 -0.010051 0.000000 0.001114 0.000000
# 3 -0.003871 -0.010051 0.014408 0.000000 -0.000047 0.000000
# 4 0.000000 0.000000 0.000000 0.030765 0.000000 -0.007385
# 5 0.000359 0.001114 -0.000047 0.000000 0.026397 0.000000
# 6 0.000000 0.000000 0.000000 -0.007385 0.000000 0.037780
#
#
# Mechanical properties :
#
#
# Convention : Reuss Voigt Hill
#
# Bulk Modulus (GPa) = 67.53420 89.68050 78.60735
# Shear Modulus (GPa) = 25.52237 30.19180 27.85708
#
# Velocity S-wave (km/s) = 3.74358 4.07165 3.91106
# Velocity P-wave (km/s) = 7.46786 8.44678 7.97236
#
# Compressibility (1/GPa) = 0.01480731
#
# Stress axis : x y z
#
# Youngs Moduli (GPa) = 93.60295 32.97407 69.40533
#
# Poissons Ratio (x) = 0.21049 0.26867
# Poissons Ratio (y) = 0.59753 0.69759
# Poissons Ratio (z) = 0.36234 0.33142
#
# Static dielectric constant tensor:
#      x y z
#    x 1.612580 0.000000 -0.027080 
#    y 0.000000 1.615400 0.000000 
#    z -0.027080 0.000000 1.592830 
# 
# From -- ./inp_files/230403.got.cif
#   From: 2010.05.17/outbox.cif.g08.bks.cpg/sg12_116_cif.got.tgz:230403.got - 2010.06.03 13:09:07.
