data_PCOD9208706
_publ_section_title
;
Structure prediction by ZEFSAII (Michael W. Deem and Ramdas Pophale) SiO2 
 PCOD9208706
Probable space group: C 2/M
;
_chemical_formula_sum "Si O2"
_cell_formula_units_Z 58
_cell_length_a 21.002316
_cell_length_b 7.426197
_cell_length_c 18.254160
_cell_angle_alpha 90.000000
_cell_angle_beta 111.635674
_cell_angle_gamma 90.000000
_cell_volume 2646.469590
_symmetry_space_group_name_H-M "C 2/M"
_symmetry_group_IT_number 12
_symmetry_cell_setting 'monoclinic'
loop_
_space_group_symop_operation_xyz
x,y,z
-x,y,-z
-x,-y,-z
x,-y,z
1/2+x,1/2+y,z
1/2-x,1/2+y,-z
1/2-x,1/2-y,-z
1/2+x,1/2-y,z
loop_
_atom_site_type_symbol
_atom_site_label
_atom_site_fract_x
_atom_site_fract_y
_atom_site_fract_z
Si Si1 0.329362 0.786012 0.552009
Si Si2 0.680828 0.720649 0.711323
Si Si3 0.436978 0.216595 0.887915
Si Si4 0.500000 0.500000 0.000000
Si Si5 0.331125 0.781539 0.718100
Si Si6 0.815771 0.783511 0.122611
Si Si7 0.837431 0.712102 0.973767
Si Si8 0.924129 0.791679 0.455888
O O1 0.250000 0.750000 0.500000
O O2 0.340904 0.718011 0.639322
O O3 0.379716 0.712444 0.511362
O O4 0.339672 0.000000 0.556235
O O5 0.681789 0.500000 0.710071
O O6 0.757769 0.777443 0.720269
O O7 0.664460 0.776586 0.787656
O O8 0.624636 0.784232 0.628829
O O9 0.499727 0.341122 0.934907
O O10 0.395497 0.259462 0.796778
O O11 0.385847 0.283389 0.931129
O O12 0.449740 0.000000 0.897128
O O13 0.326987 0.000000 0.714689
O O14 0.738812 0.715092 0.073038
O O15 0.814067 0.000000 0.123958
O O16 0.856433 0.734571 0.066596
O O17 0.834585 0.500000 0.957679
O O18 0.000000 0.712401 0.500000
O O19 0.935296 0.000000 0.439453
#
# Coordination Sequence:
#
# PCOD9208706 Si02
#       8
#     8   8   8   2   8   8   8   8
#     4  11  21  36  62  95 125 161 208 265 318 373
#     4   9  15  30  55  83 113 154 203 246 304 370
#     4  10  21  41  62  83 119 162 204 257 313 370
#     4  12  26  40  60  90 112 156 210 252 312 388
#     4   9  17  34  61  86 116 157 205 257 315 369
#     4   9  16  27  50  80 109 143 188 240 290 348
#     4   9  17  30  50  77 110 148 183 233 303 353
#     4  10  21  38  59  84 123 168 203 246 313 383
#
# _framework density 21.915989
#
# number of rings (size 3 to 8) (size 9 to 14) (size 15 to 20)
#    0.000    2.345    2.759    0.621    0.966    0.276 
#    2.483    2.069    3.034    1.655    0.000    0.000 
#    0.000    0.000    0.000    0.000    0.000    0.000 
#
# Total GULP energy -161549.529498 kJ/mol
# GULP energy per Si atom -5570.673431 kJ/mol
# Density = 2.186611 g / cm^3
# Si number density = 21.915989 Si / 1000 Ang^3
#
#
#
# Elastic Constant Matrix: (Units=GPa)
#
#
# Indices 1 2 3 4 5 6 
#
# 1 67.8366 -4.6262 40.0005 0.0000 -0.4244 0.0000
# 2 -4.6262 82.6105 8.4286 0.0000 11.5364 0.0000
# 3 40.0005 8.4286 193.8466 0.0000 2.6229 0.0000
# 4 0.0000 0.0000 0.0000 9.2261 0.0000 -9.3289
# 5 -0.4244 11.5364 2.6229 0.0000 37.9382 0.0000
# 6 0.0000 0.0000 0.0000 -9.3289 0.0000 -3.7392
#
#
#
# Elastic Compliance Matrix: (Units=1/GPa)
#
#
# Indices 1 2 3 4 5 6 
#
# 1 0.016923 0.001305 -0.003549 0.000000 0.000038 0.000000
# 2 0.001305 0.012791 -0.000774 0.000000 -0.003821 0.000000
# 3 -0.003549 -0.000774 0.005928 0.000000 -0.000214 0.000000
# 4 0.000000 0.000000 0.000000 0.030768 0.000000 -0.076764
# 5 0.000038 -0.003821 -0.000214 0.000000 0.027536 0.000000
# 6 0.000000 0.000000 0.000000 -0.076764 0.000000 -0.075918
#
#
# Mechanical properties :
#
#
# Convention : Reuss Voigt Hill
#
# Bulk Modulus (GPa) = 33.77838 47.98886 40.88362
# Shear Modulus (GPa) = 147.34939 28.71775 88.03357
#
# Velocity S-wave (km/s) = 8.20851 3.62381 6.34475
# Velocity P-wave (km/s) = 10.26088 6.28121 8.50704
#
# Compressibility (1/GPa) = 0.02960474
#
# Stress axis : x y z
#
# Youngs Moduli (GPa) = 59.08962 78.18221 168.69994
#
# Poissons Ratio (x) = -0.10199 0.59879
# Poissons Ratio (y) = -0.07708 0.13051
# Poissons Ratio (z) = 0.20973 0.06048
#
# Static dielectric constant tensor:
#      x y z
#    x 1.844300 0.000000 0.074720 
#    y 0.000000 1.859590 0.000000 
#    z 0.074720 0.000000 1.817610 
# 
# From -- ./inp_files/281552.got.cif
#   From: 2010.05.17/outbox.cif.g08.bks.cpg/sg12_141_cif.got.tgz:281552.got - 2010.06.03 13:09:07.
