data_PCOD9208707
_publ_section_title
;
Structure prediction by ZEFSAII (Michael W. Deem and Ramdas Pophale) SiO2 
 PCOD9208707
Probable space group: C 2/M
;
_chemical_formula_sum "Si O2"
_cell_formula_units_Z 56
_cell_length_a 17.206191
_cell_length_b 19.750803
_cell_length_c 14.375246
_cell_angle_alpha 90.000000
_cell_angle_beta 35.839210
_cell_angle_gamma 90.000000
_cell_volume 2860.362106
_symmetry_space_group_name_H-M "C 2/M"
_symmetry_group_IT_number 12
_symmetry_cell_setting 'monoclinic'
loop_
_space_group_symop_operation_xyz
x,y,z
-x,y,-z
-x,-y,-z
x,-y,z
1/2+x,1/2+y,z
1/2-x,1/2+y,-z
1/2-x,1/2-y,-z
1/2+x,1/2-y,z
loop_
_atom_site_type_symbol
_atom_site_label
_atom_site_fract_x
_atom_site_fract_y
_atom_site_fract_z
Si Si1 0.623952 0.920886 0.948562
Si Si2 0.894105 0.924318 0.246260
Si Si3 0.317508 0.575820 0.102896
Si Si4 0.230452 0.277182 0.162755
Si Si5 0.427286 0.193553 0.866288
Si Si6 0.235236 0.327870 0.536857
Si Si7 0.152249 0.845233 0.369996
O O1 0.755201 0.902191 0.764834
O O2 0.610450 0.000000 0.982430
O O3 0.500000 0.901222 0.000000
O O4 0.635406 0.874865 0.029775
O O5 0.858332 0.925279 0.171759
O O6 0.803087 0.872418 0.390624
O O7 0.870932 0.000000 0.306507
O O8 0.052929 0.912708 0.088107
O O9 0.264419 0.500000 0.132981
O O10 0.230858 0.643012 0.180943
O O11 0.130909 0.274027 0.171460
O O12 0.185999 0.227136 0.287975
O O13 0.377536 0.249708 0.990079
O O14 0.577536 0.169173 0.707141
O O15 0.250000 0.250000 0.500000
O O16 0.312378 0.342858 0.556622
O O17 0.000000 0.859602 0.500000
#
# Coordination Sequence:
#
# PCOD9208707 Si02
#       7
#     8   8   8   8   8   8   8
#     4  10  21  41  64  87 122 164 207 251 300 369
#     4   9  20  36  56  84 116 150 194 253 303 359
#     4   9  18  37  60  83 114 157 200 246 309 365
#     4  10  21  38  59  84 124 154 203 256 300 358
#     4  10  22  38  58  88 115 160 201 251 301 361
#     4  12  22  35  59  86 115 154 205 243 304 364
#     4  11  24  40  60  90 126 161 200 256 311 364
#
# _framework density 19.577940000000002
#
# number of rings (size 3 to 8) (size 9 to 14) (size 15 to 20)
#    0.000    1.857    1.429    3.429    0.000    5.429 
#    0.000    1.429    0.000    2.143    0.000    0.000 
#    0.000    0.000    0.000    0.000    0.000    0.000 
#
# Total GULP energy -155978.898608 kJ/mol
# GULP energy per Si atom -5570.674950 kJ/mol
# Density = 1.953338 g / cm^3
# Si number density = 19.577940 Si / 1000 Ang^3
#
#
#
# Elastic Constant Matrix: (Units=GPa)
#
#
# Indices 1 2 3 4 5 6 
#
# 1 32.1177 1.3738 33.6852 0.0016 0.2642 0.0002
# 2 1.3738 90.7636 24.3934 0.0004 6.3997 0.0003
# 3 33.6852 24.3934 105.4957 0.0013 0.5084 0.0003
# 4 0.0016 0.0004 0.0013 29.0482 -0.0014 6.9726
# 5 0.2642 6.3997 0.5084 -0.0014 23.4891 -0.0002
# 6 0.0002 0.0003 0.0003 6.9726 -0.0002 29.5993
#
#
#
# Elastic Compliance Matrix: (Units=1/GPa)
#
#
# Indices 1 2 3 4 5 6 
#
# 1 0.047929 0.003700 -0.016154 -0.000002 -0.001198 0.000000
# 2 0.003700 0.012270 -0.004003 0.000000 -0.003298 0.000000
# 3 -0.016154 -0.004003 0.015558 0.000000 0.000936 0.000000
# 4 -0.000002 0.000000 0.000000 0.036489 0.000002 -0.008596
# 5 -0.001198 -0.003298 0.000936 0.000002 0.043465 0.000000
# 6 0.000000 0.000000 0.000000 -0.008596 0.000000 0.035809
#
#
# Mechanical properties :
#
#
# Convention : Reuss Voigt Hill
#
# Bulk Modulus (GPa) = 23.34002 38.58688 30.96345
# Shear Modulus (GPa) = 20.94552 27.68896 24.31724
#
# Velocity S-wave (km/s) = 3.27441 3.76479 3.52813
# Velocity P-wave (km/s) = 5.12281 6.21694 5.69620
#
# Compressibility (1/GPa) = 0.04284487
#
# Stress axis : x y z
#
# Youngs Moduli (GPa) = 20.86404 81.49995 64.27509
#
# Poissons Ratio (x) = -0.30159 1.03830
# Poissons Ratio (y) = -0.07721 0.25728
# Poissons Ratio (z) = 0.33704 0.32623
#
# Static dielectric constant tensor:
#      x y z
#    x 1.691920 0.000000 -0.054880 
#    y 0.000000 1.679940 0.000000 
#    z -0.054880 0.000000 0.935900 
# 
# From -- ./inp_files/227598.got.cif
#   From: 2010.05.17/outbox.cif.g08.bks.cpg/sg12_114_cif.got.tgz:227598.got - 2010.06.03 13:09:07.
