data_PCOD9208640
_publ_section_title
;
Structure prediction by ZEFSAII (Michael W. Deem and Ramdas Pophale) SiO2 
 PCOD9208640
Probable space group: C 2/M
;
_chemical_formula_sum "Si O2"
_cell_formula_units_Z 64
_cell_length_a 29.290596
_cell_length_b 8.887868
_cell_length_c 14.514523
_cell_angle_alpha 90.000000
_cell_angle_beta 121.085489
_cell_angle_gamma 90.000000
_cell_volume 3235.967525
_symmetry_space_group_name_H-M "C 2/M"
_symmetry_group_IT_number 12
_symmetry_cell_setting 'monoclinic'
loop_
_space_group_symop_operation_xyz
x,y,z
-x,y,-z
-x,-y,-z
x,-y,z
1/2+x,1/2+y,z
1/2-x,1/2+y,-z
1/2-x,1/2-y,-z
1/2+x,1/2-y,z
loop_
_atom_site_type_symbol
_atom_site_label
_atom_site_fract_x
_atom_site_fract_y
_atom_site_fract_z
Si Si1 0.144127 0.319392 0.122173
Si Si2 0.925559 0.826932 0.480454
Si Si3 0.323729 0.326881 0.514002
Si Si4 0.494649 0.180735 0.700545
Si Si5 0.887127 0.318219 0.117625
Si Si6 0.743320 0.179195 0.708165
Si Si7 0.898625 0.319956 0.732658
Si Si8 0.655298 0.681410 0.750944
O O1 0.153371 0.500000 0.132494
O O2 0.198365 0.237477 0.206240
O O3 0.102200 0.286178 0.159992
O O4 0.125064 0.278044 0.000457
O O5 0.874619 0.823298 0.496959
O O6 0.972614 0.740135 0.580260
O O7 0.899458 0.769923 0.358651
O O8 0.941349 0.000000 0.485345
O O9 0.308611 0.500000 0.512901
O O10 0.277550 0.239301 0.412319
O O11 0.347368 0.253057 0.630171
O O12 0.553239 0.229706 0.791543
O O13 0.451406 0.229158 0.732846
O O14 0.494498 0.000000 0.697362
O O15 0.883498 0.500000 0.122315
O O16 0.847498 0.241052 0.148589
O O17 0.703411 0.248434 0.743075
O O18 0.740367 0.000000 0.706310
O O19 0.894483 0.500000 0.716990
O O20 0.658226 0.500000 0.749571
#
# Coordination Sequence:
#
# PCOD9208640 Si02
#       8
#     8   8   8   8   8   8   8   8
#     4  10  22  39  56  77 109 147 189 231 270 320
#     4   8  16  31  52  79 108 139 174 214 267 329
#     4   9  17  32  55  83 114 144 176 218 271 330
#     4   9  18  33  55  83 112 142 179 224 271 318
#     4  10  22  38  55  79 110 145 187 231 272 319
#     4  11  22  37  59  84 110 141 179 225 277 329
#     4   9  18  34  57  83 111 146 184 224 271 320
#     4  10  21  38  59  82 110 144 181 223 273 329
#
# _framework density 19.777701
#
# number of rings (size 3 to 8) (size 9 to 14) (size 15 to 20)
#    0.000    2.500    0.000    2.625    0.000    7.000 
#    0.000    5.000    0.000    0.000    0.000    5.250 
#    0.000    0.000    0.000    0.000    0.000    0.000 
#
# Total GULP energy -178669.805448 kJ/mol
# GULP energy per Si atom -5583.431420 kJ/mol
# Density = 1.973269 g / cm^3
# Si number density = 19.777701 Si / 1000 Ang^3
#
#
#
# Elastic Constant Matrix: (Units=GPa)
#
#
# Indices 1 2 3 4 5 6 
#
# 1 57.3809 11.5059 16.0991 0.0000 -9.4519 0.0000
# 2 11.5059 24.8109 13.3906 0.0000 -3.8618 0.0000
# 3 16.0991 13.3906 65.8038 0.0000 -17.4857 0.0000
# 4 0.0000 0.0000 0.0000 26.8337 0.0000 -0.3191
# 5 -9.4519 -3.8618 -17.4857 0.0000 37.5229 0.0000
# 6 0.0000 0.0000 0.0000 -0.3191 0.0000 17.0311
#
#
#
# Elastic Compliance Matrix: (Units=1/GPa)
#
#
# Indices 1 2 3 4 5 6 
#
# 1 0.020163 -0.007470 -0.002588 0.000000 0.003104 0.000000
# 2 -0.007470 0.048051 -0.008145 0.000000 -0.000732 0.000000
# 3 -0.002588 -0.008145 0.019507 0.000000 0.007600 0.000000
# 4 0.000000 0.000000 0.000000 0.037275 0.000000 0.000698
# 5 0.003104 -0.000732 0.007600 0.000000 0.030899 0.000000
# 6 0.000000 0.000000 0.000000 0.000698 0.000000 0.058729
#
#
# Mechanical properties :
#
#
# Convention : Reuss Voigt Hill
#
# Bulk Modulus (GPa) = 19.48780 25.55409 22.52094
# Shear Modulus (GPa) = 18.64737 23.41088 21.02912
#
# Velocity S-wave (km/s) = 3.07391 3.44423 3.26433
# Velocity P-wave (km/s) = 4.74061 5.36336 5.06157
#
# Compressibility (1/GPa) = 0.05131416
#
# Stress axis : x y z
#
# Youngs Moduli (GPa) = 49.59639 20.81119 51.26426
#
# Poissons Ratio (x) = 0.15547 0.13266
# Poissons Ratio (y) = 0.37051 0.41754
# Poissons Ratio (z) = 0.12835 0.16950
#
# Static dielectric constant tensor:
#      x y z
#    x 1.732770 0.000000 -0.012120 
#    y 0.000000 1.663690 0.000000 
#    z -0.012120 0.000000 1.677770 
# 
# From -- ./inp_files/249946.got.cif
#   From: 2010.05.17/outbox.cif.g08.bks.cpg/sg12_125_cif.got.tgz:249946.got - 2010.06.03 13:09:07.
