data_PCOD9208904
_publ_section_title
;
Structure prediction by ZEFSAII (Michael W. Deem and Ramdas Pophale) SiO2 
 PCOD9208904
Probable space group: C 2/M
;
_chemical_formula_sum "Si O2"
_cell_formula_units_Z 56
_cell_length_a 29.325199
_cell_length_b 8.759914
_cell_length_c 20.961064
_cell_angle_alpha 90.000000
_cell_angle_beta 30.989632
_cell_angle_gamma 90.000000
_cell_volume 2772.443160
_symmetry_space_group_name_H-M "C 2/M"
_symmetry_group_IT_number 12
_symmetry_cell_setting 'monoclinic'
loop_
_space_group_symop_operation_xyz
x,y,z
-x,y,-z
-x,-y,-z
x,-y,z
1/2+x,1/2+y,z
1/2-x,1/2+y,-z
1/2-x,1/2-y,-z
1/2+x,1/2-y,z
loop_
_atom_site_type_symbol
_atom_site_label
_atom_site_fract_x
_atom_site_fract_y
_atom_site_fract_z
Si Si1 0.367900 0.319032 0.456289
Si Si2 0.232817 0.819800 0.808442
Si Si3 0.687287 0.318426 0.724809
Si Si4 0.407233 0.318525 0.643644
Si Si5 0.557663 0.182888 0.264516
Si Si6 0.087659 0.322817 0.728830
Si Si7 0.380175 0.822116 0.946381
O O1 0.359536 0.500000 0.475272
O O2 0.285859 0.232591 0.586297
O O3 0.461407 0.260487 0.372117
O O4 0.370173 0.276647 0.378516
O O5 0.177981 0.779593 0.810640
O O6 0.325355 0.731108 0.698573
O O7 0.250702 0.000000 0.784880
O O8 0.180471 0.775976 0.934871
O O9 0.677510 0.500000 0.728781
O O10 0.620831 0.233908 0.757113
O O11 0.500000 0.274601 0.500000
O O12 0.407006 0.500000 0.653352
O O13 0.400318 0.236165 0.720006
O O14 0.615569 0.224887 0.132878
O O15 0.545913 0.000000 0.276820
O O16 0.112572 0.500000 0.689135
O O17 0.981913 0.311640 0.847918
O O18 0.352701 0.000000 0.983276
#
# Coordination Sequence:
#
# PCOD9208904 Si02
#       7
#     8   8   8   8   8   8   8
#     4  11  21  35  58  88 120 154 193 240 292 346
#     4  11  25  41  60  85 116 155 195 240 290 342
#     4  11  23  38  56  83 118 156 197 242 293 346
#     4  11  24  41  63  91 120 152 191 235 287 346
#     4  10  21  39  63  89 118 154 193 237 291 345
#     4  10  21  38  60  86 116 154 196 240 292 346
#     4   9  21  41  62  85 115 151 194 240 285 342
#
# _framework density 20.198791
#
# number of rings (size 3 to 8) (size 9 to 14) (size 15 to 20)
#    0.000    1.571    0.000    5.571    0.000   10.286 
#    0.000    2.857    0.000    0.000    0.000    0.000 
#    0.000    0.000    0.000    0.000    0.000    0.000 
#
# Total GULP energy -156599.641703 kJ/mol
# GULP energy per Si atom -5592.844347 kJ/mol
# Density = 2.015282 g / cm^3
# Si number density = 20.198791 Si / 1000 Ang^3
#
#
#
# Elastic Constant Matrix: (Units=GPa)
#
#
# Indices 1 2 3 4 5 6 
#
# 1 84.2667 6.1069 -4.7662 -0.0057 16.8636 0.0012
# 2 6.1069 30.2923 1.2194 -0.0069 5.8145 0.0050
# 3 -4.7662 1.2194 39.0289 -0.0136 16.1433 0.0072
# 4 -0.0057 -0.0069 -0.0136 25.4131 0.0012 -3.2382
# 5 16.8636 5.8145 16.1433 0.0012 16.6034 0.0014
# 6 0.0012 0.0050 0.0072 -3.2382 0.0014 34.3209
#
#
#
# Elastic Compliance Matrix: (Units=1/GPa)
#
#
# Indices 1 2 3 4 5 6 
#
# 1 0.021091 0.002939 0.019688 0.000018 -0.041594 -0.000002
# 2 0.002939 0.036888 0.009676 0.000016 -0.025311 -0.000005
# 3 0.019688 0.009676 0.062553 0.000043 -0.084205 -0.000008
# 4 0.000018 0.000016 0.000043 0.039829 -0.000069 0.003758
# 5 -0.041594 -0.025311 -0.084205 -0.000069 0.193210 0.000008
# 6 -0.000002 -0.000005 -0.000008 0.003758 0.000008 0.029491
#
#
# Mechanical properties :
#
#
# Convention : Reuss Voigt Hill
#
# Bulk Modulus (GPa) = 5.40134 17.63423 11.51778
# Shear Modulus (GPa) = 13.15202 25.33599 19.24401
#
# Velocity S-wave (km/s) = 2.55449 3.54550 3.08998
# Velocity P-wave (km/s) = 3.37349 5.05074 4.29479
#
# Compressibility (1/GPa) = 0.18513936
#
# Stress axis : x y z
#
# Youngs Moduli (GPa) = 47.41251 27.10904 15.98632
#
# Poissons Ratio (x) = -0.07968 -0.31474
# Poissons Ratio (y) = -0.13936 -0.15468
# Poissons Ratio (z) = -0.93346 -0.26230
#
# Static dielectric constant tensor:
#      x y z
#    x 1.715330 0.000000 0.009100 
#    y 0.000000 1.672050 0.000000 
#    z 0.009100 0.000000 1.694610 
# 
# From -- ./inp_files/292387.got.cif
#   From: 2010.05.17/outbox.cif.g08.bks.cpg/sg12_147_cif.got.tgz:292387.got - 2010.06.03 13:09:07.
