data_PCOD9208502
_publ_section_title
;
Structure prediction by ZEFSAII (Michael W. Deem and Ramdas Pophale) SiO2 
 PCOD9208502
Probable space group: C 2/M
;
_chemical_formula_sum "Si O2"
_cell_formula_units_Z 56
_cell_length_a 16.057386
_cell_length_b 7.752188
_cell_length_c 20.089663
_cell_angle_alpha 90.000000
_cell_angle_beta 57.463615
_cell_angle_gamma 90.000000
_cell_volume 2108.264831
_symmetry_space_group_name_H-M "C 2/M"
_symmetry_group_IT_number 12
_symmetry_cell_setting 'monoclinic'
loop_
_space_group_symop_operation_xyz
x,y,z
-x,y,-z
-x,-y,-z
x,-y,z
1/2+x,1/2+y,z
1/2-x,1/2+y,-z
1/2-x,1/2-y,-z
1/2+x,1/2-y,z
loop_
_atom_site_type_symbol
_atom_site_label
_atom_site_fract_x
_atom_site_fract_y
_atom_site_fract_z
Si Si1 0.291636 0.195970 0.553546
Si Si2 0.901543 0.290690 0.162766
Si Si3 0.997499 0.293518 0.737680
Si Si4 0.511078 0.700003 0.590898
Si Si5 0.206688 0.800470 0.305010
Si Si6 0.399126 0.206993 0.979110
Si Si7 0.799816 0.292827 0.882533
O O1 0.250000 0.250000 0.500000
O O2 0.090652 0.283905 0.508925
O O3 0.258703 0.300109 0.632571
O O4 0.266325 0.000000 0.577847
O O5 0.893493 0.500000 0.158334
O O6 0.951321 0.259519 0.213913
O O7 0.987624 0.229029 0.075115
O O8 0.790911 0.220536 0.221821
O O9 0.999092 0.500000 0.727901
O O10 0.046141 0.210215 0.652567
O O11 0.882791 0.234160 0.794778
O O12 0.503076 0.500000 0.575015
O O13 0.401882 0.780850 0.643114
O O14 0.194643 0.000000 0.290464
O O15 0.345500 0.268175 0.933951
O O16 0.407953 0.000000 0.973076
O O17 0.314870 0.241056 0.070403
O O18 0.802392 0.500000 0.882374
#
# Coordination Sequence:
#
# PCOD9208502 Si02
#       7
#     8   8   8   8   8   8   8
#     4  12  25  41  62  85 109 137 173 216 262 313
#     4   8  15  30  52  75  99 133 175 217 264 315
#     4   9  17  31  52  75 102 139 181 222 266 319
#     4  11  23  37  55  81 111 142 178 218 262 314
#     4  10  21  38  58  80 110 144 177 217 264 314
#     4   8  13  23  42  68  96 127 166 211 261 316
#     4   8  14  24  40  67 100 131 166 213 268 316
#
# _framework density 26.562125999999999
#
# number of rings (size 3 to 8) (size 9 to 14) (size 15 to 20)
#    0.000    2.571    0.000    4.714    0.000    4.571 
#    0.000    2.857    0.000    0.857    0.000    6.000 
#    0.000    0.000    0.000    0.000    0.000    0.000 
#
# Total GULP energy -156578.524994 kJ/mol
# GULP energy per Si atom -5592.090178 kJ/mol
# Density = 2.650167 g / cm^3
# Si number density = 26.562126 Si / 1000 Ang^3
#
#
#
# Elastic Constant Matrix: (Units=GPa)
#
#
# Indices 1 2 3 4 5 6 
#
# 1 122.3001 3.3886 33.7196 0.0001 -38.0467 0.0002
# 2 3.3886 60.4479 1.4730 0.0002 -4.1150 0.0007
# 3 33.7196 1.4730 200.7436 0.0000 -28.5993 0.0001
# 4 0.0001 0.0002 0.0000 27.1381 0.0000 -5.6543
# 5 -38.0467 -4.1150 -28.5993 0.0000 58.5818 0.0001
# 6 0.0002 0.0007 0.0001 -5.6543 0.0001 14.3849
#
#
#
# Elastic Compliance Matrix: (Units=1/GPa)
#
#
# Indices 1 2 3 4 5 6 
#
# 1 0.010379 -0.000131 -0.000842 0.000000 0.006320 0.000000
# 2 -0.000131 0.016625 0.000058 0.000000 0.001111 -0.000001
# 3 -0.000842 0.000058 0.005422 0.000000 0.002104 0.000000
# 4 0.000000 0.000000 0.000000 0.040136 0.000000 0.015776
# 5 0.006320 0.001111 0.002104 0.000000 0.022280 0.000000
# 6 0.000000 -0.000001 0.000000 0.015776 0.000000 0.075718
#
#
# Mechanical properties :
#
#
# Convention : Reuss Voigt Hill
#
# Bulk Modulus (GPa) = 32.68370 51.18377 41.93373
# Shear Modulus (GPa) = 27.38410 43.01500 35.19955
#
# Velocity S-wave (km/s) = 3.21432 4.02856 3.64425
# Velocity P-wave (km/s) = 5.10951 6.39924 5.79040
#
# Compressibility (1/GPa) = 0.03059629
#
# Stress axis : x y z
#
# Youngs Moduli (GPa) = 96.35252 60.15132 184.42414
#
# Poissons Ratio (x) = 0.00788 0.15527
# Poissons Ratio (y) = 0.01263 -0.01076
# Poissons Ratio (z) = 0.08112 -0.00351
#
# Static dielectric constant tensor:
#      x y z
#    x 2.246000 0.000000 0.032340 
#    y 0.000000 1.923480 0.000000 
#    z 0.032340 0.000000 2.087050 
# 
# From -- ./inp_files/314414.got.cif
#   From: 2010.05.17/outbox.cif.g08.bks.cpg/sg12_158_cif.got.tgz:314414.got - 2010.06.03 13:09:07.
