data_PCOD9208095
_publ_section_title
;
Structure prediction by ZEFSAII (Michael W. Deem and Ramdas Pophale) SiO2 
 PCOD9208095
Probable space group: C 2/M
;
_chemical_formula_sum "Si O2"
_cell_formula_units_Z 56
_cell_length_a 17.504228
_cell_length_b 15.510762
_cell_length_c 11.773656
_cell_angle_alpha 90.000000
_cell_angle_beta 51.955423
_cell_angle_gamma 90.000000
_cell_volume 2517.418292
_symmetry_space_group_name_H-M "C 2/M"
_symmetry_group_IT_number 12
_symmetry_cell_setting 'monoclinic'
loop_
_space_group_symop_operation_xyz
x,y,z
-x,y,-z
-x,-y,-z
x,-y,z
1/2+x,1/2+y,z
1/2-x,1/2+y,-z
1/2-x,1/2-y,-z
1/2+x,1/2-y,z
loop_
_atom_site_type_symbol
_atom_site_label
_atom_site_fract_x
_atom_site_fract_y
_atom_site_fract_z
Si Si1 0.620907 0.404260 0.967600
Si Si2 0.774898 0.594159 0.027969
Si Si3 0.441369 0.231811 0.867427
Si Si4 0.349117 0.835789 0.341090
Si Si5 0.240535 0.839703 0.663363
Si Si6 0.823584 0.092489 0.643529
Si Si7 0.408875 0.755558 0.633779
O O1 0.576815 0.500000 0.025035
O O2 0.710569 0.398877 0.974345
O O3 0.664523 0.397925 0.800339
O O4 0.559668 0.318630 0.055962
O O5 0.825035 0.500000 0.979650
O O6 0.848815 0.671969 0.978423
O O7 0.701637 0.592889 0.200630
O O8 0.536878 0.171468 0.787240
O O9 0.428250 0.258471 0.747788
O O10 0.316093 0.867992 0.496206
O O11 0.317263 0.736630 0.346842
O O12 0.279126 0.889193 0.322311
O O13 0.307938 0.801589 0.701395
O O14 0.897291 0.170972 0.564088
O O15 0.862139 0.000000 0.571470
O O16 0.500000 0.806566 0.500000
#
# Coordination Sequence:
#
# PCOD9208095 Si02
#       7
#     8   8   8   8   8   8   8
#     4  11  23  39  64  95 128 168 216 269 328 386
#     4  10  21  37  61  94 121 155 213 271 323 377
#     4  12  21  38  66  95 123 167 212 276 320 380
#     4  10  23  38  62  89 122 166 216 253 323 392
#     4  10  21  41  60  86 123 165 210 260 314 389
#     4  10  22  40  60  87 126 165 205 263 325 387
#     4  11  20  35  64  92 117 160 216 266 316 379
#
# _framework density 22.245013
#
# number of rings (size 3 to 8) (size 9 to 14) (size 15 to 20)
#    0.000    1.429    4.286    2.143    0.000    3.714 
#    0.000    2.857    0.000    2.571    0.000    0.000 
#    0.000    0.000    0.000    0.000    0.000    0.000 
#
# Total GULP energy -156158.683688 kJ/mol
# GULP energy per Si atom -5577.095846 kJ/mol
# Density = 2.219438 g / cm^3
# Si number density = 22.245013 Si / 1000 Ang^3
#
#
#
# Elastic Constant Matrix: (Units=GPa)
#
#
# Indices 1 2 3 4 5 6 
#
# 1 78.8943 2.4767 7.2068 0.0000 3.1536 0.0000
# 2 2.4767 59.0027 9.6689 0.0000 7.1956 0.0000
# 3 7.2068 9.6689 76.3516 0.0000 15.5745 0.0000
# 4 0.0000 0.0000 0.0000 1.1547 0.0000 -2.0537
# 5 3.1536 7.1956 15.5745 0.0000 33.0933 0.0000
# 6 0.0000 0.0000 0.0000 -2.0537 0.0000 -4.1446
#
#
#
# Elastic Compliance Matrix: (Units=1/GPa)
#
#
# Indices 1 2 3 4 5 6 
#
# 1 0.012806 -0.000286 -0.001036 0.000000 -0.000671 0.000000
# 2 -0.000286 0.017591 -0.001577 0.000000 -0.003055 0.000000
# 3 -0.001036 -0.001577 0.014718 0.000000 -0.006485 0.000000
# 4 0.000000 0.000000 0.000000 0.460337 0.000000 -0.228101
# 5 -0.000671 -0.003055 -0.006485 0.000000 0.033998 0.000000
# 6 0.000000 0.000000 0.000000 -0.228101 0.000000 -0.128253
#
#
# Mechanical properties :
#
#
# Convention : Reuss Voigt Hill
#
# Bulk Modulus (GPa) = 25.43470 28.10592 26.77031
# Shear Modulus (GPa) = 11.62519 19.01378 15.31949
#
# Velocity S-wave (km/s) = 2.28852 2.92677 2.62710
# Velocity P-wave (km/s) = 4.29439 4.90749 4.61114
#
# Compressibility (1/GPa) = 0.03931636
#
# Stress axis : x y z
#
# Youngs Moduli (GPa) = 78.09094 56.84567 67.94579
#
# Poissons Ratio (x) = 0.01626 0.07037
# Poissons Ratio (y) = 0.02233 0.10718
# Poissons Ratio (z) = 0.08088 0.08967
#
# Static dielectric constant tensor:
#      x y z
#    x 1.804270 0.000000 0.004350 
#    y 0.000000 1.879440 0.000000 
#    z 0.004350 0.000000 1.845300 
# 
# From -- ./inp_files/158187.got.cif
#   From: 2010.05.17/outbox.cif.g08.bks.cpg/sg12_80_cif.got.tgz:158187.got - 2010.06.03 13:09:07.
