data_PCOD9208756
_publ_section_title
;
Structure prediction by ZEFSAII (Michael W. Deem and Ramdas Pophale) SiO2 
 PCOD9208756
Probable space group: C 2/M
;
_chemical_formula_sum "Si O2"
_cell_formula_units_Z 56
_cell_length_a 9.402005
_cell_length_b 21.224678
_cell_length_c 14.442937
_cell_angle_alpha 90.000000
_cell_angle_beta 111.836007
_cell_angle_gamma 90.000000
_cell_volume 2675.365489
_symmetry_space_group_name_H-M "C 2/M"
_symmetry_group_IT_number 12
_symmetry_cell_setting 'monoclinic'
loop_
_space_group_symop_operation_xyz
x,y,z
-x,y,-z
-x,-y,-z
x,-y,z
1/2+x,1/2+y,z
1/2-x,1/2+y,-z
1/2-x,1/2-y,-z
1/2+x,1/2-y,z
loop_
_atom_site_type_symbol
_atom_site_label
_atom_site_fract_x
_atom_site_fract_y
_atom_site_fract_z
Si Si1 0.662408 0.223321 0.068158
Si Si2 0.933438 0.864362 0.694319
Si Si3 0.431806 0.071153 0.191671
Si Si4 0.588912 0.112003 0.605484
Si Si5 0.380404 0.637640 0.892252
Si Si6 0.370986 0.772642 0.608338
Si Si7 0.746837 0.141015 0.253920
O O1 0.621111 0.286740 0.113450
O O2 0.756136 0.179039 0.159055
O O3 0.500000 0.193462 0.000000
O O4 0.750000 0.250000 0.000000
O O5 0.765060 0.882021 0.618358
O O6 0.925179 0.882838 0.800420
O O7 0.941542 0.789672 0.672389
O O8 0.089880 0.891862 0.691333
O O9 0.422286 0.075968 0.300898
O O10 0.289729 0.113923 0.124378
O O11 0.598332 0.097450 0.207732
O O12 0.410344 0.000000 0.154990
O O13 0.500000 0.081290 0.500000
O O14 0.504986 0.180125 0.604090
O O15 0.500000 0.618648 0.000000
O O16 0.250000 0.750000 0.500000
O O17 0.286986 0.812232 0.668708
#
# Coordination Sequence:
#
# PCOD9208756 Si02
#       7
#     8   8   8   8   8   8   8
#     4  11  21  34  58  88 124 155 191 243 312 378
#     4  11  21  34  57  89 127 157 201 248 311 378
#     4  10  24  44  63  85 122 170 217 260 308 367
#     4  10  21  38  59  87 121 166 213 258 308 369
#     4  10  21  39  62  91 121 155 205 256 315 376
#     4  11  21  35  55  89 132 167 197 245 316 382
#     4  11  23  36  59  90 128 166 202 256 312 374
#
# _framework density 20.931719999999999
#
# number of rings (size 3 to 8) (size 9 to 14) (size 15 to 20)
#    0.000    1.429    2.857    3.429    4.000    0.571 
#    0.000    2.857    0.000   10.714    0.000    0.000 
#    0.000    0.000    0.000    0.000    0.000    0.000 
#
# Total GULP energy -156321.790658 kJ/mol
# GULP energy per Si atom -5582.921095 kJ/mol
# Density = 2.088408 g / cm^3
# Si number density = 20.931720 Si / 1000 Ang^3
#
#
#
# Elastic Constant Matrix: (Units=GPa)
#
#
# Indices 1 2 3 4 5 6 
#
# 1 134.6995 4.9125 28.0956 0.0000 34.3389 0.0000
# 2 4.9125 34.2925 8.7606 0.0000 13.4308 0.0000
# 3 28.0956 8.7606 96.7690 0.0000 23.9824 0.0000
# 4 0.0000 0.0000 0.0000 2.2207 0.0000 0.6318
# 5 34.3389 13.4308 23.9824 0.0000 41.4942 0.0000
# 6 0.0000 0.0000 0.0000 0.6318 0.0000 5.4319
#
#
#
# Elastic Compliance Matrix: (Units=1/GPa)
#
#
# Indices 1 2 3 4 5 6 
#
# 1 0.009603 0.002022 -0.000980 0.000000 -0.008035 0.000000
# 2 0.002022 0.033833 -0.000608 0.000000 -0.012273 0.000000
# 3 -0.000980 -0.000608 0.012166 0.000000 -0.006024 0.000000
# 4 0.000000 0.000000 0.000000 0.465711 0.000000 -0.054169
# 5 -0.008035 -0.012273 -0.006024 0.000000 0.038203 0.000000
# 6 0.000000 0.000000 0.000000 -0.054169 0.000000 0.190397
#
#
# Mechanical properties :
#
#
# Convention : Reuss Voigt Hill
#
# Bulk Modulus (GPa) = 17.70863 38.81093 28.25978
# Shear Modulus (GPa) = 6.51152 24.76219 15.63686
#
# Velocity S-wave (km/s) = 1.76567 3.44321 2.73617
# Velocity P-wave (km/s) = 3.55462 5.86426 4.84896
#
# Compressibility (1/GPa) = 0.05646965
#
# Stress axis : x y z
#
# Youngs Moduli (GPa) = 104.13479 29.55661 82.19375
#
# Poissons Ratio (x) = -0.05975 0.08053
# Poissons Ratio (y) = -0.21052 0.05001
# Poissons Ratio (z) = 0.10203 0.01798
#
# Static dielectric constant tensor:
#      x y z
#    x 1.795940 0.000000 0.001800 
#    y 0.000000 1.735510 0.000000 
#    z 0.001800 0.000000 1.772610 
# 
# From -- ./inp_files/198787.got.cif
#   From: 2010.05.17/outbox.cif.g08.bks.cpg/sg12_100_cif.got.tgz:198787.got - 2010.06.03 13:09:07.
