data_PCOD9208509
_publ_section_title
;
Structure prediction by ZEFSAII (Michael W. Deem and Ramdas Pophale) SiO2 
 PCOD9208509
Probable space group: C 2/M
;
_chemical_formula_sum "Si O2"
_cell_formula_units_Z 56
_cell_length_a 25.604036
_cell_length_b 7.653102
_cell_length_c 15.259456
_cell_angle_alpha 90.000000
_cell_angle_beta 131.550926
_cell_angle_gamma 90.000000
_cell_volume 2237.686818
_symmetry_space_group_name_H-M "C 2/M"
_symmetry_group_IT_number 12
_symmetry_cell_setting 'monoclinic'
loop_
_space_group_symop_operation_xyz
x,y,z
-x,y,-z
-x,-y,-z
x,-y,z
1/2+x,1/2+y,z
1/2-x,1/2+y,-z
1/2-x,1/2-y,-z
1/2+x,1/2-y,z
loop_
_atom_site_type_symbol
_atom_site_label
_atom_site_fract_x
_atom_site_fract_y
_atom_site_fract_z
Si Si1 0.099411 0.798088 0.469527
Si Si2 0.716005 0.201164 0.098730
Si Si3 0.898185 0.204052 0.153073
Si Si4 0.739808 0.801889 0.389638
Si Si5 0.382339 0.693399 0.855081
Si Si6 0.533887 0.713885 0.213155
Si Si7 0.372538 0.284158 0.315379
O O1 0.183482 0.797151 0.564789
O O2 0.076112 0.728881 0.348237
O O3 0.086487 0.722953 0.552160
O O4 0.074273 0.000000 0.441538
O O5 0.656759 0.216111 0.107917
O O6 0.790577 0.271477 0.215249
O O7 0.728694 0.000000 0.093322
O O8 0.678851 0.279603 0.972239
O O9 0.904849 0.273842 0.258755
O O10 0.956004 0.272375 0.150238
O O11 0.913596 0.000000 0.177279
O O12 0.750000 0.750000 0.500000
O O13 0.682965 0.680453 0.283884
O O14 0.713522 0.000000 0.351640
O O15 0.405337 0.500000 0.911319
O O16 0.439855 0.773333 0.853287
O O17 0.540007 0.500000 0.214661
O O18 0.373132 0.500000 0.320003
#
# Coordination Sequence:
#
# PCOD9208509 Si02
#       7
#     8   8   8   8   8   8   8
#     4   9  16  30  53  83 114 141 172 222 276 324
#     4  11  22  38  58  82 111 145 184 236 289 329
#     4  10  21  38  58  81 108 146 192 231 272 332
#     4  11  19  31  53  82 118 150 184 228 279 331
#     4  11  21  35  56  84 114 146 186 231 280 333
#     4   9  19  34  54  82 116 148 181 224 276 331
#     4   9  18  33  57  85 111 139 182 235 282 326
#
# _framework density 25.025843999999999
#
# number of rings (size 3 to 8) (size 9 to 14) (size 15 to 20)
#    0.000    2.000    2.857    1.714    0.000    1.143 
#    0.000    7.857    0.000    0.000    0.000    1.000 
#    0.000    0.000    0.000    0.000    0.000    0.000 
#
# Total GULP energy -156265.194313 kJ/mol
# GULP energy per Si atom -5580.899797 kJ/mol
# Density = 2.496888 g / cm^3
# Si number density = 25.025844 Si / 1000 Ang^3
#
#
#
# Elastic Constant Matrix: (Units=GPa)
#
#
# Indices 1 2 3 4 5 6 
#
# 1 75.3219 6.7876 -10.9564 0.0000 8.0945 0.0000
# 2 6.7876 51.3776 -5.7429 0.0000 2.7263 0.0000
# 3 -10.9564 -5.7429 71.3060 0.0000 2.6012 0.0000
# 4 0.0000 0.0000 0.0000 11.0401 0.0000 -1.0655
# 5 8.0945 2.7263 2.6012 0.0000 28.2901 0.0000
# 6 0.0000 0.0000 0.0000 -1.0655 0.0000 3.1969
#
#
#
# Elastic Compliance Matrix: (Units=1/GPa)
#
#
# Indices 1 2 3 4 5 6 
#
# 1 0.014168 -0.001406 0.002214 0.000000 -0.004122 0.000000
# 2 -0.001406 0.019899 0.001447 0.000000 -0.001648 0.000000
# 3 0.002214 0.001447 0.014558 0.000000 -0.002111 0.000000
# 4 0.000000 0.000000 0.000000 0.093590 0.000000 0.031194
# 5 -0.004122 -0.001648 -0.002111 0.000000 0.036881 0.000000
# 6 0.000000 0.000000 0.000000 0.031194 0.000000 0.323202
#
#
# Mechanical properties :
#
#
# Convention : Reuss Voigt Hill
#
# Bulk Modulus (GPa) = 18.81991 19.79801 19.30896
# Shear Modulus (GPa) = 9.69937 22.36656 16.03297
#
# Velocity S-wave (km/s) = 1.97083 2.99279 2.53387
# Velocity P-wave (km/s) = 3.56586 4.45764 4.03646
#
# Compressibility (1/GPa) = 0.05313522
#
# Stress axis : x y z
#
# Youngs Moduli (GPa) = 70.58135 50.25472 68.69163
#
# Poissons Ratio (x) = 0.07064 -0.15209
# Poissons Ratio (y) = 0.09920 -0.09938
# Poissons Ratio (z) = -0.15628 -0.07271
#
# Static dielectric constant tensor:
#      x y z
#    x 2.052020 0.000000 -0.064540 
#    y 0.000000 1.915300 0.000000 
#    z -0.064540 0.000000 1.950990 
# 
# From -- ./inp_files/237797.got.cif
#   From: 2010.05.17/outbox.cif.g08.bks.cpg/sg12_119_cif.got.tgz:237797.got - 2010.06.03 13:09:07.
