data_PCOD9208999
_publ_section_title
;
Structure prediction by ZEFSAII (Michael W. Deem and Ramdas Pophale) SiO2 
 PCOD9208999
Probable space group: C 2/M
;
_chemical_formula_sum "Si O2"
_cell_formula_units_Z 64
_cell_length_a 19.350792
_cell_length_b 7.655340
_cell_length_c 29.193361
_cell_angle_alpha 90.000000
_cell_angle_beta 145.725857
_cell_angle_gamma 90.000000
_cell_volume 2435.420003
_symmetry_space_group_name_H-M "C 2/M"
_symmetry_group_IT_number 12
_symmetry_cell_setting 'monoclinic'
loop_
_space_group_symop_operation_xyz
x,y,z
-x,y,-z
-x,-y,-z
x,-y,z
1/2+x,1/2+y,z
1/2-x,1/2+y,-z
1/2-x,1/2-y,-z
1/2+x,1/2-y,z
loop_
_atom_site_type_symbol
_atom_site_label
_atom_site_fract_x
_atom_site_fract_y
_atom_site_fract_z
Si Si1 0.116206 0.796038 0.887952
Si Si2 0.703514 0.296595 0.788174
Si Si3 0.083253 0.701653 0.480891
Si Si4 0.161817 0.287552 0.046116
Si Si5 0.671025 0.301897 0.626936
Si Si6 0.075343 0.702864 0.377938
Si Si7 0.061361 0.204362 0.132022
Si Si8 0.404712 0.786969 0.710709
O O1 0.249353 0.725951 0.947044
O O2 0.025923 0.714655 0.876315
O O3 0.036728 0.779238 0.798024
O O4 0.131533 0.000000 0.907107
O O5 0.676383 0.500000 0.780514
O O6 0.774547 0.227312 0.872126
O O7 0.572972 0.210349 0.707217
O O8 0.804840 0.281280 0.803632
O O9 0.121278 0.500000 0.506021
O O10 0.129463 0.803365 0.550520
O O11 0.934729 0.703917 0.404210
O O12 0.114008 0.779042 0.448070
O O13 0.160726 0.500000 0.046535
O O14 0.025135 0.228109 0.959988
O O15 0.674789 0.500000 0.646030
O O16 0.806501 0.226279 0.694762
O O17 0.110022 0.500000 0.398909
O O18 0.123830 0.775253 0.356387
O O19 0.078034 0.000000 0.150022
O O20 0.404225 0.000000 0.710454
#
# Coordination Sequence:
#
# PCOD9208999 Si02
#       8
#     8   8   8   8   8   8   8   8
#     4  10  22  40  59  84 117 152 194 240 288 344
#     4  11  23  39  60  85 116 153 194 240 291 344
#     4  10  21  38  61  88 118 155 192 233 285 339
#     4  10  21  40  61  83 113 150 194 242 290 345
#     4  10  21  38  60  89 121 152 191 237 282 338
#     4  10  22  40  60  85 118 153 194 240 287 343
#     4  11  24  38  58  87 116 151 194 241 292 347
#     4  10  22  39  60  86 117 154 193 238 290 340
#
# _framework density 26.278835000000001
#
# number of rings (size 3 to 8) (size 9 to 14) (size 15 to 20)
#    0.000    1.750    1.250    3.000    1.750    6.500 
#    0.000    0.000    0.000    0.000    0.000    0.000 
#    0.000    0.000    0.000    0.000    0.000    0.000 
#
# Total GULP energy -179121.770533 kJ/mol
# GULP energy per Si atom -5597.555329 kJ/mol
# Density = 2.621902 g / cm^3
# Si number density = 26.278835 Si / 1000 Ang^3
#
#
#
# Elastic Constant Matrix: (Units=GPa)
#
#
# Indices 1 2 3 4 5 6 
#
# 1 119.7162 5.2068 10.9406 0.0001 3.9431 -0.0004
# 2 5.2068 87.4016 5.9426 0.0005 0.3245 -0.0009
# 3 10.9406 5.9426 73.6260 0.0000 7.4098 -0.0001
# 4 0.0001 0.0005 0.0000 27.7792 0.0000 1.3458
# 5 3.9431 0.3245 7.4098 0.0000 58.1133 0.0000
# 6 -0.0004 -0.0009 -0.0001 1.3458 0.0000 17.4043
#
#
#
# Elastic Compliance Matrix: (Units=1/GPa)
#
#
# Indices 1 2 3 4 5 6 
#
# 1 0.008494 -0.000424 -0.001185 0.000000 -0.000423 0.000000
# 2 -0.000424 0.011526 -0.000875 0.000000 0.000076 0.000001
# 3 -0.001185 -0.000875 0.014000 0.000000 -0.001700 0.000000
# 4 0.000000 0.000000 0.000000 0.036134 0.000000 -0.002794
# 5 -0.000423 0.000076 -0.001700 0.000000 0.017453 0.000000
# 6 0.000000 0.000001 0.000000 -0.002794 0.000000 0.057673
#
#
# Mechanical properties :
#
#
# Convention : Reuss Voigt Hill
#
# Bulk Modulus (GPa) = 34.42187 36.10264 35.26226
# Shear Modulus (GPa) = 31.26345 37.90293 34.58319
#
# Velocity S-wave (km/s) = 3.45292 3.80193 3.63162
# Velocity P-wave (km/s) = 5.38739 5.74813 5.57068
#
# Compressibility (1/GPa) = 0.02905130
#
# Stress axis : x y z
#
# Youngs Moduli (GPa) = 117.73318 86.76112 71.42860
#
# Poissons Ratio (x) = 0.03677 0.08467
# Poissons Ratio (y) = 0.04990 0.06250
# Poissons Ratio (z) = 0.13956 0.07591
#
# Static dielectric constant tensor:
#      x y z
#    x 2.120500 0.000000 -0.048880 
#    y 0.000000 1.920990 0.000000 
#    z -0.048880 0.000000 2.111410 
# 
# From -- ./inp_files/378352.got.cif
#   From: 2010.05.17/outbox.cif.g08.bks.cpg/sg12_190_cif.got.tgz:378352.got - 2010.06.03 13:09:07.
