data_PCOD9208493
_publ_section_title
;
Structure prediction by ZEFSAII (Michael W. Deem and Ramdas Pophale) SiO2 
 PCOD9208493
Probable space group: C 2/M
;
_chemical_formula_sum "Si O2"
_cell_formula_units_Z 56
_cell_length_a 8.494793
_cell_length_b 18.553927
_cell_length_c 28.746795
_cell_angle_alpha 90.000000
_cell_angle_beta 41.244481
_cell_angle_gamma 90.000000
_cell_volume 2987.057782
_symmetry_space_group_name_H-M "C 2/M"
_symmetry_group_IT_number 12
_symmetry_cell_setting 'monoclinic'
loop_
_space_group_symop_operation_xyz
x,y,z
-x,y,-z
-x,-y,-z
x,-y,z
1/2+x,1/2+y,z
1/2-x,1/2+y,-z
1/2-x,1/2-y,-z
1/2+x,1/2-y,z
loop_
_atom_site_type_symbol
_atom_site_label
_atom_site_fract_x
_atom_site_fract_y
_atom_site_fract_z
Si Si1 0.131402 0.174931 0.775019
Si Si2 0.855903 0.082557 0.630494
Si Si3 0.480926 0.161961 0.228375
Si Si4 0.739670 0.317505 0.070462
Si Si5 0.139259 0.155286 0.927030
Si Si6 0.677932 0.168787 0.503651
Si Si7 0.949881 0.583765 0.640388
O O1 0.328716 0.170804 0.771995
O O2 0.222915 0.124032 0.713534
O O3 0.106035 0.257789 0.765059
O O4 0.883324 0.153466 0.855209
O O5 0.734389 0.115720 0.703326
O O6 0.656900 0.084906 0.633872
O O7 0.082738 0.127033 0.563584
O O8 0.923742 0.000000 0.623086
O O9 0.628954 0.127477 0.152449
O O10 0.771749 0.231827 0.071805
O O11 0.559392 0.329423 0.068118
O O12 0.000000 0.346856 0.000000
O O13 0.000000 0.116125 0.000000
O O14 0.500000 0.169788 0.500000
O O15 0.750000 0.250000 0.500000
O O16 0.549636 0.128170 0.574723
O O17 0.902425 0.500000 0.639589
#
# Coordination Sequence:
#
# PCOD9208493 Si02
#       7
#     8   8   8   8   8   8   8
#     4   9  18  31  49  74 101 132 171 214 257 303
#     4  10  21  38  58  79 106 140 175 211 256 309
#     4   9  18  31  49  74 101 132 171 214 257 303
#     4   9  15  24  40  65  96 127 163 207 255 302
#     4   9  15  24  40  65  96 127 163 207 255 302
#     4  12  25  40  59  83 109 135 169 212 257 306
#     4  10  21  38  58  79 106 140 175 211 256 309
#
# _framework density 18.747544999999999
#
# number of rings (size 3 to 8) (size 9 to 14) (size 15 to 20)
#    0.000    2.286    0.000    4.286    0.000    6.857 
#    0.000    0.000    0.000    0.857    0.000    0.000 
#    0.000    0.000    0.000    0.000    0.000    7.714 
#
# Total GULP energy -156156.113374 kJ/mol
# GULP energy per Si atom -5577.004049 kJ/mol
# Density = 1.870487 g / cm^3
# Si number density = 18.747545 Si / 1000 Ang^3
#
#
#
# Elastic Constant Matrix: (Units=GPa)
#
#
# Indices 1 2 3 4 5 6 
#
# 1 18.5987 16.8466 23.1570 -0.0063 10.4726 -0.0041
# 2 16.8466 104.7866 86.6508 -0.0133 6.7152 -0.0002
# 3 23.1570 86.6508 208.4491 -0.0073 17.6489 -0.0099
# 4 -0.0063 -0.0133 -0.0073 -11.2825 -0.0034 -1.1853
# 5 10.4726 6.7152 17.6489 -0.0034 26.1607 0.0056
# 6 -0.0041 -0.0002 -0.0099 -1.1853 0.0056 14.7334
#
#
#
# Elastic Compliance Matrix: (Units=1/GPa)
#
#
# Indices 1 2 3 4 5 6 
#
# 1 0.081401 -0.008803 -0.002987 -0.000028 -0.028312 0.000029
# 2 -0.008803 0.015497 -0.005754 -0.000010 0.003428 -0.000008
# 3 -0.002987 -0.005754 0.007737 0.000004 -0.002547 0.000006
# 4 -0.000028 -0.000010 0.000004 -0.087890 0.000001 -0.007071
# 5 -0.028312 0.003428 -0.002547 0.000001 0.050397 -0.000029
# 6 0.000029 -0.000008 0.000006 -0.007071 -0.000029 0.067304
#
#
# Mechanical properties :
#
#
# Convention : Reuss Voigt Hill
#
# Bulk Modulus (GPa) = 14.37868 65.01592 39.69730
# Shear Modulus (GPa) = 25.94487 19.60101 22.77294
#
# Velocity S-wave (km/s) = 3.72413 3.23696 3.48906
# Velocity P-wave (km/s) = 5.11649 6.98037 6.11980
#
# Compressibility (1/GPa) = 0.06954741
#
# Stress axis : x y z
#
# Youngs Moduli (GPa) = 12.28485 64.52767 129.25196
#
# Poissons Ratio (x) = 0.56802 0.38603
# Poissons Ratio (y) = 0.10814 0.74377
# Poissons Ratio (z) = 0.03669 0.37132
#
# Static dielectric constant tensor:
#      x y z
#    x 1.648660 0.000000 0.009540 
#    y 0.000000 1.611170 0.000010 
#    z 0.009540 0.000010 1.696890 
# 
# From -- ./inp_files/372776.got.cif
#   From: 2010.05.17/outbox.cif.g08.bks.cpg/sg12_187_cif.got.tgz:372776.got - 2010.06.03 13:09:07.
