data_PCOD9208683
_publ_section_title
;
Structure prediction by ZEFSAII (Michael W. Deem and Ramdas Pophale) SiO2 
 PCOD9208683
Probable space group: C 2/M
;
_chemical_formula_sum "Si O2"
_cell_formula_units_Z 32
_cell_length_a 10.554218
_cell_length_b 8.720815
_cell_length_c 19.044498
_cell_angle_alpha 90.000000
_cell_angle_beta 106.107017
_cell_angle_gamma 90.000000
_cell_volume 1684.072871
_symmetry_space_group_name_H-M "C 2/M"
_symmetry_group_IT_number 12
_symmetry_cell_setting 'monoclinic'
loop_
_space_group_symop_operation_xyz
x,y,z
-x,y,-z
-x,-y,-z
x,-y,z
1/2+x,1/2+y,z
1/2-x,1/2+y,-z
1/2-x,1/2-y,-z
1/2+x,1/2-y,z
loop_
_atom_site_type_symbol
_atom_site_label
_atom_site_fract_x
_atom_site_fract_y
_atom_site_fract_z
Si Si1 0.478777 0.314808 0.210845
Si Si2 0.892401 0.814791 0.041056
Si Si3 0.650269 0.315998 0.542336
Si Si4 0.278509 0.183972 0.294689
O O1 0.470041 0.500000 0.213852
O O2 0.436877 0.267927 0.125939
O O3 0.381340 0.243489 0.252912
O O4 0.629820 0.271700 0.249966
O O5 0.886691 0.000000 0.038767
O O6 0.750000 0.750000 0.000000
O O7 0.000000 0.765552 0.000000
O O8 0.500000 0.273272 0.500000
O O9 0.659131 0.500000 0.543962
O O10 0.750000 0.250000 0.500000
O O11 0.686835 0.252588 0.624322
O O12 0.284501 0.000000 0.299200
#
# Coordination Sequence:
#
# PCOD9208683 Si02
#       4
#     8   8   8   8
#     4  10  22  39  58  84 118 152 189 237 289 340
#     4  10  21  38  59  84 116 152 191 237 287 340
#     4  11  24  41  61  87 119 153 191 236 286 340
#     4  11  23  39  61  87 115 151 194 237 285 341
#
# _framework density 19.001553000000001
#
# number of rings (size 3 to 8) (size 9 to 14) (size 15 to 20)
#    0.000    1.500    0.000    4.500    0.000   13.500 
#    0.000    0.000    0.000    0.000    0.000    0.000 
#    0.000    0.000    0.000    0.000    0.000    0.000 
#
# Total GULP energy -89489.351533 kJ/mol
# GULP energy per Si atom -5593.084471 kJ/mol
# Density = 1.895830 g / cm^3
# Si number density = 19.001553 Si / 1000 Ang^3
#
#
#
# Elastic Constant Matrix: (Units=GPa)
#
#
# Indices 1 2 3 4 5 6 
#
# 1 206.5329 55.0068 118.7440 0.0000 -2.5607 0.0000
# 2 55.0068 29.7371 51.5611 0.0000 2.9466 0.0000
# 3 118.7440 51.5611 213.8391 0.0000 -1.1730 0.0000
# 4 0.0000 0.0000 0.0000 29.9524 0.0000 -1.5611
# 5 -2.5607 2.9466 -1.1730 0.0000 46.1293 0.0000
# 6 0.0000 0.0000 0.0000 -1.5611 0.0000 40.5456
#
#
#
# Elastic Compliance Matrix: (Units=1/GPa)
#
#
# Indices 1 2 3 4 5 6 
#
# 1 0.010063 -0.015620 -0.001814 0.000000 0.001510 0.000000
# 2 -0.015620 0.082799 -0.011326 0.000000 -0.006444 0.000000
# 3 -0.001814 -0.011326 0.008419 0.000000 0.000837 0.000000
# 4 0.000000 0.000000 0.000000 0.033453 0.000000 0.001288
# 5 0.001510 -0.006444 0.000837 0.000000 0.022195 0.000000
# 6 0.000000 0.000000 0.000000 0.001288 0.000000 0.024713
#
#
# Mechanical properties :
#
#
# Convention : Reuss Voigt Hill
#
# Bulk Modulus (GPa) = 22.85110 100.08142 61.46626
# Shear Modulus (GPa) = 19.70447 38.31194 29.00820
#
# Velocity S-wave (km/s) = 3.22373 4.49514 3.91144
# Velocity P-wave (km/s) = 5.09005 8.92895 7.26756
#
# Compressibility (1/GPa) = 0.04376156
#
# Stress axis : x y z
#
# Youngs Moduli (GPa) = 99.36935 12.07748 118.77924
#
# Poissons Ratio (x) = 0.18865 0.21541
# Poissons Ratio (y) = 1.55218 1.34529
# Poissons Ratio (z) = 0.18021 0.13679
#
# Static dielectric constant tensor:
#      x y z
#    x 1.622380 0.000000 0.006190 
#    y 0.000000 1.646070 0.000000 
#    z 0.006190 0.000000 1.627500 
# 
# From -- ./inp_files/202051.got.cif
#   From: 2010.05.17/outbox.cif.g08.bks.cpg/sg12_102_cif.got.tgz:202051.got - 2010.06.03 13:09:07.
