data_PCOD9208002
_publ_section_title
;
Structure prediction by ZEFSAII (Michael W. Deem and Ramdas Pophale) SiO2 
 PCOD9208002
Probable space group: C 2/M
;
_chemical_formula_sum "Si O2"
_cell_formula_units_Z 44
_cell_length_a 13.782223
_cell_length_b 22.154067
_cell_length_c 7.333562
_cell_angle_alpha 90.000000
_cell_angle_beta 115.299945
_cell_angle_gamma 90.000000
_cell_volume 2024.398418
_symmetry_space_group_name_H-M "C 2/M"
_symmetry_group_IT_number 12
_symmetry_cell_setting 'monoclinic'
loop_
_space_group_symop_operation_xyz
x,y,z
-x,y,-z
-x,-y,-z
x,-y,z
1/2+x,1/2+y,z
1/2-x,1/2+y,-z
1/2-x,1/2-y,-z
1/2+x,1/2-y,z
loop_
_atom_site_type_symbol
_atom_site_label
_atom_site_fract_x
_atom_site_fract_y
_atom_site_fract_z
Si Si1 0.244737 0.111772 0.817518
Si Si2 0.177465 0.068293 0.137350
Si Si3 0.092439 0.779925 0.721533
Si Si4 0.500000 0.657566 0.000000
Si Si5 0.045682 0.656309 0.843676
Si Si6 0.857527 0.569540 0.559953
O O1 0.196074 0.179529 0.755173
O O2 0.267326 0.080243 0.644213
O O3 0.175770 0.078486 0.917242
O O4 0.360636 0.114637 0.004793
O O5 0.093564 0.115008 0.152513
O O6 0.294206 0.078397 0.320478
O O7 0.147210 0.000000 0.155231
O O8 0.097948 0.708095 0.759157
O O9 0.000000 0.790987 0.500000
O O10 0.052201 0.804561 0.882135
O O11 0.952130 0.617536 0.672407
O O12 0.000000 0.682547 0.000000
O O13 0.896323 0.500000 0.601366
#
# Coordination Sequence:
#
# PCOD9208002 Si02
#       6
#     8   8   8   4   8   8
#     4  10  22  38  59  86 116 155 195 239 289 347
#     4  10  21  37  61  88 117 154 194 241 294 345
#     4  11  22  38  60  84 117 155 197 240 288 345
#     4  10  21  40  58  86 121 152 196 244 288 348
#     4  10  22  40  58  85 120 156 192 238 296 343
#     4  10  22  40  61  89 120 153 196 242 292 352
#
# _framework density 21.734850999999999
#
# number of rings (size 3 to 8) (size 9 to 14) (size 15 to 20)
#    0.000    1.818    0.909    2.455    2.545    4.000 
#    0.000    4.545    0.000    8.727    0.000    0.000 
#    0.000    0.000    0.000    0.000    0.000    0.000 
#
# Total GULP energy -122775.102366 kJ/mol
# GULP energy per Si atom -5580.686471 kJ/mol
# Density = 2.168538 g / cm^3
# Si number density = 21.734851 Si / 1000 Ang^3
#
#
#
# Elastic Constant Matrix: (Units=GPa)
#
#
# Indices 1 2 3 4 5 6 
#
# 1 32.7555 2.1358 -4.8064 0.0000 -10.4422 0.0000
# 2 2.1358 97.4635 21.7519 0.0000 -3.2350 0.0000
# 3 -4.8064 21.7519 80.0139 0.0000 -4.5665 0.0000
# 4 0.0000 0.0000 0.0000 20.3555 0.0000 -0.4818
# 5 -10.4422 -3.2350 -4.5665 0.0000 28.3163 0.0000
# 6 0.0000 0.0000 0.0000 -0.4818 0.0000 7.3162
#
#
#
# Elastic Compliance Matrix: (Units=1/GPa)
#
#
# Indices 1 2 3 4 5 6 
#
# 1 0.035342 -0.001037 0.003171 0.000000 0.013426 0.000000
# 2 -0.001037 0.010970 -0.003023 0.000000 0.000384 0.000000
# 3 0.003171 -0.003023 0.013683 0.000000 0.003031 0.000000
# 4 0.000000 0.000000 0.000000 0.049203 0.000000 0.003240
# 5 0.013426 0.000384 0.003031 0.000000 0.040799 0.000000
# 6 0.000000 0.000000 0.000000 0.003240 0.000000 0.136897
#
#
# Mechanical properties :
#
#
# Convention : Reuss Voigt Hill
#
# Bulk Modulus (GPa) = 17.17649 27.59950 22.38800
# Shear Modulus (GPa) = 16.22965 23.94102 20.08534
#
# Velocity S-wave (km/s) = 2.73557 3.32249 3.04321
# Velocity P-wave (km/s) = 4.23056 5.23874 4.76141
#
# Compressibility (1/GPa) = 0.05821910
#
# Stress axis : x y z
#
# Youngs Moduli (GPa) = 28.29476 91.15523 73.08342
#
# Poissons Ratio (x) = 0.09449 -0.23175
# Poissons Ratio (y) = 0.02933 0.22091
# Poissons Ratio (z) = -0.08972 0.27553
#
# Static dielectric constant tensor:
#      x y z
#    x 1.845380 0.000000 -0.029890 
#    y 0.000000 1.807650 0.000000 
#    z -0.029890 0.000000 1.783730 
# 
# From -- ./inp_files/65562.got.cif
#   From: 2010.05.17/outbox.cif.g08.bks.cpg/sg12_33_cif.got.tgz:65562.got - 2010.06.03 13:09:07.
