data_PCOD9208900
_publ_section_title
;
Structure prediction by ZEFSAII (Michael W. Deem and Ramdas Pophale) SiO2 
 PCOD9208900
Probable space group: C 2/M
;
_chemical_formula_sum "Si O2"
_cell_formula_units_Z 56
_cell_length_a 27.997176
_cell_length_b 8.653158
_cell_length_c 13.989275
_cell_angle_alpha 90.000000
_cell_angle_beta 120.019882
_cell_angle_gamma 90.000000
_cell_volume 2934.456373
_symmetry_space_group_name_H-M "C 2/M"
_symmetry_group_IT_number 12
_symmetry_cell_setting 'monoclinic'
loop_
_space_group_symop_operation_xyz
x,y,z
-x,y,-z
-x,-y,-z
x,-y,z
1/2+x,1/2+y,z
1/2-x,1/2+y,-z
1/2-x,1/2-y,-z
1/2+x,1/2-y,z
loop_
_atom_site_type_symbol
_atom_site_label
_atom_site_fract_x
_atom_site_fract_y
_atom_site_fract_z
Si Si1 0.404786 0.813185 0.542606
Si Si2 0.617261 0.314446 0.690127
Si Si3 0.835646 0.312899 0.836323
Si Si4 0.951905 0.814670 0.025615
Si Si5 0.738366 0.686528 0.883196
Si Si6 0.308570 0.186582 0.592557
Si Si7 0.525242 0.814469 0.741092
O O1 0.394209 0.743638 0.428091
O O2 0.356943 0.765249 0.568430
O O3 0.464715 0.768115 0.642759
O O4 0.403837 0.000000 0.534454
O O5 0.615131 0.500000 0.689991
O O6 0.678248 0.264849 0.785363
O O7 0.571621 0.248268 0.716060
O O8 0.838959 0.500000 0.841305
O O9 0.786256 0.265170 0.857622
O O10 0.822435 0.264603 0.714607
O O11 0.893331 0.245925 0.929738
O O12 0.964385 0.748408 0.142628
O O13 0.950698 0.000000 0.029356
O O14 0.000000 0.767607 0.000000
O O15 0.738781 0.500000 0.887413
O O16 0.750000 0.750000 0.000000
O O17 0.250000 0.250000 0.500000
O O18 0.306337 0.000000 0.589760
O O19 0.527670 0.000000 0.745179
#
# Coordination Sequence:
#
# PCOD9208900 Si02
#       7
#     8   8   8   8   8   8   8
#     4  10  22  39  59  85 116 152 194 237 284 343
#     4  11  23  39  60  87 119 152 189 237 291 342
#     4  10  21  39  61  84 113 153 198 238 283 343
#     4  11  24  40  59  87 120 151 189 239 292 343
#     4  10  22  38  57  83 114 149 189 234 284 339
#     4  10  21  38  60  86 116 151 194 242 290 342
#     4  11  23  40  62  86 115 153 196 238 282 340
#
# _framework density 19.083603
#
# number of rings (size 3 to 8) (size 9 to 14) (size 15 to 20)
#    0.000    1.571    0.000    4.286    0.000   11.429 
#    0.000    0.000    0.000    0.000    0.000    0.000 
#    0.000    0.000    0.000    0.000    0.000    0.000 
#
# Total GULP energy -156587.193435 kJ/mol
# GULP energy per Si atom -5592.399766 kJ/mol
# Density = 1.904017 g / cm^3
# Si number density = 19.083603 Si / 1000 Ang^3
#
#
#
# Elastic Constant Matrix: (Units=GPa)
#
#
# Indices 1 2 3 4 5 6 
#
# 1 243.1846 51.6381 149.8721 0.0000 0.0513 0.0000
# 2 51.6381 24.3955 49.0518 0.0000 0.3849 0.0000
# 3 149.8721 49.0518 242.2972 0.0000 -0.7501 0.0000
# 4 0.0000 0.0000 0.0000 36.3146 0.0000 0.4222
# 5 0.0513 0.3849 -0.7501 0.0000 46.2376 0.0000
# 6 0.0000 0.0000 0.0000 0.4222 0.0000 31.3915
#
#
#
# Elastic Compliance Matrix: (Units=1/GPa)
#
#
# Indices 1 2 3 4 5 6 
#
# 1 0.008395 -0.012361 -0.002690 0.000000 0.000050 0.000000
# 2 -0.012361 0.087364 -0.010043 0.000000 -0.000877 0.000000
# 3 -0.002690 -0.010043 0.007825 0.000000 0.000214 0.000000
# 4 0.000000 0.000000 0.000000 0.027541 0.000000 -0.000370
# 5 0.000050 -0.000877 0.000214 0.000000 0.021638 0.000000
# 6 0.000000 0.000000 0.000000 -0.000370 0.000000 0.031861
#
#
# Mechanical properties :
#
#
# Convention : Reuss Voigt Hill
#
# Bulk Modulus (GPa) = 18.72837 112.33348 65.53093
# Shear Modulus (GPa) = 19.79332 40.07641 29.93487
#
# Velocity S-wave (km/s) = 3.22404 4.58760 3.96487
# Velocity P-wave (km/s) = 4.86769 9.33022 7.44135
#
# Compressibility (1/GPa) = 0.05339493
#
# Stress axis : x y z
#
# Youngs Moduli (GPa) = 119.12366 11.44637 127.79957
#
# Poissons Ratio (x) = 0.14149 0.34376
# Poissons Ratio (y) = 1.47254 1.28349
# Poissons Ratio (z) = 0.32042 0.11496
#
# Static dielectric constant tensor:
#      x y z
#    x 1.638750 0.000000 -0.000750 
#    y 0.000000 1.651370 0.000000 
#    z -0.000750 0.000000 1.615470 
# 
# From -- ./inp_files/181018.got.cif
#   From: 2010.05.17/outbox.cif.g08.bks.cpg/sg12_91_cif.got.tgz:181018.got - 2010.06.03 13:09:07.
