data_PCOD9208113
_publ_section_title
;
Structure prediction by ZEFSAII (Michael W. Deem and Ramdas Pophale) SiO2 
 PCOD9208113
Probable space group: C 2/M
;
_chemical_formula_sum "Si O2"
_cell_formula_units_Z 64
_cell_length_a 9.550507
_cell_length_b 27.983047
_cell_length_c 11.391563
_cell_angle_alpha 90.000000
_cell_angle_beta 84.874990
_cell_angle_gamma 90.000000
_cell_volume 3032.250170
_symmetry_space_group_name_H-M "C 2/M"
_symmetry_group_IT_number 12
_symmetry_cell_setting 'monoclinic'
loop_
_space_group_symop_operation_xyz
x,y,z
-x,y,-z
-x,-y,-z
x,-y,z
1/2+x,1/2+y,z
1/2-x,1/2+y,-z
1/2-x,1/2-y,-z
1/2+x,1/2-y,z
loop_
_atom_site_type_symbol
_atom_site_label
_atom_site_fract_x
_atom_site_fract_y
_atom_site_fract_z
Si Si1 0.668285 0.640277 0.480026
Si Si2 0.220573 0.949049 0.767773
Si Si3 0.474524 0.944487 0.138901
Si Si4 0.659179 0.052648 0.502270
Si Si5 0.424516 0.306466 0.885399
Si Si6 0.426396 0.195736 0.882121
Si Si7 0.323056 0.345603 0.252399
Si Si8 0.183232 0.650533 0.764437
O O1 0.500000 0.641313 0.500000
O O2 0.729729 0.587442 0.448031
O O3 0.721626 0.655020 0.606690
O O4 0.734440 0.664676 0.361064
O O5 0.367614 0.943137 0.823100
O O6 0.274120 0.952187 0.630623
O O7 0.133525 0.900434 0.780283
O O8 0.153833 0.000000 0.805954
O O9 0.382307 0.902879 0.208336
O O10 0.423221 0.000000 0.155704
O O11 0.500000 0.934500 0.000000
O O12 0.500000 0.072274 0.500000
O O13 0.644559 0.000000 0.557775
O O14 0.384839 0.250950 0.898703
O O15 0.543407 0.312489 0.777745
O O16 0.291931 0.338020 0.860772
O O17 0.500000 0.321263 0.000000
O O18 0.295735 0.168772 0.832710
O O19 0.552613 0.186305 0.782960
O O20 0.500000 0.180445 0.000000
#
# Coordination Sequence:
#
# PCOD9208113 Si02
#       8
#     8   8   8   8   8   8   8   8
#     4  11  24  41  57  90 136 178 215 262 318 396
#     4   9  18  33  56  86 120 160 205 250 304 366
#     4  10  21  37  61  97 134 167 215 273 320 374
#     4   9  18  33  58  87 116 161 221 271 305 357
#     4  11  25  43  67  95 128 163 208 274 336 398
#     4  11  24  44  70  99 121 156 221 280 331 388
#     4  11  22  42  65  92 134 171 208 267 328 375
#     4  12  23  41  67  94 130 173 219 263 324 391
#
# _framework density 21.106438000000001
#
# number of rings (size 3 to 8) (size 9 to 14) (size 15 to 20)
#    0.000    1.500    2.500    2.625    3.500    3.750 
#    0.000    4.375    0.000    0.750    0.000    0.000 
#    0.000    0.000    0.000    0.000    0.000    0.000 
#
# Total GULP energy -178333.541276 kJ/mol
# GULP energy per Si atom -5572.923165 kJ/mol
# Density = 2.105840 g / cm^3
# Si number density = 21.106438 Si / 1000 Ang^3
#
#
#
# Elastic Constant Matrix: (Units=GPa)
#
#
# Indices 1 2 3 4 5 6 
#
# 1 56.0032 1.9546 11.9255 0.0000 -14.2301 0.0000
# 2 1.9546 55.5507 15.2542 0.0000 -1.3623 0.0000
# 3 11.9255 15.2542 88.0633 0.0000 -4.5983 0.0000
# 4 0.0000 0.0000 0.0000 12.2843 0.0000 0.1678
# 5 -14.2301 -1.3623 -4.5983 0.0000 33.3204 0.0000
# 6 0.0000 0.0000 0.0000 0.1678 0.0000 6.3737
#
#
#
# Elastic Compliance Matrix: (Units=1/GPa)
#
#
# Indices 1 2 3 4 5 6 
#
# 1 0.020497 0.000133 -0.002358 0.000000 0.008433 0.000000
# 2 0.000133 0.018905 -0.003273 0.000000 0.000378 0.000000
# 3 -0.002358 -0.003273 0.012271 0.000000 0.000552 0.000000
# 4 0.000000 0.000000 0.000000 0.081434 0.000000 -0.002144
# 5 0.008433 0.000378 0.000552 0.000000 0.033705 0.000000
# 6 0.000000 0.000000 0.000000 -0.002144 0.000000 0.156950
#
#
# Mechanical properties :
#
#
# Convention : Reuss Voigt Hill
#
# Bulk Modulus (GPa) = 24.58460 28.65398 26.61929
# Shear Modulus (GPa) = 14.35477 21.76122 18.05799
#
# Velocity S-wave (km/s) = 2.61073 3.21444 2.92818
# Velocity P-wave (km/s) = 4.55643 5.23280 4.90629
#
# Compressibility (1/GPa) = 0.04067587
#
# Stress axis : x y z
#
# Youngs Moduli (GPa) = 48.78874 52.89624 81.49550
#
# Poissons Ratio (x) = -0.00705 0.19219
# Poissons Ratio (y) = -0.00650 0.26673
# Poissons Ratio (z) = 0.11506 0.17313
#
# Static dielectric constant tensor:
#      x y z
#    x 1.721920 0.000000 -0.037160 
#    y 0.000000 1.856090 0.000000 
#    z -0.037160 0.000000 1.671060 
# 
# From -- ./inp_files/125728.got.cif
#   From: 2010.05.17/outbox.cif.g08.bks.cpg/sg12_63_cif.got.tgz:125728.got - 2010.06.03 13:09:07.
