data_PCOD9208837
_publ_section_title
;
Structure prediction by ZEFSAII (Michael W. Deem and Ramdas Pophale) SiO2 
 PCOD9208837
Probable space group: C 2/M
;
_chemical_formula_sum "Si O2"
_cell_formula_units_Z 36
_cell_length_a 5.286397
_cell_length_b 36.048075
_cell_length_c 12.409520
_cell_angle_alpha 90.000000
_cell_angle_beta 50.281162
_cell_angle_gamma 90.000000
_cell_volume 1818.989454
_symmetry_space_group_name_H-M "C 2/M"
_symmetry_group_IT_number 12
_symmetry_cell_setting 'monoclinic'
loop_
_space_group_symop_operation_xyz
x,y,z
-x,y,-z
-x,-y,-z
x,-y,z
1/2+x,1/2+y,z
1/2-x,1/2+y,-z
1/2-x,1/2-y,-z
1/2+x,1/2-y,z
loop_
_atom_site_type_symbol
_atom_site_label
_atom_site_fract_x
_atom_site_fract_y
_atom_site_fract_z
Si Si1 0.747312 0.088823 0.668445
Si Si2 0.245987 0.957872 0.669328
Si Si3 0.125435 0.643678 0.083040
Si Si4 0.000000 0.225166 0.500000
Si Si5 0.532204 0.775583 0.811855
O O1 0.444924 0.064778 0.704682
O O2 0.603549 0.125104 0.764310
O O3 0.000000 0.096312 0.500000
O O4 0.940948 0.064769 0.704679
O O5 0.500000 0.960381 0.500000
O O6 0.163780 0.000000 0.724152
O O7 0.111692 0.688428 0.092207
O O8 0.500000 0.631999 0.000000
O O9 0.000000 0.632000 0.000000
O O10 0.250000 0.250000 0.500000
O O11 0.229722 0.207528 0.346857
O O12 0.257286 0.750001 0.828463
#
# Coordination Sequence:
#
# PCOD9208837 Si02
#       5
#     8   8   8   4   8
#     4  10  21  38  62  89 119 158 197 237 289 354
#     4   9  17  33  61  95 121 146 192 248 290 333
#     4  12  26  41  59  85 121 161 194 246 301 346
#     4   8  16  32  54  82 108 134 173 238 297 334
#     4  10  21  38  60  84 111 148 198 247 295 347
#
# _framework density 19.791208999999998
#
# number of rings (size 3 to 8) (size 9 to 14) (size 15 to 20)
#    0.000    2.000    0.000    3.333    1.556    5.333 
#    0.000    0.000    0.000   13.333    0.000    0.000 
#    0.000    0.000    0.000    0.000    0.000    0.000 
#
# Total GULP energy -100430.675909 kJ/mol
# GULP energy per Si atom -5579.481995 kJ/mol
# Density = 1.974616 g / cm^3
# Si number density = 19.791209 Si / 1000 Ang^3
#
#
#
# Elastic Constant Matrix: (Units=GPa)
#
#
# Indices 1 2 3 4 5 6 
#
# 1 195.8688 68.1149 40.9080 0.0000 -15.9171 0.0000
# 2 68.1149 124.0327 39.6671 0.0000 -3.4810 0.0000
# 3 40.9080 39.6671 74.6371 0.0000 1.0055 0.0000
# 4 0.0000 0.0000 0.0000 22.1271 0.0000 -0.0366
# 5 -15.9171 -3.4810 1.0055 0.0000 14.9299 0.0000
# 6 0.0000 0.0000 0.0000 -0.0366 0.0000 22.2832
#
#
#
# Elastic Compliance Matrix: (Units=1/GPa)
#
#
# Indices 1 2 3 4 5 6 
#
# 1 0.007246 -0.002983 -0.002483 0.000000 0.007197 0.000000
# 2 -0.002983 0.011045 -0.004230 0.000000 -0.000321 0.000000
# 3 -0.002483 -0.004230 0.017072 0.000000 -0.004783 0.000000
# 4 0.000000 0.000000 0.000000 0.045193 0.000000 0.000074
# 5 0.007197 -0.000321 -0.004783 0.000000 0.074900 0.000000
# 6 0.000000 0.000000 0.000000 0.000074 0.000000 0.044877
#
#
# Mechanical properties :
#
#
# Convention : Reuss Voigt Hill
#
# Bulk Modulus (GPa) = 62.62036 76.87983 69.75009
# Shear Modulus (GPa) = 22.21720 28.25795 25.23757
#
# Velocity S-wave (km/s) = 3.35413 3.78273 3.57486
# Velocity P-wave (km/s) = 6.83443 7.61633 7.23595
#
# Compressibility (1/GPa) = 0.01596925
#
# Stress axis : x y z
#
# Youngs Moduli (GPa) = 137.99866 90.54102 58.57581
#
# Poissons Ratio (x) = 0.27012 0.14545
# Poissons Ratio (y) = 0.41171 0.24780
# Poissons Ratio (z) = 0.34266 0.38302
#
# Static dielectric constant tensor:
#      x y z
#    x 1.672700 0.000000 0.006180 
#    y 0.000000 1.660150 0.000000 
#    z 0.006180 0.000000 1.722800 
# 
# From -- ./inp_files/192507.got.cif
#   From: 2010.05.17/outbox.cif.g08.bks.cpg/sg12_97_cif.got.tgz:192507.got - 2010.06.03 13:09:07.
