data_PCOD9208450
_publ_section_title
;
Structure prediction by ZEFSAII (Michael W. Deem and Ramdas Pophale) SiO2 
 PCOD9208450
Probable space group: C 2/M
;
_chemical_formula_sum "Si O2"
_cell_formula_units_Z 56
_cell_length_a 10.855293
_cell_length_b 28.549278
_cell_length_c 9.398499
_cell_angle_alpha 90.000000
_cell_angle_beta 109.852828
_cell_angle_gamma 90.000000
_cell_volume 2739.588908
_symmetry_space_group_name_H-M "C 2/M"
_symmetry_group_IT_number 12
_symmetry_cell_setting 'monoclinic'
loop_
_space_group_symop_operation_xyz
x,y,z
-x,y,-z
-x,-y,-z
x,-y,z
1/2+x,1/2+y,z
1/2-x,1/2+y,-z
1/2-x,1/2-y,-z
1/2+x,1/2-y,z
loop_
_atom_site_type_symbol
_atom_site_label
_atom_site_fract_x
_atom_site_fract_y
_atom_site_fract_z
Si Si1 0.081561 0.198014 0.385180
Si Si2 0.111908 0.693161 0.424779
Si Si3 0.221868 0.445543 0.068101
Si Si4 0.640779 0.102876 0.297506
Si Si5 0.906562 0.550728 0.290852
Si Si6 0.824942 0.946476 0.574024
Si Si7 0.021933 0.885452 0.838563
O O1 0.078718 0.254089 0.363546
O O2 0.239249 0.188740 0.453943
O O3 0.013787 0.165326 0.240108
O O4 0.000000 0.188604 0.500000
O O5 0.125407 0.658401 0.295136
O O6 0.000000 0.682171 0.500000
O O7 0.260393 0.500000 0.111838
O O8 0.122816 0.427113 0.148362
O O9 0.334306 0.406576 0.124318
O O10 0.167595 0.444456 0.887856
O O11 0.518623 0.088160 0.346220
O O12 0.775113 0.084266 0.421771
O O13 0.973729 0.500000 0.319522
O O14 0.798355 0.551902 0.368671
O O15 0.934111 0.920891 0.709932
O O16 0.858971 0.000000 0.547637
O O17 0.000000 0.886831 0.000000
#
# Coordination Sequence:
#
# PCOD9208450 Si02
#       7
#     8   8   8   8   8   8   8
#     4  10  22  43  66  95 124 164 212 269 325 387
#     4  10  21  39  69  94 124 163 213 262 329 389
#     4  11  24  40  60  88 128 175 209 253 320 385
#     4  12  22  37  62  93 122 156 211 269 312 369
#     4  10  21  38  57  82 123 166 203 246 310 377
#     4  11  22  36  58  88 119 161 210 255 301 365
#     4  12  24  40  62  87 126 167 212 260 319 381
#
# _framework density 20.441023000000001
#
# number of rings (size 3 to 8) (size 9 to 14) (size 15 to 20)
#    0.000    1.143    2.857    4.286    0.000    2.857 
#    0.000    2.857    0.000    9.429    0.000    0.000 
#    0.000    0.000    0.000    0.000    0.000    0.000 
#
# Total GULP energy -156163.446491 kJ/mol
# GULP energy per Si atom -5577.265946 kJ/mol
# Density = 2.039450 g / cm^3
# Si number density = 20.441023 Si / 1000 Ang^3
#
#
#
# Elastic Constant Matrix: (Units=GPa)
#
#
# Indices 1 2 3 4 5 6 
#
# 1 75.8750 16.9338 18.1479 0.0000 0.8993 0.0000
# 2 16.9338 112.2647 35.6394 0.0000 6.4201 0.0000
# 3 18.1479 35.6394 90.9583 0.0000 -1.0253 0.0000
# 4 0.0000 0.0000 0.0000 49.5053 0.0000 23.8052
# 5 0.8993 6.4201 -1.0253 0.0000 31.9752 0.0000
# 6 0.0000 0.0000 0.0000 23.8052 0.0000 40.8137
#
#
#
# Elastic Compliance Matrix: (Units=1/GPa)
#
#
# Indices 1 2 3 4 5 6 
#
# 1 0.014032 -0.001389 -0.002257 0.000000 -0.000188 0.000000
# 2 -0.001389 0.010463 -0.003847 0.000000 -0.002185 0.000000
# 3 -0.002257 -0.003847 0.012966 0.000000 0.001252 0.000000
# 4 0.000000 0.000000 0.000000 0.028074 0.000000 -0.016374
# 5 -0.000188 -0.002185 0.001252 0.000000 0.031758 0.000000
# 6 0.000000 0.000000 0.000000 -0.016374 0.000000 0.034052
#
#
# Mechanical properties :
#
#
# Convention : Reuss Voigt Hill
#
# Bulk Modulus (GPa) = 44.49684 46.72669 45.61176
# Shear Modulus (GPa) = 32.50466 38.35064 35.42765
#
# Velocity S-wave (km/s) = 3.99202 4.33617 4.16765
# Velocity P-wave (km/s) = 6.56231 6.92666 6.74695
#
# Compressibility (1/GPa) = 0.02247351
#
# Stress axis : x y z
#
# Youngs Moduli (GPa) = 71.26691 95.57167 77.12489
#
# Poissons Ratio (x) = 0.13276 0.17410
# Poissons Ratio (y) = 0.09900 0.29672
# Poissons Ratio (z) = 0.16088 0.36769
#
# Static dielectric constant tensor:
#      x y z
#    x 1.776140 0.000000 -0.025620 
#    y 0.000000 1.757870 0.000000 
#    z -0.025620 0.000000 1.749110 
# 
# From -- ./inp_files/53153.got.cif
#   From: 2010.05.17/outbox.cif.g08.bks.cpg/sg12_27_cif.got.tgz:53153.got - 2010.06.03 13:09:07.
