data_PCOD9208455
_publ_section_title
;
Structure prediction by ZEFSAII (Michael W. Deem and Ramdas Pophale) SiO2 
 PCOD9208455
Probable space group: C 2/M
;
_chemical_formula_sum "Si O2"
_cell_formula_units_Z 48
_cell_length_a 13.108200
_cell_length_b 15.735339
_cell_length_c 11.914208
_cell_angle_alpha 90.000000
_cell_angle_beta 88.818127
_cell_angle_gamma 90.000000
_cell_volume 2456.925222
_symmetry_space_group_name_H-M "C 2/M"
_symmetry_group_IT_number 12
_symmetry_cell_setting 'monoclinic'
loop_
_space_group_symop_operation_xyz
x,y,z
-x,y,-z
-x,-y,-z
x,-y,z
1/2+x,1/2+y,z
1/2-x,1/2+y,-z
1/2-x,1/2-y,-z
1/2+x,1/2-y,z
loop_
_atom_site_type_symbol
_atom_site_label
_atom_site_fract_x
_atom_site_fract_y
_atom_site_fract_z
Si Si1 0.883709 0.405466 0.960476
Si Si2 0.310794 0.095483 0.381820
Si Si3 0.461258 0.758932 0.344721
Si Si4 0.155900 0.098623 0.575948
Si Si5 0.684432 0.189975 0.833089
Si Si6 0.668192 0.829312 0.268004
O O1 0.843149 0.500000 0.982638
O O2 0.877753 0.387635 0.828710
O O3 0.825314 0.338281 0.039726
O O4 0.000000 0.402745 0.000000
O O5 0.392098 0.169258 0.407603
O O6 0.206665 0.110165 0.452225
O O7 0.298550 0.108702 0.248737
O O8 0.345918 0.000000 0.407351
O O9 0.430645 0.667377 0.393250
O O10 0.418235 0.767270 0.217236
O O11 0.577522 0.786568 0.340033
O O12 0.250424 0.121348 0.657116
O O13 0.125232 0.000000 0.589478
O O14 0.771873 0.255306 0.798425
#
# Coordination Sequence:
#
# PCOD9208455 Si02
#       6
#     8   8   8   8   8   8
#     4  11  20  34  56  81 109 139 180 236 287 329
#     4   9  18  36  58  81 113 145 183 235 284 325
#     4   9  20  35  55  82 112 146 185 230 280 330
#     4  10  21  38  57  83 117 152 188 232 280 336
#     4   9  20  35  54  78 111 146 182 226 279 330
#     4  11  21  35  56  83 109 151 190 228 275 341
#
# _framework density 19.536614
#
# number of rings (size 3 to 8) (size 9 to 14) (size 15 to 20)
#    1.000    1.167    1.667    2.000    0.000    2.000 
#    0.000    3.333    0.000    2.000    0.000    5.833 
#    0.000    0.000    0.000    0.000    0.000    0.000 
#
# Total GULP energy -133766.187924 kJ/mol
# GULP energy per Si atom -5573.591164 kJ/mol
# Density = 1.949215 g / cm^3
# Si number density = 19.536614 Si / 1000 Ang^3
#
#
#
# Elastic Constant Matrix: (Units=GPa)
#
#
# Indices 1 2 3 4 5 6 
#
# 1 21.4495 8.4136 13.0732 0.0000 10.4615 0.0000
# 2 8.4136 112.2785 19.1451 0.0000 -13.5125 0.0000
# 3 13.0732 19.1451 69.4544 0.0000 2.7540 0.0000
# 4 0.0000 0.0000 0.0000 24.9875 0.0000 -4.8841
# 5 10.4615 -13.5125 2.7540 0.0000 22.2796 0.0000
# 6 0.0000 0.0000 0.0000 -4.8841 0.0000 -4.6290
#
#
#
# Elastic Compliance Matrix: (Units=1/GPa)
#
#
# Indices 1 2 3 4 5 6 
#
# 1 0.075502 -0.008653 -0.010263 0.000000 -0.039432 0.000000
# 2 -0.008653 0.011215 -0.001903 0.000000 0.011100 0.000000
# 3 -0.010263 -0.001903 0.016791 0.000000 0.001589 0.000000
# 4 0.000000 0.000000 0.000000 0.033178 0.000000 -0.035006
# 5 -0.039432 0.011100 0.001589 0.000000 0.069935 0.000000
# 6 0.000000 0.000000 0.000000 -0.035006 0.000000 -0.179096
#
#
# Mechanical properties :
#
#
# Convention : Reuss Voigt Hill
#
# Bulk Modulus (GPa) = 16.16273 31.60516 23.88394
# Shear Modulus (GPa) = 55.68674 19.36433 37.52554
#
# Velocity S-wave (km/s) = 5.34469 3.15172 4.38743
# Velocity P-wave (km/s) = 6.81018 5.42743 6.15774
#
# Compressibility (1/GPa) = 0.06187074
#
# Stress axis : x y z
#
# Youngs Moduli (GPa) = 13.24462 89.16427 59.55510
#
# Poissons Ratio (x) = 0.77158 0.61120
# Poissons Ratio (y) = 0.11461 0.11332
# Poissons Ratio (z) = 0.13593 0.16966
#
# Static dielectric constant tensor:
#      x y z
#    x 1.697600 0.000000 0.028140 
#    y 0.000000 1.689450 0.000000 
#    z 0.028140 0.000000 1.690000 
# 
# From -- ./inp_files/142694.got.cif
#   From: 2010.05.17/outbox.cif.g08.bks.cpg/sg12_72_cif.got.tgz:142694.got - 2010.06.03 13:09:07.
