data_PCOD9208252
_publ_section_title
;
Structure prediction by ZEFSAII (Michael W. Deem and Ramdas Pophale) SiO2 
 PCOD9208252
Probable space group: C 2/M
;
_chemical_formula_sum "Si O2"
_cell_formula_units_Z 56
_cell_length_a 13.024934
_cell_length_b 14.612116
_cell_length_c 19.182812
_cell_angle_alpha 90.000000
_cell_angle_beta 133.882318
_cell_angle_gamma 90.000000
_cell_volume 2631.447096
_symmetry_space_group_name_H-M "C 2/M"
_symmetry_group_IT_number 12
_symmetry_cell_setting 'monoclinic'
loop_
_space_group_symop_operation_xyz
x,y,z
-x,y,-z
-x,-y,-z
x,-y,z
1/2+x,1/2+y,z
1/2-x,1/2+y,-z
1/2-x,1/2-y,-z
1/2+x,1/2-y,z
loop_
_atom_site_type_symbol
_atom_site_label
_atom_site_fract_x
_atom_site_fract_y
_atom_site_fract_z
Si Si1 0.648218 0.600437 0.530222
Si Si2 0.955706 0.792469 0.639745
Si Si3 0.987903 0.599606 0.108666
Si Si4 0.540640 0.899870 0.289810
Si Si5 0.596605 0.609869 0.238358
Si Si6 0.779127 0.819207 0.075711
Si Si7 0.760172 0.739706 0.788642
O O1 0.500000 0.604206 0.500000
O O2 0.654810 0.500000 0.497846
O O3 0.642608 0.679391 0.470440
O O4 0.788723 0.604994 0.643625
O O5 0.899640 0.845464 0.682055
O O6 0.119889 0.814970 0.696494
O O7 0.977386 0.685859 0.668530
O O8 0.053751 0.500000 0.128013
O O9 0.958265 0.605472 0.178029
O O10 0.098140 0.679877 0.149408
O O11 0.851104 0.610743 0.995434
O O12 0.510164 0.000000 0.306554
O O13 0.621042 0.500000 0.249559
O O14 0.431999 0.632354 0.140575
O O15 0.701107 0.667776 0.235920
O O16 0.769106 0.761495 0.142195
O O17 0.750000 0.750000 0.000000
#
# Coordination Sequence:
#
# PCOD9208252 Si02
#       7
#     8   8   8   8   8   8   8
#     4  10  21  37  63  97 125 156 205 260 313 374
#     4  11  22  40  66  90 128 168 210 258 316 377
#     4  11  21  37  62  89 119 157 205 259 315 366
#     4  10  21  39  61  89 123 159 203 255 312 373
#     4  11  24  42  64  93 127 171 216 260 315 379
#     4  11  22  40  62  87 126 163 209 259 313 373
#     4  11  23  39  61  90 125 161 208 265 308 372
#
# _framework density 21.281067
#
# number of rings (size 3 to 8) (size 9 to 14) (size 15 to 20)
#    0.000    1.286    2.857    3.429    0.000    5.714 
#    0.000    2.143    0.000    0.429    0.000    0.000 
#    0.000    0.000    0.000    0.000    0.000    0.000 
#
# Total GULP energy -156115.387525 kJ/mol
# GULP energy per Si atom -5575.549554 kJ/mol
# Density = 2.123263 g / cm^3
# Si number density = 21.281067 Si / 1000 Ang^3
#
#
#
# Elastic Constant Matrix: (Units=GPa)
#
#
# Indices 1 2 3 4 5 6 
#
# 1 59.6257 40.2759 15.9652 0.0000 -1.8727 0.0000
# 2 40.2759 124.6470 19.9326 0.0000 -25.5531 0.0000
# 3 15.9652 19.9326 70.6863 0.0000 -2.9103 0.0000
# 4 0.0000 0.0000 0.0000 24.3804 0.0000 -0.7616
# 5 -1.8727 -25.5531 -2.9103 0.0000 25.6872 0.0000
# 6 0.0000 0.0000 0.0000 -0.7616 0.0000 22.7973
#
#
#
# Elastic Compliance Matrix: (Units=1/GPa)
#
#
# Indices 1 2 3 4 5 6 
#
# 1 0.023055 -0.008387 -0.003131 0.000000 -0.007018 0.000000
# 2 -0.008387 0.013566 -0.001407 0.000000 0.012725 0.000000
# 3 -0.003131 -0.001407 0.015255 0.000000 0.000100 0.000000
# 4 0.000000 0.000000 0.000000 0.041059 0.000000 0.001372
# 5 -0.007018 0.012725 0.000100 0.000000 0.051088 0.000000
# 6 0.000000 0.000000 0.000000 0.001372 0.000000 0.043911
#
#
# Mechanical properties :
#
#
# Convention : Reuss Voigt Hill
#
# Bulk Modulus (GPa) = 38.42449 45.25629 41.84039
# Shear Modulus (GPa) = 22.47588 26.49197 24.48393
#
# Velocity S-wave (km/s) = 3.25336 3.53209 3.39559
# Velocity P-wave (km/s) = 5.67516 6.16006 5.92257
#
# Compressibility (1/GPa) = 0.02602507
#
# Stress axis : x y z
#
# Youngs Moduli (GPa) = 43.37503 73.71125 65.55178
#
# Poissons Ratio (x) = 0.61825 0.20524
# Poissons Ratio (y) = 0.36380 0.09225
# Poissons Ratio (z) = 0.13580 0.10373
#
# Static dielectric constant tensor:
#      x y z
#    x 1.839870 0.000000 0.029110 
#    y 0.000000 1.839230 0.000000 
#    z 0.029110 0.000000 1.804870 
# 
# From -- ./inp_files/270407.got.cif
#   From: 2010.05.17/outbox.cif.g08.bks.cpg/sg12_136_cif.got.tgz:270407.got - 2010.06.03 13:09:07.
