data_PCOD9208650
_publ_section_title
;
Structure prediction by ZEFSAII (Michael W. Deem and Ramdas Pophale) SiO2 
 PCOD9208650
Probable space group: C 2/M
;
_chemical_formula_sum "Si O2"
_cell_formula_units_Z 64
_cell_length_a 23.505635
_cell_length_b 13.669379
_cell_length_c 9.103346
_cell_angle_alpha 90.000000
_cell_angle_beta 107.399900
_cell_angle_gamma 90.000000
_cell_volume 2791.128474
_symmetry_space_group_name_H-M "C 2/M"
_symmetry_group_IT_number 12
_symmetry_cell_setting 'monoclinic'
loop_
_space_group_symop_operation_xyz
x,y,z
-x,y,-z
-x,-y,-z
x,-y,z
1/2+x,1/2+y,z
1/2-x,1/2+y,-z
1/2-x,1/2-y,-z
1/2+x,1/2-y,z
loop_
_atom_site_type_symbol
_atom_site_label
_atom_site_fract_x
_atom_site_fract_y
_atom_site_fract_z
Si Si1 0.688926 0.111279 0.270520
Si Si2 0.926772 0.390155 0.616460
Si Si3 0.791607 0.116228 0.542778
Si Si4 0.081253 0.887066 0.470742
Si Si5 0.108704 0.285498 0.700073
Si Si6 0.145642 0.772183 0.029467
Si Si7 0.543380 0.296211 0.170847
Si Si8 0.740460 0.883760 0.828472
O O1 0.639076 0.109614 0.360044
O O2 0.746173 0.158394 0.389817
O O3 0.699134 0.000000 0.233382
O O4 0.671004 0.172642 0.117305
O O5 0.951346 0.500000 0.650669
O O6 0.920668 0.361667 0.439515
O O7 0.957822 0.307789 0.741752
O O8 0.857060 0.149631 0.556360
O O9 0.768031 0.124641 0.687119
O O10 0.792652 0.000000 0.515250
O O11 0.082637 0.814128 0.607358
O O12 0.036186 0.871090 0.300746
O O13 0.081761 0.000000 0.513953
O O14 0.101351 0.260330 0.865665
O O15 0.178241 0.323686 0.767958
O O16 0.105880 0.814800 0.131484
O O17 0.203682 0.838663 0.034388
O O18 0.500000 0.300197 0.000000
O O19 0.730262 0.000000 0.852769
#
# Coordination Sequence:
#
# PCOD9208650 Si02
#       8
#     8   8   8   8   8   8   8   8
#     4   9  17  31  53  81 110 148 192 230 268 326
#     4   9  18  35  58  82 111 146 185 230 283 341
#     4   9  16  29  53  79 105 143 188 226 262 317
#     4  10  21  38  59  83 111 149 195 236 279 335
#     4  11  22  35  55  86 120 154 181 224 285 350
#     4  11  23  36  54  85 119 152 190 235 285 333
#     4  10  22  40  63  85 108 144 196 251 288 326
#     4  11  21  34  55  84 120 158 190 223 275 340
#
# _framework density 22.929793
#
# number of rings (size 3 to 8) (size 9 to 14) (size 15 to 20)
#    0.000    2.000    2.500    1.500    0.000    3.000 
#    0.000    3.750    0.000    1.500    0.000    0.000 
#    0.000    0.000    0.000    0.000    0.000    0.000 
#
# Total GULP energy -178267.887680 kJ/mol
# GULP energy per Si atom -5570.871490 kJ/mol
# Density = 2.287760 g / cm^3
# Si number density = 22.929793 Si / 1000 Ang^3
#
#
#
# Elastic Constant Matrix: (Units=GPa)
#
#
# Indices 1 2 3 4 5 6 
#
# 1 40.6490 9.7073 11.6647 0.0000 10.6206 0.0000
# 2 9.7073 104.1167 18.9654 0.0000 5.2944 0.0000
# 3 11.6647 18.9654 134.9445 0.0000 14.5145 0.0000
# 4 0.0000 0.0000 0.0000 -9.4576 0.0000 -9.9783
# 5 10.6206 5.2944 14.5145 0.0000 31.5958 0.0000
# 6 0.0000 0.0000 0.0000 -9.9783 0.0000 5.6788
#
#
#
# Elastic Compliance Matrix: (Units=1/GPa)
#
#
# Indices 1 2 3 4 5 6 
#
# 1 0.027603 -0.001926 -0.001212 0.000000 -0.008399 0.000000
# 2 -0.001926 0.010026 -0.001190 0.000000 -0.000486 0.000000
# 3 -0.001212 -0.001190 0.008013 0.000000 -0.003074 0.000000
# 4 0.000000 0.000000 0.000000 -0.037050 0.000000 -0.065101
# 5 -0.008399 -0.000486 -0.003074 0.000000 0.035967 0.000000
# 6 0.000000 0.000000 0.000000 -0.065101 0.000000 0.061704
#
#
# Mechanical properties :
#
#
# Convention : Reuss Voigt Hill
#
# Bulk Modulus (GPa) = 27.03740 40.04279 33.54009
# Shear Modulus (GPa) = 39.29367 21.52158 30.40763
#
# Velocity S-wave (km/s) = 4.14412 3.06696 3.64554
# Velocity P-wave (km/s) = 5.89197 5.48113 5.69026
#
# Compressibility (1/GPa) = 0.03698580
#
# Stress axis : x y z
#
# Youngs Moduli (GPa) = 36.22802 99.74389 124.79447
#
# Poissons Ratio (x) = 0.19208 0.15125
# Poissons Ratio (y) = 0.06976 0.14855
# Poissons Ratio (z) = 0.04391 0.11873
#
# Static dielectric constant tensor:
#      x y z
#    x 2.015060 0.000000 0.028440 
#    y 0.000000 1.864890 0.000000 
#    z 0.028440 0.000000 1.824500 
# 
# From -- ./inp_files/104689.got.cif
#   From: 2010.05.17/outbox.cif.g08.bks.cpg/sg12_53_cif.got.tgz:104689.got - 2010.06.03 13:09:07.
