data_PCOD9208807
_publ_section_title
;
Structure prediction by ZEFSAII (Michael W. Deem and Ramdas Pophale) SiO2 
 PCOD9208807
Probable space group: C 2/M
;
_chemical_formula_sum "Si O2"
_cell_formula_units_Z 56
_cell_length_a 21.823149
_cell_length_b 16.795759
_cell_length_c 9.789048
_cell_angle_alpha 90.000000
_cell_angle_beta 131.377806
_cell_angle_gamma 90.000000
_cell_volume 2692.348902
_symmetry_space_group_name_H-M "C 2/M"
_symmetry_group_IT_number 12
_symmetry_cell_setting 'monoclinic'
loop_
_space_group_symop_operation_xyz
x,y,z
-x,y,-z
-x,-y,-z
x,-y,z
1/2+x,1/2+y,z
1/2-x,1/2+y,-z
1/2-x,1/2-y,-z
1/2+x,1/2-y,z
loop_
_atom_site_type_symbol
_atom_site_label
_atom_site_fract_x
_atom_site_fract_y
_atom_site_fract_z
Si Si1 0.410542 0.282184 0.338772
Si Si2 0.717488 0.589833 0.937617
Si Si3 0.650765 0.912705 0.081704
Si Si4 0.739354 0.374039 0.512814
Si Si5 0.445904 0.244316 0.084327
Si Si6 0.637046 0.588501 0.104868
Si Si7 0.370998 0.223887 0.566985
O O1 0.500000 0.319043 0.500000
O O2 0.340881 0.347533 0.221721
O O3 0.419211 0.243794 0.203836
O O4 0.390010 0.224560 0.433897
O O5 0.690621 0.500000 0.866044
O O6 0.806779 0.597882 0.004127
O O7 0.703218 0.599411 0.079170
O O8 0.724752 0.914557 0.299986
O O9 0.609560 0.000000 0.025029
O O10 0.597411 0.834870 0.036880
O O11 0.679740 0.413149 0.314792
O O12 0.688692 0.297890 0.490899
O O13 0.819644 0.349948 0.544810
O O14 0.417489 0.331154 0.987125
O O15 0.456571 0.236265 0.770632
O O16 0.598361 0.500000 0.025345
#
# Coordination Sequence:
#
# PCOD9208807 Si02
#       7
#     8   8   8   8   8   8   8
#     4   9  18  34  59  88 116 151 195 242 298 349
#     4   9  19  35  57  85 119 153 200 244 282 349
#     4  11  23  40  61  89 117 157 204 244 292 346
#     4  11  22  37  62  85 123 158 193 244 292 358
#     4  10  22  39  64  87 120 156 197 249 291 349
#     4  10  22  39  60  91 121 156 195 239 297 353
#     4  10  21  38  59  92 118 158 200 237 299 352
#
# _framework density 20.799681
#
# number of rings (size 3 to 8) (size 9 to 14) (size 15 to 20)
#    0.000    2.000    1.429    2.143    2.000    3.714 
#    0.000    6.429    0.000    3.857    0.000    0.000 
#    0.000    0.000    0.000    0.000    0.000    0.000 
#
# Total GULP energy -156097.989330 kJ/mol
# GULP energy per Si atom -5574.928190 kJ/mol
# Density = 2.075234 g / cm^3
# Si number density = 20.799681 Si / 1000 Ang^3
#
#
#
# Elastic Constant Matrix: (Units=GPa)
#
#
# Indices 1 2 3 4 5 6 
#
# 1 75.1391 26.1528 9.9479 0.0000 -7.2439 0.0000
# 2 26.1528 98.7501 24.3366 0.0000 17.1384 0.0000
# 3 9.9479 24.3366 75.3066 0.0000 -1.5999 0.0000
# 4 0.0000 0.0000 0.0000 41.0044 0.0000 6.0122
# 5 -7.2439 17.1384 -1.5999 0.0000 35.8589 0.0000
# 6 0.0000 0.0000 0.0000 6.0122 0.0000 4.5453
#
#
#
# Elastic Compliance Matrix: (Units=1/GPa)
#
#
# Indices 1 2 3 4 5 6 
#
# 1 0.015634 -0.005023 -0.000324 0.000000 0.005545 0.000000
# 2 -0.005023 0.013782 -0.003955 0.000000 -0.007778 0.000000
# 3 -0.000324 -0.003955 0.014653 0.000000 0.002479 0.000000
# 4 0.000000 0.000000 0.000000 0.030255 0.000000 -0.040020
# 5 0.005545 -0.007778 0.002479 0.000000 0.032835 0.000000
# 6 0.000000 0.000000 0.000000 -0.040020 0.000000 0.272941
#
#
# Mechanical properties :
#
#
# Convention : Reuss Voigt Hill
#
# Bulk Modulus (GPa) = 39.27195 41.11893 40.19544
# Shear Modulus (GPa) = 12.27917 28.86563 20.57240
#
# Velocity S-wave (km/s) = 2.43236 3.72935 3.14836
# Velocity P-wave (km/s) = 5.17789 6.19322 5.70817
#
# Compressibility (1/GPa) = 0.02546347
#
# Stress axis : x y z
#
# Youngs Moduli (GPa) = 63.96163 72.56089 68.24623
#
# Poissons Ratio (x) = 0.36447 0.02213
# Poissons Ratio (y) = 0.32128 0.26995
# Poissons Ratio (z) = 0.02074 0.28701
#
# Static dielectric constant tensor:
#      x y z
#    x 1.755670 0.000000 -0.028940 
#    y 0.000000 1.758400 0.000000 
#    z -0.028940 0.000000 1.762330 
# 
# From -- ./inp_files/105621.got.cif
#   From: 2010.05.17/outbox.cif.g08.bks.cpg/sg12_53_cif.got.tgz:105621.got - 2010.06.03 13:09:07.
