data_PCOD9208957
_publ_section_title
;
Structure prediction by ZEFSAII (Michael W. Deem and Ramdas Pophale) SiO2 
 PCOD9208957
Probable space group: C 2/M
;
_chemical_formula_sum "Si O2"
_cell_formula_units_Z 56
_cell_length_a 10.871525
_cell_length_b 28.368858
_cell_length_c 10.238053
_cell_angle_alpha 90.000000
_cell_angle_beta 126.378780
_cell_angle_gamma 90.000000
_cell_volume 2542.183031
_symmetry_space_group_name_H-M "C 2/M"
_symmetry_group_IT_number 12
_symmetry_cell_setting 'monoclinic'
loop_
_space_group_symop_operation_xyz
x,y,z
-x,y,-z
-x,-y,-z
x,-y,z
1/2+x,1/2+y,z
1/2-x,1/2+y,-z
1/2-x,1/2-y,-z
1/2+x,1/2-y,z
loop_
_atom_site_type_symbol
_atom_site_label
_atom_site_fract_x
_atom_site_fract_y
_atom_site_fract_z
Si Si1 0.655093 0.192980 0.811521
Si Si2 0.180681 0.900421 0.148739
Si Si3 0.526538 0.354976 0.372112
Si Si4 0.741431 0.800479 0.149156
Si Si5 0.012723 0.556523 0.661094
Si Si6 0.823539 0.055443 0.567831
Si Si7 0.812644 0.698279 0.578791
O O1 0.770994 0.154284 0.828912
O O2 0.716175 0.245431 0.825263
O O3 0.485739 0.189709 0.646140
O O4 0.637662 0.189587 0.958472
O O5 0.335400 0.922132 0.176879
O O6 0.188304 0.930168 0.287618
O O7 0.000000 0.904343 0.000000
O O8 0.500000 0.335213 0.500000
O O9 0.390399 0.332169 0.207826
O O10 0.538582 0.410846 0.387212
O O11 0.692789 0.337077 0.437751
O O12 0.693194 0.809766 0.267741
O O13 0.027810 0.500000 0.671212
O O14 0.840516 0.567135 0.603709
O O15 0.000000 0.571602 0.500000
O O16 0.850364 0.000000 0.570761
O O17 0.750000 0.750000 0.500000
#
# Coordination Sequence:
#
# PCOD9208957 Si02
#       7
#     8   8   8   8   8   8   8
#     4  11  23  38  59  84 123 164 200 240 316 371
#     4  11  22  34  56  88 119 156 200 248 300 367
#     4  10  21  39  58  85 120 156 210 262 295 363
#     4  10  23  40  56  83 123 162 199 254 301 368
#     4   8  16  33  52  77 115 153 189 241 309 365
#     4  10  21  38  60  87 122 160 201 256 318 367
#     4  11  22  38  62  87 115 158 212 256 297 353
#
# _framework density 22.028310000000001
#
# number of rings (size 3 to 8) (size 9 to 14) (size 15 to 20)
#    0.000    1.857    1.429    3.429    2.000    3.714 
#    0.000    0.000    0.000    0.000    0.000    0.000 
#    0.000   19.429    0.000    0.000    0.000    0.000 
#
# Total GULP energy -155940.666926 kJ/mol
# GULP energy per Si atom -5569.309533 kJ/mol
# Density = 2.197817 g / cm^3
# Si number density = 22.028310 Si / 1000 Ang^3
#
#
#
# Elastic Constant Matrix: (Units=GPa)
#
#
# Indices 1 2 3 4 5 6 
#
# 1 -122.5857 -28.3254 51.4429 0.0000 -14.1248 0.0000
# 2 -28.3254 103.3424 30.4061 0.0000 23.2011 0.0000
# 3 51.4429 30.4061 97.8768 0.0000 42.4192 0.0000
# 4 0.0000 0.0000 0.0000 43.9314 0.0000 -15.7218
# 5 -14.1248 23.2011 42.4192 0.0000 52.2203 0.0000
# 6 0.0000 0.0000 0.0000 -15.7218 0.0000 54.5318
#
#
#
# Elastic Compliance Matrix: (Units=1/GPa)
#
#
# Indices 1 2 3 4 5 6 
#
# 1 -0.004971 -0.001832 0.005265 0.000000 -0.004807 0.000000
# 2 -0.001832 0.010322 -0.000064 0.000000 -0.005030 0.000000
# 3 0.005265 -0.000064 0.010556 0.000000 -0.007122 0.000000
# 4 0.000000 0.000000 0.000000 0.025382 0.000000 0.007318
# 5 -0.004807 -0.005030 -0.007122 0.000000 0.025870 0.000000
# 6 0.000000 0.000000 0.000000 0.007318 0.000000 0.020448
#
#
# Mechanical properties :
#
#
# Convention : Reuss Voigt Hill
#
# Bulk Modulus (GPa) = 44.15711 20.63120 32.39415
# Shear Modulus (GPa) = 56.55018 31.81069 44.18043
#
# Velocity S-wave (km/s) = 5.07221 3.80423 4.48327
# Velocity P-wave (km/s) = 7.37511 5.35559 6.44494
#
# Compressibility (1/GPa) = 0.02264641
#
# Stress axis : x y z
#
# Youngs Moduli (GPa) = -201.17992 96.87700 94.73135
#
# Poissons Ratio (x) = 0.17751 -0.49879
# Poissons Ratio (y) = -0.36862 0.00603
# Poissons Ratio (z) = 1.05927 0.00617
#
# Static dielectric constant tensor:
#      x y z
#    x 1.969190 0.000000 0.033270 
#    y 0.000000 1.824900 0.000000 
#    z 0.033270 0.000000 1.845150 
# 
# From -- ./inp_files/137031.got.cif
#   From: 2010.05.17/outbox.cif.g08.bks.cpg/sg12_69_cif.got.tgz:137031.got - 2010.06.03 13:09:07.
