data_PCOD9208363
_publ_section_title
;
Structure prediction by ZEFSAII (Michael W. Deem and Ramdas Pophale) SiO2 
 PCOD9208363
Probable space group: C 2/M
;
_chemical_formula_sum "Si O2"
_cell_formula_units_Z 48
_cell_length_a 11.994235
_cell_length_b 13.983003
_cell_length_c 24.768064
_cell_angle_alpha 90.000000
_cell_angle_beta 33.736866
_cell_angle_gamma 90.000000
_cell_volume 2307.039361
_symmetry_space_group_name_H-M "C 2/M"
_symmetry_group_IT_number 12
_symmetry_cell_setting 'monoclinic'
loop_
_space_group_symop_operation_xyz
x,y,z
-x,y,-z
-x,-y,-z
x,-y,z
1/2+x,1/2+y,z
1/2-x,1/2+y,-z
1/2-x,1/2-y,-z
1/2+x,1/2-y,z
loop_
_atom_site_type_symbol
_atom_site_label
_atom_site_fract_x
_atom_site_fract_y
_atom_site_fract_z
Si Si1 0.060569 0.883271 0.915874
Si Si2 0.646249 0.701245 0.489100
Si Si3 0.756203 0.383362 0.044480
Si Si4 0.776108 0.383730 0.155204
Si Si5 0.194409 0.887075 0.303892
Si Si6 0.483373 0.115931 0.276501
O O1 0.286428 0.854782 0.810583
O O2 0.898885 0.850102 0.937673
O O3 0.057025 0.000000 0.917696
O O4 0.000000 0.851728 0.000000
O O5 0.500000 0.747862 0.500000
O O6 0.750000 0.750000 0.500000
O O7 0.489382 0.631611 0.582099
O O8 0.829986 0.654190 0.382940
O O9 0.749222 0.500000 0.047298
O O10 0.700498 0.350730 0.127301
O O11 0.987190 0.360569 0.938506
O O12 0.760793 0.500000 0.159907
O O13 0.672016 0.349542 0.252079
O O14 0.392854 0.852388 0.255125
O O15 0.218586 0.000000 0.288512
O O16 0.478038 0.000000 0.280412
#
# Coordination Sequence:
#
# PCOD9208363 Si02
#       6
#     8   8   8   8   8   8
#     4   9  15  23  39  68 102 128 154 191 244 296
#     4  10  21  38  55  73  96 131 170 209 252 301
#     4   8  13  21  34  59  99 133 152 183 233 290
#     4   8  13  22  38  63  95 127 157 189 234 288
#     4   9  16  29  52  76  95 122 165 210 248 288
#     4   9  17  30  51  77 101 126 162 209 249 288
#
# _framework density 20.805886000000001
#
# number of rings (size 3 to 8) (size 9 to 14) (size 15 to 20)
#    0.000    3.167    0.000    2.500    0.000    6.000 
#    3.000    0.000    0.000    1.000    4.333    3.500 
#    0.000    0.000    0.000    0.000    0.000    0.000 
#
# Total GULP energy -133777.899700 kJ/mol
# GULP energy per Si atom -5574.079154 kJ/mol
# Density = 2.075853 g / cm^3
# Si number density = 20.805886 Si / 1000 Ang^3
#
#
#
# Elastic Constant Matrix: (Units=GPa)
#
#
# Indices 1 2 3 4 5 6 
#
# 1 192.8193 15.5668 84.1857 0.0000 13.6495 0.0002
# 2 15.5668 44.0176 4.2685 0.0001 4.7539 0.0001
# 3 84.1857 4.2685 120.4491 0.0007 11.6125 -0.0001
# 4 0.0000 0.0001 0.0007 7.8294 -0.0002 3.0638
# 5 13.6495 4.7539 11.6125 -0.0002 40.5475 -0.0001
# 6 0.0002 0.0001 -0.0001 3.0638 -0.0001 16.3782
#
#
#
# Elastic Compliance Matrix: (Units=1/GPa)
#
#
# Indices 1 2 3 4 5 6 
#
# 1 0.007698 -0.002125 -0.005224 0.000001 -0.000846 0.000000
# 2 -0.002125 0.023634 0.000870 0.000000 -0.002305 0.000000
# 3 -0.005224 0.000870 0.012097 -0.000001 -0.001808 0.000000
# 4 0.000001 0.000000 -0.000001 0.137813 0.000001 -0.025780
# 5 -0.000846 -0.002305 -0.001808 0.000001 0.025735 0.000000
# 6 0.000000 0.000000 0.000000 -0.025780 0.000000 0.065879
#
#
# Mechanical properties :
#
#
# Convention : Reuss Voigt Hill
#
# Bulk Modulus (GPa) = 32.81721 62.81422 47.81572
# Shear Modulus (GPa) = 16.89351 29.83534 23.36442
#
# Velocity S-wave (km/s) = 2.85258 3.79091 3.35471
# Velocity P-wave (km/s) = 5.16303 7.02975 6.16743
#
# Compressibility (1/GPa) = 0.03047181
#
# Stress axis : x y z
#
# Youngs Moduli (GPa) = 129.89815 42.31173 82.66666
#
# Poissons Ratio (x) = 0.08989 0.43183
# Poissons Ratio (y) = 0.27597 -0.07188
# Poissons Ratio (z) = 0.67855 -0.03679
#
# Static dielectric constant tensor:
#      x y z
#    x 1.786780 0.000000 0.008680 
#    y 0.000000 1.780720 0.000000 
#    z 0.008680 0.000000 1.703600 
# 
# From -- ./inp_files/336636.got.cif
#   From: 2010.05.17/outbox.cif.g08.bks.cpg/sg12_169_cif.got.tgz:336636.got - 2010.06.03 13:09:07.
