data_PCOD9208242
_publ_section_title
;
Structure prediction by ZEFSAII (Michael W. Deem and Ramdas Pophale) SiO2 
 PCOD9208242
Probable space group: C 2/M
;
_chemical_formula_sum "Si O2"
_cell_formula_units_Z 48
_cell_length_a 16.412597
_cell_length_b 17.180578
_cell_length_c 13.165463
_cell_angle_alpha 90.000000
_cell_angle_beta 145.424577
_cell_angle_gamma 90.000000
_cell_volume 2106.734912
_symmetry_space_group_name_H-M "C 2/M"
_symmetry_group_IT_number 12
_symmetry_cell_setting 'monoclinic'
loop_
_space_group_symop_operation_xyz
x,y,z
-x,y,-z
-x,-y,-z
x,-y,z
1/2+x,1/2+y,z
1/2-x,1/2+y,-z
1/2-x,1/2-y,-z
1/2+x,1/2-y,z
loop_
_atom_site_type_symbol
_atom_site_label
_atom_site_fract_x
_atom_site_fract_y
_atom_site_fract_z
Si Si1 0.848905 0.677937 0.567907
Si Si2 0.827763 0.413637 0.822949
Si Si3 0.112813 0.912683 0.234121
Si Si4 0.127315 0.589971 0.904990
Si Si5 0.848296 0.774441 0.373911
Si Si6 0.682742 0.351661 0.085644
O O1 0.750000 0.750000 0.500000
O O2 0.742593 0.605766 0.441584
O O3 0.891744 0.708556 0.499328
O O4 0.992645 0.648765 0.768790
O O5 0.788366 0.500000 0.746615
O O6 0.753161 0.342977 0.689441
O O7 0.788367 0.405244 0.901922
O O8 0.000000 0.408411 0.000000
O O9 0.170171 0.900672 0.177834
O O10 0.057404 0.000000 0.189936
O O11 0.984381 0.850719 0.118658
O O12 0.077401 0.500000 0.845605
O O13 0.225077 0.610517 0.908908
O O14 0.755521 0.729361 0.193217
O O15 0.000000 0.810826 0.500000
#
# Coordination Sequence:
#
# PCOD9208242 Si02
#       6
#     8   8   8   8   8   8
#     4  11  24  39  59  92 124 164 210 261 307 368
#     4  10  24  43  65  89 121 168 215 259 310 366
#     4  10  21  38  61  90 129 166 200 253 322 379
#     4  11  22  40  66  94 125 162 209 260 312 375
#     4  11  23  41  60  91 125 162 203 254 318 367
#     4  10  21  37  63  95 125 158 203 256 314 385
#
# _framework density 22.784071999999998
#
# number of rings (size 3 to 8) (size 9 to 14) (size 15 to 20)
#    0.000    1.500    1.667    3.500    7.000    2.333 
#    0.000    3.333    0.000    0.000    0.000    0.000 
#    0.000    0.000    0.000    0.000    0.000    0.000 
#
# Total GULP energy -134026.098189 kJ/mol
# GULP energy per Si atom -5584.420758 kJ/mol
# Density = 2.273221 g / cm^3
# Si number density = 22.784072 Si / 1000 Ang^3
#
#
#
# Elastic Constant Matrix: (Units=GPa)
#
#
# Indices 1 2 3 4 5 6 
#
# 1 82.1464 12.4539 8.8496 0.0000 14.0382 0.0000
# 2 12.4539 112.2002 20.6291 0.0000 5.6925 0.0000
# 3 8.8496 20.6291 53.0811 0.0000 8.2456 0.0000
# 4 0.0000 0.0000 0.0000 33.5249 0.0000 4.9970
# 5 14.0382 5.6925 8.2456 0.0000 28.1573 0.0000
# 6 0.0000 0.0000 0.0000 4.9970 0.0000 23.7139
#
#
#
# Elastic Compliance Matrix: (Units=1/GPa)
#
#
# Indices 1 2 3 4 5 6 
#
# 1 0.013493 -0.001018 -0.000881 0.000000 -0.006263 0.000000
# 2 -0.001018 0.009697 -0.003534 0.000000 -0.000418 0.000000
# 3 -0.000881 -0.003534 0.021142 0.000000 -0.005038 0.000000
# 4 0.000000 0.000000 0.000000 0.030796 0.000000 -0.006489
# 5 -0.006263 -0.000418 -0.005038 0.000000 0.040197 0.000000
# 6 0.000000 0.000000 0.000000 -0.006489 0.000000 0.043537
#
#
# Mechanical properties :
#
#
# Convention : Reuss Voigt Hill
#
# Bulk Modulus (GPa) = 29.88104 36.81032 33.34568
# Shear Modulus (GPa) = 27.64234 30.77888 29.21061
#
# Velocity S-wave (km/s) = 3.48693 3.67944 3.58447
# Velocity P-wave (km/s) = 5.41801 5.85169 5.63902
#
# Compressibility (1/GPa) = 0.03346604
#
# Stress axis : x y z
#
# Youngs Moduli (GPa) = 74.11269 103.12939 47.29951
#
# Poissons Ratio (x) = 0.10498 0.04167
# Poissons Ratio (y) = 0.07544 0.16715
# Poissons Ratio (z) = 0.06529 0.36444
#
# Static dielectric constant tensor:
#      x y z
#    x 1.912090 0.000000 -0.021220 
#    y 0.000000 1.829150 0.000000 
#    z -0.021220 0.000000 1.830040 
# 
# From -- ./inp_files/75442.got.cif
#   From: 2010.05.17/outbox.cif.g08.bks.cpg/sg12_38_cif.got.tgz:75442.got - 2010.06.03 13:09:07.
