data_PCOD9208265
_publ_section_title
;
Structure prediction by ZEFSAII (Michael W. Deem and Ramdas Pophale) SiO2 
 PCOD9208265
Probable space group: C 2/M
;
_chemical_formula_sum "Si O2"
_cell_formula_units_Z 64
_cell_length_a 23.235354
_cell_length_b 19.415812
_cell_length_c 17.917840
_cell_angle_alpha 90.000000
_cell_angle_beta 21.937751
_cell_angle_gamma 90.000000
_cell_volume 3019.925644
_symmetry_space_group_name_H-M "C 2/M"
_symmetry_group_IT_number 12
_symmetry_cell_setting 'monoclinic'
loop_
_space_group_symop_operation_xyz
x,y,z
-x,y,-z
-x,-y,-z
x,-y,z
1/2+x,1/2+y,z
1/2-x,1/2+y,-z
1/2-x,1/2-y,-z
1/2+x,1/2-y,z
loop_
_atom_site_type_symbol
_atom_site_label
_atom_site_fract_x
_atom_site_fract_y
_atom_site_fract_z
Si Si1 0.637271 0.827095 0.392980
Si Si2 0.680177 0.078647 0.883987
Si Si3 0.035077 0.144939 0.728148
Si Si4 0.191738 0.851281 0.118744
Si Si5 0.422322 0.579649 0.012388
Si Si6 0.350789 0.080575 0.338917
Si Si7 0.891510 0.823534 0.563459
Si Si8 0.029772 0.303164 0.691633
O O1 0.500000 0.836099 0.500000
O O2 0.762142 0.882542 0.220720
O O3 0.689697 0.747944 0.318286
O O4 0.585447 0.823654 0.541496
O O5 0.748552 0.102003 0.883643
O O6 0.757734 0.121411 0.724478
O O7 0.721332 0.000000 0.824426
O O8 0.495912 0.085842 0.108708
O O9 0.180856 0.103987 0.519212
O O10 0.876725 0.120749 0.876938
O O11 0.067035 0.227217 0.680567
O O12 0.014869 0.122324 0.838413
O O13 0.029774 0.814813 0.338052
O O14 0.343883 0.807805 0.919228
O O15 0.407670 0.500000 0.005832
O O16 0.500000 0.580250 0.000000
O O17 0.397358 0.136398 0.345643
O O18 0.346458 0.000000 0.368653
O O19 0.000000 0.847188 0.500000
#
# Coordination Sequence:
#
# PCOD9208265 Si02
#       8
#     8   8   8   8   8   8   8   8
#     4  11  23  40  66  95 130 168 210 265 327 385
#     4   9  20  39  62  90 131 179 212 254 325 397
#     4  12  23  40  70  97 127 167 221 279 323 387
#     4  10  21  37  64 100 130 160 215 276 327 381
#     4  11  27  47  65  90 129 177 217 266 330 392
#     4  10  23  42  63  90 131 174 216 270 327 386
#     4   9  19  35  60  93 129 168 208 263 319 384
#     4  11  23  41  69 100 127 170 217 274 330 386
#
# _framework density 21.192574
#
# number of rings (size 3 to 8) (size 9 to 14) (size 15 to 20)
#    0.000    1.625    1.250    2.625    7.000    5.000 
#    0.000    3.125    0.000    1.500    0.000    0.000 
#    0.000    0.000    0.000    0.000    0.000    0.000 
#
# Total GULP energy -178187.162673 kJ/mol
# GULP energy per Si atom -5568.348834 kJ/mol
# Density = 2.114434 g / cm^3
# Si number density = 21.192574 Si / 1000 Ang^3
#
#
#
# Elastic Constant Matrix: (Units=GPa)
#
#
# Indices 1 2 3 4 5 6 
#
# 1 72.3728 52.2029 10.3807 0.0066 23.3461 -0.0019
# 2 52.2029 137.3136 56.6477 0.0017 8.2032 -0.0070
# 3 10.3807 56.6477 143.0292 0.0121 -34.2014 0.0022
# 4 0.0066 0.0017 0.0121 41.0153 -0.0049 0.5644
# 5 23.3461 8.2032 -34.2014 -0.0049 64.4327 -0.0033
# 6 -0.0019 -0.0070 0.0022 0.5644 -0.0033 -16.9921
#
#
#
# Elastic Compliance Matrix: (Units=1/GPa)
#
#
# Indices 1 2 3 4 5 6 
#
# 1 0.021681 -0.007760 -0.000163 -0.000004 -0.006955 0.000002
# 2 -0.007760 0.012170 -0.004530 0.000002 -0.001142 -0.000004
# 3 -0.000163 -0.004530 0.010251 -0.000002 0.006077 0.000002
# 4 -0.000004 0.000002 -0.000002 0.024370 0.000002 0.000810
# 5 -0.006955 -0.001142 0.006077 0.000002 0.021411 -0.000002
# 6 0.000002 -0.000004 0.000002 0.000810 -0.000002 -0.058824
#
#
# Mechanical properties :
#
#
# Convention : Reuss Voigt Hill
#
# Bulk Modulus (GPa) = 52.09450 65.68647 58.89049
# Shear Modulus (GPa) = 80.17555 33.25680 56.71618
#
# Velocity S-wave (km/s) = 6.15744 3.96569 5.17884
# Velocity P-wave (km/s) = 8.67104 7.21327 7.97553
#
# Compressibility (1/GPa) = 0.01919588
#
# Stress axis : x y z
#
# Youngs Moduli (GPa) = 46.12251 82.17152 97.55503
#
# Poissons Ratio (x) = 0.63764 0.01592
# Poissons Ratio (y) = 0.35790 0.44191
# Poissons Ratio (z) = 0.00753 0.37222
#
# Static dielectric constant tensor:
#      x y z
#    x 2.258810 0.000000 -0.372470 
#    y 0.000000 1.751170 0.000000 
#    z -0.372470 0.000000 2.253270 
# 
# From -- ./inp_files/290916.got.cif
#   From: 2010.05.17/outbox.cif.g08.bks.cpg/sg12_146_cif.got.tgz:290916.got - 2010.06.03 13:09:07.
