data_PCOD9208978
_publ_section_title
;
Structure prediction by ZEFSAII (Michael W. Deem and Ramdas Pophale) SiO2 
 PCOD9208978
Probable space group: C 2/M
;
_chemical_formula_sum "Si O2"
_cell_formula_units_Z 56
_cell_length_a 25.279549
_cell_length_b 14.256254
_cell_length_c 9.404136
_cell_angle_alpha 90.000000
_cell_angle_beta 116.046783
_cell_angle_gamma 90.000000
_cell_volume 3044.953751
_symmetry_space_group_name_H-M "C 2/M"
_symmetry_group_IT_number 12
_symmetry_cell_setting 'monoclinic'
loop_
_space_group_symop_operation_xyz
x,y,z
-x,y,-z
-x,-y,-z
x,-y,z
1/2+x,1/2+y,z
1/2-x,1/2+y,-z
1/2-x,1/2-y,-z
1/2+x,1/2-y,z
loop_
_atom_site_type_symbol
_atom_site_label
_atom_site_fract_x
_atom_site_fract_y
_atom_site_fract_z
Si Si1 0.055722 0.394498 0.996092
Si Si2 0.341368 0.105550 0.651290
Si Si3 0.611861 0.749442 0.865808
Si Si4 0.872834 0.111488 0.607621
Si Si5 0.006099 0.889061 0.676971
Si Si6 0.832196 0.720641 0.373598
Si Si7 0.696087 0.715717 0.229520
O O1 0.039220 0.500000 0.934586
O O2 0.080312 0.340050 0.892617
O O3 0.103851 0.398478 0.177054
O O4 0.000000 0.344675 0.000000
O O5 0.359132 0.147656 0.519610
O O6 0.302068 0.185622 0.680198
O O7 0.316494 0.000000 0.610341
O O8 0.561844 0.669742 0.795927
O O9 0.639019 0.774043 0.746047
O O10 0.662200 0.725058 0.040473
O O11 0.841819 0.176034 0.452315
O O12 0.842182 0.145784 0.717154
O O13 0.943144 0.132493 0.677570
O O14 0.865618 0.000000 0.578039
O O15 0.000000 0.871302 0.500000
O O16 0.016836 0.000000 0.708526
O O17 0.763852 0.691135 0.285896
#
# Coordination Sequence:
#
# PCOD9208978 Si02
#       7
#     8   8   8   8   8   8   8
#     4   9  20  37  57  82 112 145 186 230 280 343
#     4   9  19  37  58  80 108 146 190 233 277 327
#     4  11  23  36  60  83 121 154 184 235 304 335
#     4  10  21  39  62  87 115 152 197 242 288 342
#     4  10  21  38  60  88 120 151 192 239 290 354
#     4  11  22  37  57  86 116 151 196 236 281 348
#     4  10  23  38  56  85 116 152 197 235 283 345
#
# _framework density 18.391083999999999
#
# number of rings (size 3 to 8) (size 9 to 14) (size 15 to 20)
#    0.000    2.000    1.429    2.143    6.000    3.429 
#    0.000    1.429    0.000    8.143    0.000    0.000 
#    0.000    0.000    0.000    0.000    0.000    0.000 
#
# Total GULP energy -156110.462571 kJ/mol
# GULP energy per Si atom -5575.373663 kJ/mol
# Density = 1.834923 g / cm^3
# Si number density = 18.391084 Si / 1000 Ang^3
#
#
#
# Elastic Constant Matrix: (Units=GPa)
#
#
# Indices 1 2 3 4 5 6 
#
# 1 123.0388 36.1110 44.2013 0.0000 -14.4640 0.0000
# 2 36.1110 87.5452 41.1004 0.0000 -6.6462 0.0000
# 3 44.2013 41.1004 81.9896 0.0000 -26.8496 0.0000
# 4 0.0000 0.0000 0.0000 -2.4728 0.0000 5.8422
# 5 -14.4640 -6.6462 -26.8496 0.0000 25.2873 0.0000
# 6 0.0000 0.0000 0.0000 5.8422 0.0000 15.6600
#
#
#
# Elastic Compliance Matrix: (Units=1/GPa)
#
#
# Indices 1 2 3 4 5 6 
#
# 1 0.010398 -0.002262 -0.004168 0.000000 0.000927 0.000000
# 2 -0.002262 0.016086 -0.009020 0.000000 -0.006643 0.000000
# 3 -0.004168 -0.009020 0.026688 0.000000 0.023582 0.000000
# 4 0.000000 0.000000 0.000000 -0.214946 0.000000 0.080189
# 5 0.000927 -0.006643 0.023582 0.000000 0.063369 0.000000
# 6 0.000000 0.000000 0.000000 0.080189 0.000000 0.033941
#
#
# Mechanical properties :
#
#
# Convention : Reuss Voigt Hill
#
# Bulk Modulus (GPa) = 44.89896 59.48881 52.19388
# Shear Modulus (GPa) = -191.26316 19.10561 -86.07878
#
# Velocity S-wave (km/s) = -10.20899 3.22662 -6.84881
# Velocity P-wave (km/s) = 10.70039 6.80428 5.83952
#
# Compressibility (1/GPa) = 0.02227223
#
# Stress axis : x y z
#
# Youngs Moduli (GPa) = 96.17533 62.16657 37.47062
#
# Poissons Ratio (x) = 0.14060 0.15618
# Poissons Ratio (y) = 0.21752 0.33797
# Poissons Ratio (z) = 0.40086 0.56072
#
# Static dielectric constant tensor:
#      x y z
#    x 1.638420 0.000000 0.014210 
#    y 0.000000 1.652140 0.000000 
#    z 0.014210 0.000000 1.622310 
# 
# From -- ./inp_files/96514.got.cif
#   From: 2010.05.17/outbox.cif.g08.bks.cpg/sg12_49_cif.got.tgz:96514.got - 2010.06.03 13:09:07.
