data_PCOD9208872
_publ_section_title
;
Structure prediction by ZEFSAII (Michael W. Deem and Ramdas Pophale) SiO2 
 PCOD9208872
Probable space group: C 2/M
;
_chemical_formula_sum "Si O2"
_cell_formula_units_Z 64
_cell_length_a 22.059979
_cell_length_b 9.337962
_cell_length_c 14.993473
_cell_angle_alpha 90.000000
_cell_angle_beta 97.127912
_cell_angle_gamma 90.000000
_cell_volume 3064.714361
_symmetry_space_group_name_H-M "C 2/M"
_symmetry_group_IT_number 12
_symmetry_cell_setting 'monoclinic'
loop_
_space_group_symop_operation_xyz
x,y,z
-x,y,-z
-x,-y,-z
x,-y,z
1/2+x,1/2+y,z
1/2-x,1/2+y,-z
1/2-x,1/2-y,-z
1/2+x,1/2-y,z
loop_
_atom_site_type_symbol
_atom_site_label
_atom_site_fract_x
_atom_site_fract_y
_atom_site_fract_z
Si Si1 0.048094 0.166866 0.089217
Si Si2 0.489027 0.832790 0.239192
Si Si3 0.241657 0.661552 0.218695
Si Si4 0.157501 0.331855 0.531637
Si Si5 0.653849 0.838895 0.828761
Si Si6 0.044347 0.166927 0.593357
Si Si7 0.297219 0.666777 0.628125
Si Si8 0.342761 0.159511 0.962897
O O1 0.111748 0.219061 0.061061
O O2 0.030069 0.261706 0.170725
O O3 0.048298 0.000000 0.113594
O O4 0.000000 0.187928 0.000000
O O5 0.418639 0.824319 0.192690
O O6 0.488867 0.744397 0.330462
O O7 0.504077 0.000000 0.255383
O O8 0.242432 0.500000 0.254084
O O9 0.308944 0.726064 0.221818
O O10 0.200885 0.759396 0.275438
O O11 0.213617 0.661054 0.114652
O O12 0.142415 0.500000 0.519999
O O13 0.106239 0.252066 0.580121
O O14 0.225602 0.322774 0.586070
O O15 0.163822 0.253068 0.437530
O O16 0.670674 0.000000 0.801607
O O17 0.671405 0.824319 0.935733
O O18 0.000000 0.172572 0.500000
O O19 0.057302 0.000000 0.615999
O O20 0.314306 0.500000 0.632690
O O21 0.371984 0.000000 0.959264
#
# Coordination Sequence:
#
# PCOD9208872 Si02
#       8
#     8   8   8   8   8   8   8   8
#     4  11  23  39  62  91 120 153 200 253 301 353
#     4  11  23  40  66  92 118 159 204 248 300 358
#     4  11  23  36  56  87 121 157 198 242 292 351
#     4  10  21  39  64  90 116 151 199 246 295 355
#     4  10  21  38  60  85 117 156 198 243 296 353
#     4  11  25  43  62  88 124 161 198 247 305 360
#     4  10  21  38  61  88 119 155 193 241 300 355
#     4  10  22  40  59  83 118 160 200 242 294 353
#
# _framework density 20.882860000000001
#
# number of rings (size 3 to 8) (size 9 to 14) (size 15 to 20)
#    0.000    1.500    1.250    3.375    0.000    9.500 
#    0.000    0.000    0.000    0.000    0.000    0.000 
#    0.000    0.000    0.000    0.000    0.000    0.000 
#
# Total GULP energy -178960.163413 kJ/mol
# GULP energy per Si atom -5592.505107 kJ/mol
# Density = 2.083533 g / cm^3
# Si number density = 20.882860 Si / 1000 Ang^3
#
#
#
# Elastic Constant Matrix: (Units=GPa)
#
#
# Indices 1 2 3 4 5 6 
#
# 1 26.2592 27.0844 -14.3943 0.0000 -7.4942 0.0000
# 2 27.0844 150.4974 50.8665 0.0000 -13.6275 0.0000
# 3 -14.3943 50.8665 79.9294 0.0000 -6.5858 0.0000
# 4 0.0000 0.0000 0.0000 29.2339 0.0000 -19.7185
# 5 -7.4942 -13.6275 -6.5858 0.0000 22.9765 0.0000
# 6 0.0000 0.0000 0.0000 -19.7185 0.0000 13.4278
#
#
#
# Elastic Compliance Matrix: (Units=1/GPa)
#
#
# Indices 1 2 3 4 5 6 
#
# 1 0.090890 -0.025950 0.034881 0.000000 0.024252 0.000000
# 2 -0.025950 0.016169 -0.015230 0.000000 -0.003240 0.000000
# 3 0.034881 -0.015230 0.029372 0.000000 0.010763 0.000000
# 4 0.000000 0.000000 0.000000 3.601739 0.000000 5.289097
# 5 0.024252 -0.003240 0.010763 0.000000 0.052596 0.000000
# 6 0.000000 0.000000 0.000000 5.289097 0.000000 7.841428
#
#
# Mechanical properties :
#
#
# Convention : Reuss Voigt Hill
#
# Bulk Modulus (GPa) = 8.07549 42.64438 25.35993
# Shear Modulus (GPa) = 0.42786 26.00292 13.21539
#
# Velocity S-wave (km/s) = 0.45313 3.53254 2.51835
# Velocity P-wave (km/s) = 2.03696 6.09127 4.54163
#
# Compressibility (1/GPa) = 0.12383150
#
# Stress axis : x y z
#
# Youngs Moduli (GPa) = 11.00234 61.84621 34.04615
#
# Poissons Ratio (x) = 1.60494 -1.18757
# Poissons Ratio (y) = 0.28552 0.51853
# Poissons Ratio (z) = -0.38377 0.94193
#
# Static dielectric constant tensor:
#      x y z
#    x 1.727220 0.000000 0.032600 
#    y 0.000000 1.728750 0.000000 
#    z 0.032600 0.000000 1.750380 
# 
# From -- ./inp_files/238700.got.cif
#   From: 2010.05.17/outbox.cif.g08.bks.cpg/sg12_120_cif.got.tgz:238700.got - 2010.06.03 13:09:07.
