data_PCOD9208045
_publ_section_title
;
Structure prediction by ZEFSAII (Michael W. Deem and Ramdas Pophale) SiO2 
 PCOD9208045
Probable space group: C 2/M
;
_chemical_formula_sum "Si O2"
_cell_formula_units_Z 50
_cell_length_a 16.305670
_cell_length_b 8.916743
_cell_length_c 24.941376
_cell_angle_alpha 90.000000
_cell_angle_beta 130.365323
_cell_angle_gamma 90.000000
_cell_volume 2762.998350
_symmetry_space_group_name_H-M "C 2/M"
_symmetry_group_IT_number 12
_symmetry_cell_setting 'monoclinic'
loop_
_space_group_symop_operation_xyz
x,y,z
-x,y,-z
-x,-y,-z
x,-y,z
1/2+x,1/2+y,z
1/2-x,1/2+y,-z
1/2-x,1/2-y,-z
1/2+x,1/2-y,z
loop_
_atom_site_type_symbol
_atom_site_label
_atom_site_fract_x
_atom_site_fract_y
_atom_site_fract_z
Si Si1 0.345416 0.321545 0.505998
Si Si2 0.767478 0.177812 0.352242
Si Si3 0.000000 0.000000 0.000000
Si Si4 0.055697 0.321772 0.646154
Si Si5 0.373899 0.321377 0.215400
Si Si6 0.153050 0.165591 0.145466
Si Si7 0.061699 0.819524 0.221636
O O1 0.350772 0.500000 0.517154
O O2 0.250000 0.250000 0.500000
O O3 0.318214 0.296521 0.432113
O O4 0.456206 0.247483 0.571472
O O5 0.836562 0.268353 0.338221
O O6 0.646402 0.237515 0.296071
O O7 0.771740 0.000000 0.342751
O O8 0.934431 0.871750 0.936925
O O9 0.046705 0.500000 0.643697
O O10 0.063033 0.254306 0.708615
O O11 0.375281 0.500000 0.223032
O O12 0.251628 0.264355 0.166685
O O13 0.440835 0.284038 0.189858
O O14 0.094367 0.221704 0.174623
O O15 0.201310 0.000000 0.179939
O O16 0.073709 0.000000 0.231544
#
# Coordination Sequence:
#
# PCOD9208045 Si02
#       7
#     8   8   2   8   8   8   8
#     4  11  24  40  56  80 119 160 211 268 324 373
#     4  11  23  38  58  86 117 160 211 268 314 367
#     4   8  20  40  74  88 128 164 214 236 308 384
#     4  12  24  38  58  85 117 165 213 260 319 377
#     4  11  22  37  62  95 127 161 208 262 310 362
#     4   9  19  40  65  90 120 166 200 243 304 372
#     4  10  21  37  61  90 126 160 206 254 306 372
#
# _framework density 18.096285000000002
#
# number of rings (size 3 to 8) (size 9 to 14) (size 15 to 20)
#    0.480    0.960    1.600    4.320    0.000    8.320 
#    0.000    1.200    0.000    0.000    0.000    0.000 
#    0.000    0.000    0.000    0.000    0.000    0.000 
#
# Total GULP energy -139280.210808 kJ/mol
# GULP energy per Si atom -5571.208432 kJ/mol
# Density = 1.805510 g / cm^3
# Si number density = 18.096285 Si / 1000 Ang^3
#
#
#
# Elastic Constant Matrix: (Units=GPa)
#
#
# Indices 1 2 3 4 5 6 
#
# 1 130.9346 53.2949 47.1823 0.0000 10.2653 0.0000
# 2 53.2949 61.8848 43.4644 0.0000 3.7373 0.0000
# 3 47.1823 43.4644 118.0554 0.0000 1.0787 0.0000
# 4 0.0000 0.0000 0.0000 24.5524 0.0000 3.5555
# 5 10.2653 3.7373 1.0787 0.0000 4.6922 0.0000
# 6 0.0000 0.0000 0.0000 3.5555 0.0000 24.9451
#
#
#
# Elastic Compliance Matrix: (Units=1/GPa)
#
#
# Indices 1 2 3 4 5 6 
#
# 1 0.013848 -0.009203 -0.001941 0.000000 -0.022520 0.000000
# 2 -0.009203 0.029105 -0.007024 0.000000 -0.001433 0.000000
# 3 -0.001941 -0.007024 0.011767 0.000000 0.007135 0.000000
# 4 0.000000 0.000000 0.000000 0.041588 0.000000 -0.005928
# 5 -0.022520 -0.001433 0.007135 0.000000 0.261890 0.000000
# 6 0.000000 0.000000 0.000000 -0.005928 0.000000 0.040933
#
#
# Mechanical properties :
#
#
# Convention : Reuss Voigt Hill
#
# Bulk Modulus (GPa) = 54.39444 66.52867 60.46155
# Shear Modulus (GPa) = 11.32260 21.96684 16.64472
#
# Velocity S-wave (km/s) = 2.50409 3.48787 3.03609
# Velocity P-wave (km/s) = 6.20356 7.28449 6.76565
#
# Compressibility (1/GPa) = 0.01838423
#
# Stress axis : x y z
#
# Youngs Moduli (GPa) = 72.21132 34.35880 84.98301
#
# Poissons Ratio (x) = 0.31621 0.16491
# Poissons Ratio (y) = 0.66457 0.59694
# Poissons Ratio (z) = 0.14013 0.24134
#
# Static dielectric constant tensor:
#      x y z
#    x 1.654810 0.000000 0.005070 
#    y 0.000000 1.611840 0.000000 
#    z 0.005070 0.000000 1.614050 
# 
# From -- ./inp_files/360092.got.cif
#   From: 2010.05.17/outbox.cif.g08.bks.cpg/sg12_181_cif.got.tgz:360092.got - 2010.06.03 13:09:07.
