data_PCOD9208490
_publ_section_title
;
Structure prediction by ZEFSAII (Michael W. Deem and Ramdas Pophale) SiO2 
 PCOD9208490
Probable space group: C 2/M
;
_chemical_formula_sum "Si O2"
_cell_formula_units_Z 56
_cell_length_a 17.344109
_cell_length_b 9.477064
_cell_length_c 22.569495
_cell_angle_alpha 90.000000
_cell_angle_beta 124.972013
_cell_angle_gamma 90.000000
_cell_volume 3039.909343
_symmetry_space_group_name_H-M "C 2/M"
_symmetry_group_IT_number 12
_symmetry_cell_setting 'monoclinic'
loop_
_space_group_symop_operation_xyz
x,y,z
-x,y,-z
-x,-y,-z
x,-y,z
1/2+x,1/2+y,z
1/2-x,1/2+y,-z
1/2-x,1/2-y,-z
1/2+x,1/2-y,z
loop_
_atom_site_type_symbol
_atom_site_label
_atom_site_fract_x
_atom_site_fract_y
_atom_site_fract_z
Si Si1 0.381523 0.335564 0.718731
Si Si2 0.511804 0.837465 0.141310
Si Si3 0.198707 0.662475 0.721226
Si Si4 0.659606 0.667821 0.436332
Si Si5 0.406011 0.337303 0.000315
Si Si6 0.300457 0.162210 0.859551
Si Si7 0.499303 0.837749 0.570539
O O1 0.410708 0.500000 0.735841
O O2 0.456982 0.236615 0.784175
O O3 0.284265 0.321830 0.712415
O O4 0.360738 0.301156 0.641635
O O5 0.605667 0.836479 0.140866
O O6 0.483823 0.000000 0.136741
O O7 0.435223 0.746929 0.071969
O O8 0.201369 0.500000 0.743748
O O9 0.219415 0.766703 0.784473
O O10 0.101687 0.685108 0.644113
O O11 0.672451 0.500000 0.447963
O O12 0.750000 0.750000 0.500000
O O13 0.571952 0.725684 0.434440
O O14 0.381563 0.500000 0.000941
O O15 0.327474 0.254850 0.928317
O O16 0.500000 0.337909 0.000000
O O17 0.280635 0.000000 0.865815
O O18 0.500000 0.826943 0.500000
O O19 0.470357 0.000000 0.572220
#
# Coordination Sequence:
#
# PCOD9208490 Si02
#       7
#     8   8   8   8   8   8   8
#     4   9  18  33  51  72 100 135 172 209 253 305
#     4   9  16  25  40  65  96 129 165 208 255 297
#     4   9  17  31  51  72  98 134 172 208 252 307
#     4  11  23  38  57  80 106 136 172 214 259 309
#     4   9  15  23  37  59  91 131 170 205 246 298
#     4   9  16  25  39  63  96 129 164 209 255 296
#     4  10  21  38  58  79 105 137 172 212 259 310
#
# _framework density 18.421600999999999
#
# number of rings (size 3 to 8) (size 9 to 14) (size 15 to 20)
#    0.000    2.571    0.000    2.571    0.000    9.429 
#    0.000    2.857    0.000    0.000    0.000    1.000 
#    0.000    0.000    0.000    0.000    0.000    0.000 
#
# Total GULP energy -156229.008581 kJ/mol
# GULP energy per Si atom -5579.607449 kJ/mol
# Density = 1.837967 g / cm^3
# Si number density = 18.421601 Si / 1000 Ang^3
#
#
#
# Elastic Constant Matrix: (Units=GPa)
#
#
# Indices 1 2 3 4 5 6 
#
# 1 11.0129 31.6073 26.7371 0.0000 -4.3000 0.0000
# 2 31.6073 154.3978 121.2767 0.0000 -12.7222 0.0000
# 3 26.7371 121.2767 169.5882 0.0000 -10.1912 0.0000
# 4 0.0000 0.0000 0.0000 34.7142 0.0000 1.7275
# 5 -4.3000 -12.7222 -10.1912 0.0000 14.0434 0.0000
# 6 0.0000 0.0000 0.0000 1.7275 0.0000 16.2368
#
#
#
# Elastic Compliance Matrix: (Units=1/GPa)
#
#
# Indices 1 2 3 4 5 6 
#
# 1 0.234004 -0.040736 -0.005932 0.000000 0.030442 0.000000
# 2 -0.040736 0.022365 -0.009519 0.000000 0.000881 0.000000
# 3 -0.005932 -0.009519 0.013605 0.000000 -0.000567 0.000000
# 4 0.000000 0.000000 0.000000 0.028960 0.000000 -0.003081
# 5 0.030442 0.000881 -0.000567 0.000000 0.080915 0.000000
# 6 0.000000 0.000000 0.000000 -0.003081 0.000000 0.061916
#
#
# Mechanical properties :
#
#
# Convention : Reuss Voigt Hill
#
# Bulk Modulus (GPa) = 6.34514 77.13789 41.74151
# Shear Modulus (GPa) = 8.24167 23.35741 15.79954
#
# Velocity S-wave (km/s) = 2.11746 3.56467 2.93177
# Velocity P-wave (km/s) = 3.07084 7.67509 5.84539
#
# Compressibility (1/GPa) = 0.15760105
#
# Stress axis : x y z
#
# Youngs Moduli (GPa) = 4.27343 44.71232 73.50282
#
# Poissons Ratio (x) = 1.82138 0.43605
# Poissons Ratio (y) = 0.17408 0.69965
# Poissons Ratio (z) = 0.02535 0.42560
#
# Static dielectric constant tensor:
#      x y z
#    x 1.629580 0.000000 0.002650 
#    y 0.000000 1.624980 0.000000 
#    z 0.002650 0.000000 1.614930 
# 
# From -- ./inp_files/275195.got.cif
#   From: 2010.05.17/outbox.cif.g08.bks.cpg/sg12_138_cif.got.tgz:275195.got - 2010.06.03 13:09:07.
