data_PCOD9208313
_publ_section_title
;
Structure prediction by ZEFSAII (Michael W. Deem and Ramdas Pophale) SiO2 
 PCOD9208313
Probable space group: C 2/M
;
_chemical_formula_sum "Si O2"
_cell_formula_units_Z 56
_cell_length_a 9.184442
_cell_length_b 16.971624
_cell_length_c 30.223380
_cell_angle_alpha 90.000000
_cell_angle_beta 143.198015
_cell_angle_gamma 90.000000
_cell_volume 2822.170530
_symmetry_space_group_name_H-M "C 2/M"
_symmetry_group_IT_number 12
_symmetry_cell_setting 'monoclinic'
loop_
_space_group_symop_operation_xyz
x,y,z
-x,y,-z
-x,-y,-z
x,-y,z
1/2+x,1/2+y,z
1/2-x,1/2+y,-z
1/2-x,1/2-y,-z
1/2+x,1/2-y,z
loop_
_atom_site_type_symbol
_atom_site_label
_atom_site_fract_x
_atom_site_fract_y
_atom_site_fract_z
Si Si1 0.181759 0.336935 0.141978
Si Si2 0.932452 0.353279 0.268426
Si Si3 0.695561 0.409211 0.011495
Si Si4 0.818005 0.796087 0.704242
Si Si5 0.442550 0.328065 0.111731
Si Si6 0.697258 0.000000 0.373885
Si Si7 0.566754 0.822597 0.465894
Si Si8 0.223062 0.500000 0.481427
O O1 0.434329 0.346798 0.229905
O O2 0.267688 0.327534 0.111782
O O3 0.972554 0.401533 0.095253
O O4 0.049166 0.258204 0.127226
O O5 0.839908 0.308383 0.290120
O O6 0.684674 0.377502 0.183389
O O7 0.086365 0.293071 0.276473
O O8 0.094245 0.424507 0.324064
O O9 0.635920 0.500000 0.988179
O O10 0.500000 0.379216 0.000000
O O11 0.675951 0.361098 0.961335
O O12 0.657258 0.815101 0.622621
O O13 0.618570 0.000000 0.406015
O O14 0.986026 0.000000 0.446304
O O15 0.500000 0.808781 0.500000
O O16 0.750000 0.750000 0.500000
O O17 0.653375 0.913976 0.483657
#
# Coordination Sequence:
#
# PCOD9208313 Si02
#       8
#     8   8   8   8   8   4   8   4
#     4  10  21  39  62  91 120 161 201 256 308 371
#     4  10  21  39  65  92 126 165 210 267 315 381
#     4  11  24  41  59  86 125 163 205 256 313 372
#     4  10  21  40  61  96 122 164 211 259 315 384
#     4  10  21  37  65  90 121 156 209 253 309 370
#     4  11  22  40  64  94 129 167 214 262 330 375
#     4  12  25  42  69  96 132 173 219 272 328 385
#     4  11  25  42  62  94 133 172 217 269 321 397
#
# _framework density 19.842881999999999
#
# number of rings (size 3 to 8) (size 9 to 14) (size 15 to 20)
#    0.000    1.429    1.429    3.643    3.000    2.286 
#    5.143    0.000    0.000    0.000    0.000    0.000 
#    0.000    0.000    0.000    0.000    0.000    0.000 
#
# Total GULP energy -156291.796761 kJ/mol
# GULP energy per Si atom -5581.849884 kJ/mol
# Density = 1.979772 g / cm^3
# Si number density = 19.842882 Si / 1000 Ang^3
#
#
#
# Elastic Constant Matrix: (Units=GPa)
#
#
# Indices 1 2 3 4 5 6 
#
# 1 87.5169 31.9370 39.0620 -0.0001 7.0305 0.0000
# 2 31.9370 73.3037 25.9226 -0.0001 9.7405 0.0002
# 3 39.0620 25.9226 119.5510 0.0006 2.7182 -0.0006
# 4 -0.0001 -0.0001 0.0006 12.2887 0.0008 24.2135
# 5 7.0305 9.7405 2.7182 0.0008 24.5155 -0.0007
# 6 0.0000 0.0002 -0.0006 24.2135 -0.0007 5.9429
#
#
#
# Elastic Compliance Matrix: (Units=1/GPa)
#
#
# Indices 1 2 3 4 5 6 
#
# 1 0.015097 -0.004973 -0.003811 0.000000 -0.001931 0.000000
# 2 -0.004973 0.017201 -0.001987 0.000000 -0.005188 0.000001
# 3 -0.003811 -0.001987 0.010023 0.000000 0.000771 -0.000001
# 4 0.000000 0.000000 0.000000 -0.011579 0.000002 0.047176
# 5 -0.001931 -0.005188 0.000771 0.000002 0.043320 -0.000003
# 6 0.000000 0.000001 -0.000001 0.047176 -0.000003 -0.023942
#
#
# Mechanical properties :
#
#
# Convention : Reuss Voigt Hill
#
# Bulk Modulus (GPa) = 48.12461 52.69054 50.40758
# Shear Modulus (GPa) = 63.62320 20.77940 42.20130
#
# Velocity S-wave (km/s) = 5.66861 3.23955 4.61670
# Velocity P-wave (km/s) = 8.19449 6.37216 7.34010
#
# Compressibility (1/GPa) = 0.02077939
#
# Stress axis : x y z
#
# Youngs Moduli (GPa) = 66.23743 58.13760 99.77119
#
# Poissons Ratio (x) = 0.28914 0.38018
# Poissons Ratio (y) = 0.32943 0.19821
# Poissons Ratio (z) = 0.25240 0.11550
#
# Static dielectric constant tensor:
#      x y z
#    x 1.686050 0.000000 0.014900 
#    y 0.000000 1.708910 0.000000 
#    z 0.014900 0.000000 1.723080 
# 
# From -- ./inp_files/356771.got.cif
#   From: 2010.05.17/outbox.cif.g08.bks.cpg/sg12_179_cif.got.tgz:356771.got - 2010.06.03 13:09:07.
