data_PCOD9208165
_publ_section_title
;
Structure prediction by ZEFSAII (Michael W. Deem and Ramdas Pophale) SiO2 
 PCOD9208165
Probable space group: C 2/M
;
_chemical_formula_sum "Si O2"
_cell_formula_units_Z 48
_cell_length_a 22.515479
_cell_length_b 13.923385
_cell_length_c 20.510345
_cell_angle_alpha 90.000000
_cell_angle_beta 20.450116
_cell_angle_gamma 90.000000
_cell_volume 2246.526921
_symmetry_space_group_name_H-M "C 2/M"
_symmetry_group_IT_number 12
_symmetry_cell_setting 'monoclinic'
loop_
_space_group_symop_operation_xyz
x,y,z
-x,y,-z
-x,-y,-z
x,-y,z
1/2+x,1/2+y,z
1/2-x,1/2+y,-z
1/2-x,1/2-y,-z
1/2+x,1/2-y,z
loop_
_atom_site_type_symbol
_atom_site_label
_atom_site_fract_x
_atom_site_fract_y
_atom_site_fract_z
Si Si1 0.043364 0.262539 0.639559
Si Si2 0.060827 0.112362 0.362496
Si Si3 0.689000 0.107068 0.283876
Si Si4 0.592019 0.791601 0.966206
Si Si5 0.100417 0.183407 0.724159
Si Si6 0.754359 0.599213 0.924263
O O1 0.091935 0.213477 0.657457
O O2 0.202256 0.334166 0.461433
O O3 0.026378 0.184958 0.599134
O O4 0.863770 0.313721 0.838805
O O5 0.257612 0.143873 0.160280
O O6 0.000000 0.125671 0.500000
O O7 0.037186 0.000000 0.369815
O O8 0.500000 0.133462 0.500000
O O9 0.820749 0.194652 0.154846
O O10 0.672049 0.096552 0.223998
O O11 0.736583 0.000000 0.261201
O O12 0.500000 0.840434 0.000000
O O13 0.467594 0.760718 0.152788
O O14 0.946065 0.108308 0.882859
O O15 0.787945 0.500000 0.926160
#
# Coordination Sequence:
#
# PCOD9208165 Si02
#       6
#     8   8   8   8   8   8
#     4  11  22  43  67  88 131 172 212 270 328 380
#     4  11  24  42  66  94 125 170 224 274 328 382
#     4   9  18  33  54  85 118 157 202 242 301 378
#     4  11  22  37  62  91 130 167 207 268 327 375
#     4  10  23  40  63  95 127 168 218 261 320 392
#     4  10  21  37  62  93 126 163 207 256 316 390
#
# _framework density 21.366313999999999
#
# number of rings (size 3 to 8) (size 9 to 14) (size 15 to 20)
#    0.000    1.667    3.333    2.000    2.333    2.000 
#    0.000    3.333    0.000    0.000    0.000    0.000 
#    0.000    0.000    0.000    0.000    0.000    0.000 
#
# Total GULP energy -133649.580068 kJ/mol
# GULP energy per Si atom -5568.732503 kJ/mol
# Density = 2.131768 g / cm^3
# Si number density = 21.366314 Si / 1000 Ang^3
#
#
#
# Elastic Constant Matrix: (Units=GPa)
#
#
# Indices 1 2 3 4 5 6 
#
# 1 98.8132 27.5549 25.6246 0.0029 -10.5486 0.0000
# 2 27.5549 89.7688 21.6637 0.0155 -17.7647 0.0036
# 3 25.6246 21.6637 96.6471 0.0008 -9.7705 0.0016
# 4 0.0029 0.0155 0.0008 -348.4885 -0.0044 -123.6150
# 5 -10.5486 -17.7647 -9.7705 -0.0044 32.0417 -0.0006
# 6 0.0000 0.0036 0.0016 -123.6150 -0.0006 -41.7648
#
#
#
# Elastic Compliance Matrix: (Units=1/GPa)
#
#
# Indices 1 2 3 4 5 6 
#
# 1 0.011647 -0.002692 -0.002319 -0.000001 0.001635 0.000004
# 2 -0.002692 0.013592 -0.001714 -0.000003 0.006127 0.000009
# 3 -0.002319 -0.001714 0.011528 0.000004 0.001802 -0.000011
# 4 -0.000001 -0.000003 0.000004 0.057517 0.000004 -0.170238
# 5 0.001635 0.006127 0.001802 0.000004 0.035694 -0.000012
# 6 0.000004 0.000009 -0.000011 -0.170238 -0.000012 0.479925
#
#
# Mechanical properties :
#
#
# Convention : Reuss Voigt Hill
#
# Bulk Modulus (GPa) = 42.88645 48.32396 45.60520
# Shear Modulus (GPa) = 7.92237 -57.61659 -24.84711
#
# Velocity S-wave (km/s) = 1.92767 -5.19852 -3.41385
# Velocity P-wave (km/s) = 5.00701 3.65607 2.41902
#
# Compressibility (1/GPa) = 0.02331739
#
# Stress axis : x y z
#
# Youngs Moduli (GPa) = 85.86127 73.57256 86.74454
#
# Poissons Ratio (x) = 0.19804 0.20119
# Poissons Ratio (y) = 0.23112 0.14864
# Poissons Ratio (z) = 0.19914 0.12607
#
# Static dielectric constant tensor:
#      x y z
#    x 1.801700 0.000000 -0.038720 
#    y 0.000000 1.911640 -0.000010 
#    z -0.038720 -0.000010 1.974880 
# 
# From -- ./inp_files/325645.got.cif
#   From: 2010.05.17/outbox.cif.g08.bks.cpg/sg12_163_cif.got.tgz:325645.got - 2010.06.03 13:09:07.
