data_PCOD9208605
_publ_section_title
;
Structure prediction by ZEFSAII (Michael W. Deem and Ramdas Pophale) SiO2 
 PCOD9208605
Probable space group: C 2/M
;
_chemical_formula_sum "Si O2"
_cell_formula_units_Z 32
_cell_length_a 31.644980
_cell_length_b 8.508981
_cell_length_c 5.226062
_cell_angle_alpha 90.000000
_cell_angle_beta 114.020614
_cell_angle_gamma 90.000000
_cell_volume 1285.338447
_symmetry_space_group_name_H-M "C 2/M"
_symmetry_group_IT_number 12
_symmetry_cell_setting 'monoclinic'
loop_
_space_group_symop_operation_xyz
x,y,z
-x,y,-z
-x,-y,-z
x,-y,z
1/2+x,1/2+y,z
1/2-x,1/2+y,-z
1/2-x,1/2-y,-z
1/2+x,1/2-y,z
loop_
_atom_site_type_symbol
_atom_site_label
_atom_site_fract_x
_atom_site_fract_y
_atom_site_fract_z
Si Si1 0.957345 0.673382 0.090061
Si Si2 0.070603 0.000000 0.775970
Si Si3 0.132289 0.000000 0.436710
Si Si4 0.647305 0.174749 0.340985
Si Si5 0.273548 0.181605 0.810257
O O1 0.958845 0.500000 0.225289
O O2 0.955710 0.834700 0.246323
O O3 0.908011 0.672207 0.821711
O O4 0.000000 0.681440 0.000000
O O5 0.092968 0.000000 0.553315
O O6 0.109757 0.000000 0.096777
O O7 0.158516 0.166089 0.522080
O O8 0.671829 0.196275 0.124491
O O9 0.662081 0.000000 0.473839
O O10 0.250000 0.250000 0.500000
O O11 0.264009 0.000000 0.795944
O O12 0.250000 0.250000 0.000000
#
# Coordination Sequence:
#
# PCOD9208605 Si02
#       5
#     8   4   4   8   8
#     4   9  18  37  65  94 130 172 215 265 324 389
#     4  10  21  38  58  92 126 164 212 260 310 372
#     4  10  22  38  65  90 122 170 208 260 319 378
#     4   9  21  41  63  94 131 168 217 268 326 390
#     4  11  25  44  69  99 134 176 223 283 340 404
#
# _framework density 24.896163000000001
#
# number of rings (size 3 to 8) (size 9 to 14) (size 15 to 20)
#    0.000    2.250    0.000    1.125    3.500    5.000 
#    0.000   17.500    0.000   13.500    0.000    0.000 
#    0.000    0.000    0.000    0.000    0.000    0.000 
#
# Total GULP energy -89399.047765 kJ/mol
# GULP energy per Si atom -5587.440485 kJ/mol
# Density = 2.483950 g / cm^3
# Si number density = 24.896163 Si / 1000 Ang^3
#
#
#
# Elastic Constant Matrix: (Units=GPa)
#
#
# Indices 1 2 3 4 5 6 
#
# 1 165.7747 66.5747 43.6173 0.0000 -26.1427 0.0000
# 2 66.5747 313.4266 40.2616 0.0000 -50.1124 0.0000
# 3 43.6173 40.2616 74.6509 0.0000 -15.8289 0.0000
# 4 0.0000 0.0000 0.0000 -30.3889 0.0000 -34.4325
# 5 -26.1427 -50.1124 -15.8289 0.0000 47.3180 0.0000
# 6 0.0000 0.0000 0.0000 -34.4325 0.0000 43.2177
#
#
#
# Elastic Compliance Matrix: (Units=1/GPa)
#
#
# Indices 1 2 3 4 5 6 
#
# 1 0.007640 -0.000819 -0.003564 0.000000 0.002161 0.000000
# 2 -0.000819 0.004050 -0.000960 0.000000 0.003515 0.000000
# 3 -0.003564 -0.000960 0.016535 0.000000 0.002546 0.000000
# 4 0.000000 0.000000 0.000000 -0.017294 0.000000 -0.013779
# 5 0.002161 0.003515 0.002546 0.000000 0.026902 0.000000
# 6 0.000000 0.000000 0.000000 -0.013779 0.000000 0.012161
#
#
# Mechanical properties :
#
#
# Convention : Reuss Voigt Hill
#
# Bulk Modulus (GPa) = 57.01643 94.97327 75.99485
# Shear Modulus (GPa) = 75.15842 38.92261 57.04052
#
# Velocity S-wave (km/s) = 5.50039 3.95827 4.79177
# Velocity P-wave (km/s) = 7.95553 7.68903 7.82341
#
# Compressibility (1/GPa) = 0.01753880
#
# Stress axis : x y z
#
# Youngs Moduli (GPa) = 130.89353 246.91548 60.47601
#
# Poissons Ratio (x) = 0.20235 0.21551
# Poissons Ratio (y) = 0.10727 0.05806
# Poissons Ratio (z) = 0.46646 0.23706
#
# Static dielectric constant tensor:
#      x y z
#    x 1.996840 0.000000 0.062520 
#    y 0.000000 2.016140 0.000000 
#    z 0.062520 0.000000 1.938600 
# 
# From -- ./inp_files/30097.got.cif
#   From: 2010.05.17/outbox.cif.g08.bks.cpg/sg12_16_cif.got.tgz:30097.got - 2010.06.03 13:09:07.
