data_PCOD9208478
_publ_section_title
;
Structure prediction by ZEFSAII (Michael W. Deem and Ramdas Pophale) SiO2 
 PCOD9208478
Probable space group: C 2/M
;
_chemical_formula_sum "Si O2"
_cell_formula_units_Z 36
_cell_length_a 5.114164
_cell_length_b 31.792428
_cell_length_c 12.711469
_cell_angle_alpha 90.000000
_cell_angle_beta 100.821196
_cell_angle_gamma 90.000000
_cell_volume 2030.027486
_symmetry_space_group_name_H-M "C 2/M"
_symmetry_group_IT_number 12
_symmetry_cell_setting 'monoclinic'
loop_
_space_group_symop_operation_xyz
x,y,z
-x,y,-z
-x,-y,-z
x,-y,z
1/2+x,1/2+y,z
1/2-x,1/2+y,-z
1/2-x,1/2-y,-z
1/2+x,1/2-y,z
loop_
_atom_site_type_symbol
_atom_site_label
_atom_site_fract_x
_atom_site_fract_y
_atom_site_fract_z
Si Si1 0.479240 0.272119 0.371656
Si Si2 0.775524 0.450960 0.072403
Si Si3 0.472246 0.084954 0.701487
Si Si4 0.448134 0.630976 0.621289
Si Si5 0.288215 0.000000 0.576461
O O1 0.500000 0.267039 0.500000
O O2 0.673391 0.239355 0.329128
O O3 0.572738 0.319427 0.357343
O O4 0.738247 0.500000 0.102268
O O5 0.871416 0.425165 0.180021
O O6 0.500000 0.436426 0.000000
O O7 0.000000 0.449827 0.000000
O O8 0.215545 0.114271 0.696568
O O9 0.347180 0.041571 0.648262
O O10 0.686247 0.105880 0.638170
O O11 0.500000 0.625545 0.500000
O O12 0.500000 0.000000 0.500000
O O13 0.000000 0.000000 0.500000
#
# Coordination Sequence:
#
# PCOD9208478 Si02
#       5
#     8   8   8   8   4
#     4   9  17  31  50  73 103 142 179 212 256 309
#     4  10  21  38  58  76  98 133 183 237 283 311
#     4  12  22  37  53  78 108 144 185 221 266 314
#     4  11  22  34  53  79 115 148 177 217 260 314
#     4  12  24  36  50  72 108 152 184 206 241 312
#
# _framework density 17.733751000000002
#
# number of rings (size 3 to 8) (size 9 to 14) (size 15 to 20)
#    0.000    1.333    1.111    6.667    0.000    3.556 
#    0.000    0.000    0.000    0.000    0.000    0.000 
#    0.000   62.222    0.000    0.000    0.000    0.000 
#
# Total GULP energy -100505.388583 kJ/mol
# GULP energy per Si atom -5583.632699 kJ/mol
# Density = 1.769339 g / cm^3
# Si number density = 17.733751 Si / 1000 Ang^3
#
#
#
# Elastic Constant Matrix: (Units=GPa)
#
#
# Indices 1 2 3 4 5 6 
#
# 1 120.9539 36.7175 20.1032 0.0000 22.5907 0.0000
# 2 36.7175 74.7490 18.6362 0.0000 0.7465 0.0000
# 3 20.1032 18.6362 64.4244 0.0000 20.2827 0.0000
# 4 0.0000 0.0000 0.0000 8.5848 0.0000 7.4549
# 5 22.5907 0.7465 20.2827 0.0000 27.5827 0.0000
# 6 0.0000 0.0000 0.0000 7.4549 0.0000 23.0355
#
#
#
# Elastic Compliance Matrix: (Units=1/GPa)
#
#
# Indices 1 2 3 4 5 6 
#
# 1 0.011849 -0.006058 0.001378 0.000000 -0.010554 0.000000
# 2 -0.006058 0.017777 -0.006067 0.000000 0.008942 0.000000
# 3 0.001378 -0.006067 0.022318 0.000000 -0.017375 0.000000
# 4 0.000000 0.000000 0.000000 0.162016 0.000000 -0.052433
# 5 -0.010554 0.008942 -0.017375 0.000000 0.057433 0.000000
# 6 0.000000 0.000000 0.000000 -0.052433 0.000000 0.060380
#
#
# Mechanical properties :
#
#
# Convention : Reuss Voigt Hill
#
# Bulk Modulus (GPa) = 32.84311 45.67122 39.25716
# Shear Modulus (GPa) = 13.75824 24.15195 18.95510
#
# Velocity S-wave (km/s) = 2.78838 3.69442 3.27291
# Velocity P-wave (km/s) = 5.37839 6.63386 6.03884
#
# Compressibility (1/GPa) = 0.03044779
#
# Stress axis : x y z
#
# Youngs Moduli (GPa) = 84.39643 56.25104 44.80783
#
# Poissons Ratio (x) = 0.34079 -0.06173
# Poissons Ratio (y) = 0.51131 0.27187
# Poissons Ratio (z) = -0.11628 0.34130
#
# Static dielectric constant tensor:
#      x y z
#    x 1.605860 0.000000 0.011140 
#    y 0.000000 1.673850 0.000000 
#    z 0.011140 0.000000 1.575420 
# 
# From -- ./inp_files/115376.got.cif
#   From: 2010.05.17/outbox.cif.g08.bks.cpg/sg12_58_cif.got.tgz:115376.got - 2010.06.03 13:09:07.
