data_PCOD9208344
_publ_section_title
;
Structure prediction by ZEFSAII (Michael W. Deem and Ramdas Pophale) SiO2 
 PCOD9208344
Probable space group: C 2/M
;
_chemical_formula_sum "Si O2"
_cell_formula_units_Z 40
_cell_length_a 24.633754
_cell_length_b 10.351599
_cell_length_c 12.129732
_cell_angle_alpha 90.000000
_cell_angle_beta 41.582767
_cell_angle_gamma 90.000000
_cell_volume 2052.872095
_symmetry_space_group_name_H-M "C 2/M"
_symmetry_group_IT_number 12
_symmetry_cell_setting 'monoclinic'
loop_
_space_group_symop_operation_xyz
x,y,z
-x,y,-z
-x,-y,-z
x,-y,z
1/2+x,1/2+y,z
1/2-x,1/2+y,-z
1/2-x,1/2-y,-z
1/2+x,1/2-y,z
loop_
_atom_site_type_symbol
_atom_site_label
_atom_site_fract_x
_atom_site_fract_y
_atom_site_fract_z
Si Si1 0.667574 0.704219 0.070098
Si Si2 0.902831 0.000000 0.656123
Si Si3 0.422190 0.500000 0.385917
Si Si4 0.131865 0.000000 0.772580
Si Si5 0.003589 0.281409 0.238940
Si Si6 0.564998 0.000000 0.502962
Si Si7 0.242845 0.000000 0.795387
Si Si8 0.000000 0.777283 0.000000
O O1 0.625536 0.621048 0.230238
O O2 0.597545 0.798974 0.133417
O O3 0.750000 0.750000 0.000000
O O4 0.697411 0.619374 0.922124
O O5 0.873892 0.000000 0.574021
O O6 0.000000 0.000000 0.500000
O O7 0.366088 0.500000 0.362785
O O8 0.477032 0.630525 0.296589
O O9 0.217373 0.000000 0.706217
O O10 0.077632 0.874969 0.888549
O O11 0.951331 0.374555 0.395983
O O12 0.994520 0.301461 0.121823
O O13 0.500000 0.000000 0.500000
O O14 0.660785 0.000000 0.325340
#
# Coordination Sequence:
#
# PCOD9208344 Si02
#       8
#     8   4   4   4   8   4   4   4
#     4  11  23  36  61  89 125 167 211 260 315 364
#     4  11  21  36  61  91 117 160 222 263 294 370
#     4  10  21  37  71  96 116 160 222 264 298 376
#     4   9  17  36  66 100 119 153 212 276 314 356
#     4  11  22  42  65  96 122 174 212 257 318 381
#     4  12  29  42  61  91 143 175 200 254 336 390
#     4  11  22  42  60  93 126 170 209 262 318 377
#     4   9  18  37  70  94 120 158 222 264 304 386
#
# _framework density 19.484895999999999
#
# number of rings (size 3 to 8) (size 9 to 14) (size 15 to 20)
#    0.000    1.400    4.000    2.400    5.600    1.200 
#    0.000    6.000    0.000    0.000    0.000    0.000 
#    0.000    0.000    0.000    0.000    0.000    0.000 
#
# Total GULP energy -111606.652982 kJ/mol
# GULP energy per Si atom -5580.332649 kJ/mol
# Density = 1.944055 g / cm^3
# Si number density = 19.484896 Si / 1000 Ang^3
#
#
#
# Elastic Constant Matrix: (Units=GPa)
#
#
# Indices 1 2 3 4 5 6 
#
# 1 135.8855 9.9072 46.3402 0.0000 18.1510 0.0000
# 2 9.9072 42.1578 16.6031 0.0000 5.2155 0.0000
# 3 46.3402 16.6031 108.8542 0.0000 7.5981 0.0000
# 4 0.0000 0.0000 0.0000 53.7394 0.0000 4.6332
# 5 18.1510 5.2155 7.5981 0.0000 48.1107 0.0000
# 6 0.0000 0.0000 0.0000 4.6332 0.0000 19.6102
#
#
#
# Elastic Compliance Matrix: (Units=1/GPa)
#
#
# Indices 1 2 3 4 5 6 
#
# 1 0.008975 -0.000358 -0.003572 0.000000 -0.002783 0.000000
# 2 -0.000358 0.025473 -0.003589 0.000000 -0.002059 0.000000
# 3 -0.003572 -0.003589 0.011257 0.000000 -0.000041 0.000000
# 4 0.000000 0.000000 0.000000 0.018995 0.000000 -0.004488
# 5 -0.002783 -0.002059 -0.000041 0.000000 0.022065 0.000000
# 6 0.000000 0.000000 0.000000 -0.004488 0.000000 0.052054
#
#
# Mechanical properties :
#
#
# Convention : Reuss Voigt Hill
#
# Bulk Modulus (GPa) = 32.60807 48.06651 40.33729
# Shear Modulus (GPa) = 30.47282 38.56186 34.51734
#
# Velocity S-wave (km/s) = 3.95893 4.45349 4.21348
# Velocity P-wave (km/s) = 6.13750 7.15311 6.66468
#
# Compressibility (1/GPa) = 0.03066725
#
# Stress axis : x y z
#
# Youngs Moduli (GPa) = 111.41924 39.25750 88.82971
#
# Poissons Ratio (x) = 0.01406 0.31729
# Poissons Ratio (y) = 0.03990 0.31882
# Poissons Ratio (z) = 0.39798 0.14090
#
# Static dielectric constant tensor:
#      x y z
#    x 1.733230 0.000000 0.022000 
#    y 0.000000 1.715680 0.000000 
#    z 0.022000 0.000000 1.668780 
# 
# From -- ./inp_files/174381.got.cif
#   From: 2010.05.17/outbox.cif.g08.bks.cpg/sg12_88_cif.got.tgz:174381.got - 2010.06.03 13:09:07.
