data_PCOD9208836
_publ_section_title
;
Structure prediction by ZEFSAII (Michael W. Deem and Ramdas Pophale) SiO2 
 PCOD9208836
Probable space group: C 2/M
;
_chemical_formula_sum "Si O2"
_cell_formula_units_Z 48
_cell_length_a 9.477234
_cell_length_b 19.262918
_cell_length_c 18.513963
_cell_angle_alpha 90.000000
_cell_angle_beta 48.677968
_cell_angle_gamma 90.000000
_cell_volume 2538.335110
_symmetry_space_group_name_H-M "C 2/M"
_symmetry_group_IT_number 12
_symmetry_cell_setting 'monoclinic'
loop_
_space_group_symop_operation_xyz
x,y,z
-x,y,-z
-x,-y,-z
x,-y,z
1/2+x,1/2+y,z
1/2-x,1/2+y,-z
1/2-x,1/2-y,-z
1/2+x,1/2-y,z
loop_
_atom_site_type_symbol
_atom_site_label
_atom_site_fract_x
_atom_site_fract_y
_atom_site_fract_z
Si Si1 0.182688 0.923940 0.274379
Si Si2 0.281402 0.418847 0.573028
Si Si3 0.683440 0.274133 0.240999
Si Si4 0.867643 0.709627 0.899026
Si Si5 0.558058 0.923033 0.057821
Si Si6 0.072741 0.302186 0.557319
O O1 0.266122 0.912650 0.326346
O O2 0.089756 0.851495 0.280778
O O3 0.358721 0.931427 0.163176
O O4 0.081742 0.000000 0.309648
O O5 0.500000 0.395676 0.500000
O O6 0.275348 0.500000 0.554950
O O7 0.152795 0.372701 0.565626
O O8 0.666275 0.237985 0.169317
O O9 0.589912 0.228655 0.335853
O O10 0.906996 0.283444 0.171772
O O11 0.825094 0.629164 0.932274
O O12 0.750000 0.750000 0.000000
O O13 0.641579 0.000000 0.018523
O O14 0.500000 0.891486 0.000000
O O15 0.250000 0.250000 0.500000
O O16 0.000000 0.309389 0.500000
#
# Coordination Sequence:
#
# PCOD9208836 Si02
#       6
#     8   8   8   8   8   8
#     4   9  17  32  54  78 105 137 179 229 276 327
#     4  10  21  38  60  84 111 147 193 241 289 343
#     4  11  22  36  56  84 113 146 188 232 283 341
#     4  11  21  36  57  82 113 146 185 235 286 337
#     4   9  17  31  53  79 104 136 181 227 270 322
#     4  12  23  37  58  84 118 154 192 238 289 347
#
# _framework density 18.910032000000001
#
# number of rings (size 3 to 8) (size 9 to 14) (size 15 to 20)
#    0.000    1.667    0.000    8.000    0.000    0.333 
#    0.000    0.000    0.000    7.000    0.000    0.000 
#    0.000    0.000    0.000    0.000    0.000    0.000 
#
# Total GULP energy -133674.653879 kJ/mol
# GULP energy per Si atom -5569.777245 kJ/mol
# Density = 1.886699 g / cm^3
# Si number density = 18.910032 Si / 1000 Ang^3
#
#
#
# Elastic Constant Matrix: (Units=GPa)
#
#
# Indices 1 2 3 4 5 6 
#
# 1 62.3625 35.1916 36.3627 0.0000 16.1403 0.0000
# 2 35.1916 121.7290 31.0244 0.0000 15.9818 0.0000
# 3 36.3627 31.0244 136.3055 0.0000 21.8044 0.0000
# 4 0.0000 0.0000 0.0000 26.7407 0.0000 5.3931
# 5 16.1403 15.9818 21.8044 0.0000 36.6305 0.0000
# 6 0.0000 0.0000 0.0000 5.3931 0.0000 33.8595
#
#
#
# Elastic Compliance Matrix: (Units=1/GPa)
#
#
# Indices 1 2 3 4 5 6 
#
# 1 0.022483 -0.004756 -0.004048 0.000000 -0.005422 0.000000
# 2 -0.004756 0.010015 -0.000715 0.000000 -0.001848 0.000000
# 3 -0.004048 -0.000715 0.009111 0.000000 -0.003328 0.000000
# 4 0.000000 0.000000 0.000000 0.038637 0.000000 -0.006154
# 5 -0.005422 -0.001848 -0.003328 0.000000 0.032476 0.000000
# 6 0.000000 0.000000 0.000000 -0.006154 0.000000 0.030514
#
#
# Mechanical properties :
#
#
# Convention : Reuss Voigt Hill
#
# Bulk Modulus (GPa) = 44.30511 58.39495 51.35003
# Shear Modulus (GPa) = 29.44671 33.96737 31.70704
#
# Velocity S-wave (km/s) = 3.95042 4.24283 4.09923
# Velocity P-wave (km/s) = 6.65493 7.41280 7.04406
#
# Compressibility (1/GPa) = 0.02257076
#
# Stress axis : x y z
#
# Youngs Moduli (GPa) = 44.47850 99.85165 109.75184
#
# Poissons Ratio (x) = 0.47492 0.44427
# Poissons Ratio (y) = 0.21155 0.07847
# Poissons Ratio (z) = 0.18005 0.07139
#
# Static dielectric constant tensor:
#      x y z
#    x 2.031380 0.000000 0.807600 
#    y 0.000000 1.784340 0.000000 
#    z 0.807600 0.000000 3.312450 
# 
# From -- ./inp_files/196482.got.cif
#   From: 2010.05.17/outbox.cif.g08.bks.cpg/sg12_99_cif.got.tgz:196482.got - 2010.06.03 13:09:07.
