data_PCOD9208235
_publ_section_title
;
Structure prediction by ZEFSAII (Michael W. Deem and Ramdas Pophale) SiO2 
 PCOD9208235
Probable space group: C 2/M
;
_chemical_formula_sum "Si O2"
_cell_formula_units_Z 52
_cell_length_a 7.663305
_cell_length_b 29.492802
_cell_length_c 19.219429
_cell_angle_alpha 90.000000
_cell_angle_beta 147.699054
_cell_angle_gamma 90.000000
_cell_volume 2321.195354
_symmetry_space_group_name_H-M "C 2/M"
_symmetry_group_IT_number 12
_symmetry_cell_setting 'monoclinic'
loop_
_space_group_symop_operation_xyz
x,y,z
-x,y,-z
-x,-y,-z
x,-y,z
1/2+x,1/2+y,z
1/2-x,1/2+y,-z
1/2-x,1/2-y,-z
1/2+x,1/2-y,z
loop_
_atom_site_type_symbol
_atom_site_label
_atom_site_fract_x
_atom_site_fract_y
_atom_site_fract_z
Si Si1 0.639301 0.360049 0.412938
Si Si2 0.428602 0.185774 0.639610
Si Si3 0.933466 0.951477 0.895049
Si Si4 0.978147 0.221691 0.721023
Si Si5 0.007397 0.147527 0.086209
Si Si6 0.653109 0.448895 0.628437
Si Si7 0.000000 0.290443 0.000000
O O1 0.454913 0.319888 0.308998
O O2 0.466794 0.408500 0.361961
O O3 0.000000 0.365485 0.500000
O O4 0.691543 0.340766 0.508122
O O5 0.327954 0.233921 0.636570
O O6 0.715917 0.201239 0.684278
O O7 0.623012 0.157149 0.762744
O O8 0.543921 0.948406 0.753915
O O9 0.078423 0.903933 0.919736
O O10 0.047266 0.000000 0.903713
O O11 0.000000 0.952685 0.000000
O O12 0.289624 0.236133 0.871864
O O13 0.751178 0.179674 0.039174
O O14 0.000000 0.151593 0.000000
O O15 0.500000 0.442655 0.500000
O O16 0.560077 0.500000 0.621122
#
# Coordination Sequence:
#
# PCOD9208235 Si02
#       7
#     8   8   8   8   8   8   4
#     4  10  22  40  59  89 128 163 206 263 320 375
#     4  10  22  38  56  88 118 161 210 257 316 377
#     4   9  19  36  59  89 122 158 205 256 310 375
#     4  10  23  37  60  82 125 162 207 266 312 378
#     4  10  22  37  62  87 123 165 207 262 320 371
#     4  10  21  37  63  94 123 162 213 258 308 381
#     4  10  24  40  57  94 124 160 221 264 302 390
#
# _framework density 22.402251
#
# number of rings (size 3 to 8) (size 9 to 14) (size 15 to 20)
#    0.000    2.154    0.000    1.385    7.538    2.769 
#    0.000    0.385    0.000    5.538    0.000    0.000 
#    0.000    0.000    0.000    0.000    0.000    0.000 
#
# Total GULP energy -145267.698282 kJ/mol
# GULP energy per Si atom -5587.219165 kJ/mol
# Density = 2.235126 g / cm^3
# Si number density = 22.402251 Si / 1000 Ang^3
#
#
#
# Elastic Constant Matrix: (Units=GPa)
#
#
# Indices 1 2 3 4 5 6 
#
# 1 67.1928 20.5579 9.7545 0.0000 -13.4227 0.0001
# 2 20.5579 142.4291 12.6745 0.0001 -17.8867 0.0001
# 3 9.7545 12.6745 120.1090 -0.0005 -22.6842 0.0004
# 4 0.0000 0.0001 -0.0005 34.2136 -0.0002 11.4678
# 5 -13.4227 -17.8867 -22.6842 -0.0002 20.1589 0.0001
# 6 0.0001 0.0001 0.0004 11.4678 0.0001 45.7722
#
#
#
# Elastic Compliance Matrix: (Units=1/GPa)
#
#
# Indices 1 2 3 4 5 6 
#
# 1 0.017417 -0.001137 0.000895 0.000000 0.011595 0.000000
# 2 -0.001137 0.008013 0.000567 0.000000 0.006990 0.000000
# 3 0.000895 0.000567 0.010668 0.000000 0.013104 0.000000
# 4 0.000000 0.000000 0.000000 0.031908 0.000001 -0.007994
# 5 0.011595 0.006990 0.013104 0.000001 0.078274 -0.000001
# 6 0.000000 0.000000 0.000000 -0.007994 -0.000001 0.023850
#
#
# Mechanical properties :
#
#
# Convention : Reuss Voigt Hill
#
# Bulk Modulus (GPa) = 27.21263 46.18943 36.70103
# Shear Modulus (GPa) = 27.51360 39.14521 33.32940
#
# Velocity S-wave (km/s) = 3.50832 4.18470 3.86135
# Velocity P-wave (km/s) = 5.34647 6.63415 6.02481
#
# Compressibility (1/GPa) = 0.03674764
#
# Stress axis : x y z
#
# Youngs Moduli (GPa) = 57.41560 124.80353 93.73806
#
# Poissons Ratio (x) = 0.14195 -0.08394
# Poissons Ratio (y) = 0.06531 -0.05315
# Poissons Ratio (z) = -0.05141 -0.07077
#
# Static dielectric constant tensor:
#      x y z
#    x 1.826390 0.000000 0.014080 
#    y 0.000000 1.909770 0.000000 
#    z 0.014080 0.000000 1.880190 
# 
# From -- ./inp_files/199994.got.cif
#   From: 2010.05.17/outbox.cif.g08.bks.cpg/sg12_100_cif.got.tgz:199994.got - 2010.06.03 13:09:07.
