data_PCOD9208720
_publ_section_title
;
Structure prediction by ZEFSAII (Michael W. Deem and Ramdas Pophale) SiO2 
 PCOD9208720
Probable space group: C 2/M
;
_chemical_formula_sum "Si O2"
_cell_formula_units_Z 64
_cell_length_a 30.588137
_cell_length_b 9.147515
_cell_length_c 14.549420
_cell_angle_alpha 90.000000
_cell_angle_beta 125.377721
_cell_angle_gamma 90.000000
_cell_volume 3319.307615
_symmetry_space_group_name_H-M "C 2/M"
_symmetry_group_IT_number 12
_symmetry_cell_setting 'monoclinic'
loop_
_space_group_symop_operation_xyz
x,y,z
-x,y,-z
-x,-y,-z
x,-y,z
1/2+x,1/2+y,z
1/2-x,1/2+y,-z
1/2-x,1/2-y,-z
1/2+x,1/2-y,z
loop_
_atom_site_type_symbol
_atom_site_label
_atom_site_fract_x
_atom_site_fract_y
_atom_site_fract_z
Si Si1 0.363153 0.176455 0.917793
Si Si2 0.690668 0.670136 0.531491
Si Si3 0.802052 0.325321 0.021618
Si Si4 0.976137 0.175377 0.069226
Si Si5 0.015899 0.825610 0.311970
Si Si6 0.607353 0.826774 0.542739
Si Si7 0.411226 0.173662 0.264779
Si Si8 0.818719 0.328375 0.667112
O O1 0.348635 0.219009 0.796055
O O2 0.367364 0.000000 0.926084
O O3 0.317635 0.218383 0.936344
O O4 0.419381 0.246532 0.014091
O O5 0.676717 0.500000 0.521689
O O6 0.663732 0.758749 0.580760
O O7 0.754944 0.683786 0.608616
O O8 0.669763 0.735333 0.409502
O O9 0.793915 0.500000 0.013075
O O10 0.855095 0.293528 0.146461
O O11 0.750000 0.250000 0.000000
O O12 0.014717 0.209485 0.201846
O O13 0.968069 0.000000 0.058642
O O14 0.000000 0.219679 0.000000
O O15 0.959543 0.767719 0.283132
O O16 0.062844 0.747341 0.424457
O O17 0.020059 0.000000 0.327851
O O18 0.594575 0.799650 0.633737
O O19 0.607631 0.000000 0.528340
O O20 0.422509 0.000000 0.264574
O O21 0.830215 0.500000 0.663566
#
# Coordination Sequence:
#
# PCOD9208720 Si02
#       8
#     8   8   8   8   8   8   8   8
#     4  10  21  39  63  90 119 155 198 244 293 349
#     4  10  21  38  59  85 118 155 193 240 289 342
#     4  10  22  39  61  89 122 157 198 243 292 352
#     4  10  23  41  60  87 122 156 194 242 296 354
#     4  11  23  40  62  88 117 151 194 244 296 348
#     4  11  24  39  60  86 116 153 195 242 292 347
#     4  10  22  42  62  84 117 156 195 239 293 352
#     4   9  20  38  59  85 118 154 193 237 291 347
#
# _framework density 19.281130000000001
#
# number of rings (size 3 to 8) (size 9 to 14) (size 15 to 20)
#    0.000    1.875    1.250    1.500    3.500    5.250 
#    0.000    0.000    0.000    0.000    0.000    0.000 
#    0.000    0.000    0.000    0.000    0.000    0.000 
#
# Total GULP energy -178808.188512 kJ/mol
# GULP energy per Si atom -5587.755891 kJ/mol
# Density = 1.923725 g / cm^3
# Si number density = 19.281130 Si / 1000 Ang^3
#
#
#
# Elastic Constant Matrix: (Units=GPa)
#
#
# Indices 1 2 3 4 5 6 
#
# 1 61.1746 21.1917 -13.9917 0.0000 -13.3712 0.0000
# 2 21.1917 35.8242 18.4074 0.0000 -12.4121 0.0000
# 3 -13.9917 18.4074 58.5478 0.0000 -17.2536 0.0000
# 4 0.0000 0.0000 0.0000 26.1421 0.0000 1.5367
# 5 -13.3712 -12.4121 -17.2536 0.0000 26.2141 0.0000
# 6 0.0000 0.0000 0.0000 1.5367 0.0000 34.9806
#
#
#
# Elastic Compliance Matrix: (Units=1/GPa)
#
#
# Indices 1 2 3 4 5 6 
#
# 1 0.034248 -0.024464 0.021848 0.000000 0.020266 0.000000
# 2 -0.024464 0.053542 -0.023431 0.000000 -0.002549 0.000000
# 3 0.021848 -0.023431 0.036825 0.000000 0.024288 0.000000
# 4 0.000000 0.000000 0.000000 0.038352 0.000000 -0.001685
# 5 0.020266 -0.002549 0.024288 0.000000 0.063263 0.000000
# 6 0.000000 0.000000 0.000000 -0.001685 0.000000 0.028661
#
#
# Mechanical properties :
#
#
# Convention : Reuss Voigt Hill
#
# Bulk Modulus (GPa) = 13.78898 22.97350 18.38124
# Shear Modulus (GPa) = 15.09849 26.12998 20.61423
#
# Velocity S-wave (km/s) = 2.80138 3.68531 3.27332
# Velocity P-wave (km/s) = 4.19889 5.48175 4.88264
#
# Compressibility (1/GPa) = 0.07252169
#
# Stress axis : x y z
#
# Youngs Moduli (GPa) = 29.19886 18.67694 27.15515
#
# Poissons Ratio (x) = 0.45691 -0.59329
# Poissons Ratio (y) = 0.71432 0.63627
# Poissons Ratio (z) = -0.63794 0.43762
#
# Static dielectric constant tensor:
#      x y z
#    x 1.663080 0.000000 -0.012610 
#    y 0.000000 1.641150 0.000000 
#    z -0.012610 0.000000 1.667010 
# 
# From -- ./inp_files/249906.got.cif
#   From: 2010.05.17/outbox.cif.g08.bks.cpg/sg12_125_cif.got.tgz:249906.got - 2010.06.03 13:09:07.
