data_PCOD9208288
_publ_section_title
;
Structure prediction by ZEFSAII (Michael W. Deem and Ramdas Pophale) SiO2 
 PCOD9208288
Probable space group: C 2/M
;
_chemical_formula_sum "Si O2"
_cell_formula_units_Z 48
_cell_length_a 21.540382
_cell_length_b 16.314121
_cell_length_c 10.172758
_cell_angle_alpha 90.000000
_cell_angle_beta 36.634085
_cell_angle_gamma 90.000000
_cell_volume 2133.111465
_symmetry_space_group_name_H-M "C 2/M"
_symmetry_group_IT_number 12
_symmetry_cell_setting 'monoclinic'
loop_
_space_group_symop_operation_xyz
x,y,z
-x,y,-z
-x,-y,-z
x,-y,z
1/2+x,1/2+y,z
1/2-x,1/2+y,-z
1/2-x,1/2-y,-z
1/2+x,1/2-y,z
loop_
_atom_site_type_symbol
_atom_site_label
_atom_site_fract_x
_atom_site_fract_y
_atom_site_fract_z
Si Si1 0.977743 0.098002 0.694334
Si Si2 0.378905 0.091990 0.738855
Si Si3 0.276769 0.288602 0.096640
Si Si4 0.135277 0.650851 0.684944
Si Si5 0.942518 0.594077 0.904752
Si Si6 0.330053 0.318771 0.493375
O O1 0.085206 0.123110 0.584314
O O2 0.000000 0.110468 0.500000
O O3 0.954064 0.000000 0.753406
O O4 0.886716 0.161401 0.898394
O O5 0.500000 0.086950 0.500000
O O6 0.311477 0.140819 0.751300
O O7 0.388705 0.130954 0.868178
O O8 0.336442 0.000000 0.822127
O O9 0.242129 0.227694 0.273769
O O10 0.250000 0.250000 0.000000
O O11 0.067509 0.597272 0.700230
O O12 0.257574 0.639472 0.504995
O O13 0.115827 0.743165 0.672044
O O14 0.092392 0.634829 0.902819
O O15 0.910134 0.500000 0.964527
#
# Coordination Sequence:
#
# PCOD9208288 Si02
#       6
#     8   8   8   8   8   8
#     4  11  26  46  67  98 140 180 221 274 342 411
#     4  10  22  39  63  97 135 167 205 266 338 397
#     4  12  24  39  67  98 131 171 217 275 334 391
#     4  10  22  39  60  93 127 170 221 274 315 385
#     4  10  21  37  64  95 127 168 211 267 332 393
#     4  11  25  42  66  96 127 177 224 273 323 395
#
# _framework density 22.502341000000001
#
# number of rings (size 3 to 8) (size 9 to 14) (size 15 to 20)
#    0.000    1.333    1.667    3.500    9.333    1.333 
#    0.000    2.500    0.000    6.000    0.000    0.000 
#    0.000    0.000    0.000    0.000    0.000    0.000 
#
# Total GULP energy -133748.753292 kJ/mol
# GULP energy per Si atom -5572.864721 kJ/mol
# Density = 2.245112 g / cm^3
# Si number density = 22.502341 Si / 1000 Ang^3
#
#
#
# Elastic Constant Matrix: (Units=GPa)
#
#
# Indices 1 2 3 4 5 6 
#
# 1 69.7520 26.7231 4.3659 0.0000 -19.2423 0.0000
# 2 26.7231 57.4933 37.8428 0.0000 -11.3105 0.0000
# 3 4.3659 37.8428 63.6790 0.0000 -1.0685 0.0000
# 4 0.0000 0.0000 0.0000 95.1256 0.0000 -5.4554
# 5 -19.2423 -11.3105 -1.0685 0.0000 40.9850 0.0000
# 6 0.0000 0.0000 0.0000 -5.4554 0.0000 10.1513
#
#
#
# Elastic Compliance Matrix: (Units=1/GPa)
#
#
# Indices 1 2 3 4 5 6 
#
# 1 0.020357 -0.012088 0.005895 0.000000 0.006376 0.000000
# 2 -0.012088 0.038212 -0.021808 0.000000 0.004302 0.000000
# 3 0.005895 -0.021808 0.028217 0.000000 -0.002515 0.000000
# 4 0.000000 0.000000 0.000000 0.010847 0.000000 0.005829
# 5 0.006376 0.004302 -0.002515 0.000000 0.028514 0.000000
# 6 0.000000 0.000000 0.000000 0.005829 0.000000 0.101642
#
#
# Mechanical properties :
#
#
# Convention : Reuss Voigt Hill
#
# Bulk Modulus (GPa) = 32.48316 36.53200 34.50758
# Shear Modulus (GPa) = 17.00377 37.38521 27.19449
#
# Velocity S-wave (km/s) = 2.75188 4.08044 3.48015
# Velocity P-wave (km/s) = 4.95620 6.20242 5.61400
#
# Compressibility (1/GPa) = 0.03078519
#
# Stress axis : x y z
#
# Youngs Moduli (GPa) = 49.12205 26.16972 35.43955
#
# Poissons Ratio (x) = 0.31634 -0.20891
# Poissons Ratio (y) = 0.59379 0.77285
# Poissons Ratio (z) = -0.28957 0.57070
#
# Static dielectric constant tensor:
#      x y z
#    x 1.911410 0.000000 -0.073270 
#    y 0.000000 1.857850 0.000000 
#    z -0.073270 0.000000 2.002440 
# 
# From -- ./inp_files/177311.got.cif
#   From: 2010.05.17/outbox.cif.g08.bks.cpg/sg12_89_cif.got.tgz:177311.got - 2010.06.03 13:09:07.
