data_PCOD9208051
_publ_section_title
;
Structure prediction by ZEFSAII (Michael W. Deem and Ramdas Pophale) SiO2 
 PCOD9208051
Probable space group: C 2/M
;
_chemical_formula_sum "Si O2"
_cell_formula_units_Z 36
_cell_length_a 9.336083
_cell_length_b 20.482809
_cell_length_c 16.281019
_cell_angle_alpha 90.000000
_cell_angle_beta 141.489740
_cell_angle_gamma 90.000000
_cell_volume 1938.577292
_symmetry_space_group_name_H-M "C 2/M"
_symmetry_group_IT_number 12
_symmetry_cell_setting 'monoclinic'
loop_
_space_group_symop_operation_xyz
x,y,z
-x,y,-z
-x,-y,-z
x,-y,z
1/2+x,1/2+y,z
1/2-x,1/2+y,-z
1/2-x,1/2-y,-z
1/2+x,1/2-y,z
loop_
_atom_site_type_symbol
_atom_site_label
_atom_site_fract_x
_atom_site_fract_y
_atom_site_fract_z
Si Si1 0.006151 0.304627 0.327901
Si Si2 0.736984 0.710199 0.909658
Si Si3 0.212296 0.571397 0.033346
Si Si4 0.230824 0.575048 0.858605
Si Si5 0.500000 0.737199 0.500000
O O1 0.275090 0.305024 0.422931
O O2 0.897718 0.250038 0.219171
O O3 0.880294 0.372120 0.250255
O O4 0.967240 0.281557 0.403875
O O5 0.646403 0.636481 0.882171
O O6 0.750000 0.750000 0.000000
O O7 0.000000 0.704058 0.000000
O O8 0.330712 0.500000 0.087999
O O9 0.118991 0.580823 0.899062
O O10 0.000000 0.567914 0.000000
O O11 0.209420 0.500000 0.821569
O O12 0.500000 0.588165 0.000000
#
# Coordination Sequence:
#
# PCOD9208051 Si02
#       5
#     8   8   8   8   4
#     4  11  22  41  58  82 118 151 201 243 276 336
#     4  11  20  31  58  90 111 144 181 233 306 353
#     4   9  19  33  50  86 121 143 174 219 295 363
#     4  10  21  37  61  91 120 146 178 237 310 357
#     4  10  26  40  58  78 110 164 210 238 266 320
#
# _framework density 18.570319000000001
#
# number of rings (size 3 to 8) (size 9 to 14) (size 15 to 20)
#    0.000    1.778    2.222    2.000    6.222    0.000 
#    0.000    1.111    0.000    5.333    0.000    0.000 
#    0.000    0.000    0.000    0.000    0.000    0.000 
#
# Total GULP energy -100393.268580 kJ/mol
# GULP energy per Si atom -5577.403810 kJ/mol
# Density = 1.852805 g / cm^3
# Si number density = 18.570319 Si / 1000 Ang^3
#
#
#
# Elastic Constant Matrix: (Units=GPa)
#
#
# Indices 1 2 3 4 5 6 
#
# 1 106.4640 33.5916 35.7978 -0.0002 -17.8497 -0.0001
# 2 33.5916 172.2188 68.4244 0.0000 -11.5398 -0.0001
# 3 35.7978 68.4244 90.1241 -0.0004 -15.5383 -0.0004
# 4 -0.0002 0.0000 -0.0004 26.2289 -0.0003 -2.1159
# 5 -17.8497 -11.5398 -15.5383 -0.0003 36.1749 -0.0003
# 6 -0.0001 -0.0001 -0.0004 -2.1159 -0.0003 16.7976
#
#
#
# Elastic Compliance Matrix: (Units=1/GPa)
#
#
# Indices 1 2 3 4 5 6 
#
# 1 0.011387 -0.000616 -0.003370 0.000000 0.003974 0.000000
# 2 -0.000616 0.008348 -0.006142 0.000000 -0.000279 0.000000
# 3 -0.003370 -0.006142 0.017790 0.000000 0.004019 0.000000
# 4 0.000000 0.000000 0.000000 0.038517 0.000000 0.004852
# 5 0.003974 -0.000279 0.004019 0.000000 0.031242 0.000001
# 6 0.000000 0.000000 0.000000 0.004852 0.000001 0.060143
#
#
# Mechanical properties :
#
#
# Convention : Reuss Voigt Hill
#
# Bulk Modulus (GPa) = 57.90330 71.60385 64.75358
# Shear Modulus (GPa) = 25.84788 31.23982 28.54385
#
# Velocity S-wave (km/s) = 3.73485 4.10597 3.92480
# Velocity P-wave (km/s) = 7.06025 7.81796 7.44875
#
# Compressibility (1/GPa) = 0.01727017
#
# Stress axis : x y z
#
# Youngs Moduli (GPa) = 87.82207 119.78780 56.21045
#
# Poissons Ratio (x) = 0.07375 0.18944
# Poissons Ratio (y) = 0.05407 0.34522
# Poissons Ratio (z) = 0.29598 0.73569
#
# Static dielectric constant tensor:
#      x y z
#    x 1.707260 0.000000 0.020610 
#    y 0.000000 1.697040 0.000000 
#    z 0.020610 0.000000 1.613540 
# 
# From -- ./inp_files/119987.got.cif
#   From: 2010.05.17/outbox.cif.g08.bks.cpg/sg12_60_cif.got.tgz:119987.got - 2010.06.03 13:09:07.
