data_PCOD9208392
_publ_section_title
;
Structure prediction by ZEFSAII (Michael W. Deem and Ramdas Pophale) SiO2 
 PCOD9208392
Probable space group: C 2/M
;
_chemical_formula_sum "Si O2"
_cell_formula_units_Z 48
_cell_length_a 15.836920
_cell_length_b 26.175165
_cell_length_c 10.069476
_cell_angle_alpha 90.000000
_cell_angle_beta 38.728678
_cell_angle_gamma 90.000000
_cell_volume 2611.480645
_symmetry_space_group_name_H-M "C 2/M"
_symmetry_group_IT_number 12
_symmetry_cell_setting 'monoclinic'
loop_
_space_group_symop_operation_xyz
x,y,z
-x,y,-z
-x,-y,-z
x,-y,z
1/2+x,1/2+y,z
1/2-x,1/2+y,-z
1/2-x,1/2-y,-z
1/2+x,1/2-y,z
loop_
_atom_site_type_symbol
_atom_site_label
_atom_site_fract_x
_atom_site_fract_y
_atom_site_fract_z
Si Si1 0.324722 0.298860 0.973852
Si Si2 0.845979 0.143656 0.679584
Si Si3 0.118819 0.235116 0.576330
Si Si4 0.871610 0.660001 0.567064
Si Si5 0.128278 0.441305 0.938793
Si Si6 0.447320 0.943827 0.413315
O O1 0.313337 0.339236 0.869032
O O2 0.482138 0.286803 0.808882
O O3 0.250000 0.250000 0.000000
O O4 0.251440 0.319966 0.193616
O O5 0.845412 0.193864 0.583624
O O6 0.741135 0.100326 0.767412
O O7 0.000000 0.124950 0.500000
O O8 0.250000 0.250000 0.500000
O O9 0.079306 0.291094 0.573995
O O10 0.850513 0.605745 0.520924
O O11 0.000000 0.649381 0.500000
O O12 0.176020 0.500000 0.866633
O O13 0.000000 0.434574 0.000000
O O14 0.069968 0.434993 0.159886
O O15 0.500000 0.948324 0.500000
O O16 0.388672 0.000000 0.450189
#
# Coordination Sequence:
#
# PCOD9208392 Si02
#       6
#     8   8   8   8   8   8
#     4  11  20  37  55  79 110 150 197 229 278 348
#     4  10  21  38  56  79 116 150 191 237 282 350
#     4  11  24  35  52  85 117 150 189 234 288 344
#     4  11  19  34  59  79 111 154 183 231 289 333
#     4  10  22  38  60  90 117 148 193 244 294 339
#     4   9  19  34  56  88 115 144 194 240 280 341
#
# _framework density 18.380378
#
# number of rings (size 3 to 8) (size 9 to 14) (size 15 to 20)
#    0.000    1.667    3.333    2.500    2.333    1.000 
#    0.000    0.000    0.000    1.000    0.000    1.167 
#    0.000    0.667    0.000    0.000    0.000    0.000 
#
# Total GULP energy -133639.228775 kJ/mol
# GULP energy per Si atom -5568.301199 kJ/mol
# Density = 1.833854 g / cm^3
# Si number density = 18.380378 Si / 1000 Ang^3
#
#
#
# Elastic Constant Matrix: (Units=GPa)
#
#
# Indices 1 2 3 4 5 6 
#
# 1 45.4356 13.5243 9.1062 0.0000 -17.6338 0.0000
# 2 13.5243 155.4339 45.4548 0.0000 -16.3230 0.0000
# 3 9.1062 45.4548 62.7317 0.0000 -9.5159 0.0000
# 4 0.0000 0.0000 0.0000 27.8822 0.0000 -1.5628
# 5 -17.6338 -16.3230 -9.5159 0.0000 23.0206 0.0000
# 6 0.0000 0.0000 0.0000 -1.5628 0.0000 30.1853
#
#
#
# Elastic Compliance Matrix: (Units=1/GPa)
#
#
# Indices 1 2 3 4 5 6 
#
# 1 0.031376 0.000046 -0.001000 0.000000 0.023653 0.000000
# 2 0.000046 0.008448 -0.005563 0.000000 0.003726 0.000000
# 3 -0.001000 -0.005563 0.020700 0.000000 0.003846 0.000000
# 4 0.000000 0.000000 0.000000 0.035970 0.000000 0.001862
# 5 0.023653 0.003726 0.003846 0.000000 0.065790 0.000000
# 6 0.000000 0.000000 0.000000 0.001862 0.000000 0.033225
#
#
# Mechanical properties :
#
#
# Convention : Reuss Voigt Hill
#
# Bulk Modulus (GPa) = 21.05657 44.41907 32.73782
# Shear Modulus (GPa) = 22.28452 29.25201 25.76826
#
# Velocity S-wave (km/s) = 3.48574 3.99366 3.74832
# Velocity P-wave (km/s) = 5.26131 6.74425 6.04840
#
# Compressibility (1/GPa) = 0.04749112
#
# Stress axis : x y z
#
# Youngs Moduli (GPa) = 31.87160 118.37742 48.30884
#
# Poissons Ratio (x) = -0.00550 0.04832
# Poissons Ratio (y) = -0.00148 0.26872
# Poissons Ratio (z) = 0.03188 0.65848
#
# Static dielectric constant tensor:
#      x y z
#    x 1.664120 0.000000 0.022950 
#    y 0.000000 1.843070 0.000000 
#    z 0.022950 0.000000 1.642990 
# 
# From -- ./inp_files/52760.got.cif
#   From: 2010.05.17/outbox.cif.g08.bks.cpg/sg12_27_cif.got.tgz:52760.got - 2010.06.03 13:09:07.
