data_PCOD9208294
_publ_section_title
;
Structure prediction by ZEFSAII (Michael W. Deem and Ramdas Pophale) SiO2 
 PCOD9208294
Probable space group: C 2/M
;
_chemical_formula_sum "Si O2"
_cell_formula_units_Z 56
_cell_length_a 21.749784
_cell_length_b 17.368619
_cell_length_c 9.492496
_cell_angle_alpha 90.000000
_cell_angle_beta 132.501252
_cell_angle_gamma 90.000000
_cell_volume 2643.764994
_symmetry_space_group_name_H-M "C 2/M"
_symmetry_group_IT_number 12
_symmetry_cell_setting 'monoclinic'
loop_
_space_group_symop_operation_xyz
x,y,z
-x,y,-z
-x,-y,-z
x,-y,z
1/2+x,1/2+y,z
1/2-x,1/2+y,-z
1/2-x,1/2-y,-z
1/2+x,1/2-y,z
loop_
_atom_site_type_symbol
_atom_site_label
_atom_site_fract_x
_atom_site_fract_y
_atom_site_fract_z
Si Si1 0.836473 0.643585 0.119112
Si Si2 0.989715 0.183960 0.646173
Si Si3 0.174499 0.187450 0.970983
Si Si4 0.257937 0.317344 0.625754
Si Si5 0.451088 0.086322 0.058984
Si Si6 0.917645 0.640850 0.533760
Si Si7 0.418144 0.591624 0.777169
O O1 0.738580 0.627937 0.997561
O O2 0.873088 0.623319 0.022752
O O3 0.892906 0.615747 0.337192
O O4 0.838139 0.736064 0.140626
O O5 0.961674 0.274006 0.606827
O O6 0.926884 0.134662 0.641319
O O7 0.000000 0.162190 0.500000
O O8 0.080135 0.164089 0.851327
O O9 0.215894 0.213825 0.180621
O O10 0.250000 0.250000 0.500000
O O11 0.167854 0.354463 0.510849
O O12 0.331351 0.376985 0.704658
O O13 0.519958 0.086364 0.287882
O O14 0.426934 0.000000 0.978299
O O15 0.500000 0.123474 0.000000
O O16 0.416365 0.500000 0.759471
O O17 0.500000 0.610868 0.000000
#
# Coordination Sequence:
#
# PCOD9208294 Si02
#       7
#     8   8   8   8   8   8   8
#     4  10  21  39  62  92 128 163 207 269 321 376
#     4  12  21  39  67  98 125 163 214 269 322 388
#     4  10  21  37  64  97 128 159 212 272 318 377
#     4  11  23  38  66 101 125 167 219 266 326 376
#     4  11  25  42  61  90 131 174 213 263 328 388
#     4  11  22  38  65  99 123 162 218 264 324 390
#     4  11  25  44  64  90 133 179 218 265 326 391
#
# _framework density 21.181913000000002
#
# number of rings (size 3 to 8) (size 9 to 14) (size 15 to 20)
#    0.000    1.143    5.714    0.429    2.000    2.571 
#    0.000    2.857    0.000    0.000    0.000    0.000 
#    0.000    0.000    0.000    0.000    0.000    0.000 
#
# Total GULP energy -156101.579107 kJ/mol
# GULP energy per Si atom -5575.056397 kJ/mol
# Density = 2.113370 g / cm^3
# Si number density = 21.181913 Si / 1000 Ang^3
#
#
#
# Elastic Constant Matrix: (Units=GPa)
#
#
# Indices 1 2 3 4 5 6 
#
# 1 176.9331 33.7801 30.1705 0.0000 0.0445 0.0000
# 2 33.7801 45.7151 13.3473 0.0000 -6.1133 0.0000
# 3 30.1705 13.3473 44.0335 0.0000 4.3611 0.0000
# 4 0.0000 0.0000 0.0000 10.1174 0.0000 6.4223
# 5 0.0445 -6.1133 4.3611 0.0000 45.5489 0.0000
# 6 0.0000 0.0000 0.0000 6.4223 0.0000 18.1544
#
#
#
# Elastic Compliance Matrix: (Units=1/GPa)
#
#
# Indices 1 2 3 4 5 6 
#
# 1 0.007060 -0.004215 -0.003536 0.000000 -0.000234 0.000000
# 2 -0.004215 0.027243 -0.005787 0.000000 0.004215 0.000000
# 3 -0.003536 -0.005787 0.027222 0.000000 -0.003380 0.000000
# 4 0.000000 0.000000 0.000000 0.127463 0.000000 -0.045091
# 5 -0.000234 0.004215 -0.003380 0.000000 0.022844 0.000000
# 6 0.000000 0.000000 0.000000 -0.045091 0.000000 0.071034
#
#
# Mechanical properties :
#
#
# Convention : Reuss Voigt Hill
#
# Bulk Modulus (GPa) = 29.02992 46.80860 37.91926
# Shear Modulus (GPa) = 15.55574 27.38971 21.47273
#
# Velocity S-wave (km/s) = 2.71290 3.59983 3.18737
# Velocity P-wave (km/s) = 4.85262 6.27891 5.61127
#
# Compressibility (1/GPa) = 0.03444721
#
# Stress axis : x y z
#
# Youngs Moduli (GPa) = 141.64872 36.70703 36.73543
#
# Poissons Ratio (x) = 0.15474 0.12990
# Poissons Ratio (y) = 0.59712 0.21258
# Poissons Ratio (z) = 0.50089 0.21242
#
# Static dielectric constant tensor:
#      x y z
#    x 1.887160 0.000000 0.049670 
#    y 0.000000 1.757930 0.000000 
#    z 0.049670 0.000000 1.806480 
# 
# From -- ./inp_files/89688.got.cif
#   From: 2010.05.17/outbox.cif.g08.bks.cpg/sg12_45_cif.got.tgz:89688.got - 2010.06.03 13:09:07.
