data_PCOD9208115
_publ_section_title
;
Structure prediction by ZEFSAII (Michael W. Deem and Ramdas Pophale) SiO2 
 PCOD9208115
Probable space group: C 2/M
;
_chemical_formula_sum "Si O2"
_cell_formula_units_Z 48
_cell_length_a 14.032570
_cell_length_b 18.281135
_cell_length_c 18.182469
_cell_angle_alpha 90.000000
_cell_angle_beta 28.797069
_cell_angle_gamma 90.000000
_cell_volume 2246.869506
_symmetry_space_group_name_H-M "C 2/M"
_symmetry_group_IT_number 12
_symmetry_cell_setting 'monoclinic'
loop_
_space_group_symop_operation_xyz
x,y,z
-x,y,-z
-x,-y,-z
x,-y,z
1/2+x,1/2+y,z
1/2-x,1/2+y,-z
1/2-x,1/2-y,-z
1/2+x,1/2-y,z
loop_
_atom_site_type_symbol
_atom_site_label
_atom_site_fract_x
_atom_site_fract_y
_atom_site_fract_z
Si Si1 0.274685 0.084238 0.166543
Si Si2 0.182462 0.285598 0.216638
Si Si3 0.502565 0.757123 0.878047
Si Si4 0.580799 0.084969 0.606881
Si Si5 0.093261 0.583804 0.769766
Si Si6 0.057008 0.173998 0.690698
O O1 0.243154 0.087569 0.275975
O O2 0.119172 0.124228 0.221755
O O3 0.272056 0.000000 0.147566
O O4 0.500000 0.111083 0.000000
O O5 0.298309 0.252821 0.207854
O O6 0.123634 0.370185 0.262170
O O7 0.976431 0.244116 0.339777
O O8 0.326135 0.268812 0.050547
O O9 0.476775 0.840438 0.865721
O O10 0.524412 0.704105 0.794052
O O11 0.648446 0.088500 0.647092
O O12 0.745920 0.127010 0.448916
O O13 0.562389 0.000000 0.599709
O O14 0.006918 0.500000 0.837111
#
# Coordination Sequence:
#
# PCOD9208115 Si02
#       6
#     8   8   8   8   8   8
#     4  10  21  37  62 100 135 168 214 275 337 391
#     4  11  24  44  69 100 136 173 221 283 334 394
#     4  11  24  43  71 104 130 172 233 274 331 399
#     4  11  26  46  65  98 138 181 224 273 335 399
#     4  10  21  39  64  97 140 175 207 271 341 395
#     4  12  23  41  69  96 133 177 223 269 327 402
#
# _framework density 21.363056
#
# number of rings (size 3 to 8) (size 9 to 14) (size 15 to 20)
#    0.000    1.167    3.333    2.500    2.333    1.333 
#    0.000    8.333    0.000    0.000    0.000    0.000 
#    0.000    0.000    0.000    0.000    0.000    0.000 
#
# Total GULP energy -133921.456605 kJ/mol
# GULP energy per Si atom -5580.060692 kJ/mol
# Density = 2.131443 g / cm^3
# Si number density = 21.363056 Si / 1000 Ang^3
#
#
#
# Elastic Constant Matrix: (Units=GPa)
#
#
# Indices 1 2 3 4 5 6 
#
# 1 84.6052 27.3428 15.8179 0.0028 3.9674 -0.0004
# 2 27.3428 159.3398 56.1476 -0.0004 -3.2728 -0.0012
# 3 15.8179 56.1476 59.2461 0.0015 -9.1752 -0.0044
# 4 0.0028 -0.0004 0.0015 29.4388 -0.0028 -3.7616
# 5 3.9674 -3.2728 -9.1752 -0.0028 16.4520 -0.0010
# 6 -0.0004 -0.0012 -0.0044 -3.7616 -0.0010 42.1760
#
#
#
# Elastic Compliance Matrix: (Units=1/GPa)
#
#
# Indices 1 2 3 4 5 6 
#
# 1 0.013042 -0.001257 -0.003083 -0.000002 -0.005115 -0.000001
# 2 -0.001257 0.009721 -0.009337 0.000000 -0.002970 -0.000001
# 3 -0.003083 -0.009337 0.028871 0.000000 0.014988 0.000003
# 4 -0.000002 0.000000 0.000000 0.034360 0.000007 0.003065
# 5 -0.005115 -0.002970 0.014988 0.000007 0.069784 0.000004
# 6 -0.000001 -0.000001 0.000003 0.003065 0.000004 0.023983
#
#
# Mechanical properties :
#
#
# Convention : Reuss Voigt Hill
#
# Bulk Modulus (GPa) = 41.18461 55.75642 48.47051
# Shear Modulus (GPa) = 23.23331 31.20554 27.21942
#
# Velocity S-wave (km/s) = 3.30137 3.82609 3.57338
# Velocity P-wave (km/s) = 5.81828 6.75831 6.30583
#
# Compressibility (1/GPa) = 0.02428091
#
# Stress axis : x y z
#
# Youngs Moduli (GPa) = 76.67536 102.87486 34.63639
#
# Poissons Ratio (x) = 0.12927 0.10679
# Poissons Ratio (y) = 0.09635 0.32339
# Poissons Ratio (z) = 0.23641 0.96051
#
# Static dielectric constant tensor:
#      x y z
#    x 1.785380 0.000000 0.005810 
#    y 0.000000 1.846790 0.000010 
#    z 0.005810 0.000010 1.810340 
# 
# From -- ./inp_files/311315.got.cif
#   From: 2010.05.17/outbox.cif.g08.bks.cpg/sg12_156_cif.got.tgz:311315.got - 2010.06.03 13:09:07.
