data_PCOD9208594
_publ_section_title
;
Structure prediction by ZEFSAII (Michael W. Deem and Ramdas Pophale) SiO2 
 PCOD9208594
Probable space group: C 2/M
;
_chemical_formula_sum "Si O2"
_cell_formula_units_Z 44
_cell_length_a 11.427680
_cell_length_b 23.907563
_cell_length_c 11.647045
_cell_angle_alpha 90.000000
_cell_angle_beta 139.664823
_cell_angle_gamma 90.000000
_cell_volume 2059.617123
_symmetry_space_group_name_H-M "C 2/M"
_symmetry_group_IT_number 12
_symmetry_cell_setting 'monoclinic'
loop_
_space_group_symop_operation_xyz
x,y,z
-x,y,-z
-x,-y,-z
x,-y,z
1/2+x,1/2+y,z
1/2-x,1/2+y,-z
1/2-x,1/2-y,-z
1/2+x,1/2-y,z
loop_
_atom_site_type_symbol
_atom_site_label
_atom_site_fract_x
_atom_site_fract_y
_atom_site_fract_z
Si Si1 0.500000 0.874771 0.500000
Si Si2 0.448283 0.846450 0.721218
Si Si3 0.685356 0.936792 0.214125
Si Si4 0.629996 0.363231 0.199075
Si Si5 0.788778 0.239286 0.309063
Si Si6 0.682636 0.650901 0.861324
O O1 0.457557 0.844777 0.591102
O O2 0.305604 0.902763 0.335461
O O3 0.353257 0.902623 0.698688
O O4 0.335437 0.795508 0.693608
O O5 0.650931 0.850250 0.924522
O O6 0.809009 0.898306 0.226600
O O7 0.746444 0.000000 0.278079
O O8 0.500000 0.938318 0.000000
O O9 0.709045 0.301011 0.235709
O O10 0.506901 0.355498 0.218079
O O11 0.500000 0.380779 0.000000
O O12 0.783153 0.207314 0.183879
O O13 0.000000 0.237817 0.500000
#
# Coordination Sequence:
#
# PCOD9208594 Si02
#       6
#     4   8   8   8   8   8
#     4  12  24  38  57  86 124 170 197 244 300 358
#     4  10  21  38  58  88 123 160 201 251 298 355
#     4   8  16  36  67  94 116 150 197 252 308 357
#     4  12  24  38  60  85 125 167 204 245 297 359
#     4  11  23  37  57  85 120 162 210 251 293 348
#     4  10  21  38  60  89 121 157 204 254 298 351
#
# _framework density 21.363192999999999
#
# number of rings (size 3 to 8) (size 9 to 14) (size 15 to 20)
#    0.000    1.636    2.727    3.818    2.545    2.909 
#    0.000    0.455    0.000   21.273    0.000    0.000 
#    0.000    0.000    0.000    0.000    0.000    0.000 
#
# Total GULP energy -122834.316407 kJ/mol
# GULP energy per Si atom -5583.378018 kJ/mol
# Density = 2.131457 g / cm^3
# Si number density = 21.363193 Si / 1000 Ang^3
#
#
#
# Elastic Constant Matrix: (Units=GPa)
#
#
# Indices 1 2 3 4 5 6 
#
# 1 164.2966 19.0037 42.1520 0.0000 7.7021 0.0000
# 2 19.0037 69.2062 2.9107 0.0000 1.8688 0.0000
# 3 42.1520 2.9107 107.4213 0.0000 5.7273 0.0000
# 4 0.0000 0.0000 0.0000 6.1133 0.0000 -4.5023
# 5 7.7021 1.8688 5.7273 0.0000 48.3849 0.0000
# 6 0.0000 0.0000 0.0000 -4.5023 0.0000 -16.1766
#
#
#
# Elastic Compliance Matrix: (Units=1/GPa)
#
#
# Indices 1 2 3 4 5 6 
#
# 1 0.007012 -0.001794 -0.002664 0.000000 -0.000732 0.000000
# 2 -0.001794 0.014938 0.000317 0.000000 -0.000329 0.000000
# 3 -0.002664 0.000317 0.010389 0.000000 -0.000818 0.000000
# 4 0.000000 0.000000 0.000000 0.135753 0.000000 -0.037783
# 5 -0.000732 -0.000329 -0.000818 0.000000 0.020894 0.000000
# 6 0.000000 0.000000 0.000000 -0.037783 0.000000 -0.051302
#
#
# Mechanical properties :
#
#
# Convention : Reuss Voigt Hill
#
# Bulk Modulus (GPa) = 41.56757 52.11745 46.84251
# Shear Modulus (GPa) = 32.47096 26.12149 29.29622
#
# Velocity S-wave (km/s) = 3.90288 3.50055 3.70718
# Velocity P-wave (km/s) = 6.30950 6.38650 6.34812
#
# Compressibility (1/GPa) = 0.02405722
#
# Stress axis : x y z
#
# Youngs Moduli (GPa) = 142.61814 66.94493 96.25157
#
# Poissons Ratio (x) = 0.12007 0.25639
# Poissons Ratio (y) = 0.25580 -0.03047
# Poissons Ratio (z) = 0.37990 -0.02119
#
# Static dielectric constant tensor:
#      x y z
#    x 1.775980 0.000000 0.027010 
#    y 0.000000 1.759490 0.000000 
#    z 0.027010 0.000000 1.840070 
# 
# From -- ./inp_files/137075.got.cif
#   From: 2010.05.17/outbox.cif.g08.bks.cpg/sg12_69_cif.got.tgz:137075.got - 2010.06.03 13:09:07.
