data_PCOD9208811
_publ_section_title
;
Structure prediction by ZEFSAII (Michael W. Deem and Ramdas Pophale) SiO2 
 PCOD9208811
Probable space group: C 2/M
;
_chemical_formula_sum "Si O2"
_cell_formula_units_Z 48
_cell_length_a 9.359664
_cell_length_b 26.735099
_cell_length_c 18.144335
_cell_angle_alpha 90.000000
_cell_angle_beta 29.910710
_cell_angle_gamma 90.000000
_cell_volume 2264.012074
_symmetry_space_group_name_H-M "C 2/M"
_symmetry_group_IT_number 12
_symmetry_cell_setting 'monoclinic'
loop_
_space_group_symop_operation_xyz
x,y,z
-x,y,-z
-x,-y,-z
x,-y,z
1/2+x,1/2+y,z
1/2-x,1/2+y,-z
1/2-x,1/2-y,-z
1/2+x,1/2-y,z
loop_
_atom_site_type_symbol
_atom_site_label
_atom_site_fract_x
_atom_site_fract_y
_atom_site_fract_z
Si Si1 0.275836 0.370639 0.914343
Si Si2 0.701182 0.107003 0.592377
Si Si3 0.071638 0.701675 0.556117
Si Si4 0.827751 0.663603 0.872838
Si Si5 0.460720 0.732115 0.840836
Si Si6 0.819538 0.556767 0.654168
O O1 0.328029 0.314792 0.856369
O O2 0.559883 0.404030 0.780765
O O3 0.190509 0.357899 0.036358
O O4 0.000000 0.394576 0.000000
O O5 0.717371 0.152352 0.524950
O O6 0.472281 0.123884 0.755594
O O7 0.551387 0.062445 0.615459
O O8 0.000000 0.098259 0.500000
O O9 0.250000 0.750000 0.500000
O O10 0.000000 0.699052 0.500000
O O11 0.760123 0.709391 0.732465
O O12 0.008555 0.714782 0.781373
O O13 0.500000 0.675017 0.000000
O O14 0.250000 0.750000 0.000000
O O15 0.709510 0.500000 0.699507
O O16 0.000000 0.567871 0.500000
#
# Coordination Sequence:
#
# PCOD9208811 Si02
#       6
#     8   8   8   8   8   8
#     4  11  24  41  69 101 134 182 227 280 345 420
#     4  12  25  43  67  99 138 179 228 289 349 416
#     4  12  24  39  61  97 141 190 240 285 337 406
#     4  11  21  41  62  98 142 181 223 278 334 413
#     4  10  21  38  59  93 140 179 224 265 332 406
#     4  11  26  51  75  98 133 178 233 298 357 413
#
# _framework density 21.201301000000001
#
# number of rings (size 3 to 8) (size 9 to 14) (size 15 to 20)
#    0.000    0.833    3.333    4.500    2.333    4.667 
#    0.000    1.667    0.000    0.000    0.000    0.000 
#    0.000    0.000    0.000    0.000    0.000    0.000 
#
# Total GULP energy -134089.178274 kJ/mol
# GULP energy per Si atom -5587.049095 kJ/mol
# Density = 2.115305 g / cm^3
# Si number density = 21.201301 Si / 1000 Ang^3
#
#
#
# Elastic Constant Matrix: (Units=GPa)
#
#
# Indices 1 2 3 4 5 6 
#
# 1 129.9766 33.9607 41.9290 0.0000 -7.6219 0.0001
# 2 33.9607 100.9441 41.1703 0.0000 1.8581 0.0001
# 3 41.9290 41.1703 86.0030 -0.0002 -8.5427 0.0003
# 4 0.0000 0.0000 -0.0002 23.7573 0.0002 -7.2406
# 5 -7.6219 1.8581 -8.5427 0.0002 49.9920 -0.0001
# 6 0.0001 0.0001 0.0003 -7.2406 -0.0001 18.8813
#
#
#
# Elastic Compliance Matrix: (Units=1/GPa)
#
#
# Indices 1 2 3 4 5 6 
#
# 1 0.009368 -0.001665 -0.003685 0.000000 0.000860 0.000000
# 2 -0.001665 0.012716 -0.005440 0.000000 -0.001656 0.000000
# 3 -0.003685 -0.005440 0.016269 0.000000 0.002420 0.000000
# 4 0.000000 0.000000 0.000000 0.047663 0.000000 0.018278
# 5 0.000860 -0.001656 0.002420 0.000000 0.020610 0.000000
# 6 0.000000 0.000000 0.000000 0.018278 0.000000 0.059972
#
#
# Mechanical properties :
#
#
# Convention : Reuss Voigt Hill
#
# Bulk Modulus (GPa) = 59.61888 61.22708 60.42298
# Shear Modulus (GPa) = 25.80435 31.85036 28.82735
#
# Velocity S-wave (km/s) = 3.49250 3.88013 3.69141
# Velocity P-wave (km/s) = 6.66669 7.00111 6.83595
#
# Compressibility (1/GPa) = 0.01677321
#
# Stress axis : x y z
#
# Youngs Moduli (GPa) = 106.74937 78.64272 61.46833
#
# Poissons Ratio (x) = 0.13091 0.22649
# Poissons Ratio (y) = 0.17770 0.33439
# Poissons Ratio (z) = 0.39334 0.42782
#
# Static dielectric constant tensor:
#      x y z
#    x 1.840440 0.000000 0.028450 
#    y 0.000000 1.775800 0.000000 
#    z 0.028450 0.000000 1.798860 
# 
# From -- ./inp_files/260225.got.cif
#   From: 2010.05.17/outbox.cif.g08.bks.cpg/sg12_131_cif.got.tgz:260225.got - 2010.06.03 13:09:07.
