data_PCOD9208907
_publ_section_title
;
Structure prediction by ZEFSAII (Michael W. Deem and Ramdas Pophale) SiO2 
 PCOD9208907
Probable space group: C 2/M
;
_chemical_formula_sum "Si O2"
_cell_formula_units_Z 56
_cell_length_a 20.946188
_cell_length_b 8.766455
_cell_length_c 17.699175
_cell_angle_alpha 90.000000
_cell_angle_beta 74.370670
_cell_angle_gamma 90.000000
_cell_volume 3129.820929
_symmetry_space_group_name_H-M "C 2/M"
_symmetry_group_IT_number 12
_symmetry_cell_setting 'monoclinic'
loop_
_space_group_symop_operation_xyz
x,y,z
-x,y,-z
-x,-y,-z
x,-y,z
1/2+x,1/2+y,z
1/2-x,1/2+y,-z
1/2-x,1/2-y,-z
1/2+x,1/2-y,z
loop_
_atom_site_type_symbol
_atom_site_label
_atom_site_fract_x
_atom_site_fract_y
_atom_site_fract_z
Si Si1 0.830577 0.683047 0.167588
Si Si2 0.307450 0.818053 0.735336
Si Si3 0.904866 0.683636 0.844689
Si Si4 0.098705 0.815947 0.416756
Si Si5 0.946153 0.316374 0.245551
Si Si6 0.951670 0.816693 0.406060
Si Si7 0.179750 0.818119 0.995169
O O1 0.830802 0.500000 0.160032
O O2 0.761882 0.736770 0.226693
O O3 0.891583 0.729796 0.201609
O O4 0.835106 0.756593 0.083540
O O5 0.357297 0.781417 0.788809
O O6 0.342801 0.761749 0.647982
O O7 0.298137 0.000000 0.737088
O O8 0.903857 0.500000 0.855795
O O9 0.875094 0.762919 0.927787
O O10 0.979790 0.731858 0.802193
O O11 0.091460 0.771828 0.506995
O O12 0.028092 0.774771 0.400644
O O13 0.104975 0.000000 0.410796
O O14 0.946365 0.500000 0.249302
O O15 0.931089 0.253450 0.333423
O O16 0.949572 0.000000 0.402033
O O17 0.184564 0.000000 0.992687
O O18 0.250000 0.750000 0.000000
#
# Coordination Sequence:
#
# PCOD9208907 Si02
#       7
#     8   8   8   8   8   8   8
#     4  11  24  41  61  83 116 156 190 232 289 345
#     4  11  21  35  59  88 116 149 192 240 285 337
#     4  10  21  38  60  86 117 149 189 237 286 338
#     4   9  18  33  55  86 119 151 191 235 286 339
#     4  10  22  40  60  85 117 154 191 233 287 344
#     4   9  18  33  56  85 118 153 188 236 287 337
#     4  12  24  39  61  88 116 149 192 238 285 336
#
# _framework density 17.892396999999999
#
# number of rings (size 3 to 8) (size 9 to 14) (size 15 to 20)
#    0.000    1.714    2.857    3.000    0.000    3.429 
#    0.000    5.000    0.000    0.000    0.000    0.000 
#    0.000    0.000    0.000    0.000    0.000    0.000 
#
# Total GULP energy -156409.571818 kJ/mol
# GULP energy per Si atom -5586.056136 kJ/mol
# Density = 1.785167 g / cm^3
# Si number density = 17.892397 Si / 1000 Ang^3
#
#
#
# Elastic Constant Matrix: (Units=GPa)
#
#
# Indices 1 2 3 4 5 6 
#
# 1 118.1999 41.7977 70.3950 0.0000 9.8557 0.0000
# 2 41.7977 42.5743 44.8104 0.0000 2.7679 0.0000
# 3 70.3950 44.8104 161.9104 0.0000 5.8559 0.0000
# 4 0.0000 0.0000 0.0000 35.7505 0.0000 1.5151
# 5 9.8557 2.7679 5.8559 0.0000 30.0168 0.0000
# 6 0.0000 0.0000 0.0000 1.5151 0.0000 22.2129
#
#
#
# Elastic Compliance Matrix: (Units=1/GPa)
#
#
# Indices 1 2 3 4 5 6 
#
# 1 0.014350 -0.010494 -0.003222 0.000000 -0.003115 0.000000
# 2 -0.010494 0.040866 -0.006784 0.000000 0.001001 0.000000
# 3 -0.003222 -0.006784 0.009460 0.000000 -0.000162 0.000000
# 4 0.000000 0.000000 0.000000 0.028053 0.000000 -0.001913
# 5 -0.003115 0.001001 -0.000162 0.000000 0.034277 0.000000
# 6 0.000000 0.000000 0.000000 -0.001913 0.000000 0.045149
#
#
# Mechanical properties :
#
#
# Convention : Reuss Voigt Hill
#
# Bulk Modulus (GPa) = 42.23590 70.74343 56.48966
# Shear Modulus (GPa) = 22.61960 28.64148 25.63054
#
# Velocity S-wave (km/s) = 3.55942 4.00529 3.78892
# Velocity P-wave (km/s) = 6.36784 7.81114 7.12612
#
# Compressibility (1/GPa) = 0.02367654
#
# Stress axis : x y z
#
# Youngs Moduli (GPa) = 69.68711 24.47014 105.70443
#
# Poissons Ratio (x) = 0.25680 0.34057
# Poissons Ratio (y) = 0.73133 0.71705
# Poissons Ratio (z) = 0.22452 0.16599
#
# Static dielectric constant tensor:
#      x y z
#    x 1.594850 0.000000 -0.001820 
#    y 0.000000 1.601000 0.000000 
#    z -0.001820 0.000000 1.593850 
# 
# From -- ./inp_files/275323.got.cif
#   From: 2010.05.17/outbox.cif.g08.bks.cpg/sg12_138_cif.got.tgz:275323.got - 2010.06.03 13:09:07.
