data_PCOD9208998
_publ_section_title
;
Structure prediction by ZEFSAII (Michael W. Deem and Ramdas Pophale) SiO2 
 PCOD9208998
Probable space group: C 2/M
;
_chemical_formula_sum "Si O2"
_cell_formula_units_Z 36
_cell_length_a 11.800675
_cell_length_b 15.019418
_cell_length_c 9.505633
_cell_angle_alpha 90.000000
_cell_angle_beta 71.389755
_cell_angle_gamma 90.000000
_cell_volume 1596.677054
_symmetry_space_group_name_H-M "C 2/M"
_symmetry_group_IT_number 12
_symmetry_cell_setting 'monoclinic'
loop_
_space_group_symop_operation_xyz
x,y,z
-x,y,-z
-x,-y,-z
x,-y,z
1/2+x,1/2+y,z
1/2-x,1/2+y,-z
1/2-x,1/2-y,-z
1/2+x,1/2-y,z
loop_
_atom_site_type_symbol
_atom_site_label
_atom_site_fract_x
_atom_site_fract_y
_atom_site_fract_z
Si Si1 0.500000 0.149728 0.500000
Si Si2 0.411571 0.689863 0.358608
Si Si3 0.341744 0.606304 0.679862
Si Si4 0.866269 0.608530 0.028986
Si Si5 0.272468 0.898197 0.761233
O O1 0.555721 0.211865 0.601156
O O2 0.610128 0.100426 0.384433
O O3 0.349049 0.646769 0.521551
O O4 0.538871 0.640955 0.290559
O O5 0.324589 0.667666 0.266302
O O6 0.346039 0.500000 0.667391
O O7 0.224988 0.632898 0.812013
O O8 0.872296 0.500000 0.025631
O O9 0.813866 0.633063 0.898276
O O10 0.000000 0.642906 0.000000
O O11 0.225665 0.000000 0.787809
#
# Coordination Sequence:
#
# PCOD9208998 Si02
#       5
#     4   8   8   8   8
#     4  10  23  40  59  88 132 158 190 248 313 348
#     4  10  21  38  60  89 120 158 198 245 301 358
#     4   9  17  34  59  86 121 158 197 246 300 355
#     4   9  20  36  56  88 124 155 196 254 304 344
#     4  11  22  38  64  92 116 157 211 247 288 357
#
# _framework density 22.546824999999998
#
# number of rings (size 3 to 8) (size 9 to 14) (size 15 to 20)
#    0.000    2.444    0.000    3.667    3.111    0.889 
#    0.000    7.778    0.000    0.000    0.000    0.000 
#    0.000    0.000    0.000    0.000    0.000    0.000 
#
# Total GULP energy -100714.637806 kJ/mol
# GULP energy per Si atom -5595.257656 kJ/mol
# Density = 2.249551 g / cm^3
# Si number density = 22.546825 Si / 1000 Ang^3
#
#
#
# Elastic Constant Matrix: (Units=GPa)
#
#
# Indices 1 2 3 4 5 6 
#
# 1 168.9177 29.1286 76.1872 0.0000 14.3866 0.0000
# 2 29.1286 70.8849 11.1577 0.0000 14.9343 0.0000
# 3 76.1872 11.1577 77.2356 0.0000 -10.4207 0.0000
# 4 0.0000 0.0000 0.0000 -274.3634 0.0000 355.7390
# 5 14.3866 14.9343 -10.4207 0.0000 41.5609 0.0000
# 6 0.0000 0.0000 0.0000 355.7390 0.0000 -438.5212
#
#
#
# Elastic Compliance Matrix: (Units=1/GPa)
#
#
# Indices 1 2 3 4 5 6 
#
# 1 0.012889 -0.001654 -0.013452 0.000000 -0.007240 0.000000
# 2 -0.001654 0.016201 -0.001467 0.000000 -0.005617 0.000000
# 3 -0.013452 -0.001467 0.028078 0.000000 0.012224 0.000000
# 4 0.000000 0.000000 0.000000 0.070320 0.000000 0.057045
# 5 -0.007240 -0.005617 0.012224 0.000000 0.031651 0.000000
# 6 0.000000 0.000000 0.000000 0.057045 0.000000 0.043996
#
#
# Mechanical properties :
#
#
# Convention : Reuss Voigt Hill
#
# Bulk Modulus (GPa) = 41.62741 61.10946 51.36844
# Shear Modulus (GPa) = 20.46753 -120.89377 -50.21312
#
# Velocity S-wave (km/s) = 3.01621 -7.33044 -4.72429
# Velocity P-wave (km/s) = 5.53468 6.66971 2.63175
#
# Compressibility (1/GPa) = 0.02402263
#
# Stress axis : x y z
#
# Youngs Moduli (GPa) = 77.58384 61.72352 35.61466
#
# Poissons Ratio (x) = 0.10207 0.47910
# Poissons Ratio (y) = 0.12830 0.05225
# Poissons Ratio (z) = 1.04368 0.09056
#
# Static dielectric constant tensor:
#      x y z
#    x 1.828060 0.000000 0.008610 
#    y 0.000000 1.823570 0.000000 
#    z 0.008610 0.000000 1.797880 
# 
# From -- ./inp_files/46792.got.cif
#   From: 2010.05.17/outbox.cif.g08.bks.cpg/sg12_24_cif.got.tgz:46792.got - 2010.06.03 13:09:07.
