data_PCOD9208012
_publ_section_title
;
Structure prediction by ZEFSAII (Michael W. Deem and Ramdas Pophale) SiO2 
 PCOD9208012
Probable space group: C 2/M
;
_chemical_formula_sum "Si O2"
_cell_formula_units_Z 60
_cell_length_a 23.824309
_cell_length_b 9.662746
_cell_length_c 14.205512
_cell_angle_alpha 90.000000
_cell_angle_beta 112.913247
_cell_angle_gamma 90.000000
_cell_volume 3012.190179
_symmetry_space_group_name_H-M "C 2/M"
_symmetry_group_IT_number 12
_symmetry_cell_setting 'monoclinic'
loop_
_space_group_symop_operation_xyz
x,y,z
-x,y,-z
-x,-y,-z
x,-y,z
1/2+x,1/2+y,z
1/2-x,1/2+y,-z
1/2-x,1/2-y,-z
1/2+x,1/2-y,z
loop_
_atom_site_type_symbol
_atom_site_label
_atom_site_fract_x
_atom_site_fract_y
_atom_site_fract_z
Si Si1 0.943244 0.343228 0.394333
Si Si2 0.835564 0.340723 0.586806
Si Si3 0.662340 0.271129 0.942799
Si Si4 0.168205 0.839040 0.725770
Si Si5 0.251481 0.837265 0.348987
Si Si6 0.741943 0.000000 0.962486
Si Si7 0.028088 0.835699 0.916250
Si Si8 0.028588 0.654878 0.273940
O O1 0.919110 0.500000 0.397781
O O2 0.890995 0.229713 0.360892
O O3 0.000000 0.318417 0.500000
O O4 0.973006 0.342723 0.310591
O O5 0.822500 0.500000 0.607273
O O6 0.807207 0.234781 0.643119
O O7 0.802403 0.321989 0.465084
O O8 0.908024 0.324101 0.629624
O O9 0.660568 0.325180 0.832945
O O10 0.692268 0.121281 0.957492
O O11 0.595064 0.273103 0.942483
O O12 0.706593 0.378313 0.023881
O O13 0.224193 0.747343 0.724419
O O14 0.175769 0.000000 0.706431
O O15 0.243728 0.000000 0.323911
O O16 0.983011 0.769007 0.810951
O O17 0.033283 0.000000 0.905509
O O18 0.000000 0.809183 0.000000
O O19 0.031376 0.500000 0.234042
#
# Coordination Sequence:
#
# PCOD9208012 Si02
#       8
#     8   8   8   8   8   4   8   8
#     4  10  21  37  61  92 125 164 207 251 305 375
#     4   9  19  40  60  86 126 163 208 257 305 368
#     4  11  23  46  66  97 125 164 209 271 328 396
#     4  12  23  37  60  91 127 161 204 259 316 372
#     4  10  21  37  61  88 122 169 209 253 307 371
#     4  10  24  44  72  92 124 162 204 262 334 384
#     4  11  24  44  65  89 125 167 210 265 323 383
#     4  10  21  38  62  90 120 161 202 251 309 370
#
# _framework density 19.919062
#
# number of rings (size 3 to 8) (size 9 to 14) (size 15 to 20)
#    0.000    1.600    2.667    1.600    2.800    3.733 
#    4.800    1.333    0.000    0.000    0.000    0.000 
#    0.000    0.000    0.000    0.000    0.000    0.000 
#
# Total GULP energy -167065.981213 kJ/mol
# GULP energy per Si atom -5568.866040 kJ/mol
# Density = 1.987372 g / cm^3
# Si number density = 19.919062 Si / 1000 Ang^3
#
#
#
# Elastic Constant Matrix: (Units=GPa)
#
#
# Indices 1 2 3 4 5 6 
#
# 1 86.4678 38.2423 0.3930 0.0000 -4.3298 0.0000
# 2 38.2423 115.0724 15.2014 0.0000 0.2513 0.0000
# 3 0.3930 15.2014 25.6963 0.0000 -5.1444 0.0000
# 4 0.0000 0.0000 0.0000 0.3271 0.0000 -4.7616
# 5 -4.3298 0.2513 -5.1444 0.0000 22.6196 0.0000
# 6 0.0000 0.0000 0.0000 -4.7616 0.0000 25.2482
#
#
#
# Elastic Compliance Matrix: (Units=1/GPa)
#
#
# Indices 1 2 3 4 5 6 
#
# 1 0.013992 -0.005123 0.003525 0.000000 0.003537 0.000000
# 2 -0.005123 0.011348 -0.007183 0.000000 -0.002741 0.000000
# 3 0.003525 -0.007183 0.045327 0.000000 0.011063 0.000000
# 4 0.000000 0.000000 0.000000 -1.751492 0.000000 -0.330320
# 5 0.003537 -0.002741 0.011063 0.000000 0.047433 0.000000
# 6 0.000000 0.000000 0.000000 -0.330320 0.000000 -0.022689
#
#
# Mechanical properties :
#
#
# Convention : Reuss Voigt Hill
#
# Bulk Modulus (GPa) = 18.83142 37.21220 28.02181
# Shear Modulus (GPa) = -3.08486 21.19895 9.05704
#
# Velocity S-wave (km/s) = -1.24582 3.26583 2.13466
# Velocity P-wave (km/s) = 2.72123 5.73961 4.49156
#
# Compressibility (1/GPa) = 0.05310275
#
# Stress axis : x y z
#
# Youngs Moduli (GPa) = 71.46939 88.12301 22.06212
#
# Poissons Ratio (x) = 0.45149 -0.07777
# Poissons Ratio (y) = 0.36616 0.15848
# Poissons Ratio (z) = -0.25193 0.63302
#
# Static dielectric constant tensor:
#      x y z
#    x 1.689430 0.000000 -0.001130 
#    y 0.000000 1.677060 0.000000 
#    z -0.001130 0.000000 1.738310 
# 
# From -- ./inp_files/238864.got.cif
#   From: 2010.05.17/outbox.cif.g08.bks.cpg/sg12_120_cif.got.tgz:238864.got - 2010.06.03 13:09:07.
