data_PCOD9208171
_publ_section_title
;
Structure prediction by ZEFSAII (Michael W. Deem and Ramdas Pophale) SiO2 
 PCOD9208171
Probable space group: C 2/M
;
_chemical_formula_sum "Si O2"
_cell_formula_units_Z 36
_cell_length_a 13.643562
_cell_length_b 31.155640
_cell_length_c 11.450557
_cell_angle_alpha 90.000000
_cell_angle_beta 159.009164
_cell_angle_gamma 90.000000
_cell_volume 1743.569337
_symmetry_space_group_name_H-M "C 2/M"
_symmetry_group_IT_number 12
_symmetry_cell_setting 'monoclinic'
loop_
_space_group_symop_operation_xyz
x,y,z
-x,y,-z
-x,-y,-z
x,-y,z
1/2+x,1/2+y,z
1/2-x,1/2+y,-z
1/2-x,1/2-y,-z
1/2+x,1/2-y,z
loop_
_atom_site_type_symbol
_atom_site_label
_atom_site_fract_x
_atom_site_fract_y
_atom_site_fract_z
Si Si1 0.748332 0.922879 0.991743
Si Si2 0.065884 0.779227 0.207469
Si Si3 0.686705 0.550941 0.310805
Si Si4 0.795993 0.500000 0.879451
Si Si5 0.059200 0.664246 0.699668
O O1 0.500083 0.939451 0.634320
O O2 0.683677 0.872481 0.920954
O O3 0.690208 0.955664 0.032467
O O4 0.049544 0.930214 0.275280
O O5 0.250000 0.750000 0.500000
O O6 0.263494 0.820265 0.412514
O O7 0.000000 0.762885 0.000000
O O8 0.775958 0.796317 0.934160
O O9 0.651173 0.500000 0.280759
O O10 0.500000 0.568363 0.000000
O O11 0.500000 0.500000 0.500000
O O12 0.000000 0.500000 0.000000
O O13 0.000000 0.649998 0.500000
#
# Coordination Sequence:
#
# PCOD9208171 Si02
#       5
#     8   8   8   4   8
#     4  12  22  40  59  84 118 161 204 252 309 359
#     4  10  21  40  64  93 126 163 200 248 314 386
#     4  11  20  32  54  87 117 145 187 240 300 364
#     4  12  26  44  59  76 113 170 224 264 300 352
#     4  10  21  37  62  94 125 152 192 253 315 375
#
# _framework density 20.647302
#
# number of rings (size 3 to 8) (size 9 to 14) (size 15 to 20)
#    0.000    1.111    2.222    5.333    0.000    3.556 
#    0.000    3.333    0.000    0.000    0.000    0.000 
#    0.000    0.000    0.000    0.000    0.000    0.000 
#
# Total GULP energy -100282.846094 kJ/mol
# GULP energy per Si atom -5571.269227 kJ/mol
# Density = 2.060031 g / cm^3
# Si number density = 20.647302 Si / 1000 Ang^3
#
#
#
# Elastic Constant Matrix: (Units=GPa)
#
#
# Indices 1 2 3 4 5 6 
#
# 1 73.6234 23.9325 16.7414 0.0003 -1.1124 0.0001
# 2 23.9325 67.5379 15.6550 0.0000 -20.0005 0.0000
# 3 16.7414 15.6550 107.9556 0.0007 -3.2230 0.0004
# 4 0.0003 0.0000 0.0007 37.0951 0.0004 8.4544
# 5 -1.1124 -20.0005 -3.2230 0.0004 37.0632 0.0002
# 6 0.0001 0.0000 0.0004 8.4544 0.0002 5.3829
#
#
#
# Elastic Compliance Matrix: (Units=1/GPa)
#
#
# Indices 1 2 3 4 5 6 
#
# 1 0.015910 -0.006133 -0.001667 0.000000 -0.002977 0.000000
# 2 -0.006133 0.020564 -0.001710 0.000000 0.010764 0.000000
# 3 -0.001667 -0.001710 0.009766 0.000000 -0.000123 -0.000001
# 4 0.000000 0.000000 0.000000 0.041988 0.000000 -0.065946
# 5 -0.002977 0.010764 -0.000123 0.000000 0.032690 -0.000001
# 6 0.000000 0.000000 -0.000001 -0.065946 -0.000001 0.289347
#
#
# Mechanical properties :
#
#
# Convention : Reuss Voigt Hill
#
# Bulk Modulus (GPa) = 36.73662 40.19719 38.46691
# Shear Modulus (GPa) = 11.40623 28.76077 20.08350
#
# Velocity S-wave (km/s) = 2.35294 3.73628 3.12219
# Velocity P-wave (km/s) = 5.02124 6.17445 5.62746
#
# Compressibility (1/GPa) = 0.02722079
#
# Stress axis : x y z
#
# Youngs Moduli (GPa) = 62.85198 48.62922 102.39845
#
# Poissons Ratio (x) = 0.29825 0.17068
# Poissons Ratio (y) = 0.38549 0.17505
# Poissons Ratio (z) = 0.10476 0.08313
#
# Static dielectric constant tensor:
#      x y z
#    x 1.770130 0.000000 -0.042940 
#    y 0.000000 1.831240 0.000000 
#    z -0.042940 0.000000 1.774060 
# 
# From -- ./inp_files/150379.got.cif
#   From: 2010.05.17/outbox.cif.g08.bks.cpg/sg12_76_cif.got.tgz:150379.got - 2010.06.03 13:09:07.
