data_PCOD9208948
_publ_section_title
;
Structure prediction by ZEFSAII (Michael W. Deem and Ramdas Pophale) SiO2 
 PCOD9208948
Probable space group: C 2/M
;
_chemical_formula_sum "Si O2"
_cell_formula_units_Z 40
_cell_length_a 18.160012
_cell_length_b 8.804398
_cell_length_c 26.234947
_cell_angle_alpha 90.000000
_cell_angle_beta 29.997031
_cell_angle_gamma 90.000000
_cell_volume 2097.138009
_symmetry_space_group_name_H-M "C 2/M"
_symmetry_group_IT_number 12
_symmetry_cell_setting 'monoclinic'
loop_
_space_group_symop_operation_xyz
x,y,z
-x,y,-z
-x,-y,-z
x,-y,z
1/2+x,1/2+y,z
1/2-x,1/2+y,-z
1/2-x,1/2-y,-z
1/2+x,1/2-y,z
loop_
_atom_site_type_symbol
_atom_site_label
_atom_site_fract_x
_atom_site_fract_y
_atom_site_fract_z
Si Si1 0.918866 0.681451 0.794922
Si Si2 0.580869 0.181130 0.398342
Si Si3 0.594048 0.182624 0.993876
Si Si4 0.913343 0.818865 0.402315
Si Si5 0.905406 0.682335 0.206964
O O1 0.923426 0.500000 0.785255
O O2 0.999030 0.760541 0.699577
O O3 0.004577 0.718627 0.795801
O O4 0.751250 0.736958 0.898947
O O5 0.500000 0.217407 0.500000
O O6 0.498640 0.262806 0.401297
O O7 0.749150 0.235199 0.299896
O O8 0.573911 0.000000 0.394823
O O9 0.501529 0.222573 0.099736
O O10 0.616884 0.000000 0.980246
O O11 0.500000 0.221072 0.000000
O O12 0.750000 0.750000 0.500000
O O13 0.905097 0.000000 0.406752
O O14 0.880787 0.500000 0.220451
#
# Coordination Sequence:
#
# PCOD9208948 Si02
#       5
#     8   8   8   8   8
#     4  11  23  39  61  90 123 160 204 250 299 357
#     4  11  24  41  63  92 123 157 199 246 299 360
#     4  10  21  38  60  87 120 160 205 251 302 358
#     4  12  25  42  64  89 121 159 201 250 301 355
#     4  10  22  39  60  89 124 162 202 247 301 358
#
# _framework density 19.073615
#
# number of rings (size 3 to 8) (size 9 to 14) (size 15 to 20)
#    0.000    1.200    0.000    6.000    0.000    9.200 
#    0.000    0.000    0.000    0.000    0.000    0.000 
#    0.000    0.000    0.000    0.000    0.000    0.000 
#
# Total GULP energy -111929.925996 kJ/mol
# GULP energy per Si atom -5596.496300 kJ/mol
# Density = 1.903020 g / cm^3
# Si number density = 19.073615 Si / 1000 Ang^3
#
#
#
# Elastic Constant Matrix: (Units=GPa)
#
#
# Indices 1 2 3 4 5 6 
#
# 1 201.8682 105.0250 123.0777 0.0000 2.9022 0.0000
# 2 105.0250 97.7120 98.5988 0.0000 1.9043 0.0001
# 3 123.0777 98.5988 205.8142 0.0004 1.0370 0.0001
# 4 0.0000 0.0000 0.0004 30.9772 0.0000 -22.4004
# 5 2.9022 1.9043 1.0370 0.0000 43.3951 0.0000
# 6 0.0000 0.0001 0.0001 -22.4004 0.0000 5.1403
#
#
#
# Elastic Compliance Matrix: (Units=1/GPa)
#
#
# Indices 1 2 3 4 5 6 
#
# 1 0.011600 -0.010578 -0.001868 0.000000 -0.000267 0.000000
# 2 -0.010578 0.029475 -0.007793 0.000000 -0.000400 0.000000
# 3 -0.001868 -0.007793 0.009708 0.000000 0.000235 0.000000
# 4 0.000000 0.000000 0.000000 -0.015006 0.000000 -0.065394
# 5 -0.000267 -0.000400 0.000235 0.000000 0.023074 0.000000
# 6 0.000000 0.000000 0.000000 -0.065394 0.000000 -0.090432
#
#
# Mechanical properties :
#
#
# Convention : Reuss Voigt Hill
#
# Bulk Modulus (GPa) = 97.03587 128.75526 112.89556
# Shear Modulus (GPa) = 405.49760 27.81538 216.65649
#
# Velocity S-wave (km/s) = 14.59649 3.82293 10.66941
# Velocity P-wave (km/s) = 18.30469 9.33474 14.52926
#
# Compressibility (1/GPa) = 0.01030547
#
# Stress axis : x y z
#
# Youngs Moduli (GPa) = 86.20980 33.92688 103.00927
#
# Poissons Ratio (x) = 0.35887 0.19240
# Poissons Ratio (y) = 0.91191 0.80275
# Poissons Ratio (z) = 0.16102 0.26439
#
# Static dielectric constant tensor:
#      x y z
#    x 1.630670 0.000000 0.011460 
#    y 0.000000 1.641000 0.000000 
#    z 0.011460 0.000000 1.616040 
# 
# From -- ./inp_files/151929.got.cif
#   From: 2010.05.17/outbox.cif.g08.bks.cpg/sg12_76_cif.got.tgz:151929.got - 2010.06.03 13:09:07.
