data_PCOD9208715
_publ_section_title
;
Structure prediction by ZEFSAII (Michael W. Deem and Ramdas Pophale) SiO2 
 PCOD9208715
Probable space group: C 2/M
;
_chemical_formula_sum "Si O2"
_cell_formula_units_Z 40
_cell_length_a 10.343867
_cell_length_b 8.826057
_cell_length_c 22.573826
_cell_angle_alpha 90.000000
_cell_angle_beta 83.383963
_cell_angle_gamma 90.000000
_cell_volume 2047.165698
_symmetry_space_group_name_H-M "C 2/M"
_symmetry_group_IT_number 12
_symmetry_cell_setting 'monoclinic'
loop_
_space_group_symop_operation_xyz
x,y,z
-x,y,-z
-x,-y,-z
x,-y,z
1/2+x,1/2+y,z
1/2-x,1/2+y,-z
1/2-x,1/2-y,-z
1/2+x,1/2-y,z
loop_
_atom_site_type_symbol
_atom_site_label
_atom_site_fract_x
_atom_site_fract_y
_atom_site_fract_z
Si Si1 0.000664 0.681226 0.368853
Si Si2 0.861769 0.182767 0.034851
Si Si3 0.597612 0.318814 0.240420
Si Si4 0.222663 0.818464 0.437031
Si Si5 0.854849 0.817626 0.172044
O O1 0.014132 0.500000 0.367498
O O2 0.047303 0.749216 0.304321
O O3 0.094176 0.748700 0.414523
O O4 0.849928 0.717044 0.390453
O O5 0.850851 0.231610 0.103798
O O6 0.854233 0.000000 0.034181
O O7 0.750000 0.250000 0.000000
O O8 0.000000 0.227538 0.000000
O O9 0.604153 0.500000 0.245931
O O10 0.737353 0.255496 0.214523
O O11 0.492310 0.280231 0.195192
O O12 0.250000 0.750000 0.500000
O O13 0.209971 0.000000 0.441445
O O14 0.841005 0.000000 0.174637
#
# Coordination Sequence:
#
# PCOD9208715 Si02
#       5
#     8   8   8   8   8
#     4  11  24  41  61  88 121 155 195 242 290 344
#     4  10  21  38  59  85 117 152 193 240 289 345
#     4  11  23  39  61  87 115 152 196 240 290 347
#     4  11  24  41  63  91 121 156 197 240 289 345
#     4  10  22  39  59  85 118 154 192 239 293 346
#
# _framework density 19.539210000000001
#
# number of rings (size 3 to 8) (size 9 to 14) (size 15 to 20)
#    0.000    1.400    0.000    4.800    0.000   13.200 
#    0.000    0.000    0.000    0.000    0.000    0.000 
#    0.000    0.000    0.000    0.000    0.000    0.000 
#
# Total GULP energy -111889.780890 kJ/mol
# GULP energy per Si atom -5594.489044 kJ/mol
# Density = 1.949474 g / cm^3
# Si number density = 19.539210 Si / 1000 Ang^3
#
#
#
# Elastic Constant Matrix: (Units=GPa)
#
#
# Indices 1 2 3 4 5 6 
#
# 1 62.5183 15.2670 -28.9477 0.0000 0.3235 0.0000
# 2 15.2670 20.3658 3.0603 0.0000 0.1066 0.0000
# 3 -28.9477 3.0603 55.7375 0.0000 -0.4705 0.0000
# 4 0.0000 0.0000 0.0000 29.4844 0.0000 7.6496
# 5 0.3235 0.1066 -0.4705 0.0000 41.0983 0.0000
# 6 0.0000 0.0000 0.0000 7.6496 0.0000 32.1307
#
#
#
# Elastic Compliance Matrix: (Units=1/GPa)
#
#
# Indices 1 2 3 4 5 6 
#
# 1 0.029926 -0.024975 0.016914 0.000000 0.000023 0.000000
# 2 -0.024975 0.070355 -0.016835 0.000000 -0.000179 0.000000
# 3 0.016914 -0.016835 0.027652 0.000000 0.000227 0.000000
# 4 0.000000 0.000000 0.000000 0.036149 0.000000 -0.008606
# 5 0.000023 -0.000179 0.000227 0.000000 0.024335 0.000000
# 6 0.000000 0.000000 0.000000 -0.008606 0.000000 0.033172
#
#
# Mechanical properties :
#
#
# Convention : Reuss Voigt Hill
#
# Bulk Modulus (GPa) = 12.79780 13.04231 12.92006
# Shear Modulus (GPa) = 16.81079 30.49215 23.65147
#
# Velocity S-wave (km/s) = 2.93637 3.95468 3.48294
# Velocity P-wave (km/s) = 4.24975 5.24806 4.77507
#
# Compressibility (1/GPa) = 0.07813843
#
# Stress axis : x y z
#
# Youngs Moduli (GPa) = 33.41629 14.21362 36.16413
#
# Poissons Ratio (x) = 0.35499 -0.61166
# Poissons Ratio (y) = 0.83457 0.60884
# Poissons Ratio (z) = -0.56519 0.23929
#
# Static dielectric constant tensor:
#      x y z
#    x 1.643240 0.000000 0.001370 
#    y 0.000000 1.655500 0.000000 
#    z 0.001370 0.000000 1.662250 
# 
# From -- ./inp_files/260959.got.cif
#   From: 2010.05.17/outbox.cif.g08.bks.cpg/sg12_131_cif.got.tgz:260959.got - 2010.06.03 13:09:07.
