data_PCOD9208647
_publ_section_title
;
Structure prediction by ZEFSAII (Michael W. Deem and Ramdas Pophale) SiO2 
 PCOD9208647
Probable space group: C 2/M
;
_chemical_formula_sum "Si O2"
_cell_formula_units_Z 38
_cell_length_a 5.005666
_cell_length_b 12.764467
_cell_length_c 27.533032
_cell_angle_alpha 90.000000
_cell_angle_beta 100.273567
_cell_angle_gamma 90.000000
_cell_volume 1731.008946
_symmetry_space_group_name_H-M "C 2/M"
_symmetry_group_IT_number 12
_symmetry_cell_setting 'monoclinic'
loop_
_space_group_symop_operation_xyz
x,y,z
-x,y,-z
-x,-y,-z
x,-y,z
1/2+x,1/2+y,z
1/2-x,1/2+y,-z
1/2-x,1/2-y,-z
1/2+x,1/2-y,z
loop_
_atom_site_type_symbol
_atom_site_label
_atom_site_fract_x
_atom_site_fract_y
_atom_site_fract_z
Si Si1 0.519769 0.321938 0.722440
Si Si2 0.201706 0.823312 0.933992
Si Si3 0.000000 0.000000 0.000000
Si Si4 0.296917 0.321914 0.615961
Si Si5 0.214314 0.000000 0.464001
Si Si6 0.015037 0.821100 0.173894
O O1 0.321798 0.220269 0.722608
O O2 0.903393 0.127368 0.669876
O O3 0.503685 0.376160 0.774415
O O4 0.500103 0.775158 0.937514
O O5 0.157134 0.908558 0.973308
O O6 0.101413 0.870319 0.878854
O O7 0.496194 0.223342 0.613409
O O8 0.312948 0.400111 0.571876
O O9 0.500000 0.000000 0.500000
O O10 0.000000 0.000000 0.500000
O O11 0.819355 0.718907 0.174326
#
# Coordination Sequence:
#
# PCOD9208647 Si02
#       6
#     8   8   2   8   4   8
#     4   8  14  27  51  78 103 135 171 211 266 323
#     4  10  22  38  56  80 110 144 182 226 274 321
#     4  12  24  38  58  80 108 146 192 230 268 320
#     4  10  21  38  59  83 111 143 180 225 274 321
#     4  12  26  40  57  82 110 146 190 227 266 319
#     4   8  14  28  50  75 104 136 170 213 266 321
#
# _framework density 21.952515999999999
#
# number of rings (size 3 to 8) (size 9 to 14) (size 15 to 20)
#    0.000    2.526    0.000    1.895    0.000    4.211 
#    0.000    1.053    0.000    0.000    0.000   29.474 
#    0.000    0.000    0.000    0.000    0.000    0.000 
#
# Total GULP energy -105774.938775 kJ/mol
# GULP energy per Si atom -5567.102041 kJ/mol
# Density = 2.190255 g / cm^3
# Si number density = 21.952516 Si / 1000 Ang^3
#
#
#
# Elastic Constant Matrix: (Units=GPa)
#
#
# Indices 1 2 3 4 5 6 
#
# 1 95.2089 2.9930 24.3420 0.0000 -3.3360 0.0000
# 2 2.9930 56.4238 42.8042 0.0000 3.8776 0.0000
# 3 24.3420 42.8042 165.9897 0.0000 -5.4558 0.0000
# 4 0.0000 0.0000 0.0000 -57.7883 0.0000 -0.8558
# 5 -3.3360 3.8776 -5.4558 0.0000 38.2045 0.0000
# 6 0.0000 0.0000 0.0000 -0.8558 0.0000 0.7211
#
#
#
# Elastic Compliance Matrix: (Units=1/GPa)
#
#
# Indices 1 2 3 4 5 6 
#
# 1 0.010956 0.000719 -0.001771 0.000000 0.000631 0.000000
# 2 0.000719 0.022443 -0.005994 0.000000 -0.003071 0.000000
# 3 -0.001771 -0.005994 0.007882 0.000000 0.001579 0.000000
# 4 0.000000 0.000000 0.000000 -0.017006 0.000000 -0.020183
# 5 0.000631 -0.003071 0.001579 0.000000 0.026767 0.000000
# 6 0.000000 0.000000 0.000000 -0.020183 0.000000 1.362904
#
#
# Mechanical properties :
#
#
# Convention : Reuss Voigt Hill
#
# Bulk Modulus (GPa) = 36.78020 50.87788 43.82904
# Shear Modulus (GPa) = 3.47923 12.72632 8.10277
#
# Velocity S-wave (km/s) = 1.26029 2.41035 1.92329
# Velocity P-wave (km/s) = 4.34840 5.56534 4.99408
#
# Compressibility (1/GPa) = 0.02718854
#
# Stress axis : x y z
#
# Youngs Moduli (GPa) = 91.27759 44.55736 126.87461
#
# Poissons Ratio (x) = -0.03205 0.22474
# Poissons Ratio (y) = -0.06566 0.76047
# Poissons Ratio (z) = 0.16169 0.26707
#
# Static dielectric constant tensor:
#      x y z
#    x 1.753220 0.000000 0.040350 
#    y 0.000000 1.831510 0.000000 
#    z 0.040350 0.000000 1.883430 
# 
# From -- ./inp_files/354678.got.cif
#   From: 2010.05.17/outbox.cif.g08.bks.cpg/sg12_178_cif.got.tgz:354678.got - 2010.06.03 13:09:07.
