data_PCOD9208611
_publ_section_title
;
Structure prediction by ZEFSAII (Michael W. Deem and Ramdas Pophale) SiO2 
 PCOD9208611
Probable space group: C 2/M
;
_chemical_formula_sum "Si O2"
_cell_formula_units_Z 40
_cell_length_a 28.156964
_cell_length_b 9.131308
_cell_length_c 9.210841
_cell_angle_alpha 90.000000
_cell_angle_beta 108.704778
_cell_angle_gamma 90.000000
_cell_volume 2243.118640
_symmetry_space_group_name_H-M "C 2/M"
_symmetry_group_IT_number 12
_symmetry_cell_setting 'monoclinic'
loop_
_space_group_symop_operation_xyz
x,y,z
-x,y,-z
-x,-y,-z
x,-y,z
1/2+x,1/2+y,z
1/2-x,1/2+y,-z
1/2-x,1/2-y,-z
1/2+x,1/2-y,z
loop_
_atom_site_type_symbol
_atom_site_label
_atom_site_fract_x
_atom_site_fract_y
_atom_site_fract_z
Si Si1 0.548065 0.324234 0.449492
Si Si2 0.049898 0.324994 0.139265
Si Si3 0.748044 0.825096 0.839913
Si Si4 0.851510 0.174777 0.274662
Si Si5 0.859704 0.825557 0.939186
O O1 0.500000 0.285408 0.500000
O O2 0.546857 0.500000 0.425363
O O3 0.546566 0.244035 0.295056
O O4 0.599184 0.289371 0.585515
O O5 0.052991 0.500000 0.151371
O O6 0.098235 0.261814 0.104350
O O7 0.000000 0.285853 0.000000
O O8 0.698183 0.758493 0.720834
O O9 0.803029 0.794797 0.828317
O O10 0.743548 0.000000 0.850758
O O11 0.750000 0.750000 0.000000
O O12 0.842546 0.000000 0.273918
O O13 0.860771 0.208818 0.113016
O O14 0.868578 0.000000 0.933380
#
# Coordination Sequence:
#
# PCOD9208611 Si02
#       5
#     8   8   8   8   8
#     4  10  21  38  59  80 104 138 178 218 263 317
#     4  11  24  38  53  78 109 139 174 218 267 315
#     4   9  17  30  51  79 109 141 177 216 259 308
#     4   9  18  33  55  83 109 136 176 221 263 310
#     4   9  18  34  56  80 106 139 179 217 255 308
#
# _framework density 17.832315999999999
#
# number of rings (size 3 to 8) (size 9 to 14) (size 15 to 20)
#    0.000    2.400    0.000    3.600    0.000    8.400 
#    0.000    1.000    0.000    0.000    0.000    0.000 
#    0.000    0.000    0.000    0.000    0.000    0.000 
#
# Total GULP energy -111571.796540 kJ/mol
# GULP energy per Si atom -5578.589827 kJ/mol
# Density = 1.779173 g / cm^3
# Si number density = 17.832316 Si / 1000 Ang^3
#
#
#
# Elastic Constant Matrix: (Units=GPa)
#
#
# Indices 1 2 3 4 5 6 
#
# 1 198.6516 85.3224 92.9383 0.0000 18.5973 0.0000
# 2 85.3224 49.7490 54.7626 0.0000 8.0495 0.0000
# 3 92.9383 54.7626 108.8423 0.0000 13.3876 0.0000
# 4 0.0000 0.0000 0.0000 25.3685 0.0000 2.4732
# 5 18.5973 8.0495 13.3876 0.0000 26.5867 0.0000
# 6 0.0000 0.0000 0.0000 2.4732 0.0000 27.7081
#
#
#
# Elastic Compliance Matrix: (Units=1/GPa)
#
#
# Indices 1 2 3 4 5 6 
#
# 1 0.019478 -0.033614 0.000751 0.000000 -0.003826 0.000000
# 2 -0.033614 0.103201 -0.023742 0.000000 0.004222 0.000000
# 3 0.000751 -0.023742 0.020971 0.000000 -0.003897 0.000000
# 4 0.000000 0.000000 0.000000 0.039765 0.000000 -0.003549
# 5 -0.003826 0.004222 -0.003897 0.000000 0.040973 0.000000
# 6 0.000000 0.000000 0.000000 -0.003549 0.000000 0.036407
#
#
# Mechanical properties :
#
#
# Convention : Reuss Voigt Hill
#
# Bulk Modulus (GPa) = 32.84968 91.47660 62.16314
# Shear Modulus (GPa) = 13.01567 24.21397 18.61482
#
# Velocity S-wave (km/s) = 2.70458 3.68893 3.23442
# Velocity P-wave (km/s) = 5.31173 8.33989 6.99172
#
# Compressibility (1/GPa) = 0.03044170
#
# Stress axis : x y z
#
# Youngs Moduli (GPa) = 51.33970 9.68980 47.68452
#
# Poissons Ratio (x) = 0.32571 -0.03580
# Poissons Ratio (y) = 1.72571 1.13211
# Poissons Ratio (z) = -0.03855 0.23005
#
# Static dielectric constant tensor:
#      x y z
#    x 1.619150 0.000000 0.025520 
#    y 0.000000 1.591810 0.000000 
#    z 0.025520 0.000000 1.598460 
# 
# From -- ./inp_files/92795.got.cif
#   From: 2010.05.17/outbox.cif.g08.bks.cpg/sg12_47_cif.got.tgz:92795.got - 2010.06.03 13:09:07.
