data_PCOD9208236
_publ_section_title
;
Structure prediction by ZEFSAII (Michael W. Deem and Ramdas Pophale) SiO2 
 PCOD9208236
Probable space group: C 2/M
;
_chemical_formula_sum "Si O2"
_cell_formula_units_Z 64
_cell_length_a 33.747927
_cell_length_b 8.731037
_cell_length_c 14.226021
_cell_angle_alpha 90.000000
_cell_angle_beta 127.615168
_cell_angle_gamma 90.000000
_cell_volume 3320.410587
_symmetry_space_group_name_H-M "C 2/M"
_symmetry_group_IT_number 12
_symmetry_cell_setting 'monoclinic'
loop_
_space_group_symop_operation_xyz
x,y,z
-x,y,-z
-x,-y,-z
x,-y,z
1/2+x,1/2+y,z
1/2-x,1/2+y,-z
1/2-x,1/2-y,-z
1/2+x,1/2-y,z
loop_
_atom_site_type_symbol
_atom_site_label
_atom_site_fract_x
_atom_site_fract_y
_atom_site_fract_z
Si Si1 0.062461 0.318553 0.969267
Si Si2 0.350219 0.315194 0.254152
Si Si3 0.753795 0.682703 0.217764
Si Si4 0.964416 0.815686 0.730665
Si Si5 0.277345 0.182109 0.630356
Si Si6 0.648929 0.683803 0.964881
Si Si7 0.454226 0.313289 0.499603
Si Si8 0.387909 0.317813 0.778262
O O1 0.061798 0.500000 0.982260
O O2 0.106663 0.270363 0.962125
O O3 0.010726 0.261789 0.850037
O O4 0.075131 0.236738 0.085845
O O5 0.346555 0.500000 0.255605
O O6 0.301991 0.243241 0.232934
O O7 0.352731 0.276816 0.147450
O O8 0.401188 0.265962 0.379484
O O9 0.756461 0.500000 0.231537
O O10 0.748360 0.757189 0.312070
O O11 0.703286 0.718850 0.086507
O O12 0.960689 0.765762 0.617029
O O13 0.914158 0.784158 0.716793
O O14 0.972121 0.000000 0.743475
O O15 0.250000 0.250000 0.500000
O O16 0.334901 0.236300 0.713692
O O17 0.274927 0.000000 0.624538
O O18 0.640427 0.500000 0.961920
O O19 0.500000 0.262363 0.500000
O O20 0.454687 0.500000 0.499793
O O21 0.380241 0.500000 0.775219
#
# Coordination Sequence:
#
# PCOD9208236 Si02
#       8
#     8   8   8   8   8   8   8   8
#     4  12  24  38  61  91 123 163 209 262 318 372
#     4  10  21  37  63  94 123 163 212 264 313 370
#     4  11  23  40  62  92 128 168 209 256 312 374
#     4  10  22  39  62  89 121 164 206 255 313 377
#     4  12  26  44  67  94 128 168 210 257 311 373
#     4  10  21  39  63  89 124 167 211 257 313 376
#     4   9  18  36  62  91 121 157 206 252 302 369
#     4  11  23  41  64  92 125 163 209 257 313 377
#
# _framework density 19.274725
#
# number of rings (size 3 to 8) (size 9 to 14) (size 15 to 20)
#    0.000    1.375    1.250    4.500    1.750    5.500 
#    0.000    0.625    0.000    1.500    0.000    0.000 
#    0.000    0.000    0.000    0.000    0.000    0.000 
#
# Total GULP energy -178983.859397 kJ/mol
# GULP energy per Si atom -5593.245606 kJ/mol
# Density = 1.923085 g / cm^3
# Si number density = 19.274725 Si / 1000 Ang^3
#
#
#
# Elastic Constant Matrix: (Units=GPa)
#
#
# Indices 1 2 3 4 5 6 
#
# 1 93.2633 31.3279 8.7194 0.0000 -18.7284 0.0000
# 2 31.3279 42.7463 18.1506 0.0000 -5.6953 0.0000
# 3 8.7194 18.1506 80.0655 0.0000 -24.4136 0.0000
# 4 0.0000 0.0000 0.0000 22.2625 0.0000 7.1318
# 5 -18.7284 -5.6953 -24.4136 0.0000 35.0508 0.0000
# 6 0.0000 0.0000 0.0000 7.1318 0.0000 29.9188
#
#
#
# Elastic Compliance Matrix: (Units=1/GPa)
#
#
# Indices 1 2 3 4 5 6 
#
# 1 0.016447 -0.012457 0.003930 0.000000 0.009501 0.000000
# 2 -0.012457 0.035320 -0.008799 0.000000 -0.007045 0.000000
# 3 0.003930 -0.008799 0.018106 0.000000 0.013281 0.000000
# 4 0.000000 0.000000 0.000000 0.048632 0.000000 -0.011593
# 5 0.009501 -0.007045 0.013281 0.000000 0.041713 0.000000
# 6 0.000000 0.000000 0.000000 -0.011593 0.000000 0.036187
#
#
# Mechanical properties :
#
#
# Convention : Reuss Voigt Hill
#
# Bulk Modulus (GPa) = 28.39055 36.94119 32.66587
# Shear Modulus (GPa) = 20.59329 27.97158 24.28244
#
# Velocity S-wave (km/s) = 3.27220 3.81360 3.55323
# Velocity P-wave (km/s) = 5.38867 6.21278 5.81534
#
# Compressibility (1/GPa) = 0.03522299
#
# Stress axis : x y z
#
# Youngs Moduli (GPa) = 60.80087 28.31234 55.22962
#
# Poissons Ratio (x) = 0.35267 -0.21704
# Poissons Ratio (y) = 0.75737 0.48595
# Poissons Ratio (z) = -0.23894 0.24911
#
# Static dielectric constant tensor:
#      x y z
#    x 1.644310 0.000000 -0.005380 
#    y 0.000000 1.651940 0.000000 
#    z -0.005380 0.000000 1.645290 
# 
# From -- ./inp_files/249949.got.cif
#   From: 2010.05.17/outbox.cif.g08.bks.cpg/sg12_125_cif.got.tgz:249949.got - 2010.06.03 13:09:07.
