data_PCOD9208228
_publ_section_title
;
Structure prediction by ZEFSAII (Michael W. Deem and Ramdas Pophale) SiO2 
 PCOD9208228
Probable space group: C 2/M
;
_chemical_formula_sum "Si O2"
_cell_formula_units_Z 64
_cell_length_a 8.574058
_cell_length_b 24.952607
_cell_length_c 14.783800
_cell_angle_alpha 90.000000
_cell_angle_beta 69.736526
_cell_angle_gamma 90.000000
_cell_volume 2967.168080
_symmetry_space_group_name_H-M "C 2/M"
_symmetry_group_IT_number 12
_symmetry_cell_setting 'monoclinic'
loop_
_space_group_symop_operation_xyz
x,y,z
-x,y,-z
-x,-y,-z
x,-y,z
1/2+x,1/2+y,z
1/2-x,1/2+y,-z
1/2-x,1/2-y,-z
1/2+x,1/2-y,z
loop_
_atom_site_type_symbol
_atom_site_label
_atom_site_fract_x
_atom_site_fract_y
_atom_site_fract_z
Si Si1 0.175497 0.642850 0.414841
Si Si2 0.250463 0.626363 0.701129
Si Si3 0.565649 0.439185 0.182764
Si Si4 0.303560 0.439055 0.518359
Si Si5 0.520852 0.282828 0.602197
Si Si6 0.575561 0.183637 0.251199
Si Si7 0.155614 0.439912 0.026371
Si Si8 0.641506 0.360240 0.895517
O O1 0.265457 0.589635 0.432023
O O2 0.298588 0.691359 0.417006
O O3 0.138693 0.644152 0.317188
O O4 0.000000 0.647438 0.500000
O O5 0.330405 0.584350 0.754399
O O6 0.218005 0.595185 0.614230
O O7 0.386691 0.671420 0.651619
O O8 0.082889 0.656594 0.764929
O O9 0.499941 0.500000 0.213939
O O10 0.444230 0.392777 0.169590
O O11 0.693980 0.444747 0.074246
O O12 0.500000 0.436940 0.500000
O O13 0.248349 0.500000 0.530032
O O14 0.500000 0.269849 0.500000
O O15 0.487377 0.234824 0.678994
O O16 0.742456 0.189593 0.157983
O O17 0.112815 0.500000 0.068573
O O18 0.225135 0.401506 0.088789
O O19 0.000000 0.419162 0.000000
O O20 0.500000 0.348374 0.000000
#
# Coordination Sequence:
#
# PCOD9208228 Si02
#       8
#     8   8   8   8   8   8   8   8
#     4  12  22  43  65  99 133 168 219 275 324 389
#     4  12  22  42  63  94 134 172 225 269 321 389
#     4  10  21  37  63  93 127 172 215 261 320 393
#     4  11  23  42  63  89 136 187 215 255 319 392
#     4  12  24  44  69  94 126 172 226 279 330 384
#     4  12  26  39  65  96 126 168 224 284 335 388
#     4   9  17  34  62  93 125 164 211 264 325 392
#     4  10  22  42  65  95 135 169 216 279 339 399
#
# _framework density 21.569388
#
# number of rings (size 3 to 8) (size 9 to 14) (size 15 to 20)
#    0.000    1.000    3.750    3.375    0.000    3.250 
#    0.000    3.750    0.000   12.750    0.000    0.000 
#    0.000    0.000    0.000    0.000    0.000    0.000 
#
# Total GULP energy -178806.922693 kJ/mol
# GULP energy per Si atom -5587.716334 kJ/mol
# Density = 2.152029 g / cm^3
# Si number density = 21.569388 Si / 1000 Ang^3
#
#
#
# Elastic Constant Matrix: (Units=GPa)
#
#
# Indices 1 2 3 4 5 6 
#
# 1 111.0051 25.5883 17.9561 0.0000 -13.7222 0.0000
# 2 25.5883 79.8963 17.4687 0.0000 -13.5555 0.0000
# 3 17.9561 17.4687 48.7790 0.0000 -12.4879 0.0000
# 4 0.0000 0.0000 0.0000 37.9014 0.0000 -6.5130
# 5 -13.7222 -13.5555 -12.4879 0.0000 41.8898 0.0000
# 6 0.0000 0.0000 0.0000 -6.5130 0.0000 4.1186
#
#
#
# Elastic Compliance Matrix: (Units=1/GPa)
#
#
# Indices 1 2 3 4 5 6 
#
# 1 0.010184 -0.002423 -0.002412 0.000000 0.001833 0.000000
# 2 -0.002423 0.014561 -0.003594 0.000000 0.002847 0.000000
# 3 -0.002412 -0.003594 0.024008 0.000000 0.005204 0.000000
# 4 0.000000 0.000000 0.000000 0.036229 0.000000 0.057292
# 5 0.001833 0.002847 0.005204 0.000000 0.026945 0.000000
# 6 0.000000 0.000000 0.000000 0.057292 0.000000 0.333399
#
#
# Mechanical properties :
#
#
# Convention : Reuss Voigt Hill
#
# Bulk Modulus (GPa) = 31.35280 40.18961 35.77120
# Shear Modulus (GPa) = 10.57496 28.69312 19.63404
#
# Velocity S-wave (km/s) = 2.21662 3.65124 3.02035
# Velocity P-wave (km/s) = 4.59549 6.03727 5.36503
#
# Compressibility (1/GPa) = 0.03189507
#
# Stress axis : x y z
#
# Youngs Moduli (GPa) = 98.19421 68.67620 41.65330
#
# Poissons Ratio (x) = 0.16642 0.10046
# Poissons Ratio (y) = 0.23795 0.14969
# Poissons Ratio (z) = 0.23682 0.24681
#
# Static dielectric constant tensor:
#      x y z
#    x 1.803080 0.000000 -0.028840 
#    y 0.000000 1.795860 0.000000 
#    z -0.028840 0.000000 1.822450 
# 
# From -- ./inp_files/199766.got.cif
#   From: 2010.05.17/outbox.cif.g08.bks.cpg/sg12_100_cif.got.tgz:199766.got - 2010.06.03 13:09:07.
