data_PCOD9208617
_publ_section_title
;
Structure prediction by ZEFSAII (Michael W. Deem and Ramdas Pophale) SiO2 
 PCOD9208617
Probable space group: C 2/M
;
_chemical_formula_sum "Si O2"
_cell_formula_units_Z 52
_cell_length_a 14.389870
_cell_length_b 16.237144
_cell_length_c 20.312232
_cell_angle_alpha 90.000000
_cell_angle_beta 34.182111
_cell_angle_gamma 90.000000
_cell_volume 2666.400073
_symmetry_space_group_name_H-M "C 2/M"
_symmetry_group_IT_number 12
_symmetry_cell_setting 'monoclinic'
loop_
_space_group_symop_operation_xyz
x,y,z
-x,y,-z
-x,-y,-z
x,-y,z
1/2+x,1/2+y,z
1/2-x,1/2+y,-z
1/2-x,1/2-y,-z
1/2+x,1/2-y,z
loop_
_atom_site_type_symbol
_atom_site_label
_atom_site_fract_x
_atom_site_fract_y
_atom_site_fract_z
Si Si1 0.083144 0.648505 0.227681
Si Si2 0.789435 0.500000 0.253183
Si Si3 0.899829 0.839196 0.127150
Si Si4 0.690710 0.594279 0.027887
Si Si5 0.469227 0.500000 0.343733
Si Si6 0.673285 0.000000 0.619479
Si Si7 0.394612 0.841196 0.127953
Si Si8 0.584329 0.666100 0.221007
O O1 0.212702 0.644407 0.213586
O O2 0.014026 0.741518 0.260579
O O3 0.943246 0.580196 0.316948
O O4 0.193458 0.627421 0.098436
O O5 0.632301 0.500000 0.295857
O O6 0.745625 0.500000 0.355321
O O7 0.896638 0.419139 0.173648
O O8 0.928880 0.747580 0.139013
O O9 0.000457 0.900911 0.113747
O O10 0.000000 0.837539 0.000000
O O11 0.732797 0.500000 0.018299
O O12 0.692199 0.649107 0.092308
O O13 0.310797 0.500000 0.482982
O O14 0.476947 0.583873 0.296012
O O15 0.209379 0.832019 0.208905
O O16 0.500000 0.855404 0.000000
#
# Coordination Sequence:
#
# PCOD9208617 Si02
#       8
#     8   4   8   8   4   4   8   8
#     4  10  22  36  55  89 116 142 181 229 285 320
#     4  10  22  34  56  79 107 146 183 234 281 319
#     4   8  18  33  51  78 118 152 172 209 276 342
#     4  11  20  32  59  87 117 146 177 220 277 350
#     4  10  23  46  57  75 107 149 203 226 285 318
#     4  12  25  36  60  82 109 146 193 247 259 327
#     4   9  18  32  52  81 116 146 172 221 282 339
#     4  10  21  38  59  80 113 150 183 228 273 346
#
# _framework density 19.501950000000001
#
# number of rings (size 3 to 8) (size 9 to 14) (size 15 to 20)
#    0.000    2.154    1.538    1.846    5.385    1.538 
#    0.000    0.000    0.000    1.846    0.000    0.000 
#    0.000    0.000    0.000    0.000    0.000    0.000 
#
# Total GULP energy -145005.997723 kJ/mol
# GULP energy per Si atom -5577.153759 kJ/mol
# Density = 1.945756 g / cm^3
# Si number density = 19.501950 Si / 1000 Ang^3
#
#
#
# Elastic Constant Matrix: (Units=GPa)
#
#
# Indices 1 2 3 4 5 6 
#
# 1 52.0265 15.7065 0.8647 -0.0003 -7.7376 0.0002
# 2 15.7065 146.5770 40.3587 -0.0007 -4.4828 0.0002
# 3 0.8647 40.3587 74.3232 -0.0015 5.7475 0.0005
# 4 -0.0003 -0.0007 -0.0015 5.5504 0.0006 1.7291
# 5 -7.7376 -4.4828 5.7475 0.0006 14.6334 -0.0002
# 6 0.0002 0.0002 0.0005 1.7291 -0.0002 11.6870
#
#
#
# Elastic Compliance Matrix: (Units=1/GPa)
#
#
# Indices 1 2 3 4 5 6 
#
# 1 0.021409 -0.001963 -0.000013 0.000000 0.010724 0.000000
# 2 -0.001963 0.008473 -0.004846 -0.000001 0.003461 0.000000
# 3 -0.000013 -0.004846 0.016709 0.000005 -0.008054 -0.000001
# 4 0.000000 -0.000001 0.000005 0.188874 -0.000010 -0.027945
# 5 0.010724 0.003461 -0.008054 -0.000010 0.078230 0.000003
# 6 0.000000 0.000000 -0.000001 -0.027945 0.000003 0.089700
#
#
# Mechanical properties :
#
#
# Convention : Reuss Voigt Hill
#
# Bulk Modulus (GPa) = 30.35037 42.97626 36.66332
# Shear Modulus (GPa) = 11.68172 20.77395 16.22783
#
# Velocity S-wave (km/s) = 2.45011 3.26732 2.88777
# Velocity P-wave (km/s) = 4.85804 6.02649 5.47353
#
# Compressibility (1/GPa) = 0.03294852
#
# Stress axis : x y z
#
# Youngs Moduli (GPa) = 46.71035 118.02619 59.84813
#
# Poissons Ratio (x) = 0.23164 0.00076
# Poissons Ratio (y) = 0.09167 0.29000
# Poissons Ratio (z) = 0.00059 0.57191
#
# Static dielectric constant tensor:
#      x y z
#    x 1.731750 0.000000 -0.034640 
#    y 0.000000 1.717340 0.000000 
#    z -0.034640 0.000000 1.640310 
# 
# From -- ./inp_files/311499.got.cif
#   From: 2010.05.17/outbox.cif.g08.bks.cpg/sg12_156_cif.got.tgz:311499.got - 2010.06.03 13:09:07.
