data_PCOD9208568
_publ_section_title
;
Structure prediction by ZEFSAII (Michael W. Deem and Ramdas Pophale) SiO2 
 PCOD9208568
Probable space group: C 2/M
;
_chemical_formula_sum "Si O2"
_cell_formula_units_Z 48
_cell_length_a 17.543041
_cell_length_b 16.377510
_cell_length_c 8.912084
_cell_angle_alpha 90.000000
_cell_angle_beta 94.549719
_cell_angle_gamma 90.000000
_cell_volume 2552.474111
_symmetry_space_group_name_H-M "C 2/M"
_symmetry_group_IT_number 12
_symmetry_cell_setting 'monoclinic'
loop_
_space_group_symop_operation_xyz
x,y,z
-x,y,-z
-x,-y,-z
x,-y,z
1/2+x,1/2+y,z
1/2-x,1/2+y,-z
1/2-x,1/2-y,-z
1/2+x,1/2-y,z
loop_
_atom_site_type_symbol
_atom_site_label
_atom_site_fract_x
_atom_site_fract_y
_atom_site_fract_z
Si Si1 0.613174 0.000000 0.146867
Si Si2 0.006018 0.767912 0.679205
Si Si3 0.434526 0.594273 0.863819
Si Si4 0.638542 0.155727 0.674368
Si Si5 0.639177 0.835954 0.316353
Si Si6 0.283629 0.700037 0.864425
Si Si7 0.434441 0.000000 0.199383
O O1 0.648965 0.080321 0.227594
O O2 0.523867 0.000000 0.177821
O O3 0.611676 0.000000 0.965979
O O4 0.091666 0.736093 0.722558
O O5 0.000000 0.770925 0.500000
O O6 0.974765 0.852086 0.740502
O O7 0.946507 0.698719 0.724863
O O8 0.416585 0.500000 0.821292
O O9 0.358357 0.643574 0.902933
O O10 0.500000 0.593319 0.000000
O O11 0.650028 0.157141 0.496912
O O12 0.716350 0.148470 0.778172
O O13 0.587015 0.078817 0.708216
O O14 0.693203 0.767346 0.255566
O O15 0.250000 0.750000 0.000000
#
# Coordination Sequence:
#
# PCOD9208568 Si02
#       7
#     4   8   8   8   8   8   4
#     4  11  21  37  55  89 123 150 199 232 290 351
#     4   9  19  36  61  86 111 148 192 234 284 344
#     4  10  22  40  60  81 112 151 193 239 287 342
#     4  11  21  37  61  87 118 152 192 241 299 347
#     4  10  21  38  58  85 119 157 194 237 287 355
#     4  11  23  39  60  86 117 153 196 243 297 349
#     4  11  23  33  59  91 120 156 187 244 292 349
#
# _framework density 18.805285000000001
#
# number of rings (size 3 to 8) (size 9 to 14) (size 15 to 20)
#    0.000    1.667    1.667    3.000    1.167    2.333 
#    1.500    0.000    1.833    0.000    0.000    0.000 
#    0.000    0.000    0.000    0.000    0.000    0.000 
#
# Total GULP energy -133888.497302 kJ/mol
# GULP energy per Si atom -5578.687388 kJ/mol
# Density = 1.876248 g / cm^3
# Si number density = 18.805285 Si / 1000 Ang^3
#
#
#
# Elastic Constant Matrix: (Units=GPa)
#
#
# Indices 1 2 3 4 5 6 
#
# 1 71.6774 15.5846 7.5924 0.0000 -0.3478 0.0000
# 2 15.5846 111.1528 13.2383 0.0000 -13.3531 0.0000
# 3 7.5924 13.2383 44.5126 0.0000 -17.8466 0.0000
# 4 0.0000 0.0000 0.0000 23.6410 0.0000 4.8901
# 5 -0.3478 -13.3531 -17.8466 0.0000 30.2249 0.0000
# 6 0.0000 0.0000 0.0000 4.8901 0.0000 15.7113
#
#
#
# Elastic Compliance Matrix: (Units=1/GPa)
#
#
# Indices 1 2 3 4 5 6 
#
# 1 0.014680 -0.002006 -0.002876 0.000000 -0.002415 0.000000
# 2 -0.002006 0.009852 -0.001116 0.000000 0.003670 0.000000
# 3 -0.002876 -0.001116 0.030235 0.000000 0.017326 0.000000
# 4 0.000000 0.000000 0.000000 0.045210 0.000000 -0.014071
# 5 -0.002415 0.003670 0.017326 0.000000 0.044909 0.000000
# 6 0.000000 0.000000 0.000000 -0.014071 0.000000 0.068028
#
#
# Mechanical properties :
#
#
# Convention : Reuss Voigt Hill
#
# Bulk Modulus (GPa) = 23.38046 33.35259 28.36653
# Shear Modulus (GPa) = 20.90585 26.64395 23.77490
#
# Velocity S-wave (km/s) = 3.33784 3.76817 3.55951
# Velocity P-wave (km/s) = 5.22635 6.05858 5.65779
#
# Compressibility (1/GPa) = 0.04277076
#
# Stress axis : x y z
#
# Youngs Moduli (GPa) = 68.11785 101.50484 33.07454
#
# Poissons Ratio (x) = 0.20362 0.09512
# Poissons Ratio (y) = 0.13664 0.03692
# Poissons Ratio (z) = 0.19589 0.11331
#
# Static dielectric constant tensor:
#      x y z
#    x 1.661080 0.000000 0.002410 
#    y 0.000000 1.645470 0.000000 
#    z 0.002410 0.000000 1.630400 
# 
# From -- ./inp_files/73673.got.cif
#   From: 2010.05.17/outbox.cif.g08.bks.cpg/sg12_37_cif.got.tgz:73673.got - 2010.06.03 13:09:07.
