data_PCOD9208959
_publ_section_title
;
Structure prediction by ZEFSAII (Michael W. Deem and Ramdas Pophale) SiO2 
 PCOD9208959
Probable space group: C 2/M
;
_chemical_formula_sum "Si O2"
_cell_formula_units_Z 50
_cell_length_a 28.544726
_cell_length_b 8.924107
_cell_length_c 11.441995
_cell_angle_alpha 90.000000
_cell_angle_beta 109.561887
_cell_angle_gamma 90.000000
_cell_volume 2746.455408
_symmetry_space_group_name_H-M "C 2/M"
_symmetry_group_IT_number 12
_symmetry_cell_setting 'monoclinic'
loop_
_space_group_symop_operation_xyz
x,y,z
-x,y,-z
-x,-y,-z
x,-y,z
1/2+x,1/2+y,z
1/2-x,1/2+y,-z
1/2-x,1/2-y,-z
1/2+x,1/2-y,z
loop_
_atom_site_type_symbol
_atom_site_label
_atom_site_fract_x
_atom_site_fract_y
_atom_site_fract_z
Si Si1 0.166710 0.178165 0.684114
Si Si2 0.694878 0.677269 0.445226
Si Si3 0.259540 0.322271 0.883263
Si Si4 0.500000 0.500000 0.500000
Si Si5 0.349700 0.820186 0.820433
Si Si6 0.067844 0.834640 0.739743
Si Si7 0.547844 0.819654 0.967141
O O1 0.165993 0.193826 0.543742
O O2 0.212580 0.275614 0.766012
O O3 0.116408 0.221486 0.709921
O O4 0.175872 0.000000 0.714443
O O5 0.701022 0.500000 0.426647
O O6 0.750000 0.750000 0.500000
O O7 0.663365 0.753537 0.316746
O O8 0.264778 0.500000 0.894348
O O9 0.308160 0.247698 0.870065
O O10 0.250000 0.250000 0.000000
O O11 0.525591 0.371565 0.608217
O O12 0.345567 0.000000 0.813059
O O13 0.403112 0.779406 0.917842
O O14 0.051589 0.740145 0.837952
O O15 0.082157 0.000000 0.799749
O O16 0.545714 0.000000 0.959314
O O17 0.500000 0.765930 0.000000
#
# Coordination Sequence:
#
# PCOD9208959 Si02
#       7
#     8   8   8   2   8   8   8
#     4  10  21  38  60  87 122 166 202 255 308 366
#     4  11  22  37  59  89 128 167 210 256 308 376
#     4  12  24  37  58  87 122 160 204 252 310 383
#     4   8  20  40  64  92 128 152 210 270 310 360
#     4  11  23  40  61  87 124 164 210 259 312 372
#     4   9  20  40  65  91 125 158 205 259 310 368
#     4  10  23  43  64  91 126 163 207 263 317 376
#
# _framework density 18.205283999999999
#
# number of rings (size 3 to 8) (size 9 to 14) (size 15 to 20)
#    0.480    1.120    1.600    3.360    0.000    6.720 
#    0.000    0.400    0.000    0.000    0.000    0.000 
#    0.000    0.000    0.000    0.000    0.000    0.000 
#
# Total GULP energy -139219.798205 kJ/mol
# GULP energy per Si atom -5568.791928 kJ/mol
# Density = 1.816385 g / cm^3
# Si number density = 18.205284 Si / 1000 Ang^3
#
#
#
# Elastic Constant Matrix: (Units=GPa)
#
#
# Indices 1 2 3 4 5 6 
#
# 1 149.8695 56.0591 90.3256 0.0000 -3.7745 0.0000
# 2 56.0591 70.6904 68.3211 0.0000 0.9421 0.0000
# 3 90.3256 68.3211 139.9046 0.0000 8.5675 0.0000
# 4 0.0000 0.0000 0.0000 29.5941 0.0000 -16.7745
# 5 -3.7745 0.9421 8.5675 0.0000 30.0133 0.0000
# 6 0.0000 0.0000 0.0000 -16.7745 0.0000 6.8907
#
#
#
# Elastic Compliance Matrix: (Units=1/GPa)
#
#
# Indices 1 2 3 4 5 6 
#
# 1 0.011711 -0.003461 -0.006074 0.000000 0.003315 0.000000
# 2 -0.003461 0.028072 -0.011596 0.000000 0.001994 0.000000
# 3 -0.006074 -0.011596 0.017055 0.000000 -0.005268 0.000000
# 4 0.000000 0.000000 0.000000 -0.088957 0.000000 -0.216555
# 5 0.003315 0.001994 -0.005268 0.000000 0.035177 0.000000
# 6 0.000000 0.000000 0.000000 -0.216555 0.000000 -0.382052
#
#
# Mechanical properties :
#
#
# Convention : Reuss Voigt Hill
#
# Bulk Modulus (GPa) = 68.60848 87.76401 78.18624
# Shear Modulus (GPa) = -15.06599 23.01686 3.97543
#
# Velocity S-wave (km/s) = -2.87986 3.55955 1.47933
# Velocity P-wave (km/s) = 5.16815 8.07505 6.77924
#
# Compressibility (1/GPa) = 0.01457546
#
# Stress axis : x y z
#
# Youngs Moduli (GPa) = 85.38723 35.62277 58.63524
#
# Poissons Ratio (x) = 0.12330 0.35614
# Poissons Ratio (y) = 0.29555 0.67994
# Poissons Ratio (z) = 0.51863 0.41308
#
# Static dielectric constant tensor:
#      x y z
#    x 1.613870 0.000000 -0.000850 
#    y 0.000000 1.615980 0.000000 
#    z -0.000850 0.000000 1.626490 
# 
# From -- ./inp_files/180193.got.cif
#   From: 2010.05.17/outbox.cif.g08.bks.cpg/sg12_91_cif.got.tgz:180193.got - 2010.06.03 13:09:07.
