data_PCOD9208000
_publ_section_title
;
Structure prediction by ZEFSAII (Michael W. Deem and Ramdas Pophale) SiO2 
 PCOD9208000
Probable space group: C 2/M
;
_chemical_formula_sum "Si O2"
_cell_formula_units_Z 56
_cell_length_a 17.763324
_cell_length_b 12.614789
_cell_length_c 12.892712
_cell_angle_alpha 90.000000
_cell_angle_beta 66.865321
_cell_angle_gamma 90.000000
_cell_volume 2656.683696
_symmetry_space_group_name_H-M "C 2/M"
_symmetry_group_IT_number 12
_symmetry_cell_setting 'monoclinic'
loop_
_space_group_symop_operation_xyz
x,y,z
-x,y,-z
-x,-y,-z
x,-y,z
1/2+x,1/2+y,z
1/2-x,1/2+y,-z
1/2-x,1/2-y,-z
1/2+x,1/2-y,z
loop_
_atom_site_type_symbol
_atom_site_label
_atom_site_fract_x
_atom_site_fract_y
_atom_site_fract_z
Si Si1 0.333454 0.205308 0.406422
Si Si2 0.319523 0.183826 0.168561
Si Si3 0.140765 0.242161 0.241357
Si Si4 0.574002 0.123549 0.085321
Si Si5 0.526963 0.383199 0.665246
Si Si6 0.092978 0.382849 0.445498
Si Si7 0.953942 0.823919 0.120325
O O1 0.250000 0.250000 0.500000
O O2 0.326378 0.166213 0.290449
O O3 0.400478 0.298720 0.391295
O O4 0.368339 0.115471 0.462316
O O5 0.225764 0.180992 0.184831
O O6 0.360339 0.301085 0.142841
O O7 0.372714 0.125445 0.050173
O O8 0.122541 0.320467 0.154185
O O9 0.062611 0.166607 0.303555
O O10 0.147019 0.312274 0.341173
O O11 0.497923 0.207066 0.115308
O O12 0.551476 0.000000 0.117913
O O13 0.537401 0.500000 0.612228
O O14 0.533243 0.389775 0.785544
O O15 0.087058 0.500000 0.403382
O O16 0.000000 0.341183 0.500000
O O17 0.000000 0.872345 0.000000
#
# Coordination Sequence:
#
# PCOD9208000 Si02
#       7
#     8   8   8   8   8   8   8
#     4  11  22  42  64  88 126 159 200 260 307 357
#     4  10  21  37  61  87 123 161 197 250 308 354
#     4  11  21  41  62  86 127 162 200 254 302 362
#     4  10  21  38  62  91 123 161 203 250 309 367
#     4  10  22  39  60  85 118 163 203 240 303 373
#     4  11  23  41  67  92 117 159 208 250 304 369
#     4   8  18  37  58  85 117 158 198 253 301 348
#
# _framework density 21.078913
#
# number of rings (size 3 to 8) (size 9 to 14) (size 15 to 20)
#    0.000    1.857    2.857    0.857    0.000    4.571 
#    0.000    2.143    0.000    0.857    0.000    0.000 
#    0.000    0.000    0.000    0.000    0.000    0.000 
#
# Total GULP energy -155891.914783 kJ/mol
# GULP energy per Si atom -5567.568385 kJ/mol
# Density = 2.103094 g / cm^3
# Si number density = 21.078913 Si / 1000 Ang^3
#
#
#
# Elastic Constant Matrix: (Units=GPa)
#
#
# Indices 1 2 3 4 5 6 
#
# 1 105.2458 28.3043 21.1642 0.0000 -13.2716 0.0000
# 2 28.3043 103.3023 15.0509 0.0000 -3.6356 0.0000
# 3 21.1642 15.0509 76.8959 0.0000 0.2555 0.0000
# 4 0.0000 0.0000 0.0000 19.1498 0.0000 6.9555
# 5 -13.2716 -3.6356 0.2555 0.0000 40.0996 0.0000
# 6 0.0000 0.0000 0.0000 6.9555 0.0000 1.6677
#
#
#
# Elastic Compliance Matrix: (Units=1/GPa)
#
#
# Indices 1 2 3 4 5 6 
#
# 1 0.011146 -0.002556 -0.002579 0.000000 0.003473 0.000000
# 2 -0.002556 0.010584 -0.001369 0.000000 0.000122 0.000000
# 3 -0.002579 -0.001369 0.013986 0.000000 -0.001067 0.000000
# 4 0.000000 0.000000 0.000000 -0.101432 0.000000 0.423033
# 5 0.003473 0.000122 -0.001067 0.000000 0.026105 0.000000
# 6 0.000000 0.000000 0.000000 0.423033 0.000000 -1.164691
#
#
# Mechanical properties :
#
#
# Convention : Reuss Voigt Hill
#
# Bulk Modulus (GPa) = 44.03551 46.05364 45.04458
# Shear Modulus (GPa) = -4.22395 26.91175 11.34390
#
# Velocity S-wave (km/s) = -1.41712 3.57699 2.32235
# Velocity P-wave (km/s) = 4.27300 6.24143 5.34855
#
# Compressibility (1/GPa) = 0.02270895
#
# Stress axis : x y z
#
# Youngs Moduli (GPa) = 89.72214 94.47932 71.50106
#
# Poissons Ratio (x) = 0.24147 0.18439
# Poissons Ratio (y) = 0.22931 0.09786
# Poissons Ratio (z) = 0.23138 0.12931
#
# Static dielectric constant tensor:
#      x y z
#    x 1.805340 0.000000 -0.015850 
#    y 0.000000 1.804790 0.000000 
#    z -0.015850 0.000000 1.801560 
# 
# From -- ./inp_files/223734.got.cif
#   From: 2010.05.17/outbox.cif.g08.bks.cpg/sg12_112_cif.got.tgz:223734.got - 2010.06.03 13:09:07.
