data_PCOD9208523
_publ_section_title
;
Structure prediction by ZEFSAII (Michael W. Deem and Ramdas Pophale) SiO2 
 PCOD9208523
Probable space group: C 2/M
;
_chemical_formula_sum "Si O2"
_cell_formula_units_Z 48
_cell_length_a 15.474985
_cell_length_b 8.625985
_cell_length_c 27.592121
_cell_angle_alpha 90.000000
_cell_angle_beta 44.414569
_cell_angle_gamma 90.000000
_cell_volume 2577.661473
_symmetry_space_group_name_H-M "C 2/M"
_symmetry_group_IT_number 12
_symmetry_cell_setting 'monoclinic'
loop_
_space_group_symop_operation_xyz
x,y,z
-x,y,-z
-x,-y,-z
x,-y,z
1/2+x,1/2+y,z
1/2-x,1/2+y,-z
1/2-x,1/2-y,-z
1/2+x,1/2-y,z
loop_
_atom_site_type_symbol
_atom_site_label
_atom_site_fract_x
_atom_site_fract_y
_atom_site_fract_z
Si Si1 0.729717 0.811802 0.323181
Si Si2 0.225957 0.187001 0.585506
Si Si3 0.182788 0.185396 0.074907
Si Si4 0.630342 0.314083 0.921703
Si Si5 0.909958 0.315080 0.169277
Si Si6 0.945356 0.313294 0.427875
O O1 0.777700 0.765949 0.357203
O O2 0.810516 0.739057 0.248523
O O3 0.586347 0.764158 0.377090
O O4 0.735471 0.000000 0.317381
O O5 0.116775 0.252697 0.596322
O O6 0.354441 0.235734 0.508088
O O7 0.221734 0.000000 0.585567
O O8 0.260065 0.243240 0.090172
O O9 0.043409 0.247201 0.130212
O O10 0.182369 0.000000 0.073291
O O11 0.250000 0.250000 0.000000
O O12 0.642185 0.500000 0.915936
O O13 0.625612 0.249474 0.869359
O O14 0.500000 0.276152 0.000000
O O15 0.917279 0.500000 0.164338
O O16 0.944431 0.500000 0.427747
#
# Coordination Sequence:
#
# PCOD9208523 Si02
#       6
#     8   8   8   8   8   8
#     4  10  21  38  58  81 118 160 199 244 297 358
#     4   9  18  34  58  86 115 152 198 244 295 353
#     4  12  24  41  66  93 121 154 196 245 299 357
#     4  11  23  41  67  93 119 153 196 247 300 357
#     4  12  26  42  61  89 124 162 204 249 302 362
#     4   9  18  34  58  86 115 152 197 245 296 352
#
# _framework density 18.621531000000001
#
# number of rings (size 3 to 8) (size 9 to 14) (size 15 to 20)
#    0.000    1.500    1.667    4.000    0.000    5.333 
#    0.000    3.333    0.000    5.000    0.000    0.000 
#    0.000    0.000    0.000    0.000    0.000    0.000 
#
# Total GULP energy -134153.319042 kJ/mol
# GULP energy per Si atom -5589.721627 kJ/mol
# Density = 1.857915 g / cm^3
# Si number density = 18.621531 Si / 1000 Ang^3
#
#
#
# Elastic Constant Matrix: (Units=GPa)
#
#
# Indices 1 2 3 4 5 6 
#
# 1 123.7185 31.7930 47.4541 0.0000 29.0604 0.0003
# 2 31.7930 60.9215 24.1808 0.0000 12.9408 0.0005
# 3 47.4541 24.1808 69.7652 0.0000 35.2909 0.0000
# 4 0.0000 0.0000 0.0000 26.2580 0.0000 1.2347
# 5 29.0604 12.9408 35.2909 0.0000 27.7582 0.0000
# 6 0.0003 0.0005 0.0000 1.2347 0.0000 35.6393
#
#
#
# Elastic Compliance Matrix: (Units=1/GPa)
#
#
# Indices 1 2 3 4 5 6 
#
# 1 0.011823 -0.003375 -0.003942 0.000000 -0.005792 0.000000
# 2 -0.003375 0.020015 -0.004788 0.000000 0.000290 0.000000
# 3 -0.003942 -0.004788 0.043315 0.000000 -0.048710 0.000000
# 4 0.000000 0.000000 0.000000 0.038146 0.000000 -0.001322
# 5 -0.005792 0.000290 -0.048710 0.000000 0.103882 0.000000
# 6 0.000000 0.000000 0.000000 -0.001322 0.000000 0.028105
#
#
# Mechanical properties :
#
#
# Convention : Reuss Voigt Hill
#
# Bulk Modulus (GPa) = 19.63028 51.25122 35.44075
# Shear Modulus (GPa) = 17.45349 27.99626 22.72488
#
# Velocity S-wave (km/s) = 3.06482 3.88162 3.49715
# Velocity P-wave (km/s) = 4.80507 6.90446 5.94812
#
# Compressibility (1/GPa) = 0.05094171
#
# Stress axis : x y z
#
# Youngs Moduli (GPa) = 84.58309 49.96316 23.08686
#
# Poissons Ratio (x) = 0.16862 0.09101
# Poissons Ratio (y) = 0.28546 0.11055
# Poissons Ratio (z) = 0.33343 0.23924
#
# Static dielectric constant tensor:
#      x y z
#    x 1.634670 0.000000 -0.005550 
#    y 0.000000 1.627750 0.000000 
#    z -0.005550 0.000000 1.619900 
# 
# From -- ./inp_files/360260.got.cif
#   From: 2010.05.17/outbox.cif.g08.bks.cpg/sg12_181_cif.got.tgz:360260.got - 2010.06.03 13:09:07.
