data_PCOD9208310
_publ_section_title
;
Structure prediction by ZEFSAII (Michael W. Deem and Ramdas Pophale) SiO2 
 PCOD9208310
Probable space group: C 2/M
;
_chemical_formula_sum "Si O2"
_cell_formula_units_Z 36
_cell_length_a 7.878894
_cell_length_b 19.396371
_cell_length_c 9.427085
_cell_angle_alpha 90.000000
_cell_angle_beta 67.275668
_cell_angle_gamma 90.000000
_cell_volume 1328.832597
_symmetry_space_group_name_H-M "C 2/M"
_symmetry_group_IT_number 12
_symmetry_cell_setting 'monoclinic'
loop_
_space_group_symop_operation_xyz
x,y,z
-x,y,-z
-x,-y,-z
x,-y,z
1/2+x,1/2+y,z
1/2-x,1/2+y,-z
1/2-x,1/2-y,-z
1/2+x,1/2-y,z
loop_
_atom_site_type_symbol
_atom_site_label
_atom_site_fract_x
_atom_site_fract_y
_atom_site_fract_z
Si Si1 0.522139 0.737425 0.160227
Si Si2 0.022163 0.612085 0.714115
Si Si3 0.866352 0.139698 0.412607
Si Si4 0.310974 0.402867 0.850822
Si Si5 0.241781 0.500000 0.139678
O O1 0.543830 0.813976 0.209229
O O2 0.358078 0.702720 0.305147
O O3 0.680757 0.680360 0.140950
O O4 0.500000 0.733097 0.000000
O O5 0.174248 0.620949 0.543774
O O6 0.136703 0.579317 0.810545
O O7 0.858572 0.560839 0.735192
O O8 0.000000 0.161851 0.500000
O O9 0.996033 0.082817 0.292179
O O10 0.306178 0.440752 0.000690
#
# Coordination Sequence:
#
# PCOD9208310 Si02
#       5
#     8   8   8   8   4
#     4  10  21  37  65  88 116 157 193 239 295 351
#     4  11  20  36  61  91 117 150 198 247 291 338
#     4   8  19  39  59  88 119 147 193 245 291 341
#     4   9  21  37  57  86 122 149 195 238 290 348
#     4  12  23  36  59  91 120 153 199 249 289 341
#
# _framework density 27.091446999999999
#
# number of rings (size 3 to 8) (size 9 to 14) (size 15 to 20)
#    1.333    0.889    0.000    4.000    0.000    4.444 
#    0.000    3.889    0.000    1.333    0.000    0.000 
#    0.000    0.000    0.000    0.000    0.000    0.000 
#
# Total GULP energy -100324.215752 kJ/mol
# GULP energy per Si atom -5573.567542 kJ/mol
# Density = 2.702979 g / cm^3
# Si number density = 27.091447 Si / 1000 Ang^3
#
#
#
# Elastic Constant Matrix: (Units=GPa)
#
#
# Indices 1 2 3 4 5 6 
#
# 1 124.7169 -2.1013 28.2529 0.0000 9.4081 0.0000
# 2 -2.1013 184.9245 59.1723 0.0000 -2.5857 0.0000
# 3 28.2529 59.1723 237.7487 0.0000 -7.4025 0.0000
# 4 0.0000 0.0000 0.0000 41.8035 0.0000 -49.5996
# 5 9.4081 -2.5857 -7.4025 0.0000 15.6438 0.0000
# 6 0.0000 0.0000 0.0000 -49.5996 0.0000 -258.7848
#
#
#
# Elastic Compliance Matrix: (Units=1/GPa)
#
#
# Indices 1 2 3 4 5 6 
#
# 1 0.008768 0.000445 -0.001334 0.000000 -0.005831 0.000000
# 2 0.000445 0.005899 -0.001522 0.000000 -0.000013 0.000000
# 3 -0.001334 -0.001522 0.004832 0.000000 0.002837 0.000000
# 4 0.000000 0.000000 0.000000 0.019489 0.000000 -0.003735
# 5 -0.005831 -0.000013 0.002837 0.000000 0.068770 0.000000
# 6 0.000000 0.000000 0.000000 -0.003735 0.000000 -0.003148
#
#
# Mechanical properties :
#
#
# Convention : Reuss Voigt Hill
#
# Bulk Modulus (GPa) = 68.13224 79.78197 73.95711
# Shear Modulus (GPa) = 43.73528 -9.46309 17.13610
#
# Velocity S-wave (km/s) = 4.02227 -1.87099 2.51774
# Velocity P-wave (km/s) = 6.83923 4.98454 5.98417
#
# Compressibility (1/GPa) = 0.01467734
#
# Stress axis : x y z
#
# Youngs Moduli (GPa) = 114.05434 169.50998 206.96628
#
# Poissons Ratio (x) = -0.07544 0.27614
# Poissons Ratio (y) = -0.05076 0.31491
# Poissons Ratio (z) = 0.15217 0.25792
#
# Static dielectric constant tensor:
#      x y z
#    x 2.281140 0.000000 -0.016930 
#    y 0.000000 2.720850 0.000000 
#    z -0.016930 0.000000 2.106520 
# 
# From -- ./inp_files/130810.got.cif
#   From: 2010.05.17/outbox.cif.g08.bks.cpg/sg12_66_cif.got.tgz:130810.got - 2010.06.03 13:09:07.
