data_PCOD9208739
_publ_section_title
;
Structure prediction by ZEFSAII (Michael W. Deem and Ramdas Pophale) SiO2 
 PCOD9208739
Probable space group: C 2/M
;
_chemical_formula_sum "Si O2"
_cell_formula_units_Z 56
_cell_length_a 12.814523
_cell_length_b 15.313802
_cell_length_c 14.965003
_cell_angle_alpha 90.000000
_cell_angle_beta 63.370553
_cell_angle_gamma 90.000000
_cell_volume 2625.202900
_symmetry_space_group_name_H-M "C 2/M"
_symmetry_group_IT_number 12
_symmetry_cell_setting 'monoclinic'
loop_
_space_group_symop_operation_xyz
x,y,z
-x,y,-z
-x,-y,-z
x,-y,z
1/2+x,1/2+y,z
1/2-x,1/2+y,-z
1/2-x,1/2-y,-z
1/2+x,1/2-y,z
loop_
_atom_site_type_symbol
_atom_site_label
_atom_site_fract_x
_atom_site_fract_y
_atom_site_fract_z
Si Si1 0.161610 0.818852 0.179030
Si Si2 0.407064 0.602834 0.609884
Si Si3 0.250000 0.339878 0.250000
Si Si4 0.501136 0.098769 0.394637
Si Si5 0.998865 0.098769 0.105363
Si Si6 0.092936 0.602834 0.890116
Si Si7 0.161610 0.318851 0.679030
O O1 0.091550 0.848152 0.295446
O O2 0.214676 0.724408 0.181536
O O3 0.275261 0.880421 0.126662
O O4 0.077699 0.832729 0.128410
O O5 0.500000 0.632926 0.500000
O O6 0.426024 0.500000 0.618091
O O7 0.275261 0.619579 0.626662
O O8 0.135000 0.393567 0.314054
O O9 0.365000 0.393567 0.185946
O O10 0.285325 0.275593 0.318463
O O11 0.500000 0.114988 0.500000
O O12 0.422302 0.167272 0.371590
O O13 0.458261 0.000000 0.392933
O O14 0.041739 0.000000 0.107065
O O15 0.000000 0.114990 0.000000
O O16 0.073976 0.500000 0.881910
O O17 0.091550 0.651848 0.795446
O O18 0.000000 0.632926 0.000000
#
# Coordination Sequence:
#
# PCOD9208739 Si02
#       7
#     8   8   8   8   8   8   8
#     4  10  21  38  59  86 119 152 195 249 293 343
#     4   9  17  31  56  87 117 153 195 242 295 346
#     4  10  23  40  63  88 116 156 200 246 297 344
#     4  11  24  41  61  87 122 161 197 238 292 355
#     4  11  24  41  61  87 122 161 197 238 292 355
#     4   9  17  31  56  87 117 153 195 242 295 346
#     4  10  21  38  59  86 119 152 195 249 293 343
#
# _framework density 21.331683000000002
#
# number of rings (size 3 to 8) (size 9 to 14) (size 15 to 20)
#    0.000    2.286    0.000    4.714    0.000    8.000 
#    0.000    2.857    0.000    0.000    0.000    0.000 
#    0.000    1.143    0.000    0.000    0.000    0.000 
#
# Total GULP energy -156468.262064 kJ/mol
# GULP energy per Si atom -5588.152217 kJ/mol
# Density = 2.128313 g / cm^3
# Si number density = 21.331683 Si / 1000 Ang^3
#
#
#
# Elastic Constant Matrix: (Units=GPa)
#
#
# Indices 1 2 3 4 5 6 
#
# 1 94.2455 23.7571 26.8997 0.0000 10.9532 0.0000
# 2 23.7571 50.1189 11.8368 0.0000 12.0647 0.0000
# 3 26.8997 11.8368 81.3354 0.0000 -11.1456 0.0000
# 4 0.0000 0.0000 0.0000 -33.1475 0.0000 3.0458
# 5 10.9532 12.0647 -11.1456 0.0000 11.6271 0.0000
# 6 0.0000 0.0000 0.0000 3.0458 0.0000 52.0615
#
#
#
# Elastic Compliance Matrix: (Units=1/GPa)
#
#
# Indices 1 2 3 4 5 6 
#
# 1 0.015593 -0.000002 -0.008254 0.000000 -0.022599 0.000000
# 2 -0.000002 0.033502 -0.011096 0.000000 -0.045397 0.000000
# 3 -0.008254 -0.011096 0.022198 0.000000 0.040568 0.000000
# 4 0.000000 0.000000 0.000000 -0.030007 0.000000 0.001756
# 5 -0.022599 -0.045397 0.040568 0.000000 0.193289 0.000000
# 6 0.000000 0.000000 0.000000 0.001756 0.000000 0.019105
#
#
# Mechanical properties :
#
#
# Convention : Reuss Voigt Hill
#
# Bulk Modulus (GPa) = 30.68352 38.96523 34.82437
# Shear Modulus (GPa) = 16.48815 16.98864 16.73840
#
# Velocity S-wave (km/s) = 2.78320 2.82513 2.80424
# Velocity P-wave (km/s) = 4.97428 5.38032 5.18128
#
# Compressibility (1/GPa) = 0.03259079
#
# Stress axis : x y z
#
# Youngs Moduli (GPa) = 64.12979 29.84883 45.04833
#
# Poissons Ratio (x) = 0.00006 0.37181
# Poissons Ratio (y) = 0.00013 0.49985
# Poissons Ratio (z) = 0.52931 0.33120
#
# Static dielectric constant tensor:
#      x y z
#    x 1.753170 0.000000 -0.003170 
#    y 0.000000 1.775900 0.000000 
#    z -0.003170 0.000000 1.763360 
# 
# From -- ./inp_files/206547.got.cif
#   From: 2010.05.17/outbox.cif.g08.bks.cpg/sg12_104_cif.got.tgz:206547.got - 2010.06.03 13:09:07.
