data_PCOD9208606
_publ_section_title
;
Structure prediction by ZEFSAII (Michael W. Deem and Ramdas Pophale) SiO2 
 PCOD9208606
Probable space group: C 2/M
;
_chemical_formula_sum "Si O2"
_cell_formula_units_Z 36
_cell_length_a 13.572190
_cell_length_b 23.218048
_cell_length_c 4.793192
_cell_angle_alpha 90.000000
_cell_angle_beta 72.979827
_cell_angle_gamma 90.000000
_cell_volume 1444.275349
_symmetry_space_group_name_H-M "C 2/M"
_symmetry_group_IT_number 12
_symmetry_cell_setting 'monoclinic'
loop_
_space_group_symop_operation_xyz
x,y,z
-x,y,-z
-x,-y,-z
x,-y,z
1/2+x,1/2+y,z
1/2-x,1/2+y,-z
1/2-x,1/2-y,-z
1/2+x,1/2-y,z
loop_
_atom_site_type_symbol
_atom_site_label
_atom_site_fract_x
_atom_site_fract_y
_atom_site_fract_z
Si Si1 0.752235 0.125611 0.643031
Si Si2 0.402604 0.063616 0.870092
Si Si3 0.000000 0.334799 0.500000
Si Si4 0.612016 0.360277 0.950703
Si Si5 0.859625 0.266793 0.051770
O O1 0.801516 0.110657 0.309624
O O2 0.693037 0.075504 0.850521
O O3 0.848681 0.140911 0.766162
O O4 0.673417 0.180872 0.716389
O O5 0.413875 0.114335 0.635303
O O6 0.400217 0.000000 0.749054
O O7 0.500000 0.069092 0.000000
O O8 0.948778 0.290950 0.771591
O O9 0.500000 0.385815 0.000000
O O10 0.609668 0.293991 0.843667
O O11 0.750000 0.250000 0.000000
#
# Coordination Sequence:
#
# PCOD9208606 Si02
#       5
#     8   8   4   8   8
#     4  10  23  41  61  94 129 166 216 271 318 380
#     4  10  23  41  68  95 125 168 215 272 337 388
#     4  10  21  38  58  94 130 166 211 262 310 388
#     4  11  23  40  64  90 129 176 217 260 314 381
#     4   9  21  34  58  86 128 169 210 247 310 374
#
# _framework density 24.925996000000001
#
# number of rings (size 3 to 8) (size 9 to 14) (size 15 to 20)
#    0.000    2.000    0.000    1.667   15.556    3.556 
#    0.000    0.000    0.000    4.000    0.000    0.000 
#    0.000    0.000    0.000    0.000    0.000    0.000 
#
# Total GULP energy -100490.996301 kJ/mol
# GULP energy per Si atom -5582.833128 kJ/mol
# Density = 2.486926 g / cm^3
# Si number density = 24.925996 Si / 1000 Ang^3
#
#
#
# Elastic Constant Matrix: (Units=GPa)
#
#
# Indices 1 2 3 4 5 6 
#
# 1 97.6306 8.9600 37.4217 0.0000 -24.5751 0.0000
# 2 8.9600 89.5421 19.3017 0.0000 1.9325 0.0000
# 3 37.4217 19.3017 149.9216 0.0000 -23.5580 0.0000
# 4 0.0000 0.0000 0.0000 18.9362 0.0000 7.5015
# 5 -24.5751 1.9325 -23.5580 0.0000 49.1534 0.0000
# 6 0.0000 0.0000 0.0000 7.5015 0.0000 12.7969
#
#
#
# Elastic Compliance Matrix: (Units=1/GPa)
#
#
# Indices 1 2 3 4 5 6 
#
# 1 0.012475 -0.000892 -0.002178 0.000000 0.005229 0.000000
# 2 -0.000892 0.011622 -0.001531 0.000000 -0.001637 0.000000
# 3 -0.002178 -0.001531 0.007840 0.000000 0.002729 0.000000
# 4 0.000000 0.000000 0.000000 0.068781 0.000000 -0.040319
# 5 0.005229 -0.001637 0.002729 0.000000 0.024331 0.000000
# 6 0.000000 0.000000 0.000000 -0.040319 0.000000 0.101779
#
#
# Mechanical properties :
#
#
# Convention : Reuss Voigt Hill
#
# Bulk Modulus (GPa) = 43.98128 52.05122 48.01625
# Shear Modulus (GPa) = 20.52482 34.27136 27.39809
#
# Velocity S-wave (km/s) = 2.87266 3.71202 3.31898
# Velocity P-wave (km/s) = 5.35593 6.26895 5.83034
#
# Compressibility (1/GPa) = 0.02273695
#
# Stress axis : x y z
#
# Youngs Moduli (GPa) = 80.15830 86.04013 127.55803
#
# Poissons Ratio (x) = 0.07673 0.27776
# Poissons Ratio (y) = 0.07148 0.19528
# Poissons Ratio (z) = 0.17455 0.13172
#
# Static dielectric constant tensor:
#      x y z
#    x 2.164660 0.000000 0.024280 
#    y 0.000000 1.895700 0.000000 
#    z 0.024280 0.000000 1.978230 
# 
# From -- ./inp_files/11240.got.cif
#   From: 2010.05.17/outbox.cif.g08.bks.cpg/sg12_6_cif.got.tgz:11240.got - 2010.06.03 13:09:07.
