data_PCOD9208699
_publ_section_title
;
Structure prediction by ZEFSAII (Michael W. Deem and Ramdas Pophale) SiO2 
 PCOD9208699
Probable space group: C 2/M
;
_chemical_formula_sum "Si O2"
_cell_formula_units_Z 40
_cell_length_a 10.862745
_cell_length_b 29.750785
_cell_length_c 4.946313
_cell_angle_alpha 90.000000
_cell_angle_beta 78.266517
_cell_angle_gamma 90.000000
_cell_volume 1565.123075
_symmetry_space_group_name_H-M "C 2/M"
_symmetry_group_IT_number 12
_symmetry_cell_setting 'monoclinic'
loop_
_space_group_symop_operation_xyz
x,y,z
-x,y,-z
-x,-y,-z
x,-y,z
1/2+x,1/2+y,z
1/2-x,1/2+y,-z
1/2-x,1/2-y,-z
1/2+x,1/2-y,z
loop_
_atom_site_type_symbol
_atom_site_label
_atom_site_fract_x
_atom_site_fract_y
_atom_site_fract_z
Si Si1 0.590370 0.710632 0.723752
Si Si2 0.794215 0.405602 0.337506
Si Si3 0.602021 0.052696 0.173692
Si Si4 0.133393 0.311557 0.594806
Si Si5 0.588327 0.450468 0.711190
O O1 0.500000 0.706705 0.500000
O O2 0.734040 0.692730 0.630730
O O3 0.615554 0.764331 0.753238
O O4 0.500000 0.692948 0.000000
O O5 0.779439 0.435226 0.073466
O O6 0.839343 0.356009 0.244745
O O7 0.668580 0.408504 0.570402
O O8 0.880140 0.427747 0.536670
O O9 0.580200 0.000000 0.204228
O O10 0.500000 0.070885 0.000000
O O11 0.000000 0.319002 0.500000
O O12 0.500000 0.457582 0.500000
O O13 0.656114 0.500000 0.717692
O O14 0.500000 0.441464 0.000000
#
# Coordination Sequence:
#
# PCOD9208699 Si02
#       5
#     8   8   8   8   8
#     4  10  24  46  71  98 135 180 224 275 339 411
#     4  12  24  39  63  93 127 165 216 275 331 387
#     4  11  23  39  59  86 123 166 208 254 316 388
#     4  10  24  43  69 102 137 176 224 280 342 406
#     4  10  21  38  59  84 118 164 217 268 318 378
#
# _framework density 25.557095
#
# number of rings (size 3 to 8) (size 9 to 14) (size 15 to 20)
#    0.000    1.400    0.000    4.800    0.000   17.600 
#    0.000    0.000    0.000    0.000    0.000    0.000 
#    0.000    0.000    0.000    0.000    0.000    0.000 
#
# Total GULP energy -111547.557783 kJ/mol
# GULP energy per Si atom -5577.377889 kJ/mol
# Density = 2.549893 g / cm^3
# Si number density = 25.557095 Si / 1000 Ang^3
#
#
#
# Elastic Constant Matrix: (Units=GPa)
#
#
# Indices 1 2 3 4 5 6 
#
# 1 118.1259 10.3373 7.4230 0.0000 -17.1603 0.0000
# 2 10.3373 92.6566 0.5815 0.0000 5.6174 0.0000
# 3 7.4230 0.5815 160.9165 0.0000 8.6937 0.0000
# 4 0.0000 0.0000 0.0000 12.3996 0.0000 -17.8870
# 5 -17.1603 5.6174 8.6937 0.0000 40.3967 0.0000
# 6 0.0000 0.0000 0.0000 -17.8870 0.0000 10.5999
#
#
#
# Elastic Compliance Matrix: (Units=1/GPa)
#
#
# Indices 1 2 3 4 5 6 
#
# 1 0.009235 -0.001283 -0.000651 0.000000 0.004241 0.000000
# 2 -0.001283 0.011063 0.000133 0.000000 -0.002112 0.000000
# 3 -0.000651 0.000133 0.006333 0.000000 -0.001658 0.000000
# 4 0.000000 0.000000 0.000000 -0.056229 0.000000 -0.094886
# 5 0.004241 -0.002112 -0.001658 0.000000 0.027207 0.000000
# 6 0.000000 0.000000 0.000000 -0.094886 0.000000 -0.065776
#
#
# Mechanical properties :
#
#
# Convention : Reuss Voigt Hill
#
# Bulk Modulus (GPa) = 43.42113 45.37586 44.39850
# Shear Modulus (GPa) = -87.88948 36.23636 -25.82656
#
# Velocity S-wave (km/s) = -5.87061 3.76953 -3.18235
# Velocity P-wave (km/s) = 5.37824 6.06128 1.97657
#
# Compressibility (1/GPa) = 0.02303026
#
# Stress axis : x y z
#
# Youngs Moduli (GPa) = 108.28506 90.39187 157.89067
#
# Poissons Ratio (x) = 0.11600 0.10271
# Poissons Ratio (y) = 0.13897 -0.02105
# Poissons Ratio (z) = 0.07044 -0.01205
#
# Static dielectric constant tensor:
#      x y z
#    x 2.428010 0.000000 -0.262790 
#    y 0.000000 2.121750 0.000000 
#    z -0.262790 0.000000 2.093310 
# 
# From -- ./inp_files/8298.got.cif
#   From: 2010.05.17/outbox.cif.g08.bks.cpg/sg12_5_cif.got.tgz:8298.got - 2010.06.03 13:09:07.
