data_PCOD9208766
_publ_section_title
;
Structure prediction by ZEFSAII (Michael W. Deem and Ramdas Pophale) SiO2 
 PCOD9208766
Probable space group: C 2/M
;
_chemical_formula_sum "Si O2"
_cell_formula_units_Z 40
_cell_length_a 13.266166
_cell_length_b 23.381044
_cell_length_c 7.026337
_cell_angle_alpha 90.000000
_cell_angle_beta 59.329605
_cell_angle_gamma 90.000000
_cell_volume 1874.542568
_symmetry_space_group_name_H-M "C 2/M"
_symmetry_group_IT_number 12
_symmetry_cell_setting 'monoclinic'
loop_
_space_group_symop_operation_xyz
x,y,z
-x,y,-z
-x,-y,-z
x,-y,z
1/2+x,1/2+y,z
1/2-x,1/2+y,-z
1/2-x,1/2-y,-z
1/2+x,1/2-y,z
loop_
_atom_site_type_symbol
_atom_site_label
_atom_site_fract_x
_atom_site_fract_y
_atom_site_fract_z
Si Si1 0.971037 0.294778 0.245243
Si Si2 0.769716 0.369429 0.374727
Si Si3 0.186833 0.750706 0.293175
Si Si4 0.364280 0.349182 0.107258
Si Si5 0.383472 0.433534 0.733420
O O1 0.904792 0.356991 0.303631
O O2 0.867201 0.259343 0.443853
O O3 0.000000 0.285392 0.000000
O O4 0.081686 0.274865 0.263401
O O5 0.728239 0.316198 0.276373
O O6 0.693746 0.370588 0.640845
O O7 0.729674 0.423499 0.291275
O O8 0.290512 0.707897 0.136420
O O9 0.500000 0.335287 0.000000
O O10 0.364188 0.396121 0.940728
O O11 0.500000 0.414628 0.500000
O O12 0.400025 0.500000 0.764433
#
# Coordination Sequence:
#
# PCOD9208766 Si02
#       5
#     8   8   8   8   8
#     4  10  21  38  59  87 130 169 203 250 310 379
#     4  11  24  40  62  95 128 168 212 260 319 380
#     4  10  24  37  59  99 129 164 214 253 314 397
#     4  11  22  40  65  93 131 170 206 261 326 379
#     4  11  25  42  63  95 127 166 223 269 308 369
#
# _framework density 21.338536999999999
#
# number of rings (size 3 to 8) (size 9 to 14) (size 15 to 20)
#    0.000    1.400    2.000    3.600    2.800   10.800 
#    0.000    0.000    0.000    5.400    0.000   14.000 
#    0.000    0.000    0.000    0.000    0.000    0.000 
#
# Total GULP energy -111523.738061 kJ/mol
# GULP energy per Si atom -5576.186903 kJ/mol
# Density = 2.128997 g / cm^3
# Si number density = 21.338537 Si / 1000 Ang^3
#
#
#
# Elastic Constant Matrix: (Units=GPa)
#
#
# Indices 1 2 3 4 5 6 
#
# 1 121.2469 27.1822 53.4618 0.0000 -9.5648 0.0000
# 2 27.1822 77.8716 51.6677 0.0000 6.2300 0.0000
# 3 53.4618 51.6677 165.8353 0.0000 18.2817 0.0000
# 4 0.0000 0.0000 0.0000 29.9395 0.0000 2.5396
# 5 -9.5648 6.2300 18.2817 0.0000 29.8831 0.0000
# 6 0.0000 0.0000 0.0000 2.5396 0.0000 18.5926
#
#
#
# Elastic Compliance Matrix: (Units=1/GPa)
#
#
# Indices 1 2 3 4 5 6 
#
# 1 0.010691 -0.001873 -0.003520 0.000000 0.005966 0.000000
# 2 -0.001873 0.016519 -0.004393 0.000000 -0.001356 0.000000
# 3 -0.003520 -0.004393 0.009176 0.000000 -0.005824 0.000000
# 4 0.000000 0.000000 0.000000 0.033792 0.000000 -0.004616
# 5 0.005966 -0.001356 -0.005824 0.000000 0.039219 0.000000
# 6 0.000000 0.000000 0.000000 -0.004616 0.000000 0.054415
#
#
# Mechanical properties :
#
#
# Convention : Reuss Voigt Hill
#
# Bulk Modulus (GPa) = 59.48342 69.95302 64.71822
# Shear Modulus (GPa) = 26.45645 31.19251 28.82448
#
# Velocity S-wave (km/s) = 3.52496 3.82749 3.67933
# Velocity P-wave (km/s) = 6.67111 7.23785 6.96025
#
# Compressibility (1/GPa) = 0.01681141
#
# Stress axis : x y z
#
# Youngs Moduli (GPa) = 93.54089 60.53660 108.98117
#
# Poissons Ratio (x) = 0.11339 0.38367
# Poissons Ratio (y) = 0.17521 0.47879
# Poissons Ratio (z) = 0.32931 0.26596
#
# Static dielectric constant tensor:
#      x y z
#    x 1.934330 0.000000 0.038600 
#    y 0.000000 1.775910 0.000000 
#    z 0.038600 0.000000 1.815850 
# 
# From -- ./inp_files/77196.got.cif
#   From: 2010.05.17/outbox.cif.g08.bks.cpg/sg12_39_cif.got.tgz:77196.got - 2010.06.03 13:09:07.
