data_PCOD9208854
_publ_section_title
;
Structure prediction by ZEFSAII (Michael W. Deem and Ramdas Pophale) SiO2 
 PCOD9208854
Probable space group: C 2/M
;
_chemical_formula_sum "Si O2"
_cell_formula_units_Z 40
_cell_length_a 27.892999
_cell_length_b 8.675747
_cell_length_c 13.927556
_cell_angle_alpha 90.000000
_cell_angle_beta 139.629956
_cell_angle_gamma 90.000000
_cell_volume 2183.058740
_symmetry_space_group_name_H-M "C 2/M"
_symmetry_group_IT_number 12
_symmetry_cell_setting 'monoclinic'
loop_
_space_group_symop_operation_xyz
x,y,z
-x,y,-z
-x,-y,-z
x,-y,z
1/2+x,1/2+y,z
1/2-x,1/2+y,-z
1/2-x,1/2-y,-z
1/2+x,1/2-y,z
loop_
_atom_site_type_symbol
_atom_site_label
_atom_site_fract_x
_atom_site_fract_y
_atom_site_fract_z
Si Si1 0.526971 0.815523 0.148338
Si Si2 0.467601 0.684360 0.248452
Si Si3 0.671056 0.185036 0.847026
Si Si4 0.818477 0.816118 0.545423
Si Si5 0.876934 0.684846 0.442318
O O1 0.473734 0.749676 0.149762
O O2 0.606146 0.738751 0.288542
O O3 0.533236 0.000000 0.169816
O O4 0.500000 0.782765 0.000000
O O5 0.469152 0.500000 0.249217
O O6 0.394755 0.745085 0.189673
O O7 0.541414 0.745483 0.415038
O O8 0.653559 0.223533 0.709229
O O9 0.670660 0.000000 0.855494
O O10 0.750000 0.250000 0.000000
O O11 0.750000 0.750000 0.500000
O O12 0.825061 0.749278 0.447806
O O13 0.815308 0.000000 0.536740
O O14 0.882129 0.500000 0.458891
#
# Coordination Sequence:
#
# PCOD9208854 Si02
#       5
#     8   8   8   8   8
#     4  10  21  38  60  85 114 149 189 233 280 331
#     4  11  22  37  60  86 114 150 189 230 277 335
#     4  11  24  40  59  84 115 149 186 234 285 333
#     4  11  22  37  59  85 115 150 188 232 280 333
#     4  10  21  39  61  84 112 148 190 233 279 332
#
# _framework density 18.322914999999998
#
# number of rings (size 3 to 8) (size 9 to 14) (size 15 to 20)
#    0.000    1.400    0.000    8.400    0.000    8.800 
#    0.000    0.000    0.000    0.000    0.000    0.000 
#    0.000    0.000    0.000    0.000    0.000    0.000 
#
# Total GULP energy -111819.174470 kJ/mol
# GULP energy per Si atom -5590.958723 kJ/mol
# Density = 1.828121 g / cm^3
# Si number density = 18.322915 Si / 1000 Ang^3
#
#
#
# Elastic Constant Matrix: (Units=GPa)
#
#
# Indices 1 2 3 4 5 6 
#
# 1 203.8207 85.2737 110.5800 0.0000 4.7709 0.0000
# 2 85.2737 126.0320 64.3440 0.0000 -10.8951 0.0000
# 3 110.5800 64.3440 107.2194 0.0000 -18.3550 0.0000
# 4 0.0000 0.0000 0.0000 29.1136 0.0000 5.9283
# 5 4.7709 -10.8951 -18.3550 0.0000 32.3498 0.0000
# 6 0.0000 0.0000 0.0000 5.9283 0.0000 34.4417
#
#
#
# Elastic Compliance Matrix: (Units=1/GPa)
#
#
# Indices 1 2 3 4 5 6 
#
# 1 0.015039 -0.003237 -0.015655 0.000000 -0.012191 0.000000
# 2 -0.003237 0.012136 -0.003503 0.000000 0.002577 0.000000
# 3 -0.015655 -0.003503 0.030756 0.000000 0.018579 0.000000
# 4 0.000000 0.000000 0.000000 0.035596 0.000000 -0.006127
# 5 -0.012191 0.002577 0.018579 0.000000 0.044120 0.000000
# 6 0.000000 0.000000 0.000000 -0.006127 0.000000 0.030089
#
#
# Mechanical properties :
#
#
# Convention : Reuss Voigt Hill
#
# Bulk Modulus (GPa) = 76.10431 106.38529 91.24480
# Shear Modulus (GPa) = 23.05138 30.97264 27.01201
#
# Velocity S-wave (km/s) = 3.55077 4.11588 3.84372
# Velocity P-wave (km/s) = 7.64433 8.98747 8.34298
#
# Compressibility (1/GPa) = 0.01313986
#
# Stress axis : x y z
#
# Youngs Moduli (GPa) = 66.49197 82.39902 32.51448
#
# Poissons Ratio (x) = 0.26673 0.50902
# Poissons Ratio (y) = 0.21524 0.11391
# Poissons Ratio (z) = 1.04094 0.28867
#
# Static dielectric constant tensor:
#      x y z
#    x 1.615880 0.000000 -0.013380 
#    y 0.000000 1.612930 0.000000 
#    z -0.013380 0.000000 1.603070 
# 
# From -- ./inp_files/250235.got.cif
#   From: 2010.05.17/outbox.cif.g08.bks.cpg/sg12_126_cif.got.tgz:250235.got - 2010.06.03 13:09:07.
