data_PCOD9208774
_publ_section_title
;
Structure prediction by ZEFSAII (Michael W. Deem and Ramdas Pophale) SiO2 
 PCOD9208774
Probable space group: C 2/M
;
_chemical_formula_sum "Si O2"
_cell_formula_units_Z 48
_cell_length_a 8.919650
_cell_length_b 31.502052
_cell_length_c 15.258843
_cell_angle_alpha 90.000000
_cell_angle_beta 146.447095
_cell_angle_gamma 90.000000
_cell_volume 2369.752643
_symmetry_space_group_name_H-M "C 2/M"
_symmetry_group_IT_number 12
_symmetry_cell_setting 'monoclinic'
loop_
_space_group_symop_operation_xyz
x,y,z
-x,y,-z
-x,-y,-z
x,-y,z
1/2+x,1/2+y,z
1/2-x,1/2+y,-z
1/2-x,1/2-y,-z
1/2+x,1/2-y,z
loop_
_atom_site_type_symbol
_atom_site_label
_atom_site_fract_x
_atom_site_fract_y
_atom_site_fract_z
Si Si1 0.347793 0.863836 0.295679
Si Si2 0.301312 0.219335 0.170321
Si Si3 0.683499 0.452282 0.824418
Si Si4 0.331227 0.713787 0.326852
Si Si5 0.943840 0.864057 0.666019
Si Si6 0.826813 0.045367 0.827274
O O1 0.288721 0.829410 0.193851
O O2 0.649468 0.857833 0.479235
O O3 0.125164 0.857985 0.264507
O O4 0.341958 0.911977 0.259728
O O5 0.414695 0.246765 0.306895
O O6 0.519981 0.221870 0.200554
O O7 0.000000 0.234216 0.000000
O O8 0.654095 0.500000 0.770645
O O9 0.562703 0.411721 0.714440
O O10 0.522482 0.453445 0.838112
O O11 0.000000 0.445548 0.000000
O O12 0.500000 0.710771 0.500000
O O13 0.370053 0.671369 0.288162
O O14 0.676291 0.000000 0.750591
O O15 0.000000 0.046182 0.000000
#
# Coordination Sequence:
#
# PCOD9208774 Si02
#       6
#     8   8   8   8   8   8
#     4  10  21  38  59  88 122 158 203 250 304 360
#     4  12  26  42  65  93 123 158 204 256 306 369
#     4   9  19  36  58  85 119 160 203 251 303 357
#     4  12  25  44  66  90 123 163 201 254 312 371
#     4  10  22  38  61  87 118 162 203 246 305 369
#     4   9  18  34  57  85 118 157 198 245 300 354
#
# _framework density 20.255278000000001
#
# number of rings (size 3 to 8) (size 9 to 14) (size 15 to 20)
#    0.000    1.667    1.667    2.500    2.333    5.333 
#    0.000    3.333    0.000    0.500    0.000    0.000 
#    0.000    0.000    0.000    0.000    0.000    0.000 
#
# Total GULP energy -133953.161274 kJ/mol
# GULP energy per Si atom -5581.381720 kJ/mol
# Density = 2.020918 g / cm^3
# Si number density = 20.255278 Si / 1000 Ang^3
#
#
#
# Elastic Constant Matrix: (Units=GPa)
#
#
# Indices 1 2 3 4 5 6 
#
# 1 74.0752 53.6900 16.9924 0.0000 10.0695 0.0000
# 2 53.6900 116.6615 12.9252 0.0000 -1.7943 0.0000
# 3 16.9924 12.9252 35.4038 0.0000 4.4157 0.0000
# 4 0.0000 0.0000 0.0000 30.9907 0.0000 -2.7913
# 5 10.0695 -1.7943 4.4157 0.0000 21.2937 0.0000
# 6 0.0000 0.0000 0.0000 -2.7913 0.0000 30.3843
#
#
#
# Elastic Compliance Matrix: (Units=1/GPa)
#
#
# Indices 1 2 3 4 5 6 
#
# 1 0.024097 -0.010556 -0.006344 0.000000 -0.010969 0.000000
# 2 -0.010556 0.013602 -0.000683 0.000000 0.006279 0.000000
# 3 -0.006344 -0.000683 0.032000 0.000000 -0.003694 0.000000
# 4 0.000000 0.000000 0.000000 0.032537 0.000000 0.002989
# 5 -0.010969 0.006279 -0.003694 0.000000 0.053445 0.000000
# 6 0.000000 0.000000 0.000000 0.002989 0.000000 0.033186
#
#
# Mechanical properties :
#
#
# Convention : Reuss Voigt Hill
#
# Bulk Modulus (GPa) = 28.95635 43.70620 36.33128
# Shear Modulus (GPa) = 21.22753 26.03592 23.63173
#
# Velocity S-wave (km/s) = 3.24080 3.58912 3.41940
# Velocity P-wave (km/s) = 5.32263 6.22899 5.79356
#
# Compressibility (1/GPa) = 0.03453474
#
# Stress axis : x y z
#
# Youngs Moduli (GPa) = 41.49894 73.51851 31.24981
#
# Poissons Ratio (x) = 0.77605 0.19824
# Poissons Ratio (y) = 0.43805 0.02133
# Poissons Ratio (z) = 0.26326 0.05019
#
# Static dielectric constant tensor:
#      x y z
#    x 1.704170 0.000000 -0.000200 
#    y 0.000000 1.742900 0.000000 
#    z -0.000200 0.000000 1.702900 
# 
# From -- ./inp_files/201066.got.cif
#   From: 2010.05.17/outbox.cif.g08.bks.cpg/sg12_101_cif.got.tgz:201066.got - 2010.06.03 13:09:07.
