data_PCOD9208632
_publ_section_title
;
Structure prediction by ZEFSAII (Michael W. Deem and Ramdas Pophale) SiO2 
 PCOD9208632
Probable space group: C 2/M
;
_chemical_formula_sum "Si O2"
_cell_formula_units_Z 58
_cell_length_a 14.060052
_cell_length_b 7.581891
_cell_length_c 24.941774
_cell_angle_alpha 90.000000
_cell_angle_beta 118.158200
_cell_angle_gamma 90.000000
_cell_volume 2344.158715
_symmetry_space_group_name_H-M "C 2/M"
_symmetry_group_IT_number 12
_symmetry_cell_setting 'monoclinic'
loop_
_space_group_symop_operation_xyz
x,y,z
-x,y,-z
-x,-y,-z
x,-y,z
1/2+x,1/2+y,z
1/2-x,1/2+y,-z
1/2-x,1/2-y,-z
1/2+x,1/2-y,z
loop_
_atom_site_type_symbol
_atom_site_label
_atom_site_fract_x
_atom_site_fract_y
_atom_site_fract_z
Si Si1 0.755041 0.288081 0.919672
Si Si2 0.299268 0.294464 0.208931
Si Si3 0.180472 0.289574 0.552843
Si Si4 0.430391 0.692058 0.051047
Si Si5 0.919467 0.702175 0.577626
Si Si6 0.027655 0.714247 0.296114
Si Si7 0.000000 0.500000 0.000000
Si Si8 0.762701 0.787737 0.318120
O O1 0.785862 0.500000 0.932341
O O2 0.756233 0.223732 0.859203
O O3 0.833142 0.191583 0.981390
O O4 0.633992 0.272806 0.911114
O O5 0.268172 0.500000 0.202545
O O6 0.427641 0.280487 0.235812
O O7 0.281532 0.216784 0.263382
O O8 0.190615 0.500000 0.547330
O O9 0.094971 0.223401 0.485855
O O10 0.295456 0.204473 0.567455
O O11 0.162467 0.261318 0.611127
O O12 0.481813 0.500000 0.066676
O O13 0.502931 0.846191 0.047930
O O14 0.955569 0.500000 0.581546
O O15 0.981824 0.782387 0.644827
O O16 0.026089 0.500000 0.297177
O O17 0.142439 0.768989 0.303321
O O18 0.765645 0.000000 0.316549
#
# Coordination Sequence:
#
# PCOD9208632 Si02
#       8
#     8   8   8   8   8   8   2   8
#     4   9  19  40  62  86 119 165 202 242 296 360
#     4  10  21  38  59  81 112 154 193 233 289 343
#     4   9  15  25  47  74  98 132 179 232 285 340
#     4  10  21  39  66  95 130 163 203 247 301 354
#     4   8  15  28  46  69 101 138 175 223 291 352
#     4   9  18  34  52  76 107 142 187 236 282 345
#     4  12  22  40  64 106 132 162 194 260 300 346
#     4   9  19  36  53  74 108 148 185 229 288 351
#
# _framework density 24.742350999999999
#
# number of rings (size 3 to 8) (size 9 to 14) (size 15 to 20)
#    0.000    2.759    0.690    1.448    0.966    3.862 
#    2.483    0.690    0.000    4.138    0.000    0.000 
#    0.000    0.000    0.000    0.000    0.000    0.000 
#
# Total GULP energy -161749.460595 kJ/mol
# GULP energy per Si atom -5577.567607 kJ/mol
# Density = 2.468604 g / cm^3
# Si number density = 24.742351 Si / 1000 Ang^3
#
#
#
# Elastic Constant Matrix: (Units=GPa)
#
#
# Indices 1 2 3 4 5 6 
#
# 1 58.3698 18.0699 29.3155 0.0000 -17.0936 0.0000
# 2 18.0699 92.4170 -0.9017 0.0000 -18.4923 0.0000
# 3 29.3155 -0.9017 187.6178 0.0000 -21.3267 0.0000
# 4 0.0000 0.0000 0.0000 16.5924 0.0000 1.5180
# 5 -17.0936 -18.4923 -21.3267 0.0000 34.2971 0.0000
# 6 0.0000 0.0000 0.0000 1.5180 0.0000 24.9921
#
#
#
# Elastic Compliance Matrix: (Units=1/GPa)
#
#
# Indices 1 2 3 4 5 6 
#
# 1 0.021470 -0.002680 -0.002492 0.000000 0.007706 0.000000
# 2 -0.002680 0.012595 0.001183 0.000000 0.006191 0.000000
# 3 -0.002492 0.001183 0.006087 0.000000 0.003181 0.000000
# 4 0.000000 0.000000 0.000000 0.060605 0.000000 -0.003681
# 5 0.007706 0.006191 0.003181 0.000000 0.038313 0.000000
# 6 0.000000 0.000000 0.000000 -0.003681 0.000000 0.040236
#
#
# Mechanical properties :
#
#
# Convention : Reuss Voigt Hill
#
# Bulk Modulus (GPa) = 31.08136 47.93023 39.50580
# Shear Modulus (GPa) = 25.25141 34.63772 29.94456
#
# Velocity S-wave (km/s) = 3.19811 3.74563 3.48265
# Velocity P-wave (km/s) = 5.12118 6.17415 5.67215
#
# Compressibility (1/GPa) = 0.03217362
#
# Stress axis : x y z
#
# Youngs Moduli (GPa) = 46.57656 79.39747 164.29650
#
# Poissons Ratio (x) = 0.21281 0.40937
# Poissons Ratio (y) = 0.12484 -0.19437
# Poissons Ratio (z) = 0.11605 -0.09393
#
# Static dielectric constant tensor:
#      x y z
#    x 1.856270 0.000000 -0.085590 
#    y 0.000000 1.935520 0.000000 
#    z -0.085590 0.000000 1.933770 
# 
# From -- ./inp_files/342016.got.cif
#   From: 2010.05.17/outbox.cif.g08.bks.cpg/sg12_172_cif.got.tgz:342016.got - 2010.06.03 13:09:07.
