data_PCOD9208863
_publ_section_title
;
Structure prediction by ZEFSAII (Michael W. Deem and Ramdas Pophale) SiO2 
 PCOD9208863
Probable space group: C 2/M
;
_chemical_formula_sum "Si O2"
_cell_formula_units_Z 56
_cell_length_a 9.307415
_cell_length_b 25.626017
_cell_length_c 19.106949
_cell_angle_alpha 90.000000
_cell_angle_beta 41.484757
_cell_angle_gamma 90.000000
_cell_volume 3018.807885
_symmetry_space_group_name_H-M "C 2/M"
_symmetry_group_IT_number 12
_symmetry_cell_setting 'monoclinic'
loop_
_space_group_symop_operation_xyz
x,y,z
-x,y,-z
-x,-y,-z
x,-y,z
1/2+x,1/2+y,z
1/2-x,1/2+y,-z
1/2-x,1/2-y,-z
1/2+x,1/2-y,z
loop_
_atom_site_type_symbol
_atom_site_label
_atom_site_fract_x
_atom_site_fract_y
_atom_site_fract_z
Si Si1 0.963619 0.062655 0.726253
Si Si2 0.594993 0.266562 0.249634
Si Si3 0.638496 0.438501 0.512177
Si Si4 0.618552 0.790185 0.389036
Si Si5 0.572297 0.140170 0.893575
Si Si6 0.421463 0.910979 0.605086
Si Si7 0.243648 0.794580 0.940026
O O1 0.736518 0.092133 0.821059
O O2 0.053829 0.081802 0.617716
O O3 0.166978 0.075890 0.703808
O O4 0.935680 0.000000 0.737181
O O5 0.592715 0.240955 0.326751
O O6 0.369029 0.294322 0.317712
O O7 0.785199 0.308276 0.172841
O O8 0.626556 0.225742 0.175103
O O9 0.500000 0.414679 0.500000
O O10 0.592728 0.500000 0.531692
O O11 0.896783 0.432803 0.409321
O O12 0.500000 0.766206 0.500000
O O13 0.540005 0.849145 0.407592
O O14 0.356148 0.152691 0.927555
O O15 0.500000 0.138780 0.000000
O O16 0.500000 0.931645 0.500000
O O17 0.250000 0.750000 0.000000
O O18 0.000000 0.801332 0.000000
#
# Coordination Sequence:
#
# PCOD9208863 Si02
#       7
#     8   8   8   8   8   8   8
#     4  10  21  38  60  85 116 152 192 240 294 343
#     4  12  21  38  59  82 120 156 190 233 292 338
#     4   9  18  35  58  86 119 150 191 241 285 342
#     4  11  23  37  54  87 127 159 186 229 280 357
#     4  12  24  39  61  85 114 148 199 252 293 345
#     4   9  18  34  58  84 114 155 197 230 275 343
#     4  12  21  38  62  88 111 147 198 250 289 338
#
# _framework density 18.550369
#
# number of rings (size 3 to 8) (size 9 to 14) (size 15 to 20)
#    0.000    1.286    5.714    0.857    0.000    3.143 
#    0.000    0.000    0.000    0.429    0.000    0.000 
#    0.000    0.000    0.000    0.000    0.000    0.000 
#
# Total GULP energy -156079.714301 kJ/mol
# GULP energy per Si atom -5574.275511 kJ/mol
# Density = 1.850815 g / cm^3
# Si number density = 18.550369 Si / 1000 Ang^3
#
#
#
# Elastic Constant Matrix: (Units=GPa)
#
#
# Indices 1 2 3 4 5 6 
#
# 1 125.6434 20.9881 37.9478 0.0000 -6.9715 0.0000
# 2 20.9881 53.5379 20.6770 0.0000 7.6471 0.0000
# 3 37.9478 20.6770 88.5782 0.0001 8.0928 0.0000
# 4 0.0000 0.0000 0.0001 13.5657 0.0000 -8.7400
# 5 -6.9715 7.6471 8.0928 0.0000 33.1223 0.0000
# 6 0.0000 0.0000 0.0000 -8.7400 0.0000 20.7335
#
#
#
# Elastic Compliance Matrix: (Units=1/GPa)
#
#
# Indices 1 2 3 4 5 6 
#
# 1 0.009812 -0.002878 -0.003867 0.000000 0.003674 0.000000
# 2 -0.002878 0.021814 -0.003420 0.000000 -0.004806 0.000000
# 3 -0.003867 -0.003420 0.014061 0.000000 -0.003460 0.000000
# 4 0.000000 0.000000 0.000000 0.101199 0.000000 0.042660
# 5 0.003674 -0.004806 -0.003460 0.000000 0.032920 0.000000
# 6 0.000000 0.000000 0.000000 0.042660 0.000000 0.066214
#
#
# Mechanical properties :
#
#
# Convention : Reuss Voigt Hill
#
# Bulk Modulus (GPa) = 39.43839 47.44280 43.44060
# Shear Modulus (GPa) = 18.19495 26.02741 22.11118
#
# Velocity S-wave (km/s) = 3.13523 3.74982 3.45621
# Velocity P-wave (km/s) = 5.86622 6.66174 6.27660
#
# Compressibility (1/GPa) = 0.02535601
#
# Stress axis : x y z
#
# Youngs Moduli (GPa) = 101.91943 45.84244 71.11979
#
# Poissons Ratio (x) = 0.13192 0.27505
# Poissons Ratio (y) = 0.29328 0.24324
# Poissons Ratio (z) = 0.39416 0.15679
#
# Static dielectric constant tensor:
#      x y z
#    x 1.704510 0.000000 -0.021780 
#    y 0.000000 1.645220 0.000000 
#    z -0.021780 0.000000 1.662420 
# 
# From -- ./inp_files/125355.got.cif
#   From: 2010.05.17/outbox.cif.g08.bks.cpg/sg12_63_cif.got.tgz:125355.got - 2010.06.03 13:09:07.
