data_PCOD9208560
_publ_section_title
;
Structure prediction by ZEFSAII (Michael W. Deem and Ramdas Pophale) SiO2 
 PCOD9208560
Probable space group: C 2/M
;
_chemical_formula_sum "Si O2"
_cell_formula_units_Z 56
_cell_length_a 27.484673
_cell_length_b 8.752209
_cell_length_c 12.149487
_cell_angle_alpha 90.000000
_cell_angle_beta 103.504946
_cell_angle_gamma 90.000000
_cell_volume 2841.768581
_symmetry_space_group_name_H-M "C 2/M"
_symmetry_group_IT_number 12
_symmetry_cell_setting 'monoclinic'
loop_
_space_group_symop_operation_xyz
x,y,z
-x,y,-z
-x,-y,-z
x,-y,z
1/2+x,1/2+y,z
1/2-x,1/2+y,-z
1/2-x,1/2-y,-z
1/2+x,1/2-y,z
loop_
_atom_site_type_symbol
_atom_site_label
_atom_site_fract_x
_atom_site_fract_y
_atom_site_fract_z
Si Si1 0.805345 0.817907 0.021721
Si Si2 0.897839 0.184452 0.212532
Si Si3 0.493375 0.315700 0.122038
Si Si4 0.617316 0.183218 0.565712
Si Si5 0.321884 0.817021 0.798804
Si Si6 0.915111 0.316060 0.692288
Si Si7 0.227898 0.816673 0.601203
O O1 0.828141 0.768593 0.916714
O O2 0.801677 0.000000 0.026104
O O3 0.750000 0.750000 0.000000
O O4 0.843680 0.766804 0.137103
O O5 0.940556 0.229055 0.148109
O O6 0.907677 0.254534 0.336930
O O7 0.897553 0.000000 0.221152
O O8 0.495152 0.500000 0.121493
O O9 0.537916 0.255467 0.221559
O O10 0.500000 0.261198 0.000000
O O11 0.591208 0.232207 0.437869
O O12 0.673823 0.246285 0.593589
O O13 0.618542 0.000000 0.567986
O O14 0.364766 0.776814 0.733560
O O15 0.267883 0.780928 0.717860
O O16 0.323901 0.000000 0.818218
O O17 0.919542 0.500000 0.696423
O O18 0.250000 0.750000 0.500000
O O19 0.224217 0.000000 0.591522
#
# Coordination Sequence:
#
# PCOD9208560 Si02
#       7
#     8   8   8   8   8   8   8
#     4  11  23  39  60  87 119 156 198 244 296 355
#     4  10  23  42  61  86 122 159 197 248 305 356
#     4  10  22  42  66  90 117 152 200 251 299 359
#     4  11  23  40  60  88 124 160 203 247 296 361
#     4  10  21  38  58  84 121 157 195 247 297 350
#     4  10  22  40  60  87 121 154 195 247 300 354
#     4  11  21  36  58  86 123 163 201 244 295 351
#
# _framework density 19.706036999999998
#
# number of rings (size 3 to 8) (size 9 to 14) (size 15 to 20)
#    0.000    1.571    1.429    3.000    0.000   10.000 
#    0.000    2.857    0.000    0.000    0.000    0.000 
#    0.000    0.000    0.000    0.000    0.000    0.000 
#
# Total GULP energy -156535.297330 kJ/mol
# GULP energy per Si atom -5590.546333 kJ/mol
# Density = 1.966119 g / cm^3
# Si number density = 19.706037 Si / 1000 Ang^3
#
#
#
# Elastic Constant Matrix: (Units=GPa)
#
#
# Indices 1 2 3 4 5 6 
#
# 1 107.6106 25.1980 65.9281 0.0000 0.6772 0.0000
# 2 25.1980 19.7086 33.4464 0.0000 -0.2398 0.0000
# 3 65.9281 33.4464 157.3520 0.0000 -4.2911 0.0000
# 4 0.0000 0.0000 0.0000 35.5642 0.0000 -1.9746
# 5 0.6772 -0.2398 -4.2911 0.0000 39.3504 0.0000
# 6 0.0000 0.0000 0.0000 -1.9746 0.0000 33.4314
#
#
#
# Elastic Compliance Matrix: (Units=1/GPa)
#
#
# Indices 1 2 3 4 5 6 
#
# 1 0.014292 -0.012651 -0.003318 0.000000 -0.000685 0.000000
# 2 -0.012651 0.090639 -0.013986 0.000000 -0.000755 0.000000
# 3 -0.003318 -0.013986 0.010749 0.000000 0.001144 0.000000
# 4 0.000000 0.000000 0.000000 0.028211 0.000000 0.001666
# 5 -0.000685 -0.000755 0.001144 0.000000 0.025545 0.000000
# 6 0.000000 0.000000 0.000000 0.001666 0.000000 0.030010
#
#
# Mechanical properties :
#
#
# Convention : Reuss Voigt Hill
#
# Bulk Modulus (GPa) = 17.93035 59.31292 38.62163
# Shear Modulus (GPa) = 17.98910 32.34245 25.16578
#
# Velocity S-wave (km/s) = 3.02466 4.05562 3.57747
# Velocity P-wave (km/s) = 4.61700 7.21769 6.05854
#
# Compressibility (1/GPa) = 0.05577136
#
# Stress axis : x y z
#
# Youngs Moduli (GPa) = 69.96914 11.03275 93.02855
#
# Poissons Ratio (x) = 0.13957 0.30865
# Poissons Ratio (y) = 0.88515 1.30112
# Poissons Ratio (z) = 0.23215 0.15431
#
# Static dielectric constant tensor:
#      x y z
#    x 1.708060 0.000000 -0.011380 
#    y 0.000000 1.661200 0.000000 
#    z -0.011380 0.000000 1.684230 
# 
# From -- ./inp_files/181003.got.cif
#   From: 2010.05.17/outbox.cif.g08.bks.cpg/sg12_91_cif.got.tgz:181003.got - 2010.06.03 13:09:07.
