data_PCOD9208030
_publ_section_title
;
Structure prediction by ZEFSAII (Michael W. Deem and Ramdas Pophale) SiO2 
 PCOD9208030
Probable space group: C 2/M
;
_chemical_formula_sum "Si O2"
_cell_formula_units_Z 56
_cell_length_a 19.674230
_cell_length_b 12.954103
_cell_length_c 11.894892
_cell_angle_alpha 90.000000
_cell_angle_beta 65.693504
_cell_angle_gamma 90.000000
_cell_volume 2762.828602
_symmetry_space_group_name_H-M "C 2/M"
_symmetry_group_IT_number 12
_symmetry_cell_setting 'monoclinic'
loop_
_space_group_symop_operation_xyz
x,y,z
-x,y,-z
-x,-y,-z
x,-y,z
1/2+x,1/2+y,z
1/2-x,1/2+y,-z
1/2-x,1/2-y,-z
1/2+x,1/2-y,z
loop_
_atom_site_type_symbol
_atom_site_label
_atom_site_fract_x
_atom_site_fract_y
_atom_site_fract_z
Si Si1 0.691963 0.618540 0.449098
Si Si2 0.859249 0.791694 0.154051
Si Si3 0.407519 0.372774 0.884873
Si Si4 0.430258 0.616928 0.308369
Si Si5 0.141910 0.619682 0.670050
Si Si6 0.188038 0.231255 0.237974
Si Si7 0.083703 0.379147 0.457789
O O1 0.694741 0.500000 0.482940
O O2 0.620139 0.664931 0.559304
O O3 0.774517 0.659600 0.415655
O O4 0.683818 0.631970 0.322441
O O5 0.875929 0.877259 0.237557
O O6 0.884989 0.690103 0.207746
O O7 0.773138 0.771890 0.178745
O O8 0.902187 0.829232 0.014783
O O9 0.399216 0.500000 0.889766
O O10 0.488426 0.342772 0.778860
O O11 0.346277 0.309930 0.854264
O O12 0.446103 0.500000 0.331516
O O13 0.146537 0.500000 0.703567
O O14 0.100132 0.621065 0.580082
O O15 0.139628 0.315749 0.339640
O O16 0.086812 0.500000 0.420815
O O17 0.000000 0.339149 0.500000
#
# Coordination Sequence:
#
# PCOD9208030 Si02
#       7
#     8   8   8   8   8   8   8
#     4   9  18  34  59  92 121 147 190 247 311 374
#     4  11  22  39  61  88 118 162 212 247 292 359
#     4  11  25  42  60  88 128 166 203 252 306 360
#     4  10  21  37  61  90 119 154 197 253 315 371
#     4   9  19  37  62  90 121 155 195 251 304 356
#     4  11  23  37  60  90 120 162 202 246 306 362
#     4  10  22  38  57  86 122 156 195 246 306 360
#
# _framework density 20.269082000000001
#
# number of rings (size 3 to 8) (size 9 to 14) (size 15 to 20)
#    0.000    1.857    0.000    3.429    4.000    6.286 
#    0.000    2.857    0.000    1.714    0.000    0.000 
#    0.000    0.000    0.000    0.000    0.000    0.000 
#
# Total GULP energy -155979.841627 kJ/mol
# GULP energy per Si atom -5570.708630 kJ/mol
# Density = 2.022295 g / cm^3
# Si number density = 20.269082 Si / 1000 Ang^3
#
#
#
# Elastic Constant Matrix: (Units=GPa)
#
#
# Indices 1 2 3 4 5 6 
#
# 1 27.2727 12.6871 8.6360 0.0000 -1.2897 0.0000
# 2 12.6871 69.1323 -6.0300 0.0000 -3.5318 0.0000
# 3 8.6360 -6.0300 49.8703 0.0000 2.4837 0.0000
# 4 0.0000 0.0000 0.0000 29.7284 0.0000 1.6061
# 5 -1.2897 -3.5318 2.4837 0.0000 29.3876 0.0000
# 6 0.0000 0.0000 0.0000 1.6061 0.0000 28.5278
#
#
#
# Elastic Compliance Matrix: (Units=1/GPa)
#
#
# Indices 1 2 3 4 5 6 
#
# 1 0.043513 -0.008659 -0.008662 0.000000 0.001601 0.000000
# 2 -0.008659 0.016419 0.003420 0.000000 0.001304 0.000000
# 3 -0.008662 0.003420 0.022057 0.000000 -0.001833 0.000000
# 4 0.000000 0.000000 0.000000 0.033741 0.000000 -0.001900
# 5 0.001601 0.001304 -0.001833 0.000000 0.034410 0.000000
# 6 0.000000 0.000000 0.000000 -0.001900 0.000000 0.035160
#
#
# Mechanical properties :
#
#
# Convention : Reuss Voigt Hill
#
# Bulk Modulus (GPa) = 18.45475 19.65129 19.05302
# Shear Modulus (GPa) = 21.62954 26.26088 23.94521
#
# Velocity S-wave (km/s) = 3.27022 3.60337 3.44083
# Velocity P-wave (km/s) = 4.83568 5.19890 5.02058
#
# Compressibility (1/GPa) = 0.05418659
#
# Stress axis : x y z
#
# Youngs Moduli (GPa) = 22.98138 60.90475 45.33743
#
# Poissons Ratio (x) = 0.52739 0.39271
# Poissons Ratio (y) = 0.19900 -0.15505
# Poissons Ratio (z) = 0.19906 -0.20828
#
# Static dielectric constant tensor:
#      x y z
#    x 1.759870 0.000000 0.000140 
#    y 0.000000 1.763320 0.000000 
#    z 0.000140 0.000000 1.725630 
# 
# From -- ./inp_files/156544.got.cif
#   From: 2010.05.17/outbox.cif.g08.bks.cpg/sg12_79_cif.got.tgz:156544.got - 2010.06.03 13:09:07.
