data_PCOD9208014
_publ_section_title
;
Structure prediction by ZEFSAII (Michael W. Deem and Ramdas Pophale) SiO2 
 PCOD9208014
Probable space group: C 2/M
;
_chemical_formula_sum "Si O2"
_cell_formula_units_Z 44
_cell_length_a 9.345501
_cell_length_b 21.052772
_cell_length_c 15.225620
_cell_angle_alpha 90.000000
_cell_angle_beta 47.866814
_cell_angle_gamma 90.000000
_cell_volume 2221.514772
_symmetry_space_group_name_H-M "C 2/M"
_symmetry_group_IT_number 12
_symmetry_cell_setting 'monoclinic'
loop_
_space_group_symop_operation_xyz
x,y,z
-x,y,-z
-x,-y,-z
x,-y,z
1/2+x,1/2+y,z
1/2-x,1/2+y,-z
1/2-x,1/2-y,-z
1/2+x,1/2-y,z
loop_
_atom_site_type_symbol
_atom_site_label
_atom_site_fract_x
_atom_site_fract_y
_atom_site_fract_z
Si Si1 0.139544 0.886956 0.868230
Si Si2 0.437326 0.660751 0.288358
Si Si3 0.381955 0.427650 0.638732
Si Si4 0.787466 0.745726 0.087526
Si Si5 0.951177 0.572298 0.341740
Si Si6 0.500000 0.152359 0.500000
O O1 0.056066 0.879068 0.805008
O O2 0.189111 0.814917 0.878652
O O3 0.332122 0.926511 0.780959
O O4 0.000000 0.913035 0.000000
O O5 0.505785 0.616024 0.339445
O O6 0.604186 0.713090 0.208562
O O7 0.212641 0.683718 0.393399
O O8 0.500000 0.430102 0.500000
O O9 0.359495 0.500000 0.681874
O O10 0.178756 0.401970 0.684974
O O11 0.750000 0.750000 0.000000
O O12 0.000000 0.713240 0.000000
O O13 0.886276 0.500000 0.386650
O O14 0.954730 0.611227 0.431115
#
# Coordination Sequence:
#
# PCOD9208014 Si02
#       6
#     8   8   8   8   8   4
#     4  10  22  40  61  91 122 160 214 255 308 375
#     4  11  22  38  66  92 123 169 205 259 314 371
#     4  10  21  38  60  91 125 162 209 252 304 371
#     4  11  22  42  67  89 119 165 211 259 308 368
#     4  10  21  37  61  88 125 164 200 253 312 372
#     4  10  21  38  60  94 124 158 207 248 312 382
#
# _framework density 19.806307
#
# number of rings (size 3 to 8) (size 9 to 14) (size 15 to 20)
#    0.000    1.636    5.455    0.273    2.545    3.273 
#    0.000    3.636   10.000    2.727    0.000    0.000 
#    0.000    0.000    0.000    0.000    0.000    0.000 
#
# Total GULP energy -122564.860836 kJ/mol
# GULP energy per Si atom -5571.130038 kJ/mol
# Density = 1.976123 g / cm^3
# Si number density = 19.806307 Si / 1000 Ang^3
#
#
#
# Elastic Constant Matrix: (Units=GPa)
#
#
# Indices 1 2 3 4 5 6 
#
# 1 144.8709 31.3954 43.4867 0.0000 1.0660 0.0000
# 2 31.3954 39.2247 22.0417 0.0000 -5.4955 0.0000
# 3 43.4867 22.0417 119.3593 0.0000 -11.6760 0.0000
# 4 0.0000 0.0000 0.0000 17.4882 0.0000 -14.3276
# 5 1.0660 -5.4955 -11.6760 0.0000 43.7825 0.0000
# 6 0.0000 0.0000 0.0000 -14.3276 0.0000 16.1666
#
#
#
# Elastic Compliance Matrix: (Units=1/GPa)
#
#
# Indices 1 2 3 4 5 6 
#
# 1 0.008916 -0.006077 -0.002282 0.000000 -0.001588 0.000000
# 2 -0.006077 0.032801 -0.003518 0.000000 0.003327 0.000000
# 3 -0.002282 -0.003518 0.010084 0.000000 0.002303 0.000000
# 4 0.000000 0.000000 0.000000 0.208747 0.000000 0.185001
# 5 -0.001588 0.003327 0.002303 0.000000 0.023911 0.000000
# 6 0.000000 0.000000 0.000000 0.185001 0.000000 0.225812
#
#
# Mechanical properties :
#
#
# Convention : Reuss Voigt Hill
#
# Bulk Modulus (GPa) = 35.65216 55.25582 45.45399
# Shear Modulus (GPa) = 9.20178 29.25621 19.22899
#
# Velocity S-wave (km/s) = 2.15777 3.84750 3.11923
# Velocity P-wave (km/s) = 4.92417 6.90625 5.99766
#
# Compressibility (1/GPa) = 0.02804879
#
# Stress axis : x y z
#
# Youngs Moduli (GPa) = 112.15504 30.48687 99.16424
#
# Poissons Ratio (x) = 0.18527 0.22626
# Poissons Ratio (y) = 0.68156 0.34884
# Poissons Ratio (z) = 0.25590 0.10725
#
# Static dielectric constant tensor:
#      x y z
#    x 1.888540 0.000000 -0.103090 
#    y 0.000000 1.696370 0.000000 
#    z -0.103090 0.000000 1.755080 
# 
# From -- ./inp_files/198238.got.cif
#   From: 2010.05.17/outbox.cif.g08.bks.cpg/sg12_100_cif.got.tgz:198238.got - 2010.06.03 13:09:07.
