data_PCOD9208660
_publ_section_title
;
Structure prediction by ZEFSAII (Michael W. Deem and Ramdas Pophale) SiO2 
 PCOD9208660
Probable space group: C 2/M
;
_chemical_formula_sum "Si O2"
_cell_formula_units_Z 64
_cell_length_a 22.558617
_cell_length_b 17.096688
_cell_length_c 20.054825
_cell_angle_alpha 90.000000
_cell_angle_beta 23.119155
_cell_angle_gamma 90.000000
_cell_volume 3036.987266
_symmetry_space_group_name_H-M "C 2/M"
_symmetry_group_IT_number 12
_symmetry_cell_setting 'monoclinic'
loop_
_space_group_symop_operation_xyz
x,y,z
-x,y,-z
-x,-y,-z
x,-y,z
1/2+x,1/2+y,z
1/2-x,1/2+y,-z
1/2-x,1/2-y,-z
1/2+x,1/2-y,z
loop_
_atom_site_type_symbol
_atom_site_label
_atom_site_fract_x
_atom_site_fract_y
_atom_site_fract_z
Si Si1 0.336295 0.654269 0.147885
Si Si2 0.328860 0.594025 0.767097
Si Si3 0.856849 0.409196 0.539373
Si Si4 0.170324 0.663949 0.807616
Si Si5 0.219198 0.339829 0.516813
Si Si6 0.209650 0.592585 0.151327
Si Si7 0.389636 0.905739 0.889465
Si Si8 0.847951 0.907326 0.509068
O O1 0.210242 0.607243 0.319009
O O2 0.324587 0.743826 0.183536
O O3 0.311356 0.642962 0.095284
O O4 0.500000 0.624356 0.000000
O O5 0.330054 0.500000 0.764038
O O6 0.288192 0.625012 0.736669
O O7 0.490191 0.618557 0.629545
O O8 0.197108 0.618584 0.954401
O O9 0.839243 0.500000 0.539526
O O10 0.771744 0.359479 0.570764
O O11 0.034864 0.392162 0.351812
O O12 0.220884 0.639226 0.681759
O O13 0.000000 0.636635 0.000000
O O14 0.250000 0.250000 0.500000
O O15 0.329369 0.389272 0.450423
O O16 0.049262 0.364601 0.713443
O O17 0.240321 0.500000 0.129528
O O18 0.214787 0.609450 0.067296
O O19 0.415730 0.000000 0.864050
O O20 0.829786 0.000000 0.539411
#
# Coordination Sequence:
#
# PCOD9208660 Si02
#       8
#     8   8   8   8   8   8   8   8
#     4  11  24  38  55  84 118 150 189 239 292 342
#     4  10  22  39  61  89 117 149 193 243 290 342
#     4  10  21  38  59  83 113 152 197 237 279 340
#     4  11  24  40  58  84 118 155 194 237 289 349
#     4  11  22  37  60  89 119 153 193 236 286 344
#     4   9  19  37  61  85 110 149 196 235 277 339
#     4   9  19  39  63  86 116 154 195 235 283 347
#     4  11  23  40  62  88 117 150 192 241 291 341
#
# _framework density 21.073515
#
# number of rings (size 3 to 8) (size 9 to 14) (size 15 to 20)
#    0.000    1.750    0.000    4.875    0.000   11.000 
#    0.000    2.500    0.000    0.000    0.000    0.000 
#    0.000    0.000    0.000    0.000    0.000    0.000 
#
# Total GULP energy -178924.856576 kJ/mol
# GULP energy per Si atom -5591.401768 kJ/mol
# Density = 2.102555 g / cm^3
# Si number density = 21.073515 Si / 1000 Ang^3
#
#
#
# Elastic Constant Matrix: (Units=GPa)
#
#
# Indices 1 2 3 4 5 6 
#
# 1 98.0740 13.1268 -6.6291 -0.0068 -9.5028 0.0027
# 2 13.1268 32.2421 2.2462 -0.0055 -12.1937 0.0019
# 3 -6.6291 2.2462 27.7835 -0.0045 -1.9149 0.0052
# 4 -0.0068 -0.0055 -0.0045 20.3212 -0.0040 -12.9031
# 5 -9.5028 -12.1937 -1.9149 -0.0040 29.5220 0.0043
# 6 0.0027 0.0019 0.0052 -12.9031 0.0043 71.9626
#
#
#
# Elastic Compliance Matrix: (Units=1/GPa)
#
#
# Indices 1 2 3 4 5 6 
#
# 1 0.011144 -0.003937 0.003126 0.000004 0.002164 0.000000
# 2 -0.003937 0.038251 -0.003044 0.000012 0.014335 0.000001
# 3 0.003126 -0.003044 0.037133 0.000008 0.002158 -0.000001
# 4 0.000004 0.000012 0.000008 0.055532 0.000013 0.009957
# 5 0.002164 0.014335 0.002158 0.000013 0.040630 -0.000001
# 6 0.000000 0.000001 -0.000001 0.009957 -0.000001 0.015681
#
#
# Mechanical properties :
#
#
# Convention : Reuss Voigt Hill
#
# Bulk Modulus (GPa) = 12.68694 19.50970 16.09832
# Shear Modulus (GPa) = 21.51886 34.31820 27.91853
#
# Velocity S-wave (km/s) = 3.19898 4.03984 3.64375
# Velocity P-wave (km/s) = 4.43600 5.57122 5.03570
#
# Compressibility (1/GPa) = 0.07882119
#
# Stress axis : x y z
#
# Youngs Moduli (GPa) = 89.73207 26.14289 26.92998
#
# Poissons Ratio (x) = 0.10291 -0.08419
# Poissons Ratio (y) = 0.35324 0.08197
# Poissons Ratio (z) = -0.28054 0.07957
#
# Static dielectric constant tensor:
#      x y z
#    x 1.740790 0.000000 -0.011920 
#    y 0.000000 1.734730 0.000000 
#    z -0.011920 0.000000 1.739660 
# 
# From -- ./inp_files/326084.got.cif
#   From: 2010.05.17/outbox.cif.g08.bks.cpg/sg12_164_cif.got.tgz:326084.got - 2010.06.03 13:09:07.
