data_PCOD9208557
_publ_section_title
;
Structure prediction by ZEFSAII (Michael W. Deem and Ramdas Pophale) SiO2 
 PCOD9208557
Probable space group: C 2/M
;
_chemical_formula_sum "Si O2"
_cell_formula_units_Z 40
_cell_length_a 16.669916
_cell_length_b 15.179056
_cell_length_c 11.136255
_cell_angle_alpha 90.000000
_cell_angle_beta 35.515151
_cell_angle_gamma 90.000000
_cell_volume 1636.938399
_symmetry_space_group_name_H-M "C 2/M"
_symmetry_group_IT_number 12
_symmetry_cell_setting 'monoclinic'
loop_
_space_group_symop_operation_xyz
x,y,z
-x,y,-z
-x,-y,-z
x,-y,z
1/2+x,1/2+y,z
1/2-x,1/2+y,-z
1/2-x,1/2-y,-z
1/2+x,1/2-y,z
loop_
_atom_site_type_symbol
_atom_site_label
_atom_site_fract_x
_atom_site_fract_y
_atom_site_fract_z
Si Si1 0.233587 0.904071 0.634879
Si Si2 0.267346 0.400703 0.912431
Si Si3 0.016031 0.631681 0.842813
Si Si4 0.513243 0.669282 0.186857
Si Si5 0.866165 0.242791 0.600005
O O1 0.337663 0.892071 0.394246
O O2 0.077245 0.897096 0.779715
O O3 0.267046 0.819697 0.675729
O O4 0.259591 0.000000 0.657871
O O5 0.319647 0.500000 0.826204
O O6 0.339567 0.364579 0.944856
O O7 0.306785 0.330014 0.762115
O O8 0.102303 0.402851 0.103207
O O9 0.991216 0.736473 0.871547
O O10 0.000000 0.601041 0.000000
O O11 0.425077 0.689778 0.414673
O O12 0.000000 0.285058 0.500000
#
# Coordination Sequence:
#
# PCOD9208557 Si02
#       5
#     8   8   8   8   8
#     4  11  22  38  61  87 117 155 197 239 286 344
#     4  11  22  37  62  92 118 149 192 243 294 342
#     4  11  22  38  60  86 119 155 192 240 292 341
#     4  10  21  38  58  84 120 156 191 235 289 348
#     4   9  20  37  58  86 118 154 194 237 288 345
#
# _framework density 24.435860999999999
#
# number of rings (size 3 to 8) (size 9 to 14) (size 15 to 20)
#    0.000    1.600    0.000    6.600    0.000    8.000 
#    0.000    0.000    0.000   18.000    0.000    0.000 
#    0.000    0.000    0.000    0.000    0.000    0.000 
#
# Total GULP energy -111941.092770 kJ/mol
# GULP energy per Si atom -5597.054638 kJ/mol
# Density = 2.438024 g / cm^3
# Si number density = 24.435861 Si / 1000 Ang^3
#
#
#
# Elastic Constant Matrix: (Units=GPa)
#
#
# Indices 1 2 3 4 5 6 
#
# 1 137.5575 35.6976 38.2817 0.0000 -24.8146 0.0000
# 2 35.6976 149.6270 13.4146 0.0000 -0.9380 0.0000
# 3 38.2817 13.4146 75.7060 0.0000 14.2017 0.0000
# 4 0.0000 0.0000 0.0000 6.6650 0.0000 -1.2321
# 5 -24.8146 -0.9380 14.2017 0.0000 35.6529 0.0000
# 6 0.0000 0.0000 0.0000 -1.2321 0.0000 13.4914
#
#
#
# Elastic Compliance Matrix: (Units=1/GPa)
#
#
# Indices 1 2 3 4 5 6 
#
# 1 0.012089 -0.002104 -0.007899 0.000000 0.011505 0.000000
# 2 -0.002104 0.007174 0.000035 0.000000 -0.001289 0.000000
# 3 -0.007899 0.000035 0.019700 0.000000 -0.013344 0.000000
# 4 0.000000 0.000000 0.000000 0.152615 0.000000 0.013938
# 5 0.011505 -0.001289 -0.013344 0.000000 0.041337 0.000000
# 6 0.000000 0.000000 0.000000 0.013938 0.000000 0.075394
#
#
# Mechanical properties :
#
#
# Convention : Reuss Voigt Hill
#
# Bulk Modulus (GPa) = 52.55554 59.74205 56.14880
# Shear Modulus (GPa) = 14.94377 29.52830 22.23604
#
# Velocity S-wave (km/s) = 2.47564 3.47998 3.01985
# Velocity P-wave (km/s) = 5.45215 6.37562 5.93189
#
# Compressibility (1/GPa) = 0.01902749
#
# Stress axis : x y z
#
# Youngs Moduli (GPa) = 82.71805 139.39106 50.76148
#
# Poissons Ratio (x) = 0.29327 0.40094
# Poissons Ratio (y) = 0.17404 -0.00175
# Poissons Ratio (z) = 0.65335 -0.00482
#
# Static dielectric constant tensor:
#      x y z
#    x 1.940660 0.000000 -0.029230 
#    y 0.000000 1.897920 0.000000 
#    z -0.029230 0.000000 1.964800 
# 
# From -- ./inp_files/155759.got.cif
#   From: 2010.05.17/outbox.cif.g08.bks.cpg/sg12_78_cif.got.tgz:155759.got - 2010.06.03 13:09:07.
