data_PCOD9208990
_publ_section_title
;
Structure prediction by ZEFSAII (Michael W. Deem and Ramdas Pophale) SiO2 
 PCOD9208990
Probable space group: C 2/M
;
_chemical_formula_sum "Si O2"
_cell_formula_units_Z 64
_cell_length_a 16.013881
_cell_length_b 8.719535
_cell_length_c 31.110899
_cell_angle_alpha 90.000000
_cell_angle_beta 129.410240
_cell_angle_gamma 90.000000
_cell_volume 3356.359695
_symmetry_space_group_name_H-M "C 2/M"
_symmetry_group_IT_number 12
_symmetry_cell_setting 'monoclinic'
loop_
_space_group_symop_operation_xyz
x,y,z
-x,y,-z
-x,-y,-z
x,-y,z
1/2+x,1/2+y,z
1/2-x,1/2+y,-z
1/2-x,1/2-y,-z
1/2+x,1/2-y,z
loop_
_atom_site_type_symbol
_atom_site_label
_atom_site_fract_x
_atom_site_fract_y
_atom_site_fract_z
Si Si1 0.354224 0.816313 0.057930
Si Si2 0.157189 0.184463 0.628941
Si Si3 0.042280 0.183779 0.061192
Si Si4 0.751930 0.683700 0.828357
Si Si5 0.325341 0.813530 0.757472
Si Si6 0.420103 0.816590 0.567561
Si Si7 0.427696 0.185068 0.176100
Si Si8 0.235659 0.316612 0.563877
O O1 0.459998 0.755282 0.068437
O O2 0.365633 0.773180 0.111645
O O3 0.351173 0.000000 0.054646
O O4 0.250000 0.750000 0.000000
O O5 0.242658 0.233455 0.693384
O O6 0.196980 0.246176 0.595998
O O7 0.038861 0.247075 0.601947
O O8 0.153722 0.000000 0.626565
O O9 0.160216 0.247229 0.110238
O O10 0.042386 0.000000 0.064604
O O11 0.000000 0.225051 0.000000
O O12 0.756872 0.500000 0.831480
O O13 0.785307 0.735746 0.791438
O O14 0.635136 0.741186 0.804895
O O15 0.448035 0.764864 0.788115
O O16 0.326960 0.000000 0.758771
O O17 0.348910 0.749480 0.583308
O O18 0.352757 0.780583 0.502030
O O19 0.426375 0.000000 0.573631
O O20 0.425346 0.000000 0.179138
O O21 0.242989 0.500000 0.569965
#
# Coordination Sequence:
#
# PCOD9208990 Si02
#       8
#     8   8   8   8   8   8   8   8
#     4  11  22  37  59  85 118 153 188 237 291 352
#     4  11  22  37  61  89 121 160 203 251 303 360
#     4  11  23  38  57  85 119 151 188 236 292 354
#     4  11  22  40  63  87 114 150 195 242 292 351
#     4   9  21  42  61  82 118 159 198 245 298 351
#     4  10  21  38  60  88 124 163 203 250 303 358
#     4  10  21  41  62  82 114 154 190 235 295 351
#     4  10  21  38  60  88 124 162 203 252 302 356
#
# _framework density 19.068277999999999
#
# number of rings (size 3 to 8) (size 9 to 14) (size 15 to 20)
#    0.000    1.625    1.250    3.375    0.000    9.000 
#    0.000    6.250    0.000    0.000    0.000    0.000 
#    0.000    0.000    0.000    0.000    0.000    0.000 
#
# Total GULP energy -178856.129446 kJ/mol
# GULP energy per Si atom -5589.254045 kJ/mol
# Density = 1.902488 g / cm^3
# Si number density = 19.068278 Si / 1000 Ang^3
#
#
#
# Elastic Constant Matrix: (Units=GPa)
#
#
# Indices 1 2 3 4 5 6 
#
# 1 171.6756 35.3039 75.3865 0.0000 24.4073 0.0000
# 2 35.3039 36.5640 36.2488 0.0000 7.2182 0.0000
# 3 75.3865 36.2488 107.1269 0.0000 21.0880 0.0000
# 4 0.0000 0.0000 0.0000 19.1600 0.0000 2.3609
# 5 24.4073 7.2182 21.0880 0.0000 10.5958 0.0000
# 6 0.0000 0.0000 0.0000 2.3609 0.0000 40.1071
#
#
#
# Elastic Compliance Matrix: (Units=1/GPa)
#
#
# Indices 1 2 3 4 5 6 
#
# 1 0.009943 -0.003958 -0.002762 0.000000 -0.014710 0.000000
# 2 -0.003958 0.042733 -0.012723 0.000000 0.005328 0.000000
# 3 -0.002762 -0.012723 0.020757 0.000000 -0.026281 0.000000
# 4 0.000000 0.000000 0.000000 0.052574 0.000000 -0.003095
# 5 -0.014710 0.005328 -0.026281 0.000000 0.176937 0.000000
# 6 0.000000 0.000000 0.000000 -0.003095 0.000000 0.025115
#
#
# Mechanical properties :
#
#
# Convention : Reuss Voigt Hill
#
# Bulk Modulus (GPa) = 28.94668 67.69388 48.32028
# Shear Modulus (GPa) = 13.21142 25.20107 19.20624
#
# Velocity S-wave (km/s) = 2.63506 3.63936 3.17714
# Velocity P-wave (km/s) = 4.94687 7.29642 6.23335
#
# Compressibility (1/GPa) = 0.03454627
#
# Stress axis : x y z
#
# Youngs Moduli (GPa) = 100.57130 23.40139 48.17669
#
# Poissons Ratio (x) = 0.09263 0.13307
# Poissons Ratio (y) = 0.39809 0.61295
# Poissons Ratio (z) = 0.27778 0.29773
#
# Static dielectric constant tensor:
#      x y z
#    x 1.595650 0.000000 -0.033230 
#    y 0.000000 1.641940 0.000000 
#    z -0.033230 0.000000 1.633140 
# 
# From -- ./inp_files/375669.got.cif
#   From: 2010.05.17/outbox.cif.g08.bks.cpg/sg12_188_cif.got.tgz:375669.got - 2010.06.03 13:09:07.
