data_PCOD9208155
_publ_section_title
;
Structure prediction by ZEFSAII (Michael W. Deem and Ramdas Pophale) SiO2 
 PCOD9208155
Probable space group: C 2/M
;
_chemical_formula_sum "Si O2"
_cell_formula_units_Z 40
_cell_length_a 16.186729
_cell_length_b 17.423270
_cell_length_c 13.782225
_cell_angle_alpha 90.000000
_cell_angle_beta 28.118724
_cell_angle_gamma 90.000000
_cell_volume 1831.916434
_symmetry_space_group_name_H-M "C 2/M"
_symmetry_group_IT_number 12
_symmetry_cell_setting 'monoclinic'
loop_
_space_group_symop_operation_xyz
x,y,z
-x,y,-z
-x,-y,-z
x,-y,z
1/2+x,1/2+y,z
1/2-x,1/2+y,-z
1/2-x,1/2-y,-z
1/2+x,1/2-y,z
loop_
_atom_site_type_symbol
_atom_site_label
_atom_site_fract_x
_atom_site_fract_y
_atom_site_fract_z
Si Si1 0.441592 0.224733 0.762911
Si Si2 0.739406 0.257634 0.793069
Si Si3 0.096464 0.825035 0.755124
Si Si4 0.160021 0.584285 0.609184
Si Si5 0.210253 0.087181 0.302452
O O1 0.408281 0.226757 0.683364
O O2 0.570745 0.285648 0.677618
O O3 0.512783 0.145896 0.733324
O O4 0.250000 0.250000 0.000000
O O5 0.726469 0.282761 0.694938
O O6 0.708547 0.164951 0.828401
O O7 0.588278 0.310327 0.000331
O O8 0.184879 0.903922 0.631249
O O9 0.084013 0.500000 0.679857
O O10 0.237477 0.591570 0.637938
O O11 0.000000 0.092424 0.500000
O O12 0.263601 0.000000 0.214386
#
# Coordination Sequence:
#
# PCOD9208155 Si02
#       5
#     8   8   8   8   8
#     4  10  21  39  63  92 127 169 214 258 307 381
#     4  10  21  37  62  92 123 171 217 254 309 378
#     4  10  21  39  59  92 126 164 218 252 310 376
#     4  11  23  41  65  95 130 167 210 267 322 371
#     4  10  21  37  63 101 133 160 205 272 334 378
#
# _framework density 21.835058
#
# number of rings (size 3 to 8) (size 9 to 14) (size 15 to 20)
#    0.000    1.800    2.000    1.800    2.800    0.000 
#    0.000   14.000    0.000    0.000    0.000    0.000 
#    0.000    0.000    0.000    0.000    0.000    0.000 
#
# Total GULP energy -111396.114935 kJ/mol
# GULP energy per Si atom -5569.805747 kJ/mol
# Density = 2.178536 g / cm^3
# Si number density = 21.835058 Si / 1000 Ang^3
#
#
#
# Elastic Constant Matrix: (Units=GPa)
#
#
# Indices 1 2 3 4 5 6 
#
# 1 189.7606 24.7646 17.8308 0.0020 -10.1507 0.0009
# 2 24.7646 122.6762 8.3337 -0.0013 -6.5442 0.0034
# 3 17.8308 8.3337 70.1915 -0.0019 -0.7409 0.0021
# 4 0.0020 -0.0013 -0.0019 5.8222 0.0012 -1.1946
# 5 -10.1507 -6.5442 -0.7409 0.0012 36.2942 0.0005
# 6 0.0009 0.0034 0.0021 -1.1946 0.0005 34.4255
#
#
#
# Elastic Compliance Matrix: (Units=1/GPa)
#
#
# Indices 1 2 3 4 5 6 
#
# 1 0.005590 -0.000968 -0.001291 -0.000003 0.001363 0.000000
# 2 -0.000968 0.008464 -0.000746 0.000002 0.001240 -0.000001
# 3 -0.001291 -0.000746 0.014661 0.000005 -0.000196 -0.000001
# 4 -0.000003 0.000002 0.000005 0.172989 -0.000006 0.006003
# 5 0.001363 0.001240 -0.000196 -0.000006 0.028153 -0.000001
# 6 0.000000 -0.000001 -0.000001 0.006003 -0.000001 0.029257
#
#
# Mechanical properties :
#
#
# Convention : Reuss Voigt Hill
#
# Bulk Modulus (GPa) = 44.04187 53.83184 48.93686
# Shear Modulus (GPa) = 18.33568 37.42165 27.87867
#
# Velocity S-wave (km/s) = 2.90096 4.14434 3.57709
# Velocity P-wave (km/s) = 5.60668 6.89986 6.28661
#
# Compressibility (1/GPa) = 0.02270566
#
# Stress axis : x y z
#
# Youngs Moduli (GPa) = 178.88064 118.15022 68.20759
#
# Poissons Ratio (x) = 0.11439 0.08804
# Poissons Ratio (y) = 0.17318 0.05087
# Poissons Ratio (z) = 0.23090 0.08812
#
# Static dielectric constant tensor:
#      x y z
#    x 1.790040 0.000000 -0.115230 
#    y 0.000000 1.763290 0.000000 
#    z -0.115230 0.000000 0.032560 
# 
# From -- ./inp_files/225548.got.cif
#   From: 2010.05.17/outbox.cif.g08.bks.cpg/sg12_113_cif.got.tgz:225548.got - 2010.06.03 13:09:07.
