data_PCOD9208057
_publ_section_title
;
Structure prediction by ZEFSAII (Michael W. Deem and Ramdas Pophale) SiO2 
 PCOD9208057
Probable space group: C 2/M
;
_chemical_formula_sum "Si O2"
_cell_formula_units_Z 56
_cell_length_a 19.051343
_cell_length_b 28.927247
_cell_length_c 8.506394
_cell_angle_alpha 90.000000
_cell_angle_beta 142.518871
_cell_angle_gamma 90.000000
_cell_volume 2852.586653
_symmetry_space_group_name_H-M "C 2/M"
_symmetry_group_IT_number 12
_symmetry_cell_setting 'monoclinic'
loop_
_space_group_symop_operation_xyz
x,y,z
-x,y,-z
-x,-y,-z
x,-y,z
1/2+x,1/2+y,z
1/2-x,1/2+y,-z
1/2-x,1/2-y,-z
1/2+x,1/2-y,z
loop_
_atom_site_type_symbol
_atom_site_label
_atom_site_fract_x
_atom_site_fract_y
_atom_site_fract_z
Si Si1 0.351255 0.728437 0.378130
Si Si2 0.440517 0.861808 0.051594
Si Si3 0.786700 0.051998 0.992980
Si Si4 0.408151 0.234450 0.132460
Si Si5 0.947117 0.552007 0.581751
Si Si6 0.975380 0.948905 0.772073
Si Si7 0.306742 0.621218 0.315585
O O1 0.467216 0.741505 0.684424
O O2 0.376779 0.751299 0.254268
O O3 0.348054 0.673003 0.353286
O O4 0.216370 0.742081 0.180201
O O5 0.434688 0.820021 0.164952
O O6 0.503878 0.907031 0.227556
O O7 0.500000 0.844284 0.000000
O O8 0.308875 0.875179 0.788725
O O9 0.688555 0.057750 0.687917
O O10 0.769468 0.000000 0.030862
O O11 0.779455 0.091663 0.110389
O O12 0.908846 0.052832 0.124783
O O13 0.971285 0.500000 0.684339
O O14 0.000000 0.555089 0.500000
O O15 0.898137 0.907907 0.573539
O O16 0.922333 0.000000 0.651504
O O17 0.000000 0.944756 0.000000
#
# Coordination Sequence:
#
# PCOD9208057 Si02
#       7
#     8   8   8   8   8   8   8
#     4   9  20  36  63  89 114 151 203 259 310 357
#     4  11  25  41  61  90 127 165 197 248 315 372
#     4  10  21  37  61  91 124 163 206 256 299 353
#     4   9  20  39  59  88 118 152 201 251 311 371
#     4  10  21  38  61  93 123 158 209 252 295 357
#     4  10  23  40  58  87 131 172 200 244 310 365
#     4  11  22  39  64  93 120 156 216 257 295 364
#
# _framework density 19.631305999999999
#
# number of rings (size 3 to 8) (size 9 to 14) (size 15 to 20)
#    0.000    2.000    1.429    0.857    8.000    3.143 
#    0.000    3.571    0.000    0.000    0.000    0.000 
#    0.000    0.000    0.000    0.000    0.000    0.000 
#
# Total GULP energy -156054.581166 kJ/mol
# GULP energy per Si atom -5573.377899 kJ/mol
# Density = 1.958662 g / cm^3
# Si number density = 19.631306 Si / 1000 Ang^3
#
#
#
# Elastic Constant Matrix: (Units=GPa)
#
#
# Indices 1 2 3 4 5 6 
#
# 1 49.4848 27.5858 20.8184 0.0000 14.9915 0.0000
# 2 27.5858 127.9123 58.9463 0.0000 17.1653 0.0000
# 3 20.8184 58.9463 93.9008 0.0000 37.4028 0.0000
# 4 0.0000 0.0000 0.0000 49.5910 0.0000 7.3887
# 5 14.9915 17.1653 37.4028 0.0000 24.0565 0.0000
# 6 0.0000 0.0000 0.0000 7.3887 0.0000 15.3768
#
#
#
# Elastic Compliance Matrix: (Units=1/GPa)
#
#
# Indices 1 2 3 4 5 6 
#
# 1 0.027981 -0.006186 0.007531 0.000000 -0.024733 0.000000
# 2 -0.006186 0.012921 -0.012091 0.000000 0.013434 0.000000
# 3 0.007531 -0.012091 0.039409 0.000000 -0.057339 0.000000
# 4 0.000000 0.000000 0.000000 0.021720 0.000000 -0.010437
# 5 -0.024733 0.013434 -0.057339 0.000000 0.136547 0.000000
# 6 0.000000 0.000000 0.000000 -0.010437 0.000000 0.070048
#
#
# Mechanical properties :
#
#
# Convention : Reuss Voigt Hill
#
# Bulk Modulus (GPa) = 17.00083 53.99988 35.50035
# Shear Modulus (GPa) = 14.29700 28.73467 21.51584
#
# Velocity S-wave (km/s) = 2.70159 3.83001 3.31417
# Velocity P-wave (km/s) = 4.29072 6.86479 5.72432
#
# Compressibility (1/GPa) = 0.05882067
#
# Stress axis : x y z
#
# Youngs Moduli (GPa) = 35.73840 77.39347 25.37478
#
# Poissons Ratio (x) = 0.47877 -0.19111
# Poissons Ratio (y) = 0.22108 0.30680
# Poissons Ratio (z) = -0.26916 0.93574
#
# Static dielectric constant tensor:
#      x y z
#    x 1.832270 0.000000 0.076770 
#    y 0.000000 1.674200 0.000000 
#    z 0.076770 0.000000 1.746230 
# 
# From -- ./inp_files/80096.got.cif
#   From: 2010.05.17/outbox.cif.g08.bks.cpg/sg12_41_cif.got.tgz:80096.got - 2010.06.03 13:09:07.
