data_PCOD9208963
_publ_section_title
;
Structure prediction by ZEFSAII (Michael W. Deem and Ramdas Pophale) SiO2 
 PCOD9208963
Probable space group: C 2/M
;
_chemical_formula_sum "Si O2"
_cell_formula_units_Z 40
_cell_length_a 10.683621
_cell_length_b 7.703644
_cell_length_c 23.802246
_cell_angle_alpha 90.000000
_cell_angle_beta 109.445482
_cell_angle_gamma 90.000000
_cell_volume 1847.248334
_symmetry_space_group_name_H-M "C 2/M"
_symmetry_group_IT_number 12
_symmetry_cell_setting 'monoclinic'
loop_
_space_group_symop_operation_xyz
x,y,z
-x,y,-z
-x,-y,-z
x,-y,z
1/2+x,1/2+y,z
1/2-x,1/2+y,-z
1/2-x,1/2-y,-z
1/2+x,1/2-y,z
loop_
_atom_site_type_symbol
_atom_site_label
_atom_site_fract_x
_atom_site_fract_y
_atom_site_fract_z
Si Si1 0.874310 0.198008 0.873387
Si Si2 0.916045 0.000000 0.044482
Si Si3 0.520630 0.207644 0.669946
Si Si4 0.351185 0.000000 0.955106
Si Si5 0.182300 0.209446 0.261363
Si Si6 0.902869 0.709000 0.534872
O O1 0.827245 0.332913 0.912390
O O2 0.853072 0.263742 0.807313
O O3 0.029085 0.162380 0.911400
O O4 0.817257 0.000000 0.869207
O O5 0.760721 0.000000 0.014073
O O6 0.000000 0.000000 0.000000
O O7 0.670660 0.274153 0.700427
O O8 0.427704 0.240723 0.709561
O O9 0.451833 0.275117 0.602807
O O10 0.531835 0.000000 0.665673
O O11 0.500000 0.000000 0.000000
O O12 0.185196 0.000000 0.260864
O O13 0.913576 0.500000 0.537311
O O14 0.750000 0.750000 0.500000
O O15 0.000000 0.773195 0.500000
#
# Coordination Sequence:
#
# PCOD9208963 Si02
#       6
#     8   4   8   4   8   8
#     4   9  24  44  64  98 132 170 216 275 316 392
#     4  10  24  48  66  98 138 162 220 273 310 394
#     4  10  22  38  61  92 122 163 210 257 314 379
#     4  12  26  44  72 100 128 182 216 260 344 378
#     4  10  22  41  62  90 125 163 207 261 320 367
#     4  10  21  38  60  87 125 163 208 258 311 375
#
# _framework density 21.653829999999999
#
# number of rings (size 3 to 8) (size 9 to 14) (size 15 to 20)
#    0.600    1.400    0.000    1.800    4.200    6.800 
#    1.800    0.000    0.000    0.000    0.000    0.000 
#    0.000    0.000    0.000    0.000    0.000    0.000 
#
# Total GULP energy -111647.763685 kJ/mol
# GULP energy per Si atom -5582.388184 kJ/mol
# Density = 2.160454 g / cm^3
# Si number density = 21.653830 Si / 1000 Ang^3
#
#
#
# Elastic Constant Matrix: (Units=GPa)
#
#
# Indices 1 2 3 4 5 6 
#
# 1 154.8910 5.5748 56.0467 0.0000 -3.9327 0.0000
# 2 5.5748 57.5608 11.8010 0.0000 -8.3152 0.0000
# 3 56.0467 11.8010 145.3754 0.0000 -4.3801 0.0000
# 4 0.0000 0.0000 0.0000 11.0273 0.0000 18.0114
# 5 -3.9327 -8.3152 -4.3801 0.0000 31.0475 0.0000
# 6 0.0000 0.0000 0.0000 18.0114 0.0000 -19.2171
#
#
#
# Elastic Compliance Matrix: (Units=1/GPa)
#
#
# Indices 1 2 3 4 5 6 
#
# 1 0.007512 -0.000062 -0.002875 0.000000 0.000529 0.000000
# 2 -0.000062 0.018331 -0.001322 0.000000 0.004715 0.000000
# 3 -0.002875 -0.001322 0.008107 0.000000 0.000425 0.000000
# 4 0.000000 0.000000 0.000000 0.035831 0.000000 0.033583
# 5 0.000529 0.004715 0.000425 0.000000 0.033599 0.000000
# 6 0.000000 0.000000 0.000000 0.033583 0.000000 -0.020561
#
#
# Mechanical properties :
#
#
# Convention : Reuss Voigt Hill
#
# Bulk Modulus (GPa) = 39.31966 56.07469 47.69718
# Shear Modulus (GPa) = 50.09257 23.53186 36.81222
#
# Velocity S-wave (km/s) = 4.81493 3.30013 4.12762
# Velocity P-wave (km/s) = 7.00779 6.36187 6.69263
#
# Compressibility (1/GPa) = 0.02543257
#
# Stress axis : x y z
#
# Youngs Moduli (GPa) = 133.11674 54.55203 123.34430
#
# Poissons Ratio (x) = 0.00336 0.35464
# Poissons Ratio (y) = 0.00820 0.16309
# Poissons Ratio (z) = 0.38274 0.07213
#
# Static dielectric constant tensor:
#      x y z
#    x 1.767810 0.000000 0.016490 
#    y 0.000000 1.833180 0.000000 
#    z 0.016490 0.000000 1.794410 
# 
# From -- ./inp_files/331826.got.cif
#   From: 2010.05.17/outbox.cif.g08.bks.cpg/sg12_166_cif.got.tgz:331826.got - 2010.06.03 13:09:07.
