data_PCOD9208757
_publ_section_title
;
Structure prediction by ZEFSAII (Michael W. Deem and Ramdas Pophale) SiO2 
 PCOD9208757
Probable space group: C 2/M
;
_chemical_formula_sum "Si O2"
_cell_formula_units_Z 48
_cell_length_a 27.962463
_cell_length_b 19.332104
_cell_length_c 9.226695
_cell_angle_alpha 90.000000
_cell_angle_beta 149.278389
_cell_angle_gamma 90.000000
_cell_volume 2548.054617
_symmetry_space_group_name_H-M "C 2/M"
_symmetry_group_IT_number 12
_symmetry_cell_setting 'monoclinic'
loop_
_space_group_symop_operation_xyz
x,y,z
-x,y,-z
-x,-y,-z
x,-y,z
1/2+x,1/2+y,z
1/2-x,1/2+y,-z
1/2-x,1/2-y,-z
1/2+x,1/2-y,z
loop_
_atom_site_type_symbol
_atom_site_label
_atom_site_fract_x
_atom_site_fract_y
_atom_site_fract_z
Si Si1 0.790751 0.919066 0.132612
Si Si2 0.237565 0.211590 0.122765
Si Si3 0.553819 0.704895 0.791854
Si Si4 0.511780 0.418352 0.201016
Si Si5 0.581017 0.081851 0.604261
Si Si6 0.557069 0.810960 0.293559
O O1 0.880859 0.905355 0.467345
O O2 0.794323 0.000000 0.099782
O O3 0.791053 0.866464 0.999165
O O4 0.688036 0.907052 0.936098
O O5 0.337488 0.214697 0.459616
O O6 0.250000 0.250000 0.000000
O O7 0.154162 0.235486 0.008367
O O8 0.500000 0.696466 0.500000
O O9 0.553326 0.631641 0.873660
O O10 0.496127 0.755668 0.745137
O O11 0.492518 0.500000 0.173775
O O12 0.500000 0.403417 0.000000
O O13 0.500000 0.107845 0.500000
O O14 0.569461 0.120978 0.423354
O O15 0.568493 0.000000 0.553551
O O16 0.500000 0.822632 0.000000
#
# Coordination Sequence:
#
# PCOD9208757 Si02
#       6
#     8   8   8   8   8   8
#     4   9  18  34  58  82 110 147 188 231 281 338
#     4  11  22  38  60  85 114 151 194 240 284 340
#     4  12  22  38  62  86 112 158 198 235 282 349
#     4  10  21  38  59  87 122 151 185 242 299 346
#     4   9  19  37  61  84 109 149 196 235 278 339
#     4  11  24  40  58  87 120 149 188 243 294 337
#
# _framework density 18.837902
#
# number of rings (size 3 to 8) (size 9 to 14) (size 15 to 20)
#    0.000    1.667    3.333    1.000    2.333    2.000 
#    3.000    0.000    0.000    0.000    0.000    0.000 
#    0.000    0.000    0.000    0.000    0.000    0.000 
#
# Total GULP energy -133934.403633 kJ/mol
# GULP energy per Si atom -5580.600151 kJ/mol
# Density = 1.879503 g / cm^3
# Si number density = 18.837902 Si / 1000 Ang^3
#
#
#
# Elastic Constant Matrix: (Units=GPa)
#
#
# Indices 1 2 3 4 5 6 
#
# 1 87.7695 28.4655 45.7758 0.0000 14.2328 0.0000
# 2 28.4655 52.3218 20.0896 0.0000 1.6736 0.0000
# 3 45.7758 20.0896 116.9150 0.0000 6.0873 0.0000
# 4 0.0000 0.0000 0.0000 19.2286 0.0000 0.1342
# 5 14.2328 1.6736 6.0873 0.0000 34.9490 0.0000
# 6 0.0000 0.0000 0.0000 0.1342 0.0000 27.6331
#
#
#
# Elastic Compliance Matrix: (Units=1/GPa)
#
#
# Indices 1 2 3 4 5 6 
#
# 1 0.017456 -0.007283 -0.005279 0.000000 -0.005841 0.000000
# 2 -0.007283 0.023506 -0.001295 0.000000 0.002066 0.000000
# 3 -0.005279 -0.001295 0.010826 0.000000 0.000326 0.000000
# 4 0.000000 0.000000 0.000000 0.052008 0.000000 -0.000253
# 5 -0.005841 0.002066 0.000326 0.000000 0.030836 0.000000
# 6 0.000000 0.000000 0.000000 -0.000253 0.000000 0.036190
#
#
# Mechanical properties :
#
#
# Convention : Reuss Voigt Hill
#
# Bulk Modulus (GPa) = 41.53979 49.51868 45.52924
# Shear Modulus (GPa) = 24.20611 27.20717 25.70664
#
# Velocity S-wave (km/s) = 3.58853 3.80449 3.69809
# Velocity P-wave (km/s) = 6.26651 6.75593 6.51582
#
# Compressibility (1/GPa) = 0.02407330
#
# Stress axis : x y z
#
# Youngs Moduli (GPa) = 57.28741 42.54236 92.37332
#
# Poissons Ratio (x) = 0.30984 0.48763
# Poissons Ratio (y) = 0.41723 0.11963
# Poissons Ratio (z) = 0.30242 0.05510
#
# Static dielectric constant tensor:
#      x y z
#    x 1.636630 0.000000 0.052070 
#    y 0.000000 1.689170 0.000000 
#    z 0.052070 0.000000 1.661310 
# 
# From -- ./inp_files/106606.got.cif
#   From: 2010.05.17/outbox.cif.g08.bks.cpg/sg12_54_cif.got.tgz:106606.got - 2010.06.03 13:09:07.
