data_PCOD9208943
_publ_section_title
;
Structure prediction by ZEFSAII (Michael W. Deem and Ramdas Pophale) SiO2 
 PCOD9208943
Probable space group: C 2/M
;
_chemical_formula_sum "Si O2"
_cell_formula_units_Z 48
_cell_length_a 25.893555
_cell_length_b 8.606286
_cell_length_c 12.092660
_cell_angle_alpha 90.000000
_cell_angle_beta 90.006452
_cell_angle_gamma 90.000000
_cell_volume 2694.817096
_symmetry_space_group_name_H-M "C 2/M"
_symmetry_group_IT_number 12
_symmetry_cell_setting 'monoclinic'
loop_
_space_group_symop_operation_xyz
x,y,z
-x,y,-z
-x,-y,-z
x,-y,z
1/2+x,1/2+y,z
1/2-x,1/2+y,-z
1/2-x,1/2-y,-z
1/2+x,1/2-y,z
loop_
_atom_site_type_symbol
_atom_site_label
_atom_site_fract_x
_atom_site_fract_y
_atom_site_fract_z
Si Si1 0.099220 0.813340 0.268651
Si Si2 0.439511 0.186409 0.500037
Si Si3 0.400895 0.313343 0.268655
Si Si4 0.307452 0.186274 0.127046
Si Si5 0.192671 0.686277 0.127185
Si Si6 0.500055 0.689140 0.126141
O O1 0.088154 0.749146 0.390419
O O2 0.151306 0.753180 0.212286
O O3 0.051110 0.762216 0.191736
O O4 0.099923 0.000000 0.272245
O O5 0.500000 0.236746 0.500000
O O6 0.411847 0.248937 0.390416
O O7 0.438526 0.000000 0.500135
O O8 0.400239 0.500000 0.272388
O O9 0.348833 0.253395 0.212044
O O10 0.449044 0.262225 0.191874
O O11 0.250053 0.249883 0.148587
O O12 0.306972 0.000000 0.133208
O O13 0.321114 0.231194 0.999905
O O14 0.193248 0.500000 0.133288
O O15 0.500055 0.500000 0.124231
O O16 0.500000 0.744124 0.000000
#
# Coordination Sequence:
#
# PCOD9208943 Si02
#       6
#     8   8   8   8   8   8
#     4  11  21  36  59  85 116 152 196 241 287 343
#     4  11  23  39  58  81 116 157 197 240 290 344
#     4  11  21  36  59  85 116 152 196 241 287 343
#     4  10  21  38  60  87 119 155 194 237 289 346
#     4  10  21  38  60  87 119 155 194 237 289 346
#     4   9  18  31  51  82 116 147 182 229 284 341
#
# _framework density 17.811969000000001
#
# number of rings (size 3 to 8) (size 9 to 14) (size 15 to 20)
#    0.000    1.667    1.667    3.500    0.000    4.000 
#    0.000    0.833    0.000    4.000    0.000    0.000 
#    0.000    0.000    0.000    0.000    0.000    0.000 
#
# Total GULP energy -134100.570781 kJ/mol
# GULP energy per Si atom -5587.523783 kJ/mol
# Density = 1.777143 g / cm^3
# Si number density = 17.811969 Si / 1000 Ang^3
#
#
#
# Elastic Constant Matrix: (Units=GPa)
#
#
# Indices 1 2 3 4 5 6 
#
# 1 142.3501 47.5549 115.0358 0.0000 -3.9599 0.0000
# 2 47.5549 61.5293 53.2033 0.0000 -2.5218 0.0000
# 3 115.0358 53.2033 198.2820 0.0000 -4.7836 0.0000
# 4 0.0000 0.0000 0.0000 22.6268 0.0000 0.0037
# 5 -3.9599 -2.5218 -4.7836 0.0000 -30.6616 0.0000
# 6 0.0000 0.0000 0.0000 0.0037 0.0000 24.5982
#
#
#
# Elastic Compliance Matrix: (Units=1/GPa)
#
#
# Indices 1 2 3 4 5 6 
#
# 1 0.014340 -0.005073 -0.006967 0.000000 -0.000348 0.000000
# 2 -0.005073 0.022935 -0.003228 0.000000 -0.000727 0.000000
# 3 -0.006967 -0.003228 0.009942 0.000000 -0.000386 0.000000
# 4 0.000000 0.000000 0.000000 0.044195 0.000000 -0.000007
# 5 -0.000348 -0.000727 -0.000386 0.000000 -0.032449 0.000000
# 6 0.000000 0.000000 0.000000 -0.000007 0.000000 0.040653
#
#
# Mechanical properties :
#
#
# Convention : Reuss Voigt Hill
#
# Bulk Modulus (GPa) = 59.94961 92.63883 76.29422
# Shear Modulus (GPa) = 36.84239 15.73716 26.28978
#
# Velocity S-wave (km/s) = 4.55291 2.97562 3.84599
# Velocity P-wave (km/s) = 7.83381 7.99550 7.91507
#
# Compressibility (1/GPa) = 0.01668068
#
# Stress axis : x y z
#
# Youngs Moduli (GPa) = 69.73509 43.60141 100.58409
#
# Poissons Ratio (x) = 0.22121 0.70073
# Poissons Ratio (y) = 0.35380 0.32469
# Poissons Ratio (z) = 0.48582 0.14075
#
# Static dielectric constant tensor:
#      x y z
#    x 1.578400 0.000000 0.000010 
#    y 0.000000 1.594710 0.000000 
#    z 0.000010 0.000000 1.584120 
# 
# From -- ./inp_files/172250.got.cif
#   From: 2010.05.17/outbox.cif.g08.bks.cpg/sg12_87_cif.got.tgz:172250.got - 2010.06.03 13:09:07.
