data_PCOD9208984
_publ_section_title
;
Structure prediction by ZEFSAII (Michael W. Deem and Ramdas Pophale) SiO2 
 PCOD9208984
Probable space group: C 2/M
;
_chemical_formula_sum "Si O2"
_cell_formula_units_Z 64
_cell_length_a 17.756370
_cell_length_b 29.525778
_cell_length_c 8.107949
_cell_angle_alpha 90.000000
_cell_angle_beta 46.714997
_cell_angle_gamma 90.000000
_cell_volume 3094.349989
_symmetry_space_group_name_H-M "C 2/M"
_symmetry_group_IT_number 12
_symmetry_cell_setting 'monoclinic'
loop_
_space_group_symop_operation_xyz
x,y,z
-x,y,-z
-x,-y,-z
x,-y,z
1/2+x,1/2+y,z
1/2-x,1/2+y,-z
1/2-x,1/2-y,-z
1/2+x,1/2-y,z
loop_
_atom_site_type_symbol
_atom_site_label
_atom_site_fract_x
_atom_site_fract_y
_atom_site_fract_z
Si Si1 0.834769 0.699176 0.532752
Si Si2 0.115274 0.947360 0.873564
Si Si3 0.200524 0.616754 0.908201
Si Si4 0.842490 0.714332 0.879399
Si Si5 0.608382 0.739474 0.866615
Si Si6 0.015204 0.449113 0.280148
Si Si7 0.382444 0.448513 0.734487
Si Si8 0.679668 0.101500 0.558305
O O1 0.710862 0.709056 0.725786
O O2 0.872134 0.726287 0.315536
O O3 0.849534 0.645748 0.501165
O O4 0.885535 0.713786 0.629226
O O5 0.209759 0.919250 0.656877
O O6 0.123521 0.000000 0.805390
O O7 0.123435 0.946754 0.058909
O O8 0.000000 0.931244 0.000000
O O9 0.197119 0.664648 0.006798
O O10 0.305271 0.588985 0.782134
O O11 0.185605 0.620030 0.734915
O O12 0.105439 0.586157 0.110214
O O13 0.904043 0.732563 0.944912
O O14 0.750000 0.750000 0.000000
O O15 0.500000 0.714333 0.000000
O O16 0.045112 0.500000 0.184512
O O17 0.000000 0.449279 0.500000
O O18 0.910755 0.434459 0.342548
O O19 0.500000 0.441126 0.500000
O O20 0.353034 0.500000 0.726550
#
# Coordination Sequence:
#
# PCOD9208984 Si02
#       8
#     8   8   8   8   8   8   8   8
#     4  10  22  41  63  90 127 160 210 264 318 390
#     4  10  21  38  60  88 122 167 215 260 320 383
#     4  12  24  40  64  94 130 170 219 268 327 396
#     4  10  22  42  66  90 126 167 213 266 327 388
#     4  10  22  41  66  92 122 161 210 265 326 386
#     4  11  25  43  64  97 134 175 223 271 331 400
#     4  10  21  39  63  91 125 167 213 265 321 381
#     4  12  24  39  64  92 131 170 214 270 324 393
#
# _framework density 20.682856999999998
#
# number of rings (size 3 to 8) (size 9 to 14) (size 15 to 20)
#    0.000    1.375    1.250    4.125    1.750    6.500 
#    0.000    2.500    0.000    0.000    0.000    0.000 
#    0.000    0.000    0.000    0.000    0.000    0.000 
#
# Total GULP energy -178777.223891 kJ/mol
# GULP energy per Si atom -5586.788247 kJ/mol
# Density = 2.063578 g / cm^3
# Si number density = 20.682857 Si / 1000 Ang^3
#
#
#
# Elastic Constant Matrix: (Units=GPa)
#
#
# Indices 1 2 3 4 5 6 
#
# 1 96.0657 22.1208 27.9227 0.0000 5.5367 0.0000
# 2 22.1208 84.6714 20.0769 0.0000 -6.6665 0.0000
# 3 27.9227 20.0769 69.1155 0.0000 4.3428 0.0000
# 4 0.0000 0.0000 0.0000 -15.6527 0.0000 33.1309
# 5 5.5367 -6.6665 4.3428 0.0000 48.2211 0.0000
# 6 0.0000 0.0000 0.0000 33.1309 0.0000 6.4759
#
#
#
# Elastic Compliance Matrix: (Units=1/GPa)
#
#
# Indices 1 2 3 4 5 6 
#
# 1 0.012236 -0.002310 -0.004188 0.000000 -0.001347 0.000000
# 2 -0.002310 0.013335 -0.003090 0.000000 0.002387 0.000000
# 3 -0.004188 -0.003090 0.017152 0.000000 -0.001491 0.000000
# 4 0.000000 0.000000 0.000000 -0.005401 0.000000 0.027632
# 5 -0.001347 0.002387 -0.001491 0.000000 0.021357 0.000000
# 6 0.000000 0.000000 0.000000 0.027632 0.000000 0.013055
#
#
# Mechanical properties :
#
#
# Convention : Reuss Voigt Hill
#
# Bulk Modulus (GPa) = 42.46883 43.34372 42.90628
# Shear Modulus (GPa) = 50.62892 19.79101 35.20997
#
# Velocity S-wave (km/s) = 4.95296 3.09670 4.13046
# Velocity P-wave (km/s) = 7.29980 5.81274 6.59829
#
# Compressibility (1/GPa) = 0.02354668
#
# Stress axis : x y z
#
# Youngs Moduli (GPa) = 81.72390 74.99338 58.30297
#
# Poissons Ratio (x) = 0.17322 0.24416
# Poissons Ratio (y) = 0.18877 0.18017
# Poissons Ratio (z) = 0.34225 0.23175
#
# Static dielectric constant tensor:
#      x y z
#    x 2.108460 0.000000 0.140640 
#    y 0.000000 1.762630 0.000000 
#    z 0.140640 0.000000 1.753610 
# 
# From -- ./inp_files/80737.got.cif
#   From: 2010.05.17/outbox.cif.g08.bks.cpg/sg12_41_cif.got.tgz:80737.got - 2010.06.03 13:09:07.
