data_PCOD9208765
_publ_section_title
;
Structure prediction by ZEFSAII (Michael W. Deem and Ramdas Pophale) SiO2 
 PCOD9208765
Probable space group: C 2/M
;
_chemical_formula_sum "Si O2"
_cell_formula_units_Z 52
_cell_length_a 11.322961
_cell_length_b 28.923591
_cell_length_c 7.668393
_cell_angle_alpha 90.000000
_cell_angle_beta 116.473481
_cell_angle_gamma 90.000000
_cell_volume 2248.060168
_symmetry_space_group_name_H-M "C 2/M"
_symmetry_group_IT_number 12
_symmetry_cell_setting 'monoclinic'
loop_
_space_group_symop_operation_xyz
x,y,z
-x,y,-z
-x,-y,-z
x,-y,z
1/2+x,1/2+y,z
1/2-x,1/2+y,-z
1/2-x,1/2-y,-z
1/2+x,1/2-y,z
loop_
_atom_site_type_symbol
_atom_site_label
_atom_site_fract_x
_atom_site_fract_y
_atom_site_fract_z
Si Si1 0.629319 0.051611 0.874583
Si Si2 0.989640 0.184285 0.296384
Si Si3 0.600246 0.769425 0.908609
Si Si4 0.382696 0.447946 0.788877
Si Si5 0.781456 0.358581 0.892672
Si Si6 0.736368 0.362028 0.457237
Si Si7 0.000000 0.603894 0.500000
O O1 0.751943 0.049588 0.821220
O O2 0.511488 0.071674 0.678594
O O3 0.605083 0.000000 0.923421
O O4 0.672662 0.089524 0.042944
O O5 0.132672 0.174493 0.312180
O O6 0.000000 0.166417 0.500000
O O7 0.962181 0.238752 0.283808
O O8 0.865736 0.155686 0.138480
O O9 0.500000 0.756315 0.000000
O O10 0.750000 0.750000 0.000000
O O11 0.619678 0.823966 0.942757
O O12 0.411700 0.500000 0.741401
O O13 0.345588 0.410244 0.618560
O O14 0.500000 0.434857 0.000000
O O15 0.777590 0.350168 0.682147
O O16 0.868617 0.366479 0.433574
#
# Coordination Sequence:
#
# PCOD9208765 Si02
#       7
#     8   8   8   8   8   8   4
#     4  10  21  38  59  87 127 170 214 257 311 381
#     4   9  20  43  66  93 124 165 209 263 322 386
#     4  10  23  43  67  94 130 168 209 268 323 384
#     4   9  18  34  58  92 128 165 211 262 311 372
#     4  10  22  40  65  93 128 163 207 267 322 372
#     4  10  21  38  63  90 127 165 210 259 312 380
#     4  10  23  38  58  92 124 172 210 260 311 372
#
# _framework density 23.131053000000001
#
# number of rings (size 3 to 8) (size 9 to 14) (size 15 to 20)
#    0.000    2.308    0.000    1.154    2.154    6.769 
#    1.385    7.692    0.000    5.538    0.000    0.000 
#    0.000    0.000    0.000    0.000    0.000    0.000 
#
# Total GULP energy -144980.166991 kJ/mol
# GULP energy per Si atom -5576.160269 kJ/mol
# Density = 2.307841 g / cm^3
# Si number density = 23.131053 Si / 1000 Ang^3
#
#
#
# Elastic Constant Matrix: (Units=GPa)
#
#
# Indices 1 2 3 4 5 6 
#
# 1 93.8824 39.3312 30.9565 0.0000 21.3578 0.0000
# 2 39.3312 126.5361 48.7861 0.0000 14.0106 0.0000
# 3 30.9565 48.7861 75.6632 0.0000 16.0280 0.0000
# 4 0.0000 0.0000 0.0000 24.5898 0.0000 -0.1425
# 5 21.3578 14.0106 16.0280 0.0000 29.4173 0.0000
# 6 0.0000 0.0000 0.0000 -0.1425 0.0000 16.2564
#
#
#
# Elastic Compliance Matrix: (Units=1/GPa)
#
#
# Indices 1 2 3 4 5 6 
#
# 1 0.014359 -0.002624 -0.002531 0.000000 -0.007796 0.000000
# 2 -0.002624 0.011055 -0.006040 0.000000 -0.000069 0.000000
# 3 -0.002531 -0.006040 0.019385 0.000000 -0.005848 0.000000
# 4 0.000000 0.000000 0.000000 0.040669 0.000000 0.000356
# 5 -0.007796 -0.000069 -0.005848 0.000000 0.042873 0.000000
# 6 0.000000 0.000000 0.000000 0.000356 0.000000 0.061517
#
#
# Mechanical properties :
#
#
# Convention : Reuss Voigt Hill
#
# Bulk Modulus (GPa) = 44.62521 59.35884 51.99203
# Shear Modulus (GPa) = 22.75637 25.85322 24.30479
#
# Velocity S-wave (km/s) = 3.13996 3.34681 3.24503
# Velocity P-wave (km/s) = 5.69913 6.37593 6.04701
#
# Compressibility (1/GPa) = 0.02240886
#
# Stress axis : x y z
#
# Youngs Moduli (GPa) = 69.64151 90.45869 51.58595
#
# Poissons Ratio (x) = 0.23737 0.13059
# Poissons Ratio (y) = 0.18274 0.31156
# Poissons Ratio (z) = 0.17629 0.54634
#
# Static dielectric constant tensor:
#      x y z
#    x 2.083200 0.000000 0.043510 
#    y 0.000000 1.904100 0.000000 
#    z 0.043510 0.000000 1.885090 
# 
# From -- ./inp_files/53368.got.cif
#   From: 2010.05.17/outbox.cif.g08.bks.cpg/sg12_27_cif.got.tgz:53368.got - 2010.06.03 13:09:07.
