data_PCOD9208158
_publ_section_title
;
Structure prediction by ZEFSAII (Michael W. Deem and Ramdas Pophale) SiO2 
 PCOD9208158
Probable space group: C 2/M
;
_chemical_formula_sum "Si O2"
_cell_formula_units_Z 40
_cell_length_a 18.021586
_cell_length_b 13.821843
_cell_length_c 20.144719
_cell_angle_alpha 90.000000
_cell_angle_beta 158.783537
_cell_angle_gamma 90.000000
_cell_volume 1815.932463
_symmetry_space_group_name_H-M "C 2/M"
_symmetry_group_IT_number 12
_symmetry_cell_setting 'monoclinic'
loop_
_space_group_symop_operation_xyz
x,y,z
-x,y,-z
-x,-y,-z
x,-y,z
1/2+x,1/2+y,z
1/2-x,1/2+y,-z
1/2-x,1/2-y,-z
1/2+x,1/2-y,z
loop_
_atom_site_type_symbol
_atom_site_label
_atom_site_fract_x
_atom_site_fract_y
_atom_site_fract_z
Si Si1 0.015256 0.726170 0.872578
Si Si2 0.897689 0.112445 0.232975
Si Si3 0.771067 0.888553 0.881376
Si Si4 0.639893 0.888880 0.377373
Si Si5 0.311882 0.728186 0.293368
O O1 0.897940 0.690738 0.710330
O O2 0.878132 0.692508 0.820869
O O3 0.233169 0.672127 0.054283
O O4 0.072398 0.836804 0.936867
O O5 0.879208 0.153246 0.292554
O O6 0.131384 0.124275 0.404746
O O7 0.845250 0.000000 0.187040
O O8 0.543122 0.881892 0.722831
O O9 0.758270 0.824142 0.804571
O O10 0.821285 0.000000 0.912280
O O11 0.632353 0.000000 0.343662
O O12 0.500000 0.747241 0.500000
#
# Coordination Sequence:
#
# PCOD9208158 Si02
#       5
#     8   8   8   8   8
#     4  11  22  39  64  90 124 158 204 249 302 364
#     4  10  21  37  62  92 126 160 195 245 304 367
#     4  10  23  42  63  88 123 162 205 256 300 353
#     4  10  21  40  64  94 126 157 197 248 307 365
#     4  11  23  40  60  90 123 164 208 248 301 359
#
# _framework density 22.027251
#
# number of rings (size 3 to 8) (size 9 to 14) (size 15 to 20)
#    0.000    1.600    2.000    3.600    0.000    8.000 
#    3.600    0.000    0.000    0.000    0.000    0.000 
#    0.000    0.000    0.000    0.000    0.000    0.000 
#
# Total GULP energy -111885.295957 kJ/mol
# GULP energy per Si atom -5594.264798 kJ/mol
# Density = 2.197712 g / cm^3
# Si number density = 22.027251 Si / 1000 Ang^3
#
#
#
# Elastic Constant Matrix: (Units=GPa)
#
#
# Indices 1 2 3 4 5 6 
#
# 1 48.5763 9.1039 -12.5292 0.0003 12.0298 -0.0017
# 2 9.1039 115.2073 17.6707 -0.0049 -13.4366 -0.0028
# 3 -12.5292 17.6707 66.9269 -0.0176 10.5855 -0.0071
# 4 0.0003 -0.0049 -0.0176 26.5719 0.0016 4.1868
# 5 12.0298 -13.4366 10.5855 0.0016 37.6780 0.0020
# 6 -0.0017 -0.0028 -0.0071 4.1868 0.0020 9.0528
#
#
#
# Elastic Compliance Matrix: (Units=1/GPa)
#
#
# Indices 1 2 3 4 5 6 
#
# 1 0.026752 -0.004854 0.008283 0.000003 -0.012599 0.000011
# 2 -0.004854 0.010568 -0.004751 -0.000001 0.006653 -0.000002
# 3 0.008283 -0.004751 0.019290 0.000010 -0.009758 0.000013
# 4 0.000003 -0.000001 0.000010 0.040592 -0.000005 -0.018773
# 5 -0.012599 0.006653 -0.009758 -0.000005 0.035678 -0.000014
# 6 0.000011 -0.000002 0.000013 -0.018773 -0.000014 0.119146
#
#
# Mechanical properties :
#
#
# Convention : Reuss Voigt Hill
#
# Bulk Modulus (GPa) = 18.53036 28.80014 23.66525
# Shear Modulus (GPa) = 18.33789 29.09155 23.71472
#
# Velocity S-wave (km/s) = 2.88845 3.63810 3.28473
# Velocity P-wave (km/s) = 4.42210 5.54534 5.01527
#
# Compressibility (1/GPa) = 0.05396549
#
# Stress axis : x y z
#
# Youngs Moduli (GPa) = 37.37994 94.62241 51.83987
#
# Poissons Ratio (x) = 0.45928 -0.42937
# Poissons Ratio (y) = 0.18144 0.24631
# Poissons Ratio (z) = -0.30960 0.44959
#
# Static dielectric constant tensor:
#      x y z
#    x 1.807970 0.000000 0.019660 
#    y 0.000000 1.801430 0.000000 
#    z 0.019660 0.000000 1.812640 
# 
# From -- ./inp_files/84941.got.cif
#   From: 2010.05.17/outbox.cif.g08.bks.cpg/sg12_43_cif.got.tgz:84941.got - 2010.06.03 13:09:07.
