data_PCOD9208787
_publ_section_title
;
Structure prediction by ZEFSAII (Michael W. Deem and Ramdas Pophale) SiO2 
 PCOD9208787
Probable space group: C 2/M
;
_chemical_formula_sum "Si O2"
_cell_formula_units_Z 40
_cell_length_a 22.545049
_cell_length_b 12.753966
_cell_length_c 5.938827
_cell_angle_alpha 90.000000
_cell_angle_beta 106.287199
_cell_angle_gamma 90.000000
_cell_volume 1639.111943
_symmetry_space_group_name_H-M "C 2/M"
_symmetry_group_IT_number 12
_symmetry_cell_setting 'monoclinic'
loop_
_space_group_symop_operation_xyz
x,y,z
-x,y,-z
-x,-y,-z
x,-y,z
1/2+x,1/2+y,z
1/2-x,1/2+y,-z
1/2-x,1/2-y,-z
1/2+x,1/2-y,z
loop_
_atom_site_type_symbol
_atom_site_label
_atom_site_fract_x
_atom_site_fract_y
_atom_site_fract_z
Si Si1 0.433587 0.304232 0.922775
Si Si2 0.699829 0.620656 0.307151
Si Si3 0.440327 0.113442 0.597393
Si Si4 0.878947 0.618458 0.121312
Si Si5 0.740410 0.377671 0.847643
O O1 0.374367 0.371738 0.797306
O O2 0.443196 0.213087 0.751750
O O3 0.414832 0.226485 0.107762
O O4 0.500000 0.359889 0.000000
O O5 0.721539 0.500000 0.335134
O O6 0.716507 0.663325 0.577606
O O7 0.723047 0.662918 0.084323
O O8 0.500000 0.114619 0.500000
O O9 0.441566 0.000000 0.711685
O O10 0.376939 0.119604 0.388790
O O11 0.905452 0.500000 0.112452
O O12 0.814767 0.621359 0.924437
O O13 0.718574 0.500000 0.830664
#
# Coordination Sequence:
#
# PCOD9208787 Si02
#       5
#     8   8   8   8   8
#     4  12  25  38  62  91 127 165 217 259 312 377
#     4  10  24  45  67  91 126 167 214 271 317 364
#     4  10  21  38  59  88 131 171 206 251 311 378
#     4  10  22  39  63  93 128 165 202 254 319 387
#     4   9  21  43  67  93 125 165 210 261 322 377
#
# _framework density 24.403455999999998
#
# number of rings (size 3 to 8) (size 9 to 14) (size 15 to 20)
#    0.000    1.800    2.000    0.600    5.600    2.800 
#    0.000    0.000    0.000    4.200    0.000    0.000 
#    0.000    0.000    0.000    0.000    0.000    0.000 
#
# Total GULP energy -111374.385065 kJ/mol
# GULP energy per Si atom -5568.719253 kJ/mol
# Density = 2.434791 g / cm^3
# Si number density = 24.403456 Si / 1000 Ang^3
#
#
#
# Elastic Constant Matrix: (Units=GPa)
#
#
# Indices 1 2 3 4 5 6 
#
# 1 75.9645 -6.9406 60.0899 0.0000 16.1878 0.0000
# 2 -6.9406 56.3804 17.9125 0.0000 -9.2861 0.0000
# 3 60.0899 17.9125 164.9543 0.0000 5.0009 0.0000
# 4 0.0000 0.0000 0.0000 29.1760 0.0000 4.3337
# 5 16.1878 -9.2861 5.0009 0.0000 46.8760 0.0000
# 6 0.0000 0.0000 0.0000 4.3337 0.0000 34.8318
#
#
#
# Elastic Compliance Matrix: (Units=1/GPa)
#
#
# Indices 1 2 3 4 5 6 
#
# 1 0.021019 0.004192 -0.007943 0.000000 -0.005581 0.000000
# 2 0.004192 0.019932 -0.003779 0.000000 0.002904 0.000000
# 3 -0.007943 -0.003779 0.009336 0.000000 0.000998 0.000000
# 4 0.000000 0.000000 0.000000 0.034920 0.000000 -0.004345
# 5 -0.005581 0.002904 0.000998 0.000000 0.023729 0.000000
# 6 0.000000 0.000000 0.000000 -0.004345 0.000000 0.029250
#
#
# Mechanical properties :
#
#
# Convention : Reuss Voigt Hill
#
# Bulk Modulus (GPa) = 28.38810 48.82475 38.60642
# Shear Modulus (GPa) = 30.30499 37.25926 33.78213
#
# Velocity S-wave (km/s) = 3.52779 3.91167 3.72468
# Velocity P-wave (km/s) = 5.31524 6.36021 5.86106
#
# Compressibility (1/GPa) = 0.03522603
#
# Stress axis : x y z
#
# Youngs Moduli (GPa) = 47.57493 50.17110 107.11292
#
# Poissons Ratio (x) = -0.21031 0.85080
# Poissons Ratio (y) = -0.19943 0.40483
# Poissons Ratio (z) = 0.37789 0.18962
#
# Static dielectric constant tensor:
#      x y z
#    x 2.088040 0.000000 -0.040530 
#    y 0.000000 1.929610 0.000000 
#    z -0.040530 0.000000 2.051680 
# 
# From -- ./inp_files/20264.got.cif
#   From: 2010.05.17/outbox.cif.g08.bks.cpg/sg12_11_cif.got.tgz:20264.got - 2010.06.03 13:09:07.
