data_PCOD9208601
_publ_section_title
;
Structure prediction by ZEFSAII (Michael W. Deem and Ramdas Pophale) SiO2 
 PCOD9208601
Probable space group: C 2/M
;
_chemical_formula_sum "Si O2"
_cell_formula_units_Z 58
_cell_length_a 13.587111
_cell_length_b 24.279931
_cell_length_c 8.748576
_cell_angle_alpha 90.000000
_cell_angle_beta 71.079636
_cell_angle_gamma 90.000000
_cell_volume 2730.168072
_symmetry_space_group_name_H-M "C 2/M"
_symmetry_group_IT_number 12
_symmetry_cell_setting 'monoclinic'
loop_
_space_group_symop_operation_xyz
x,y,z
-x,y,-z
-x,-y,-z
x,-y,z
1/2+x,1/2+y,z
1/2-x,1/2+y,-z
1/2-x,1/2-y,-z
1/2+x,1/2-y,z
loop_
_atom_site_type_symbol
_atom_site_label
_atom_site_fract_x
_atom_site_fract_y
_atom_site_fract_z
Si Si1 0.944725 0.905941 0.267264
Si Si2 0.500000 0.500000 0.000000
Si Si3 0.211655 0.830642 0.828979
Si Si4 0.263943 0.844874 0.153454
Si Si5 0.732133 0.564780 0.409671
Si Si6 0.916528 0.275542 0.215843
Si Si7 0.116732 0.354392 0.487617
Si Si8 0.060988 0.204072 0.313184
O O1 0.857011 0.880420 0.200734
O O2 0.879157 0.925559 0.449726
O O3 0.018607 0.855462 0.278128
O O4 0.997795 0.952369 0.138307
O O5 0.149178 0.776751 0.808180
O O6 0.321462 0.833550 0.689812
O O7 0.229503 0.837920 0.997939
O O8 0.243547 0.903538 0.242620
O O9 0.381678 0.823624 0.116983
O O10 0.182576 0.804140 0.281294
O O11 0.749469 0.500000 0.387857
O O12 0.818975 0.595295 0.470363
O O13 0.883213 0.305059 0.389910
O O14 0.027965 0.248597 0.201367
O O15 0.000000 0.369144 0.500000
O O16 0.000000 0.216590 0.500000
#
# Coordination Sequence:
#
# PCOD9208601 Si02
#       8
#     8   2   8   8   8   8   8   8
#     4  10  21  38  58  90 122 167 207 266 310 383
#     4  12  20  36  66  88 126 160 222 260 310 364
#     4  10  22  41  59  89 133 163 208 265 326 377
#     4  11  23  41  60  93 130 172 210 264 324 381
#     4  10  21  43  64  88 129 166 215 264 320 373
#     4  10  23  38  63  88 127 168 210 262 317 382
#     4  10  22  40  67  95 120 167 220 262 318 393
#     4  11  22  38  61  89 127 167 216 253 312 389
#
# _framework density 21.244114
#
# number of rings (size 3 to 8) (size 9 to 14) (size 15 to 20)
#    0.000    1.655    2.069    2.069    5.793    1.931 
#    7.448    3.103    0.000    0.828    0.000    0.000 
#    0.000    0.000    0.000    0.000    0.000    0.000 
#
# Total GULP energy -161710.329056 kJ/mol
# GULP energy per Si atom -5576.218243 kJ/mol
# Density = 2.119576 g / cm^3
# Si number density = 21.244114 Si / 1000 Ang^3
#
#
#
# Elastic Constant Matrix: (Units=GPa)
#
#
# Indices 1 2 3 4 5 6 
#
# 1 79.8379 28.0591 36.4052 0.0000 9.4199 0.0000
# 2 28.0591 139.7223 46.4524 0.0000 8.5169 0.0000
# 3 36.4052 46.4524 50.7486 0.0000 1.2423 0.0000
# 4 0.0000 0.0000 0.0000 25.8362 0.0000 2.1085
# 5 9.4199 8.5169 1.2423 0.0000 23.4606 0.0000
# 6 0.0000 0.0000 0.0000 2.1085 0.0000 11.5617
#
#
#
# Elastic Compliance Matrix: (Units=1/GPa)
#
#
# Indices 1 2 3 4 5 6 
#
# 1 0.020019 0.001678 -0.015705 0.000000 -0.007816 0.000000
# 2 0.001678 0.010680 -0.010882 0.000000 -0.003975 0.000000
# 3 -0.015705 -0.010882 0.040734 0.000000 0.008100 0.000000
# 4 0.000000 0.000000 0.000000 0.039290 0.000000 -0.007165
# 5 -0.007816 -0.003975 0.008100 0.000000 0.046777 0.000000
# 6 0.000000 0.000000 0.000000 -0.007165 0.000000 0.087799
#
#
# Mechanical properties :
#
#
# Convention : Reuss Voigt Hill
#
# Bulk Modulus (GPa) = 46.26702 54.68248 50.47475
# Shear Modulus (GPa) = 16.53846 22.79784 19.66815
#
# Velocity S-wave (km/s) = 2.79318 3.27943 3.04602
# Velocity P-wave (km/s) = 5.67702 6.33526 6.01515
#
# Compressibility (1/GPa) = 0.02161367
#
# Stress axis : x y z
#
# Youngs Moduli (GPa) = 49.95135 93.62925 24.54928
#
# Poissons Ratio (x) = -0.15707 0.38556
# Poissons Ratio (y) = -0.08380 0.26715
# Poissons Ratio (z) = 0.78451 1.01891
#
# Static dielectric constant tensor:
#      x y z
#    x 1.800670 0.000000 -0.013850 
#    y 0.000000 1.740470 0.000000 
#    z -0.013850 0.000000 1.819850 
# 
# From -- ./inp_files/65364.got.cif
#   From: 2010.05.17/outbox.cif.g08.bks.cpg/sg12_33_cif.got.tgz:65364.got - 2010.06.03 13:09:07.
