data_PCOD9208681
_publ_section_title
;
Structure prediction by ZEFSAII (Michael W. Deem and Ramdas Pophale) SiO2 
 PCOD9208681
Probable space group: C 2/M
;
_chemical_formula_sum "Si O2"
_cell_formula_units_Z 40
_cell_length_a 14.296223
_cell_length_b 8.649112
_cell_length_c 22.767148
_cell_angle_alpha 90.000000
_cell_angle_beta 41.377482
_cell_angle_gamma 90.000000
_cell_volume 1860.861717
_symmetry_space_group_name_H-M "C 2/M"
_symmetry_group_IT_number 12
_symmetry_cell_setting 'monoclinic'
loop_
_space_group_symop_operation_xyz
x,y,z
-x,y,-z
-x,-y,-z
x,-y,z
1/2+x,1/2+y,z
1/2-x,1/2+y,-z
1/2-x,1/2-y,-z
1/2+x,1/2-y,z
loop_
_atom_site_type_symbol
_atom_site_label
_atom_site_fract_x
_atom_site_fract_y
_atom_site_fract_z
Si Si1 0.656651 0.815649 0.866695
Si Si2 0.965489 0.823929 0.426709
Si Si3 0.750897 0.319802 0.700530
Si Si4 0.845966 0.320756 0.369747
Si Si5 0.337307 0.314859 0.013662
O O1 0.731130 0.761826 0.772278
O O2 0.495800 0.753848 0.936757
O O3 0.656797 0.000000 0.872170
O O4 0.720371 0.741044 0.895827
O O5 0.933421 0.781862 0.374190
O O6 0.816231 0.812517 0.530366
O O7 0.085308 0.709362 0.392896
O O8 0.017382 0.000000 0.408752
O O9 0.719115 0.500000 0.719991
O O10 0.655489 0.241817 0.695430
O O11 0.890507 0.500000 0.351881
O O12 0.342357 0.500000 0.009550
O O13 0.250000 0.250000 0.000000
#
# Coordination Sequence:
#
# PCOD9208681 Si02
#       5
#     8   8   8   8   8
#     4  11  23  41  62  89 120 152 193 239 287 342
#     4  10  21  38  59  84 115 153 197 243 291 345
#     4  12  24  38  58  86 119 155 194 240 292 343
#     4  10  21  38  59  84 115 153 197 243 291 345
#     4  11  22  41  66  92 120 153 190 231 284 344
#
# _framework density 21.495417
#
# number of rings (size 3 to 8) (size 9 to 14) (size 15 to 20)
#    0.000    1.200    0.000    8.400    0.000    6.400 
#    0.000    8.000    0.000    0.000    0.000    0.000 
#    0.000    0.000    0.000    0.000    0.000    0.000 
#
# Total GULP energy -111924.841522 kJ/mol
# GULP energy per Si atom -5596.242076 kJ/mol
# Density = 2.144649 g / cm^3
# Si number density = 21.495417 Si / 1000 Ang^3
#
#
#
# Elastic Constant Matrix: (Units=GPa)
#
#
# Indices 1 2 3 4 5 6 
#
# 1 94.0952 22.1353 24.2256 0.0000 39.2727 0.0000
# 2 22.1353 148.0195 28.7264 0.0000 18.7528 0.0000
# 3 24.2256 28.7264 58.9741 0.0000 29.6487 0.0000
# 4 0.0000 0.0000 0.0000 31.8652 0.0000 2.4153
# 5 39.2727 18.7528 29.6487 0.0000 36.1716 0.0000
# 6 0.0000 0.0000 0.0000 2.4153 0.0000 35.3820
#
#
#
# Elastic Compliance Matrix: (Units=1/GPa)
#
#
# Indices 1 2 3 4 5 6 
#
# 1 0.020223 -0.000735 0.004929 0.000000 -0.025615 0.000000
# 2 -0.000735 0.007537 -0.003072 0.000000 -0.000591 0.000000
# 3 0.004929 -0.003072 0.031157 0.000000 -0.029297 0.000000
# 4 0.000000 0.000000 0.000000 0.031545 0.000000 -0.002153
# 5 -0.025615 -0.000591 -0.029297 0.000000 0.079778 0.000000
# 6 0.000000 0.000000 0.000000 -0.002153 0.000000 0.028410
#
#
# Mechanical properties :
#
#
# Convention : Reuss Voigt Hill
#
# Bulk Modulus (GPa) = 16.35072 50.14040 33.24556
# Shear Modulus (GPa) = 23.06341 35.75053 29.40697
#
# Velocity S-wave (km/s) = 3.27914 4.08262 3.70274
# Velocity P-wave (km/s) = 4.68616 6.75281 5.81208
#
# Compressibility (1/GPa) = 0.06115938
#
# Stress axis : x y z
#
# Youngs Moduli (GPa) = 49.44975 132.68033 32.09519
#
# Poissons Ratio (x) = 0.09759 -0.15819
# Poissons Ratio (y) = 0.03637 0.09860
# Poissons Ratio (z) = -0.24373 0.40761
#
# Static dielectric constant tensor:
#      x y z
#    x 1.768160 0.000000 -0.020270 
#    y 0.000000 1.714180 0.000000 
#    z -0.020270 0.000000 1.855320 
# 
# From -- ./inp_files/308162.got.cif
#   From: 2010.05.17/outbox.cif.g08.bks.cpg/sg12_155_cif.got.tgz:308162.got - 2010.06.03 13:09:07.
