data_PCOD9208911
_publ_section_title
;
Structure prediction by ZEFSAII (Michael W. Deem and Ramdas Pophale) SiO2 
 PCOD9208911
Probable space group: C 2/M
;
_chemical_formula_sum "Si O2"
_cell_formula_units_Z 56
_cell_length_a 9.538043
_cell_length_b 18.385675
_cell_length_c 17.726235
_cell_angle_alpha 90.000000
_cell_angle_beta 109.286422
_cell_angle_gamma 90.000000
_cell_volume 2934.078956
_symmetry_space_group_name_H-M "C 2/M"
_symmetry_group_IT_number 12
_symmetry_cell_setting 'monoclinic'
loop_
_space_group_symop_operation_xyz
x,y,z
-x,y,-z
-x,-y,-z
x,-y,z
1/2+x,1/2+y,z
1/2-x,1/2+y,-z
1/2-x,1/2-y,-z
1/2+x,1/2-y,z
loop_
_atom_site_type_symbol
_atom_site_label
_atom_site_fract_x
_atom_site_fract_y
_atom_site_fract_z
Si Si1 0.098364 0.915859 0.354078
Si Si2 0.154934 0.914621 0.070969
Si Si3 0.028453 0.694765 0.228259
Si Si4 0.671043 0.323684 0.510169
Si Si5 0.873236 0.311393 0.040163
Si Si6 0.780882 0.835248 0.760592
Si Si7 0.739936 0.412691 0.672404
O O1 0.167550 0.873198 0.435731
O O2 0.184154 0.897176 0.293335
O O3 0.921741 0.898789 0.318742
O O4 0.107629 0.000000 0.373397
O O5 0.283611 0.885953 0.038281
O O6 0.165365 0.865055 0.148100
O O7 0.171723 0.000000 0.092516
O O8 0.000000 0.904208 0.000000
O O9 0.955079 0.703631 0.133379
O O10 0.891018 0.686556 0.260947
O O11 0.130070 0.765601 0.254586
O O12 0.131293 0.623767 0.254954
O O13 0.500000 0.307824 0.500000
O O14 0.750000 0.250000 0.500000
O O15 0.738040 0.368737 0.592651
O O16 0.750000 0.250000 0.000000
O O17 0.000000 0.314287 0.000000
O O18 0.757313 0.500000 0.665724
#
# Coordination Sequence:
#
# PCOD9208911 Si02
#       7
#     8   8   8   8   8   8   8
#     4  10  21  38  61  85 115 158 200 239 292 356
#     4  10  22  39  59  84 117 154 191 239 298 356
#     4  11  23  37  60  87 117 154 194 244 296 352
#     4  10  21  38  60  86 117 155 201 246 293 349
#     4  11  22  39  62  87 117 155 199 244 294 355
#     4  11  22  38  58  85 118 150 195 244 293 351
#     4  10  22  40  60  87 123 158 196 247 303 356
#
# _framework density 19.086058000000001
#
# number of rings (size 3 to 8) (size 9 to 14) (size 15 to 20)
#    0.000    1.571    0.000    5.571    0.000    9.429 
#    0.000    1.429    0.000    2.571    0.000    0.000 
#    0.000    0.000    0.000    0.000    0.000    0.000 
#
# Total GULP energy -156361.865343 kJ/mol
# GULP energy per Si atom -5584.352334 kJ/mol
# Density = 1.904262 g / cm^3
# Si number density = 19.086058 Si / 1000 Ang^3
#
#
#
# Elastic Constant Matrix: (Units=GPa)
#
#
# Indices 1 2 3 4 5 6 
#
# 1 105.2436 51.2927 46.8794 0.0000 -10.0232 0.0000
# 2 51.2927 104.9207 26.7413 0.0000 3.8772 0.0000
# 3 46.8794 26.7413 71.9656 0.0000 -5.6586 0.0000
# 4 0.0000 0.0000 0.0000 30.0413 0.0000 2.4120
# 5 -10.0232 3.8772 -5.6586 0.0000 24.5861 0.0000
# 6 0.0000 0.0000 0.0000 2.4120 0.0000 36.0057
#
#
#
# Elastic Compliance Matrix: (Units=1/GPa)
#
#
# Indices 1 2 3 4 5 6 
#
# 1 0.016776 -0.006359 -0.008095 0.000000 0.005979 0.000000
# 2 -0.006359 0.013105 -0.001114 0.000000 -0.004916 0.000000
# 3 -0.008095 -0.001114 0.019693 0.000000 0.001408 0.000000
# 4 0.000000 0.000000 0.000000 0.033468 0.000000 -0.002242
# 5 0.005979 -0.004916 0.001408 0.000000 0.044210 0.000000
# 6 0.000000 0.000000 0.000000 -0.002242 0.000000 0.027924
#
#
# Mechanical properties :
#
#
# Convention : Reuss Voigt Hill
#
# Bulk Modulus (GPa) = 54.23372 59.10630 56.67001
# Shear Modulus (GPa) = 25.97951 28.60770 27.29361
#
# Velocity S-wave (km/s) = 3.69342 3.87574 3.78567
# Velocity P-wave (km/s) = 6.83121 7.14591 6.99033
#
# Compressibility (1/GPa) = 0.01843871
#
# Stress axis : x y z
#
# Youngs Moduli (GPa) = 59.60745 76.30468 50.77824
#
# Poissons Ratio (x) = 0.48524 0.41106
# Poissons Ratio (y) = 0.37906 0.05656
# Poissons Ratio (z) = 0.48254 0.08499
#
# Static dielectric constant tensor:
#      x y z
#    x 1.663920 0.000000 0.016050 
#    y 0.000000 1.662650 0.000000 
#    z 0.016050 0.000000 1.574150 
# 
# From -- ./inp_files/257140.got.cif
#   From: 2010.05.17/outbox.cif.g08.bks.cpg/sg12_129_cif.got.tgz:257140.got - 2010.06.03 13:09:07.
