data_PCOD9208066
_publ_section_title
;
Structure prediction by ZEFSAII (Michael W. Deem and Ramdas Pophale) SiO2 
 PCOD9208066
Probable space group: C 2/M
;
_chemical_formula_sum "Si O2"
_cell_formula_units_Z 32
_cell_length_a 19.087832
_cell_length_b 15.110199
_cell_length_c 5.340624
_cell_angle_alpha 90.000000
_cell_angle_beta 111.622297
_cell_angle_gamma 90.000000
_cell_volume 1431.958384
_symmetry_space_group_name_H-M "C 2/M"
_symmetry_group_IT_number 12
_symmetry_cell_setting 'monoclinic'
loop_
_space_group_symop_operation_xyz
x,y,z
-x,y,-z
-x,-y,-z
x,-y,z
1/2+x,1/2+y,z
1/2-x,1/2+y,-z
1/2-x,1/2-y,-z
1/2+x,1/2-y,z
loop_
_atom_site_type_symbol
_atom_site_label
_atom_site_fract_x
_atom_site_fract_y
_atom_site_fract_z
Si Si1 0.728253 0.149530 0.899652
Si Si2 0.311868 0.599756 0.498328
Si Si3 0.049757 0.907181 0.820234
Si Si4 0.410135 0.249830 0.372619
O O1 0.767010 0.116868 0.695605
O O2 0.639412 0.162745 0.726237
O O3 0.750000 0.250000 0.000000
O O4 0.755491 0.100147 0.185203
O O5 0.346063 0.500000 0.554017
O O6 0.370391 0.682118 0.522928
O O7 0.095270 0.817218 0.869733
O O8 0.000000 0.906922 0.500000
O O9 0.092686 0.000000 0.870102
O O10 0.000000 0.907031 0.000000
O O11 0.500000 0.230071 0.500000
#
# Coordination Sequence:
#
# PCOD9208066 Si02
#       4
#     8   8   8   8
#     4  10  22  41  61  87 123 164 205 242 296 367
#     4  11  23  41  64  88 121 164 205 246 297 364
#     4   9  18  30  45  73 114 149 175 216 282 351
#     4  10  21  37  61  92 123 153 196 252 308 356
#
# _framework density 22.347017999999998
#
# number of rings (size 3 to 8) (size 9 to 14) (size 15 to 20)
#    0.000    2.000    0.000    4.500    0.000   13.500 
#    0.000   12.500    0.000    4.500    0.000    0.000 
#    0.000    0.000    0.000    0.000    0.000    0.000 
#
# Total GULP energy -89120.095716 kJ/mol
# GULP energy per Si atom -5570.005982 kJ/mol
# Density = 2.229616 g / cm^3
# Si number density = 22.347018 Si / 1000 Ang^3
#
#
#
# Elastic Constant Matrix: (Units=GPa)
#
#
# Indices 1 2 3 4 5 6 
#
# 1 154.0466 26.7273 87.6954 0.0000 2.4593 0.0000
# 2 26.7273 49.8412 38.0905 0.0000 -0.7944 0.0000
# 3 87.6954 38.0905 195.0509 0.0000 -16.5966 0.0000
# 4 0.0000 0.0000 0.0000 10.2335 0.0000 9.8305
# 5 2.4593 -0.7944 -16.5966 0.0000 52.7233 0.0000
# 6 0.0000 0.0000 0.0000 9.8305 0.0000 -568.4188
#
#
#
# Elastic Compliance Matrix: (Units=1/GPa)
#
#
# Indices 1 2 3 4 5 6 
#
# 1 0.009031 -0.001950 -0.003820 0.000000 -0.001653 0.000000
# 2 -0.001950 0.024069 -0.003889 0.000000 -0.000771 0.000000
# 3 -0.003820 -0.003889 0.007824 0.000000 0.002582 0.000000
# 4 0.000000 0.000000 0.000000 0.096122 0.000000 0.001662
# 5 -0.001653 -0.000771 0.002582 0.000000 0.019845 0.000000
# 6 0.000000 0.000000 0.000000 0.001662 0.000000 -0.001731
#
#
# Mechanical properties :
#
#
# Convention : Reuss Voigt Hill
#
# Bulk Modulus (GPa) = 46.28456 78.21835 62.25146
# Shear Modulus (GPa) = 27.52075 -84.66403 -28.57164
#
# Velocity S-wave (km/s) = 3.51311 -6.16184 -3.57955
# Velocity P-wave (km/s) = 6.10021 3.94293 3.29134
#
# Compressibility (1/GPa) = 0.02160548
#
# Stress axis : x y z
#
# Youngs Moduli (GPa) = 110.72957 41.54660 127.81573
#
# Poissons Ratio (x) = 0.08100 0.48830
# Poissons Ratio (y) = 0.21588 0.49713
# Poissons Ratio (z) = 0.42302 0.16159
#
# Static dielectric constant tensor:
#      x y z
#    x 2.021900 0.000000 0.092740 
#    y 0.000000 1.862340 0.000000 
#    z 0.092740 0.000000 1.924320 
# 
# From -- ./inp_files/19900.got.cif
#   From: 2010.05.17/outbox.cif.g08.bks.cpg/sg12_10_cif.got.tgz:19900.got - 2010.06.03 13:09:07.
