data_PCOD9208445
_publ_section_title
;
Structure prediction by ZEFSAII (Michael W. Deem and Ramdas Pophale) SiO2 
 PCOD9208445
Probable space group: C 2/M
;
_chemical_formula_sum "Si O2"
_cell_formula_units_Z 48
_cell_length_a 30.817953
_cell_length_b 8.871166
_cell_length_c 15.369500
_cell_angle_alpha 90.000000
_cell_angle_beta 139.965097
_cell_angle_gamma 90.000000
_cell_volume 2702.880382
_symmetry_space_group_name_H-M "C 2/M"
_symmetry_group_IT_number 12
_symmetry_cell_setting 'monoclinic'
loop_
_space_group_symop_operation_xyz
x,y,z
-x,y,-z
-x,-y,-z
x,-y,z
1/2+x,1/2+y,z
1/2-x,1/2+y,-z
1/2-x,1/2-y,-z
1/2+x,1/2-y,z
loop_
_atom_site_type_symbol
_atom_site_label
_atom_site_fract_x
_atom_site_fract_y
_atom_site_fract_z
Si Si1 0.899380 0.181067 0.901923
Si Si2 0.047527 0.181691 0.201635
Si Si3 0.896744 0.318293 0.199608
Si Si4 0.195950 0.681381 0.105925
Si Si5 0.051965 0.319652 0.394397
Si Si6 0.149343 0.181048 0.688603
O O1 0.907937 0.224746 0.814029
O O2 0.838410 0.253090 0.860724
O O3 0.894233 0.000000 0.896936
O O4 0.970146 0.221552 0.057849
O O5 0.067112 0.259457 0.321204
O O6 0.050466 0.000000 0.215235
O O7 0.892350 0.500000 0.201640
O O8 0.873358 0.243107 0.252841
O O9 0.974226 0.280070 0.297179
O O10 0.848887 0.271364 0.046132
O O11 0.193229 0.500000 0.106000
O O12 0.273354 0.726625 0.211619
O O13 0.058039 0.500000 0.406535
O O14 0.100662 0.246507 0.540057
O O15 0.145787 0.000000 0.683264
#
# Coordination Sequence:
#
# PCOD9208445 Si02
#       6
#     8   8   8   8   8   8
#     4   9  18  33  57  86 113 142 178 225 275 325
#     4   9  18  34  56  85 115 141 178 226 274 325
#     4  10  21  38  58  81 109 143 187 233 274 322
#     4  10  21  38  57  82 114 146 183 228 275 324
#     4  11  22  37  58  83 112 147 184 227 277 326
#     4  11  24  38  55  80 113 150 186 227 274 327
#
# _framework density 17.758832000000002
#
# number of rings (size 3 to 8) (size 9 to 14) (size 15 to 20)
#    0.000    2.000    1.667    3.000    0.000    6.000 
#    0.000    2.500    0.000    0.000    0.000    0.000 
#    0.000    0.000    0.000    0.000    0.000    0.000 
#
# Total GULP energy -134024.829897 kJ/mol
# GULP energy per Si atom -5584.367912 kJ/mol
# Density = 1.771841 g / cm^3
# Si number density = 17.758832 Si / 1000 Ang^3
#
#
#
# Elastic Constant Matrix: (Units=GPa)
#
#
# Indices 1 2 3 4 5 6 
#
# 1 171.3876 47.5793 93.8410 0.0000 -15.3821 0.0000
# 2 47.5793 24.2095 41.9906 0.0000 0.9416 0.0000
# 3 93.8410 41.9906 94.7274 0.0000 32.7964 0.0000
# 4 0.0000 0.0000 0.0000 26.8679 0.0000 -3.9016
# 5 -15.3821 0.9416 32.7964 0.0000 -1.4603 0.0000
# 6 0.0000 0.0000 0.0000 -3.9016 0.0000 37.6981
#
#
#
# Elastic Compliance Matrix: (Units=1/GPa)
#
#
# Indices 1 2 3 4 5 6 
#
# 1 0.010387 -0.029454 0.005381 0.000000 -0.007553 0.000000
# 2 -0.029454 0.133466 -0.019052 0.000000 -0.031576 0.000000
# 3 0.005381 -0.019052 0.004279 0.000000 0.027129 0.000000
# 4 0.000000 0.000000 0.000000 0.037787 0.000000 0.003911
# 5 -0.007553 -0.031576 0.027129 0.000000 -0.016319 0.000000
# 6 0.000000 0.000000 0.000000 0.003911 0.000000 0.026931
#
#
# Mechanical properties :
#
#
# Convention : Reuss Voigt Hill
#
# Bulk Modulus (GPa) = 16.15983 73.01626 44.58805
# Shear Modulus (GPa) = 16.47944 19.74870 18.11407
#
# Velocity S-wave (km/s) = 3.04954 3.33836 3.19721
# Velocity P-wave (km/s) = 4.63886 7.48761 6.22829
#
# Compressibility (1/GPa) = 0.06188183
#
# Stress axis : x y z
#
# Youngs Moduli (GPa) = 96.27196 7.49257 233.71040
#
# Poissons Ratio (x) = 0.22068 -1.25762
# Poissons Ratio (y) = 2.83558 4.45269
# Poissons Ratio (z) = -0.51805 0.14275
#
# Static dielectric constant tensor:
#      x y z
#    x 1.584360 0.000000 0.005400 
#    y 0.000000 1.595860 0.000000 
#    z 0.005400 0.000000 1.586070 
# 
# From -- ./inp_files/229866.got.cif
#   From: 2010.05.17/outbox.cif.g08.bks.cpg/sg12_115_cif.got.tgz:229866.got - 2010.06.03 13:09:07.
