data_PCOD9208419
_publ_section_title
;
Structure prediction by ZEFSAII (Michael W. Deem and Ramdas Pophale) SiO2 
 PCOD9208419
Probable space group: C 2/M
;
_chemical_formula_sum "Si O2"
_cell_formula_units_Z 48
_cell_length_a 10.400693
_cell_length_b 25.460350
_cell_length_c 14.161793
_cell_angle_alpha 90.000000
_cell_angle_beta 141.897723
_cell_angle_gamma 90.000000
_cell_volume 2314.074384
_symmetry_space_group_name_H-M "C 2/M"
_symmetry_group_IT_number 12
_symmetry_cell_setting 'monoclinic'
loop_
_space_group_symop_operation_xyz
x,y,z
-x,y,-z
-x,-y,-z
x,-y,z
1/2+x,1/2+y,z
1/2-x,1/2+y,-z
1/2-x,1/2-y,-z
1/2+x,1/2-y,z
loop_
_atom_site_type_symbol
_atom_site_label
_atom_site_fract_x
_atom_site_fract_y
_atom_site_fract_z
Si Si1 0.937605 0.258752 0.682628
Si Si2 0.973673 0.562592 0.375036
Si Si3 0.238907 0.142153 0.117831
Si Si4 0.200532 0.940758 0.573015
Si Si5 0.176248 0.710971 0.177866
Si Si6 0.503440 0.902011 0.894712
O O1 0.750000 0.250000 0.500000
O O2 0.849387 0.257405 0.738689
O O3 0.088776 0.311272 0.766708
O O4 0.106306 0.215736 0.749689
O O5 0.951640 0.500000 0.342254
O O6 0.187432 0.583471 0.451442
O O7 0.000000 0.569336 0.500000
O O8 0.793277 0.596059 0.223171
O O9 0.290195 0.117612 0.042962
O O10 0.000000 0.157703 0.000000
O O11 0.380765 0.940777 0.755309
O O12 0.000000 0.913416 0.500000
O O13 0.137972 0.000000 0.509564
O O14 0.132624 0.650939 0.178575
O O15 0.000000 0.725854 0.000000
O O16 0.500000 0.921938 0.000000
#
# Coordination Sequence:
#
# PCOD9208419 Si02
#       6
#     8   8   8   8   8   8
#     4  11  23  38  57  84 113 146 189 236 286 339
#     4   9  19  36  57  84 117 151 189 234 284 337
#     4  10  22  39  58  83 115 149 189 236 286 342
#     4   9  18  33  53  78 109 143 180 225 275 329
#     4  10  21  38  57  79 110 146 183 228 282 340
#     4   9  20  36  54  78 106 141 180 223 275 329
#
# _framework density 20.742635
#
# number of rings (size 3 to 8) (size 9 to 14) (size 15 to 20)
#    0.000    2.333    0.000    1.500    0.000   10.000 
#    0.000    0.000    0.000    0.000    0.000    0.000 
#    0.000    0.000    0.000    0.000    0.000    0.000 
#
# Total GULP energy -133624.021748 kJ/mol
# GULP energy per Si atom -5567.667573 kJ/mol
# Density = 2.069542 g / cm^3
# Si number density = 20.742635 Si / 1000 Ang^3
#
#
#
# Elastic Constant Matrix: (Units=GPa)
#
#
# Indices 1 2 3 4 5 6 
#
# 1 86.4728 13.6534 45.5364 0.0000 -14.2276 0.0000
# 2 13.6534 39.6094 5.5638 0.0000 -3.9576 0.0000
# 3 45.5364 5.5638 89.7469 0.0000 -3.1273 0.0000
# 4 0.0000 0.0000 0.0000 -31.7881 0.0000 -109.6873
# 5 -14.2276 -3.9576 -3.1273 0.0000 43.4103 0.0000
# 6 0.0000 0.0000 0.0000 -109.6873 0.0000 -174.9415
#
#
#
# Elastic Compliance Matrix: (Units=1/GPa)
#
#
# Indices 1 2 3 4 5 6 
#
# 1 0.017469 -0.004366 -0.008428 0.000000 0.004720 0.000000
# 2 -0.004366 0.026773 0.000592 0.000000 0.001053 0.000000
# 3 -0.008428 0.000592 0.015326 0.000000 -0.001604 0.000000
# 4 0.000000 0.000000 0.000000 0.027038 0.000000 -0.016953
# 5 0.004720 0.001053 -0.001604 0.000000 0.024563 0.000000
# 6 0.000000 0.000000 0.000000 -0.016953 0.000000 0.004913
#
#
# Mechanical properties :
#
#
# Convention : Reuss Voigt Hill
#
# Bulk Modulus (GPa) = 28.43804 38.37070 33.40437
# Shear Modulus (GPa) = 32.84981 -22.59216 5.12883
#
# Velocity S-wave (km/s) = 3.98387 -3.30383 1.57416
# Velocity P-wave (km/s) = 5.90774 1.99622 4.40944
#
# Compressibility (1/GPa) = 0.03516416
#
# Stress axis : x y z
#
# Youngs Moduli (GPa) = 57.24570 37.35044 65.24780
#
# Poissons Ratio (x) = 0.16307 0.54992
# Poissons Ratio (y) = 0.24993 -0.03863
# Poissons Ratio (z) = 0.48248 -0.02212
#
# Static dielectric constant tensor:
#      x y z
#    x 1.783690 0.000000 0.015960 
#    y 0.000000 1.779890 0.000000 
#    z 0.015960 0.000000 1.791050 
# 
# From -- ./inp_files/209446.got.cif
#   From: 2010.05.17/outbox.cif.g08.bks.cpg/sg12_105_cif.got.tgz:209446.got - 2010.06.03 13:09:07.
