data_PCOD9208549
_publ_section_title
;
Structure prediction by ZEFSAII (Michael W. Deem and Ramdas Pophale) SiO2 
 PCOD9208549
Probable space group: C 2/M
;
_chemical_formula_sum "Si O2"
_cell_formula_units_Z 48
_cell_length_a 25.830859
_cell_length_b 7.649844
_cell_length_c 9.673152
_cell_angle_alpha 90.000000
_cell_angle_beta 77.910789
_cell_angle_gamma 90.000000
_cell_volume 1869.044110
_symmetry_space_group_name_H-M "C 2/M"
_symmetry_group_IT_number 12
_symmetry_cell_setting 'monoclinic'
loop_
_space_group_symop_operation_xyz
x,y,z
-x,y,-z
-x,-y,-z
x,-y,z
1/2+x,1/2+y,z
1/2-x,1/2+y,-z
1/2-x,1/2-y,-z
1/2+x,1/2-y,z
loop_
_atom_site_type_symbol
_atom_site_label
_atom_site_fract_x
_atom_site_fract_y
_atom_site_fract_z
Si Si1 0.233424 0.295992 0.702193
Si Si2 0.888681 0.711362 0.728408
Si Si3 0.445801 0.706199 0.097924
Si Si4 0.163062 0.794872 0.970894
Si Si5 0.662392 0.802295 0.504765
Si Si6 0.495927 0.210778 0.342697
O O1 0.241975 0.500000 0.661529
O O2 0.213989 0.285188 0.869086
O O3 0.285133 0.196757 0.622496
O O4 0.184501 0.226732 0.634659
O O5 0.888129 0.500000 0.721115
O O6 0.879100 0.779058 0.578212
O O7 0.946476 0.765864 0.748015
O O8 0.845074 0.768299 0.862153
O O9 0.444858 0.500000 0.066530
O O10 0.391007 0.779920 0.068607
O O11 0.452015 0.726567 0.259812
O O12 0.500000 0.780925 0.000000
O O13 0.166367 0.000000 0.941389
O O14 0.644622 0.000000 0.545447
O O15 0.500000 0.266718 0.500000
O O16 0.492392 0.000000 0.346332
#
# Coordination Sequence:
#
# PCOD9208549 Si02
#       6
#     8   8   8   8   8   8
#     4  10  21  38  62  88 113 146 188 233 285 341
#     4  10  21  38  58  84 115 150 189 233 283 334
#     4  10  21  39  58  80 115 154 191 231 277 331
#     4  11  23  38  58  84 115 152 192 234 280 333
#     4   9  20  39  61  84 116 149 184 233 284 338
#     4  10  22  37  58  87 117 149 189 234 282 335
#
# _framework density 25.681577000000001
#
# number of rings (size 3 to 8) (size 9 to 14) (size 15 to 20)
#    0.000    2.000    1.667    1.000    2.333    4.000 
#    0.000    0.000    0.000    0.000    0.000    0.000 
#    0.000    0.000    0.000    0.000    0.000    0.000 
#
# Total GULP energy -134194.095418 kJ/mol
# GULP energy per Si atom -5591.420642 kJ/mol
# Density = 2.562312 g / cm^3
# Si number density = 25.681577 Si / 1000 Ang^3
#
#
#
# Elastic Constant Matrix: (Units=GPa)
#
#
# Indices 1 2 3 4 5 6 
#
# 1 59.5153 -1.8784 -0.1033 0.0000 6.1418 0.0000
# 2 -1.8784 70.9664 -11.1742 0.0000 -2.0208 0.0000
# 3 -0.1033 -11.1742 101.0235 0.0000 -4.3253 0.0000
# 4 0.0000 0.0000 0.0000 -13.2006 0.0000 8.5702
# 5 6.1418 -2.0208 -4.3253 0.0000 51.5747 0.0000
# 6 0.0000 0.0000 0.0000 8.5702 0.0000 9.1967
#
#
#
# Elastic Compliance Matrix: (Units=1/GPa)
#
#
# Indices 1 2 3 4 5 6 
#
# 1 0.017022 0.000389 -0.000026 0.000000 -0.002014 0.000000
# 2 0.000389 0.014375 0.001618 0.000000 0.000653 0.000000
# 3 -0.000026 0.001618 0.010117 0.000000 0.000915 0.000000
# 4 0.000000 0.000000 0.000000 -0.047199 0.000000 0.043983
# 5 -0.002014 0.000653 0.000915 0.000000 0.019732 0.000000
# 6 0.000000 0.000000 0.000000 0.043983 0.000000 0.067747
#
#
# Mechanical properties :
#
#
# Convention : Reuss Voigt Hill
#
# Bulk Modulus (GPa) = 21.98883 22.79927 22.39405
# Shear Modulus (GPa) = 53.76920 25.82489 39.79704
#
# Velocity S-wave (km/s) = 4.58065 3.17453 3.94081
# Velocity P-wave (km/s) = 6.04625 4.72586 5.42637
#
# Compressibility (1/GPa) = 0.04547764
#
# Stress axis : x y z
#
# Youngs Moduli (GPa) = 58.74578 69.56580 98.84510
#
# Poissons Ratio (x) = -0.02707 0.00255
# Poissons Ratio (y) = -0.02286 -0.15996
# Poissons Ratio (z) = 0.00151 -0.11258
#
# Static dielectric constant tensor:
#      x y z
#    x 2.068880 0.000000 0.002050 
#    y 0.000000 2.006940 0.000000 
#    z 0.002050 0.000000 2.006480 
# 
# From -- ./inp_files/108738.got.cif
#   From: 2010.05.17/outbox.cif.g08.bks.cpg/sg12_55_cif.got.tgz:108738.got - 2010.06.03 13:09:07.
