data_PCOD9208973
_publ_section_title
;
Structure prediction by ZEFSAII (Michael W. Deem and Ramdas Pophale) SiO2 
 PCOD9208973
Probable space group: C 2/M
;
_chemical_formula_sum "Si O2"
_cell_formula_units_Z 64
_cell_length_a 11.964534
_cell_length_b 19.256024
_cell_length_c 24.201722
_cell_angle_alpha 90.000000
_cell_angle_beta 147.378506
_cell_angle_gamma 90.000000
_cell_volume 3005.850392
_symmetry_space_group_name_H-M "C 2/M"
_symmetry_group_IT_number 12
_symmetry_cell_setting 'monoclinic'
loop_
_space_group_symop_operation_xyz
x,y,z
-x,y,-z
-x,-y,-z
x,-y,z
1/2+x,1/2+y,z
1/2-x,1/2+y,-z
1/2-x,1/2-y,-z
1/2+x,1/2-y,z
loop_
_atom_site_type_symbol
_atom_site_label
_atom_site_fract_x
_atom_site_fract_y
_atom_site_fract_z
Si Si1 0.833768 0.675312 0.883599
Si Si2 0.624230 0.314759 0.608133
Si Si3 0.123321 0.919293 0.424476
Si Si4 0.539949 0.840484 0.583271
Si Si5 0.892931 0.314744 0.209437
Si Si6 0.808730 0.326746 0.044805
Si Si7 0.437667 0.578972 0.908321
Si Si8 0.453844 0.419894 0.740042
O O1 0.707875 0.743070 0.812195
O O2 0.667769 0.621054 0.837532
O O3 0.978031 0.648962 0.894215
O O4 0.000000 0.694972 0.000000
O O5 0.500000 0.323180 0.500000
O O6 0.557126 0.376473 0.620571
O O7 0.565253 0.239994 0.610006
O O8 0.861769 0.313780 0.688063
O O9 0.341264 0.879475 0.525647
O O10 0.083343 0.918385 0.341953
O O11 0.134107 0.000000 0.446128
O O12 0.500000 0.840206 0.500000
O O13 0.755281 0.880702 0.682685
O O14 0.837520 0.320131 0.121807
O O15 0.774918 0.379011 0.187661
O O16 0.750000 0.250000 0.000000
O O17 0.621285 0.379061 0.955468
O O18 0.422189 0.500000 0.883857
O O19 0.500000 0.578636 0.000000
O O20 0.463591 0.500000 0.761320
#
# Coordination Sequence:
#
# PCOD9208973 Si02
#       8
#     8   8   8   8   8   8   8   8
#     4  12  22  37  60  86 121 156 198 246 300 359
#     4  11  23  39  60  89 119 154 204 251 293 348
#     4  10  21  39  62  88 119 155 194 244 301 355
#     4   9  18  36  61  86 114 152 195 243 287 345
#     4  11  21  39  61  88 120 160 200 246 301 357
#     4  11  20  36  61  89 118 155 201 245 296 360
#     4   9  19  37  62  90 118 153 202 249 291 350
#     4  10  21  38  60  88 118 154 196 237 296 362
#
# _framework density 21.291810000000002
#
# number of rings (size 3 to 8) (size 9 to 14) (size 15 to 20)
#    0.000    1.625    3.750    1.875    0.000    3.000 
#    2.250    3.750    0.000    0.000    0.000    0.000 
#    0.000    0.000    0.000    0.000    0.000    0.000 
#
# Total GULP energy -178959.609525 kJ/mol
# GULP energy per Si atom -5592.487798 kJ/mol
# Density = 2.124335 g / cm^3
# Si number density = 21.291810 Si / 1000 Ang^3
#
#
#
# Elastic Constant Matrix: (Units=GPa)
#
#
# Indices 1 2 3 4 5 6 
#
# 1 66.4715 36.5698 26.6253 -0.0001 22.0024 -0.0002
# 2 36.5698 154.6128 52.8576 -0.0002 25.9395 0.0000
# 3 26.6253 52.8576 109.9150 0.0008 39.4584 -0.0004
# 4 -0.0001 -0.0002 0.0008 25.5349 -0.0001 10.3815
# 5 22.0024 25.9395 39.4584 -0.0001 36.8783 -0.0002
# 6 -0.0002 0.0000 -0.0004 10.3815 -0.0002 21.0471
#
#
#
# Elastic Compliance Matrix: (Units=1/GPa)
#
#
# Indices 1 2 3 4 5 6 
#
# 1 0.019971 -0.003136 0.000253 0.000000 -0.009981 0.000000
# 2 -0.003136 0.008363 -0.002958 0.000000 -0.000846 0.000000
# 3 0.000253 -0.002958 0.015857 -0.000001 -0.015037 0.000001
# 4 0.000000 0.000000 -0.000001 0.048985 0.000001 -0.024162
# 5 -0.009981 -0.000846 -0.015037 0.000001 0.049755 0.000000
# 6 0.000000 0.000000 0.000001 -0.024162 0.000000 0.059431
#
#
# Mechanical properties :
#
#
# Convention : Reuss Voigt Hill
#
# Bulk Modulus (GPa) = 30.76007 62.56718 46.66362
# Shear Modulus (GPa) = 22.23396 31.02185 26.62791
#
# Velocity S-wave (km/s) = 3.23499 3.82119 3.54024
# Velocity P-wave (km/s) = 5.33215 6.99414 6.21892
#
# Compressibility (1/GPa) = 0.03250968
#
# Stress axis : x y z
#
# Youngs Moduli (GPa) = 50.07146 119.57765 63.06203
#
# Poissons Ratio (x) = 0.37498 -0.01597
# Poissons Ratio (y) = 0.15702 0.18656
# Poissons Ratio (z) = -0.01268 0.35375
#
# Static dielectric constant tensor:
#      x y z
#    x 1.958280 0.000000 0.020540 
#    y 0.000000 1.739910 0.000000 
#    z 0.020540 0.000000 1.777180 
# 
# From -- ./inp_files/359010.got.cif
#   From: 2010.05.17/outbox.cif.g08.bks.cpg/sg12_180_cif.got.tgz:359010.got - 2010.06.03 13:09:07.
