data_PCOD9208625
_publ_section_title
;
Structure prediction by ZEFSAII (Michael W. Deem and Ramdas Pophale) SiO2 
 PCOD9208625
Probable space group: C 2/M
;
_chemical_formula_sum "Si O2"
_cell_formula_units_Z 50
_cell_length_a 14.524321
_cell_length_b 10.016463
_cell_length_c 19.884164
_cell_angle_alpha 90.000000
_cell_angle_beta 125.842560
_cell_angle_gamma 90.000000
_cell_volume 2344.983258
_symmetry_space_group_name_H-M "C 2/M"
_symmetry_group_IT_number 12
_symmetry_cell_setting 'monoclinic'
loop_
_space_group_symop_operation_xyz
x,y,z
-x,y,-z
-x,-y,-z
x,-y,z
1/2+x,1/2+y,z
1/2-x,1/2+y,-z
1/2-x,1/2-y,-z
1/2+x,1/2-y,z
loop_
_atom_site_type_symbol
_atom_site_label
_atom_site_fract_x
_atom_site_fract_y
_atom_site_fract_z
Si Si1 0.839213 0.260174 0.446558
Si Si2 0.105522 0.345405 0.380461
Si Si3 0.204619 0.348205 0.072192
Si Si4 0.000000 0.000000 0.500000
Si Si5 0.640759 0.846892 0.690382
Si Si6 0.648080 0.155105 0.195662
Si Si7 0.600887 0.843173 0.880525
O O1 0.861613 0.332152 0.526666
O O2 0.703477 0.234514 0.384317
O O3 0.880062 0.339314 0.398711
O O4 0.904351 0.118457 0.473836
O O5 0.108843 0.500000 0.361677
O O6 0.974449 0.300661 0.321765
O O7 0.249613 0.500000 0.088685
O O8 0.130025 0.338478 0.107227
O O9 0.308877 0.245764 0.120053
O O10 0.136267 0.326033 0.974193
O O11 0.745208 0.748551 0.746066
O O12 0.664651 0.000000 0.719648
O O13 0.531187 0.193396 0.181910
O O14 0.674133 0.000000 0.223107
O O15 0.612371 0.000000 0.869196
#
# Coordination Sequence:
#
# PCOD9208625 Si02
#       7
#     8   8   8   2   8   8   8
#     4  11  22  37  60  86 111 142 184 234 278 327
#     4  10  21  38  59  81 107 143 184 228 281 329
#     4   9  18  35  58  85 112 143 185 233 279 332
#     4  12  20  36  62  92 110 140 184 248 262 342
#     4  11  24  40  55  79 116 153 184 228 278 334
#     4  10  22  37  57  80 111 152 189 228 275 333
#     4   9  18  35  59  84 111 144 185 231 282 332
#
# _framework density 21.322115
#
# number of rings (size 3 to 8) (size 9 to 14) (size 15 to 20)
#    0.000    1.920    2.400    0.960    1.120    5.760 
#    0.000    4.800    0.000    4.800    0.000    0.000 
#    0.000    0.000    0.000    0.000    0.000    0.000 
#
# Total GULP energy -139438.243340 kJ/mol
# GULP energy per Si atom -5577.529734 kJ/mol
# Density = 2.127359 g / cm^3
# Si number density = 21.322115 Si / 1000 Ang^3
#
#
#
# Elastic Constant Matrix: (Units=GPa)
#
#
# Indices 1 2 3 4 5 6 
#
# 1 133.9611 35.4062 29.3532 0.0000 32.6654 0.0000
# 2 35.4062 58.5852 24.5348 0.0000 28.6526 0.0000
# 3 29.3532 24.5348 58.1205 0.0000 18.5590 0.0000
# 4 0.0000 0.0000 0.0000 22.5288 0.0000 8.8287
# 5 32.6654 28.6526 18.5590 0.0000 53.8003 0.0000
# 6 0.0000 0.0000 0.0000 8.8287 0.0000 28.0140
#
#
#
# Elastic Compliance Matrix: (Units=1/GPa)
#
#
# Indices 1 2 3 4 5 6 
#
# 1 0.009656 -0.003176 -0.002477 0.000000 -0.003317 0.000000
# 2 -0.003176 0.026571 -0.006416 0.000000 -0.010009 0.000000
# 3 -0.002477 -0.006416 0.022019 0.000000 -0.002675 0.000000
# 4 0.000000 0.000000 0.000000 0.050642 0.000000 -0.015960
# 5 -0.003317 -0.010009 -0.002675 0.000000 0.026854 0.000000
# 6 0.000000 0.000000 0.000000 -0.015960 0.000000 0.040726
#
#
# Mechanical properties :
#
#
# Convention : Reuss Voigt Hill
#
# Bulk Modulus (GPa) = 29.31908 47.69501 38.50705
# Shear Modulus (GPa) = 23.58754 31.62679 27.60716
#
# Velocity S-wave (km/s) = 3.32964 3.85552 3.60219
# Velocity P-wave (km/s) = 5.34438 6.49903 5.94978
#
# Compressibility (1/GPa) = 0.03410748
#
# Stress axis : x y z
#
# Youngs Moduli (GPa) = 103.56521 37.63490 45.41494
#
# Poissons Ratio (x) = 0.11953 0.11248
# Poissons Ratio (y) = 0.32894 0.29140
# Poissons Ratio (z) = 0.25650 0.24148
#
# Static dielectric constant tensor:
#      x y z
#    x 1.758210 0.000000 -0.032970 
#    y 0.000000 1.709970 0.000000 
#    z -0.032970 0.000000 1.838040 
# 
# From -- ./inp_files/308382.got.cif
#   From: 2010.05.17/outbox.cif.g08.bks.cpg/sg12_155_cif.got.tgz:308382.got - 2010.06.03 13:09:07.
