data_PCOD9208783
_publ_section_title
;
Structure prediction by ZEFSAII (Michael W. Deem and Ramdas Pophale) SiO2 
 PCOD9208783
Probable space group: C 2/M
;
_chemical_formula_sum "Si O2"
_cell_formula_units_Z 64
_cell_length_a 14.842939
_cell_length_b 18.579606
_cell_length_c 23.720135
_cell_angle_alpha 90.000000
_cell_angle_beta 149.334083
_cell_angle_gamma 90.000000
_cell_volume 3336.340891
_symmetry_space_group_name_H-M "C 2/M"
_symmetry_group_IT_number 12
_symmetry_cell_setting 'monoclinic'
loop_
_space_group_symop_operation_xyz
x,y,z
-x,y,-z
-x,-y,-z
x,-y,z
1/2+x,1/2+y,z
1/2-x,1/2+y,-z
1/2-x,1/2-y,-z
1/2+x,1/2-y,z
loop_
_atom_site_type_symbol
_atom_site_label
_atom_site_fract_x
_atom_site_fract_y
_atom_site_fract_z
Si Si1 0.678203 0.217868 0.253626
Si Si2 0.007358 0.785130 0.654995
Si Si3 0.983336 0.085983 0.849427
Si Si4 0.067842 0.784477 0.972612
Si Si5 0.679849 0.864982 0.438673
Si Si6 0.424793 0.914584 0.400200
Si Si7 0.708399 0.417369 0.619827
Si Si8 0.586534 0.302390 0.820036
O O1 0.548318 0.234672 0.131596
O O2 0.698770 0.137062 0.287154
O O3 0.599294 0.265394 0.261935
O O4 0.870067 0.235888 0.331563
O O5 0.874447 0.848011 0.566462
O O6 0.902888 0.713621 0.616439
O O7 0.108678 0.809420 0.765403
O O8 0.047408 0.135029 0.936316
O O9 0.086445 0.121529 0.852124
O O10 0.775438 0.103408 0.726364
O O11 0.005150 0.000000 0.867188
O O12 0.263888 0.752151 0.077735
O O13 0.000000 0.783054 0.000000
O O14 0.559787 0.899359 0.422257
O O15 0.698528 0.907757 0.390804
O O16 0.500000 0.883114 0.500000
O O17 0.416051 0.000000 0.403650
O O18 0.500000 0.398158 0.500000
O O19 0.716817 0.500000 0.642705
#
# Coordination Sequence:
#
# PCOD9208783 Si02
#       8
#     8   8   8   8   8   8   8   8
#     4  11  21  40  60  87 121 158 209 251 303 368
#     4  11  22  34  61  89 118 158 209 250 297 362
#     4  10  22  40  63  93 126 161 203 252 315 376
#     4  11  23  41  68  90 121 159 208 267 314 364
#     4  11  21  36  57  94 121 157 206 251 301 359
#     4  10  21  38  59  88 128 164 195 245 312 373
#     4  11  23  40  60  86 126 166 203 249 303 365
#     4  11  22  41  64  90 122 165 205 258 311 361
#
# _framework density 19.182691999999999
#
# number of rings (size 3 to 8) (size 9 to 14) (size 15 to 20)
#    0.000    1.250    3.750    4.125    0.000    0.250 
#    0.000    3.750    0.000    0.750    0.000    0.000 
#    0.000    0.000    0.000    0.000    0.000    0.000 
#
# Total GULP energy -178495.798083 kJ/mol
# GULP energy per Si atom -5577.993690 kJ/mol
# Density = 1.913903 g / cm^3
# Si number density = 19.182692 Si / 1000 Ang^3
#
#
#
# Elastic Constant Matrix: (Units=GPa)
#
#
# Indices 1 2 3 4 5 6 
#
# 1 92.6453 17.7169 18.9221 -0.0001 4.0652 0.0000
# 2 17.7169 98.2147 40.5122 0.0002 2.6230 0.0002
# 3 18.9221 40.5122 53.8622 0.0012 2.9458 0.0006
# 4 -0.0001 0.0002 0.0012 28.0339 0.0004 3.3073
# 5 4.0652 2.6230 2.9458 0.0004 30.3855 0.0000
# 6 0.0000 0.0002 0.0006 3.3073 0.0000 26.4601
#
#
#
# Elastic Compliance Matrix: (Units=1/GPa)
#
#
# Indices 1 2 3 4 5 6 
#
# 1 0.011693 -0.000595 -0.003597 0.000000 -0.001164 0.000000
# 2 -0.000595 0.014793 -0.010910 0.000000 -0.000140 0.000000
# 3 -0.003597 -0.010910 0.028107 -0.000001 -0.001302 0.000000
# 4 0.000000 0.000000 -0.000001 0.036205 0.000000 -0.004525
# 5 -0.001164 -0.000140 -0.001302 0.000000 0.033204 0.000000
# 6 0.000000 0.000000 0.000000 -0.004525 0.000000 0.038358
#
#
# Mechanical properties :
#
#
# Convention : Reuss Voigt Hill
#
# Bulk Modulus (GPa) = 41.00072 44.33606 42.66839
# Shear Modulus (GPa) = 24.91359 28.14731 26.53045
#
# Velocity S-wave (km/s) = 3.60773 3.83473 3.72296
# Velocity P-wave (km/s) = 6.22692 6.53984 6.38530
#
# Compressibility (1/GPa) = 0.02438982
#
# Stress axis : x y z
#
# Youngs Moduli (GPa) = 85.51898 67.59974 35.57881
#
# Poissons Ratio (x) = 0.04019 0.12798
# Poissons Ratio (y) = 0.05084 0.38816
# Poissons Ratio (z) = 0.30762 0.73751
#
# Static dielectric constant tensor:
#      x y z
#    x 1.683490 0.000000 0.004640 
#    y 0.000000 1.663080 0.000000 
#    z 0.004640 0.000000 1.699860 
# 
# From -- ./inp_files/340867.got.cif
#   From: 2010.05.17/outbox.cif.g08.bks.cpg/sg12_171_cif.got.tgz:340867.got - 2010.06.03 13:09:07.
