data_PCOD9208970
_publ_section_title
;
Structure prediction by ZEFSAII (Michael W. Deem and Ramdas Pophale) SiO2 
 PCOD9208970
Probable space group: C 2/M
;
_chemical_formula_sum "Si O2"
_cell_formula_units_Z 52
_cell_length_a 19.173690
_cell_length_b 7.683089
_cell_length_c 23.611435
_cell_angle_alpha 90.000000
_cell_angle_beta 34.669528
_cell_angle_gamma 90.000000
_cell_volume 1978.589740
_symmetry_space_group_name_H-M "C 2/M"
_symmetry_group_IT_number 12
_symmetry_cell_setting 'monoclinic'
loop_
_space_group_symop_operation_xyz
x,y,z
-x,y,-z
-x,-y,-z
x,-y,z
1/2+x,1/2+y,z
1/2-x,1/2+y,-z
1/2-x,1/2-y,-z
1/2+x,1/2-y,z
loop_
_atom_site_type_symbol
_atom_site_label
_atom_site_fract_x
_atom_site_fract_y
_atom_site_fract_z
Si Si1 0.569004 0.802615 0.531416
Si Si2 0.621160 0.304172 0.132317
Si Si3 0.333527 0.211900 0.066345
Si Si4 0.430960 0.809704 0.340654
Si Si5 0.702621 0.700959 0.269320
Si Si6 0.271423 0.500000 0.596285
Si Si7 0.948945 0.795348 0.151483
O O1 0.605215 0.752452 0.572592
O O2 0.420968 0.797103 0.631438
O O3 0.629861 0.654139 0.453742
O O4 0.609514 0.000000 0.492234
O O5 0.648671 0.500000 0.095128
O O6 0.746076 0.227322 0.072866
O O7 0.531358 0.311270 0.246166
O O8 0.536534 0.216711 0.141596
O O9 0.267848 0.269576 0.168035
O O10 0.335458 0.000000 0.066593
O O11 0.469531 0.271466 0.959337
O O12 0.322131 0.849981 0.369794
O O13 0.491542 0.000000 0.308899
O O14 0.668169 0.500000 0.283123
O O15 0.817532 0.705952 0.235595
O O16 0.928822 0.000000 0.175426
#
# Coordination Sequence:
#
# PCOD9208970 Si02
#       7
#     8   8   8   8   8   4   8
#     4  11  21  36  61  93 129 164 202 257 316 372
#     4  10  21  39  61  85 123 166 205 257 311 369
#     4  10  21  38  60  88 117 161 213 262 312 359
#     4   9  21  34  56  90 121 153 198 248 311 368
#     4  11  22  39  62  87 124 166 208 260 313 368
#     4  10  22  38  58  99 129 154 211 252 321 384
#     4  11  24  38  57  88 123 166 212 255 307 372
#
# _framework density 26.281345999999999
#
# number of rings (size 3 to 8) (size 9 to 14) (size 15 to 20)
#    0.462    1.231    2.308    2.308    1.077    5.538 
#    0.000    0.000    0.000    1.846    0.000    3.231 
#    0.000    0.000    0.000    0.000    0.000    0.000 
#
# Total GULP energy -144965.597789 kJ/mol
# GULP energy per Si atom -5575.599915 kJ/mol
# Density = 2.622153 g / cm^3
# Si number density = 26.281346 Si / 1000 Ang^3
#
#
#
# Elastic Constant Matrix: (Units=GPa)
#
#
# Indices 1 2 3 4 5 6 
#
# 1 98.8632 -11.8215 21.0255 -0.0015 -13.6914 0.0034
# 2 -11.8215 83.9966 33.5229 -0.0002 6.8365 0.0088
# 3 21.0255 33.5229 122.7678 -0.0003 -22.2897 0.0010
# 4 -0.0015 -0.0002 -0.0003 6.5281 -0.0009 -9.1421
# 5 -13.6914 6.8365 -22.2897 -0.0009 44.1680 -0.0026
# 6 0.0034 0.0088 0.0010 -9.1421 -0.0026 14.7119
#
#
#
# Elastic Compliance Matrix: (Units=1/GPa)
#
#
# Indices 1 2 3 4 5 6 
#
# 1 0.011123 0.002263 -0.002158 -0.000014 0.002008 -0.000012
# 2 0.002263 0.014609 -0.005130 -0.000102 -0.004148 -0.000073
# 3 -0.002158 -0.005130 0.010941 0.000046 0.005646 0.000032
# 4 -0.000014 -0.000102 0.000046 1.180537 0.000102 0.733602
# 5 0.002008 -0.004148 0.005646 0.000102 0.026755 0.000070
# 6 -0.000012 -0.000073 0.000032 0.733602 0.000070 0.523842
#
#
# Mechanical properties :
#
#
# Convention : Reuss Voigt Hill
#
# Bulk Modulus (GPa) = 37.56174 43.45349 40.50761
# Shear Modulus (GPa) = 2.79841 30.60830 16.70335
#
# Velocity S-wave (km/s) = 1.03301 3.41638 2.52377
# Velocity P-wave (km/s) = 3.96812 5.66852 4.89275
#
# Compressibility (1/GPa) = 0.02662284
#
# Stress axis : x y z
#
# Youngs Moduli (GPa) = 89.90570 68.45211 91.39917
#
# Poissons Ratio (x) = -0.15493 0.19727
# Poissons Ratio (y) = -0.20348 0.46887
# Poissons Ratio (z) = 0.19404 0.35115
#
# Static dielectric constant tensor:
#      x y z
#    x 2.216680 0.000000 0.080800 
#    y 0.000000 1.969810 0.000000 
#    z 0.080800 0.000000 2.061440 
# 
# From -- ./inp_files/380373.got.cif
#   From: 2010.05.17/outbox.cif.g08.bks.cpg/sg12_191_cif.got.tgz:380373.got - 2010.06.03 13:09:07.
