data_PCOD9208711
_publ_section_title
;
Structure prediction by ZEFSAII (Michael W. Deem and Ramdas Pophale) SiO2 
 PCOD9208711
Probable space group: C 2/M
;
_chemical_formula_sum "Si O2"
_cell_formula_units_Z 48
_cell_length_a 31.473325
_cell_length_b 8.830276
_cell_length_c 9.496950
_cell_angle_alpha 90.000000
_cell_angle_beta 89.814889
_cell_angle_gamma 90.000000
_cell_volume 2639.360965
_symmetry_space_group_name_H-M "C 2/M"
_symmetry_group_IT_number 12
_symmetry_cell_setting 'monoclinic'
loop_
_space_group_symop_operation_xyz
x,y,z
-x,y,-z
-x,-y,-z
x,-y,z
1/2+x,1/2+y,z
1/2-x,1/2+y,-z
1/2-x,1/2-y,-z
1/2+x,1/2-y,z
loop_
_atom_site_type_symbol
_atom_site_label
_atom_site_fract_x
_atom_site_fract_y
_atom_site_fract_z
Si Si1 0.787671 0.680751 0.407916
Si Si2 0.040623 0.681129 0.092446
Si Si3 0.383293 0.680825 0.084605
Si Si4 0.122219 0.182300 0.585856
Si Si5 0.039985 0.817349 0.403757
Si Si6 0.713729 0.681574 0.902956
O O1 0.785855 0.500000 0.409129
O O2 0.750000 0.750000 0.500000
O O3 0.834008 0.737763 0.456724
O O4 0.782818 0.744673 0.250449
O O5 0.040279 0.500000 0.100978
O O6 0.038296 0.748381 0.248812
O O7 0.082813 0.735864 0.011949
O O8 0.000000 0.730511 0.000000
O O9 0.389889 0.500000 0.072475
O O10 0.387824 0.720786 0.250523
O O11 0.334373 0.713672 0.044657
O O12 0.083230 0.222642 0.485545
O O13 0.128466 0.000000 0.581639
O O14 0.000000 0.770284 0.500000
O O15 0.038667 0.000000 0.391515
O O16 0.717826 0.500000 0.892005
O O17 0.750000 0.750000 0.000000
#
# Coordination Sequence:
#
# PCOD9208711 Si02
#       6
#     8   8   8   8   8   8
#     4  11  22  37  58  83 113 151 191 232 281 334
#     4  11  24  38  54  81 115 148 183 226 274 325
#     4   9  19  37  60  82 108 144 184 227 273 327
#     4   9  19  37  59  84 112 141 182 234 282 330
#     4  10  21  38  61  85 109 143 185 227 274 330
#     4  10  21  38  59  85 115 148 188 233 282 334
#
# _framework density 18.186221
#
# number of rings (size 3 to 8) (size 9 to 14) (size 15 to 20)
#    0.000    2.000    0.000    4.500    0.000    8.333 
#    0.000    1.667    0.000    0.000    0.000    0.000 
#    0.000    0.000    0.000    0.000    0.000    0.000 
#
# Total GULP energy -134061.340297 kJ/mol
# GULP energy per Si atom -5585.889179 kJ/mol
# Density = 1.814483 g / cm^3
# Si number density = 18.186221 Si / 1000 Ang^3
#
#
#
# Elastic Constant Matrix: (Units=GPa)
#
#
# Indices 1 2 3 4 5 6 
#
# 1 192.7253 83.3376 119.7710 0.0000 1.5901 0.0000
# 2 83.3376 70.0537 57.8700 0.0000 -0.1127 0.0000
# 3 119.7710 57.8700 126.2341 0.0000 2.1991 0.0000
# 4 0.0000 0.0000 0.0000 29.2438 0.0000 3.6649
# 5 1.5901 -0.1127 2.1991 0.0000 39.5458 0.0000
# 6 0.0000 0.0000 0.0000 3.6649 0.0000 29.5457
#
#
#
# Elastic Compliance Matrix: (Units=1/GPa)
#
#
# Indices 1 2 3 4 5 6 
#
# 1 0.016525 -0.010797 -0.010728 0.000000 -0.000099 0.000000
# 2 -0.010797 0.030047 -0.003543 0.000000 0.000717 0.000000
# 3 -0.010728 -0.003543 0.019736 0.000000 -0.000676 0.000000
# 4 0.000000 0.000000 0.000000 0.034735 0.000000 -0.004309
# 5 -0.000099 0.000717 -0.000676 0.000000 0.025331 0.000000
# 6 0.000000 0.000000 0.000000 -0.004309 0.000000 0.034380
#
#
# Mechanical properties :
#
#
# Convention : Reuss Voigt Hill
#
# Bulk Modulus (GPa) = 61.83045 101.21892 81.52469
# Shear Modulus (GPa) = 23.11813 28.20268 25.66041
#
# Velocity S-wave (km/s) = 3.56924 3.94226 3.76038
# Velocity P-wave (km/s) = 7.14551 8.74641 7.98617
#
# Compressibility (1/GPa) = 0.01617326
#
# Stress axis : x y z
#
# Youngs Moduli (GPa) = 60.51400 33.28132 50.66854
#
# Poissons Ratio (x) = 0.35934 0.54355
# Poissons Ratio (y) = 0.65337 0.17951
# Poissons Ratio (z) = 0.64917 0.11791
#
# Static dielectric constant tensor:
#      x y z
#    x 1.616770 0.000000 0.009710 
#    y 0.000000 1.608060 0.000000 
#    z 0.009710 0.000000 1.576200 
# 
# From -- ./inp_files/108746.got.cif
#   From: 2010.05.17/outbox.cif.g08.bks.cpg/sg12_55_cif.got.tgz:108746.got - 2010.06.03 13:09:07.
