data_PCOD9208387
_publ_section_title
;
Structure prediction by ZEFSAII (Michael W. Deem and Ramdas Pophale) SiO2 
 PCOD9208387
Probable space group: C 2/M
;
_chemical_formula_sum "Si O2"
_cell_formula_units_Z 56
_cell_length_a 15.481434
_cell_length_b 7.878760
_cell_length_c 29.289380
_cell_angle_alpha 90.000000
_cell_angle_beta 49.571999
_cell_angle_gamma 90.000000
_cell_volume 2719.507538
_symmetry_space_group_name_H-M "C 2/M"
_symmetry_group_IT_number 12
_symmetry_cell_setting 'monoclinic'
loop_
_space_group_symop_operation_xyz
x,y,z
-x,y,-z
-x,-y,-z
x,-y,z
1/2+x,1/2+y,z
1/2-x,1/2+y,-z
1/2-x,1/2-y,-z
1/2+x,1/2-y,z
loop_
_atom_site_type_symbol
_atom_site_label
_atom_site_fract_x
_atom_site_fract_y
_atom_site_fract_z
Si Si1 0.387225 0.292534 0.091751
Si Si2 0.794907 0.707637 0.771415
Si Si3 0.532588 0.697247 0.438407
Si Si4 0.948531 0.705817 0.305754
Si Si5 0.149844 0.691078 0.567301
Si Si6 0.147085 0.204102 0.000679
Si Si7 0.249672 0.299400 0.316127
O O1 0.388150 0.500000 0.091139
O O2 0.299813 0.235315 0.160394
O O3 0.517670 0.239676 0.057246
O O4 0.344763 0.240429 0.055530
O O5 0.792513 0.500000 0.772349
O O6 0.772473 0.762585 0.727326
O O7 0.921867 0.762340 0.740170
O O8 0.500000 0.757927 0.500000
O O9 0.497783 0.500000 0.447185
O O10 0.463500 0.798219 0.424045
O O11 0.664130 0.713614 0.381289
O O12 0.950379 0.500000 0.307674
O O13 0.883302 0.774931 0.373293
O O14 0.876824 0.762215 0.287297
O O15 0.181303 0.500000 0.568065
O O16 0.250000 0.750000 0.500000
O O17 0.145723 0.000000 0.000752
O O18 0.250000 0.250000 0.000000
O O19 0.227301 0.500000 0.325522
#
# Coordination Sequence:
#
# PCOD9208387 Si02
#       7
#     8   8   8   8   8   8   8
#     4   8  16  32  54  78 109 152 191 219 265 333
#     4   9  18  36  57  77 109 149 186 227 275 329
#     4  11  23  38  56  79 107 140 178 226 283 338
#     4  10  21  38  56  77 107 142 180 224 277 334
#     4  11  22  37  56  80 108 140 181 227 280 338
#     4   9  17  31  54  84 113 146 188 228 267 318
#     4  11  22  37  57  82 107 140 184 229 278 333
#
# _framework density 20.591963
#
# number of rings (size 3 to 8) (size 9 to 14) (size 15 to 20)
#    0.000    2.143    1.429    3.000    0.000    6.857 
#    0.000    1.429    0.000    3.429    0.000    0.000 
#    0.000    0.000    0.000    0.000    0.000    0.000 
#
# Total GULP energy -156240.153059 kJ/mol
# GULP energy per Si atom -5580.005466 kJ/mol
# Density = 2.054509 g / cm^3
# Si number density = 20.591963 Si / 1000 Ang^3
#
#
#
# Elastic Constant Matrix: (Units=GPa)
#
#
# Indices 1 2 3 4 5 6 
#
# 1 167.0696 -2.3360 70.7878 -0.0002 -13.2761 0.0014
# 2 -2.3360 22.2184 11.3249 0.0010 -1.6002 0.0054
# 3 70.7878 11.3249 146.7095 -0.0004 -11.2561 0.0004
# 4 -0.0002 0.0010 -0.0004 -2.2670 0.0000 -1.9021
# 5 -13.2761 -1.6002 -11.2561 0.0000 20.9228 0.0000
# 6 0.0014 0.0054 0.0004 -1.9021 0.0000 27.2083
#
#
#
# Elastic Compliance Matrix: (Units=1/GPa)
#
#
# Indices 1 2 3 4 5 6 
#
# 1 0.007888 0.002992 -0.003792 0.000002 0.003194 -0.000001
# 2 0.002992 0.048045 -0.004928 0.000028 0.002922 -0.000008
# 3 -0.003792 -0.004928 0.009192 -0.000004 0.002162 0.000001
# 4 0.000002 0.000028 -0.000004 -0.416673 0.000001 -0.029128
# 5 0.003194 0.002922 0.002162 0.000001 0.051208 -0.000001
# 6 -0.000001 -0.000008 0.000001 -0.029128 -0.000001 0.034717
#
#
# Mechanical properties :
#
#
# Convention : Reuss Voigt Hill
#
# Bulk Modulus (GPa) = 18.63285 55.06122 36.84703
# Shear Modulus (GPa) = -21.16150 26.25422 2.54636
#
# Velocity S-wave (km/s) = -3.20919 3.57455 1.11322
# Velocity P-wave (km/s) = 2.15954 6.62071 4.42550
#
# Compressibility (1/GPa) = 0.05366866
#
# Stress axis : x y z
#
# Youngs Moduli (GPa) = 126.77886 20.81393 108.78962
#
# Poissons Ratio (x) = -0.06228 0.41251
# Poissons Ratio (y) = -0.37933 0.53614
# Poissons Ratio (z) = 0.48072 0.10258
#
# Static dielectric constant tensor:
#      x y z
#    x 1.719180 0.000000 -0.005820 
#    y 0.000000 1.752190 0.000000 
#    z -0.005820 0.000000 1.748270 
# 
# From -- ./inp_files/374945.got.cif
#   From: 2010.05.17/outbox.cif.g08.bks.cpg/sg12_188_cif.got.tgz:374945.got - 2010.06.03 13:09:07.
