data_PCOD9208558
_publ_section_title
;
Structure prediction by ZEFSAII (Michael W. Deem and Ramdas Pophale) SiO2 
 PCOD9208558
Probable space group: C 2/M
;
_chemical_formula_sum "Si O2"
_cell_formula_units_Z 64
_cell_length_a 31.529978
_cell_length_b 7.731470
_cell_length_c 27.372977
_cell_angle_alpha 90.000000
_cell_angle_beta 25.630841
_cell_angle_gamma 90.000000
_cell_volume 2886.458369
_symmetry_space_group_name_H-M "C 2/M"
_symmetry_group_IT_number 12
_symmetry_cell_setting 'monoclinic'
loop_
_space_group_symop_operation_xyz
x,y,z
-x,y,-z
-x,-y,-z
x,-y,z
1/2+x,1/2+y,z
1/2-x,1/2+y,-z
1/2-x,1/2-y,-z
1/2+x,1/2-y,z
loop_
_atom_site_type_symbol
_atom_site_label
_atom_site_fract_x
_atom_site_fract_y
_atom_site_fract_z
Si Si1 0.744063 0.701655 0.185123
Si Si2 0.277024 0.792501 0.526996
Si Si3 0.364707 0.206057 0.879712
Si Si4 0.905401 0.796566 0.945896
Si Si5 0.524429 0.198853 0.421445
Si Si6 0.017869 0.712614 0.641032
Si Si7 0.612125 0.290578 0.772395
Si Si8 0.610060 0.794721 0.883414
O O1 0.722451 0.500000 0.217133
O O2 0.641161 0.797119 0.292063
O O3 0.815412 0.773056 0.153530
O O4 0.807303 0.714993 0.070079
O O5 0.250000 0.750000 0.500000
O O6 0.383819 0.731981 0.433169
O O7 0.191100 0.727588 0.651442
O O8 0.279014 0.000000 0.529617
O O9 0.411975 0.270870 0.881142
O O10 0.423985 0.269217 0.770545
O O11 0.373183 0.000000 0.871038
O O12 0.250000 0.250000 0.000000
O O13 0.002819 0.728366 0.871815
O O14 0.898004 0.000000 0.963410
O O15 0.500000 0.277307 0.500000
O O16 0.482080 0.274928 0.415067
O O17 0.488653 0.000000 0.460832
O O18 0.015188 0.500000 0.642068
O O19 0.609120 0.500000 0.774074
O O20 0.643312 0.234876 0.793817
O O21 0.602842 0.000000 0.900693
O O22 0.500000 0.720422 0.000000
#
# Coordination Sequence:
#
# PCOD9208558 Si02
#       8
#     8   8   8   8   8   8   8   8
#     4  11  23  39  60  86 119 158 200 246 299 354
#     4  10  21  39  61  87 120 155 196 242 290 351
#     4  11  22  37  60  86 115 154 196 243 298 354
#     4  11  22  37  57  87 121 151 190 243 298 360
#     4  10  22  40  64  90 117 158 204 247 299 355
#     4   9  20  39  60  85 118 155 196 241 291 352
#     4  10  22  36  58  88 117 151 195 245 297 352
#     4  10  21  38  58  84 120 158 195 241 296 362
#
# _framework density 22.172498999999998
#
# number of rings (size 3 to 8) (size 9 to 14) (size 15 to 20)
#    0.000    1.750    1.250    2.625    1.750    3.500 
#    0.000    1.875    0.000    0.000    0.000    0.000 
#    0.000    0.000    0.000    0.000    0.000    0.000 
#
# Total GULP energy -178871.021928 kJ/mol
# GULP energy per Si atom -5589.719435 kJ/mol
# Density = 2.212203 g / cm^3
# Si number density = 22.172499 Si / 1000 Ang^3
#
#
#
# Elastic Constant Matrix: (Units=GPa)
#
#
# Indices 1 2 3 4 5 6 
#
# 1 143.0587 -4.6575 47.7523 0.0025 18.1532 -0.0061
# 2 -4.6575 37.2853 -5.9856 -0.0402 -5.2271 0.0013
# 3 47.7523 -5.9856 121.5588 -0.0172 16.0477 -0.0003
# 4 0.0025 -0.0402 -0.0172 9.8931 0.0032 7.2286
# 5 18.1532 -5.2271 16.0477 0.0032 43.5239 0.0089
# 6 -0.0061 0.0013 -0.0003 7.2286 0.0089 16.7814
#
#
#
# Elastic Compliance Matrix: (Units=1/GPa)
#
#
# Indices 1 2 3 4 5 6 
#
# 1 0.008273 0.000235 -0.002929 -0.000012 -0.002342 0.000010
# 2 0.000235 0.027393 0.000878 0.000167 0.002868 -0.000076
# 3 -0.002929 0.000878 0.009718 0.000032 -0.002256 -0.000013
# 4 -0.000012 0.000167 0.000032 0.147506 0.000016 -0.063538
# 5 -0.002342 0.002868 -0.002256 0.000016 0.025129 -0.000021
# 6 0.000010 -0.000076 -0.000013 -0.063538 -0.000021 0.086959
#
#
# Mechanical properties :
#
#
# Convention : Reuss Voigt Hill
#
# Bulk Modulus (GPa) = 23.95146 41.79125 32.87136
# Shear Modulus (GPa) = 15.50256 31.69260 23.59758
#
# Velocity S-wave (km/s) = 2.64707 3.78480 3.26586
# Velocity P-wave (km/s) = 4.49093 6.16350 5.39246
#
# Compressibility (1/GPa) = 0.04175111
#
# Stress axis : x y z
#
# Youngs Moduli (GPa) = 120.87972 36.50600 102.90018
#
# Poissons Ratio (x) = -0.00857 0.30140
# Poissons Ratio (y) = -0.02838 -0.09034
# Poissons Ratio (z) = 0.35406 -0.03205
#
# Static dielectric constant tensor:
#      x y z
#    x 1.812340 -0.000030 0.012360 
#    y -0.000030 1.835140 0.000040 
#    z 0.012360 0.000040 1.799670 
# 
# From -- ./inp_files/353254.got.cif
#   From: 2010.05.17/outbox.cif.g08.bks.cpg/sg12_177_cif.got.tgz:353254.got - 2010.06.03 13:09:07.
