data_PCOD9208026
_publ_section_title
;
Structure prediction by ZEFSAII (Michael W. Deem and Ramdas Pophale) SiO2 
 PCOD9208026
Probable space group: C 2/M
;
_chemical_formula_sum "Si O2"
_cell_formula_units_Z 64
_cell_length_a 31.721420
_cell_length_b 7.995219
_cell_length_c 20.316636
_cell_angle_alpha 90.000000
_cell_angle_beta 142.654570
_cell_angle_gamma 90.000000
_cell_volume 3125.724897
_symmetry_space_group_name_H-M "C 2/M"
_symmetry_group_IT_number 12
_symmetry_cell_setting 'monoclinic'
loop_
_space_group_symop_operation_xyz
x,y,z
-x,y,-z
-x,-y,-z
x,-y,z
1/2+x,1/2+y,z
1/2-x,1/2+y,-z
1/2-x,1/2-y,-z
1/2+x,1/2-y,z
loop_
_atom_site_type_symbol
_atom_site_label
_atom_site_fract_x
_atom_site_fract_y
_atom_site_fract_z
Si Si1 0.442188 0.794507 0.636243
Si Si2 0.305085 0.808178 0.760718
Si Si3 0.809248 0.197094 0.268158
Si Si4 0.714627 0.200097 0.524529
Si Si5 0.046476 0.694472 0.499253
Si Si6 0.053585 0.808582 0.014542
Si Si7 0.569358 0.198786 0.884980
Si Si8 0.723148 0.797901 0.038103
O O1 0.365296 0.741234 0.564862
O O2 0.455762 0.736778 0.577878
O O3 0.504239 0.737728 0.761245
O O4 0.441282 0.000000 0.634794
O O5 0.252595 0.790983 0.756261
O O6 0.262428 0.767165 0.642607
O O7 0.371743 0.697680 0.858035
O O8 0.329369 0.000000 0.788435
O O9 0.875056 0.293041 0.377763
O O10 0.778341 0.260737 0.161208
O O11 0.828052 0.000000 0.285543
O O12 0.750000 0.250000 0.500000
O O13 0.713352 0.000000 0.527224
O O14 0.025138 0.500000 0.466521
O O15 0.000000 0.771492 0.500000
O O16 0.031949 0.000000 0.975849
O O17 0.058609 0.726592 0.949199
O O18 0.000000 0.730593 0.000000
O O19 0.571415 0.000000 0.876039
O O20 0.645153 0.265129 0.957068
O O21 0.721199 0.000000 0.041496
O O22 0.750000 0.750000 0.000000
#
# Coordination Sequence:
#
# PCOD9208026 Si02
#       8
#     8   8   8   8   8   8   8   8
#     4   9  20  38  59  86 119 156 197 241 292 347
#     4  11  22  41  66  89 116 160 206 250 305 360
#     4  10  21  39  60  86 120 154 197 249 301 354
#     4  11  23  40  61  91 125 159 202 251 300 358
#     4  10  21  37  61  90 117 154 202 244 291 353
#     4  11  25  42  61  91 124 155 196 252 308 360
#     4  10  21  41  63  85 120 162 202 245 292 358
#     4  10  22  39  60  88 119 155 200 247 296 354
#
# _framework density 20.475249999999999
#
# number of rings (size 3 to 8) (size 9 to 14) (size 15 to 20)
#    0.000    1.750    2.500    1.125    3.500    2.750 
#    0.000    1.250    0.000    0.000    0.000    0.000 
#    0.000    0.000    0.000    0.000    0.000    0.000 
#
# Total GULP energy -178704.334503 kJ/mol
# GULP energy per Si atom -5584.510453 kJ/mol
# Density = 2.042865 g / cm^3
# Si number density = 20.475250 Si / 1000 Ang^3
#
#
#
# Elastic Constant Matrix: (Units=GPa)
#
#
# Indices 1 2 3 4 5 6 
#
# 1 98.0298 7.1100 35.1617 0.0000 -7.6283 0.0000
# 2 7.1100 12.2184 -6.9754 0.0001 0.6650 -0.0001
# 3 35.1617 -6.9754 125.3511 0.0000 -10.5314 0.0000
# 4 0.0000 0.0001 0.0000 45.9473 0.0000 -32.6889
# 5 -7.6283 0.6650 -10.5314 0.0000 34.3298 0.0000
# 6 0.0000 -0.0001 0.0000 -32.6889 0.0000 52.0628
#
#
#
# Elastic Compliance Matrix: (Units=1/GPa)
#
#
# Indices 1 2 3 4 5 6 
#
# 1 0.012415 -0.009527 -0.003865 0.000000 0.001758 0.000000
# 2 -0.009527 0.091841 0.007653 0.000000 -0.001548 0.000000
# 3 -0.003865 0.007653 0.009652 0.000000 0.001954 0.000000
# 4 0.000000 0.000000 0.000000 0.039335 0.000000 0.024697
# 5 0.001758 -0.001548 0.001954 0.000000 0.030149 0.000000
# 6 0.000000 0.000000 0.000000 0.024697 0.000000 0.034714
#
#
# Mechanical properties :
#
#
# Convention : Reuss Voigt Hill
#
# Bulk Modulus (GPa) = 9.76273 34.02132 21.89202
# Shear Modulus (GPa) = 18.95902 39.82151 29.39026
#
# Velocity S-wave (km/s) = 3.04624 4.41484 3.79278
# Velocity P-wave (km/s) = 4.14140 6.52991 5.46767
#
# Compressibility (1/GPa) = 0.10243039
#
# Stress axis : x y z
#
# Youngs Moduli (GPa) = 80.54772 10.88838 103.60826
#
# Poissons Ratio (x) = 0.10373 0.40044
# Poissons Ratio (y) = 0.76735 -0.79290
# Poissons Ratio (z) = 0.31131 -0.08333
#
# Static dielectric constant tensor:
#      x y z
#    x 1.716410 0.000000 0.002240 
#    y 0.000000 1.590300 0.000000 
#    z 0.002240 0.000000 1.655640 
# 
# From -- ./inp_files/295702.got.cif
#   From: 2010.05.17/outbox.cif.g08.bks.cpg/sg12_148_cif.got.tgz:295702.got - 2010.06.03 13:09:07.
