data_PCOD9208652
_publ_section_title
;
Structure prediction by ZEFSAII (Michael W. Deem and Ramdas Pophale) SiO2 
 PCOD9208652
Probable space group: C 2/M
;
_chemical_formula_sum "Si O2"
_cell_formula_units_Z 56
_cell_length_a 18.675544
_cell_length_b 8.852600
_cell_length_c 19.062724
_cell_angle_alpha 90.000000
_cell_angle_beta 76.043343
_cell_angle_gamma 90.000000
_cell_volume 3058.545614
_symmetry_space_group_name_H-M "C 2/M"
_symmetry_group_IT_number 12
_symmetry_cell_setting 'monoclinic'
loop_
_space_group_symop_operation_xyz
x,y,z
-x,y,-z
-x,-y,-z
x,-y,z
1/2+x,1/2+y,z
1/2-x,1/2+y,-z
1/2-x,1/2-y,-z
1/2+x,1/2-y,z
loop_
_atom_site_type_symbol
_atom_site_label
_atom_site_fract_x
_atom_site_fract_y
_atom_site_fract_z
Si Si1 0.977285 0.819678 0.427362
Si Si2 0.306548 0.321222 0.432728
Si Si3 0.082185 0.681861 0.006222
Si Si4 0.511861 0.180123 0.275108
Si Si5 0.129932 0.819153 0.142820
Si Si6 0.298141 0.181407 0.140886
Si Si7 0.646221 0.318067 0.728006
O O1 0.890133 0.793827 0.438275
O O2 0.000000 0.773707 0.500000
O O3 0.016819 0.733723 0.354630
O O4 0.990766 0.000000 0.416433
O O5 0.293900 0.500000 0.435679
O O6 0.250000 0.250000 0.500000
O O7 0.306088 0.269806 0.351627
O O8 0.084010 0.500000 0.015827
O O9 0.141853 0.721293 0.932544
O O10 0.103104 0.760504 0.073816
O O11 0.000000 0.722332 0.000000
O O12 0.578998 0.243974 0.213881
O O13 0.435434 0.249311 0.263090
O O14 0.508878 0.000000 0.271343
O O15 0.215762 0.780423 0.135083
O O16 0.122430 0.000000 0.148079
O O17 0.318610 0.261623 0.208512
O O18 0.301913 0.000000 0.150288
O O19 0.640100 0.500000 0.728284
#
# Coordination Sequence:
#
# PCOD9208652 Si02
#       7
#     8   8   8   8   8   8   8
#     4   9  19  37  58  80 109 145 186 233 283 333
#     4   9  19  34  53  79 109 142 180 224 273 326
#     4  10  21  38  60  85 113 146 187 234 280 329
#     4  11  22  37  58  82 111 148 191 237 283 333
#     4  11  23  38  57  83 116 152 190 230 276 333
#     4  10  22  38  57  85 118 150 184 227 281 334
#     4  10  21  38  59  83 112 147 189 233 280 337
#
# _framework density 18.309355
#
# number of rings (size 3 to 8) (size 9 to 14) (size 15 to 20)
#    0.000    2.000    0.000    4.286    0.000    7.429 
#    0.000    4.286    0.000    0.000    0.000    0.000 
#    0.000    0.000    0.000    0.000    0.000    0.000 
#
# Total GULP energy -156393.713238 kJ/mol
# GULP energy per Si atom -5585.489759 kJ/mol
# Density = 1.826768 g / cm^3
# Si number density = 18.309355 Si / 1000 Ang^3
#
#
#
# Elastic Constant Matrix: (Units=GPa)
#
#
# Indices 1 2 3 4 5 6 
#
# 1 115.7044 62.9566 106.0034 0.0000 -1.4400 0.0000
# 2 62.9566 59.7409 80.9578 0.0000 -0.5299 0.0000
# 3 106.0034 80.9578 195.2647 0.0000 -4.6731 0.0000
# 4 0.0000 0.0000 0.0000 38.7448 0.0000 4.0559
# 5 -1.4400 -0.5299 -4.6731 0.0000 41.1894 0.0000
# 6 0.0000 0.0000 0.0000 4.0559 0.0000 22.9397
#
#
#
# Elastic Compliance Matrix: (Units=1/GPa)
#
#
# Indices 1 2 3 4 5 6 
#
# 1 0.022545 -0.016368 -0.005453 0.000000 -0.000041 0.000000
# 2 -0.016368 0.050158 -0.011941 0.000000 -0.001282 0.000000
# 3 -0.005453 -0.011941 0.013060 0.000000 0.001137 0.000000
# 4 0.000000 0.000000 0.000000 0.026297 0.000000 -0.004649
# 5 -0.000041 -0.001282 0.001137 0.000000 0.024389 0.000000
# 6 0.000000 0.000000 0.000000 -0.004649 0.000000 0.044415
#
#
# Mechanical properties :
#
#
# Convention : Reuss Voigt Hill
#
# Bulk Modulus (GPa) = 54.83126 96.72728 75.77927
# Shear Modulus (GPa) = 19.64888 28.62758 24.13823
#
# Velocity S-wave (km/s) = 3.27947 3.95846 3.63485
# Velocity P-wave (km/s) = 6.65973 8.59283 7.68729
#
# Compressibility (1/GPa) = 0.01823777
#
# Stress axis : x y z
#
# Youngs Moduli (GPa) = 44.35637 19.93681 76.57172
#
# Poissons Ratio (x) = 0.32633 0.41758
# Poissons Ratio (y) = 0.72604 0.91432
# Poissons Ratio (z) = 0.24189 0.23806
#
# Static dielectric constant tensor:
#      x y z
#    x 1.612450 0.000000 -0.006220 
#    y 0.000000 1.620330 0.000000 
#    z -0.006220 0.000000 1.617660 
# 
# From -- ./inp_files/275345.got.cif
#   From: 2010.05.17/outbox.cif.g08.bks.cpg/sg12_138_cif.got.tgz:275345.got - 2010.06.03 13:09:07.
