data_PCOD9208287
_publ_section_title
;
Structure prediction by ZEFSAII (Michael W. Deem and Ramdas Pophale) SiO2 
 PCOD9208287
Probable space group: C 2/M
;
_chemical_formula_sum "Si O2"
_cell_formula_units_Z 64
_cell_length_a 30.537428
_cell_length_b 13.581255
_cell_length_c 20.582383
_cell_angle_alpha 90.000000
_cell_angle_beta 22.531044
_cell_angle_gamma 90.000000
_cell_volume 3270.960712
_symmetry_space_group_name_H-M "C 2/M"
_symmetry_group_IT_number 12
_symmetry_cell_setting 'monoclinic'
loop_
_space_group_symop_operation_xyz
x,y,z
-x,y,-z
-x,-y,-z
x,-y,z
1/2+x,1/2+y,z
1/2-x,1/2+y,-z
1/2-x,1/2-y,-z
1/2+x,1/2-y,z
loop_
_atom_site_type_symbol
_atom_site_label
_atom_site_fract_x
_atom_site_fract_y
_atom_site_fract_z
Si Si1 0.635601 0.115381 0.826435
Si Si2 0.417822 0.615082 0.754776
Si Si3 0.539761 0.795816 0.519694
Si Si4 0.791834 0.610883 0.043203
Si Si5 0.708519 0.252690 0.844044
Si Si6 0.695574 0.282064 0.506655
Si Si7 0.538479 0.384640 0.155632
Si Si8 0.043997 0.612585 0.646975
O O1 0.662780 0.177327 0.853441
O O2 0.710458 0.165055 0.667018
O O3 0.666279 0.000000 0.790951
O O4 0.500000 0.121275 0.000000
O O5 0.453099 0.500000 0.698958
O O6 0.494817 0.688546 0.606007
O O7 0.286601 0.623298 0.912319
O O8 0.424918 0.641459 0.820724
O O9 0.500000 0.814807 0.500000
O O10 0.676741 0.804397 0.336435
O O11 0.503694 0.867127 0.628057
O O12 0.771509 0.500000 0.095005
O O13 0.750099 0.689000 0.151684
O O14 0.926497 0.622704 0.848393
O O15 0.611007 0.324646 0.003841
O O16 0.750000 0.250000 0.500000
O O17 0.593948 0.356714 0.663790
O O18 0.634566 0.191772 0.550890
O O19 0.556753 0.500000 0.121326
O O20 0.085346 0.500000 0.596453
#
# Coordination Sequence:
#
# PCOD9208287 Si02
#       8
#     8   8   8   8   8   8   8   8
#     4  11  25  44  69  99 129 161 206 267 330 387
#     4  10  21  39  63  95 130 172 219 266 323 384
#     4  12  24  38  62  92 133 181 214 267 320 388
#     4  10  21  37  64  95 126 168 218 266 316 380
#     4  12  22  40  62  94 132 167 210 264 325 378
#     4  12  24  46  73  96 127 167 217 268 326 389
#     4  11  24  42  67  95 128 169 218 265 313 384
#     4  11  25  45  65  93 131 175 221 268 321 386
#
# _framework density 19.566117999999999
#
# number of rings (size 3 to 8) (size 9 to 14) (size 15 to 20)
#    0.000    0.875    5.000    1.500    1.750    5.000 
#    0.000    0.000    0.000    1.500    0.000    0.000 
#    0.000    0.000    0.000    0.000    0.000    0.000 
#
# Total GULP energy -178716.435547 kJ/mol
# GULP energy per Si atom -5584.888611 kJ/mol
# Density = 1.952158 g / cm^3
# Si number density = 19.566118 Si / 1000 Ang^3
#
#
#
# Elastic Constant Matrix: (Units=GPa)
#
#
# Indices 1 2 3 4 5 6 
#
# 1 100.8941 28.8444 7.7811 0.0000 0.0237 0.0000
# 2 28.8444 76.7114 21.0528 0.0000 8.0683 0.0000
# 3 7.7811 21.0528 83.8157 0.0000 5.4037 0.0000
# 4 0.0000 0.0000 0.0000 14.0857 0.0000 -8.1236
# 5 0.0237 8.0683 5.4037 0.0000 26.2173 0.0000
# 6 0.0000 0.0000 0.0000 -8.1236 0.0000 18.2761
#
#
#
# Elastic Compliance Matrix: (Units=1/GPa)
#
#
# Indices 1 2 3 4 5 6 
#
# 1 0.011149 -0.004322 -0.000035 0.000000 0.001327 0.000000
# 2 -0.004322 0.016026 -0.003351 0.000000 -0.004238 0.000000
# 3 -0.000035 -0.003351 0.012881 0.000000 -0.001624 0.000000
# 4 0.000000 0.000000 0.000000 0.095467 0.000000 0.042434
# 5 0.001327 -0.004238 -0.001624 0.000000 0.039780 0.000000
# 6 0.000000 0.000000 0.000000 0.042434 0.000000 0.073578
#
#
# Mechanical properties :
#
#
# Convention : Reuss Voigt Hill
#
# Bulk Modulus (GPa) = 40.58472 41.86418 41.22445
# Shear Modulus (GPa) = 18.34782 25.29868 21.82325
#
# Velocity S-wave (km/s) = 3.06557 3.59971 3.34332
# Velocity P-wave (km/s) = 5.77214 6.22253 6.00157
#
# Compressibility (1/GPa) = 0.02463982
#
# Stress axis : x y z
#
# Youngs Moduli (GPa) = 89.69035 62.39671 77.63627
#
# Poissons Ratio (x) = 0.26970 0.00271
# Poissons Ratio (y) = 0.38767 0.26016
# Poissons Ratio (z) = 0.00314 0.20909
#
# Static dielectric constant tensor:
#      x y z
#    x 1.680060 0.000000 -0.008540 
#    y 0.000000 1.696790 0.000000 
#    z -0.008540 0.000000 1.668690 
# 
# From -- ./inp_files/330323.got.cif
#   From: 2010.05.17/outbox.cif.g08.bks.cpg/sg12_166_cif.got.tgz:330323.got - 2010.06.03 13:09:07.
