data_PCOD9208151
_publ_section_title
;
Structure prediction by ZEFSAII (Michael W. Deem and Ramdas Pophale) SiO2 
 PCOD9208151
Probable space group: C 2/M
;
_chemical_formula_sum "Si O2"
_cell_formula_units_Z 58
_cell_length_a 13.534319
_cell_length_b 18.821144
_cell_length_c 22.319227
_cell_angle_alpha 90.000000
_cell_angle_beta 33.950700
_cell_angle_gamma 90.000000
_cell_volume 3175.182537
_symmetry_space_group_name_H-M "C 2/M"
_symmetry_group_IT_number 12
_symmetry_cell_setting 'monoclinic'
loop_
_space_group_symop_operation_xyz
x,y,z
-x,y,-z
-x,-y,-z
x,-y,z
1/2+x,1/2+y,z
1/2-x,1/2+y,-z
1/2-x,1/2-y,-z
1/2+x,1/2-y,z
loop_
_atom_site_type_symbol
_atom_site_label
_atom_site_fract_x
_atom_site_fract_y
_atom_site_fract_z
Si Si1 0.961655 0.159484 0.653938
Si Si2 0.500000 0.000000 0.000000
Si Si3 0.158809 0.681238 0.120049
Si Si4 0.024572 0.825837 0.126630
Si Si5 0.338343 0.918083 0.271699
Si Si6 0.806486 0.582431 0.431409
Si Si7 0.632885 0.577716 0.179568
Si Si8 0.868744 0.681104 0.723029
O O1 0.145904 0.128316 0.537893
O O2 0.806760 0.126959 0.690519
O O3 0.925217 0.130115 0.738708
O O4 0.951083 0.244348 0.659929
O O5 0.658137 0.060911 0.922138
O O6 0.162804 0.686009 0.189578
O O7 0.070451 0.752048 0.137145
O O8 0.031029 0.616100 0.166082
O O9 0.351209 0.672726 0.994377
O O10 0.819349 0.829790 0.213655
O O11 0.082262 0.888501 0.141922
O O12 0.299150 0.915632 0.362428
O O13 0.333512 0.000000 0.253403
O O14 0.792390 0.500000 0.456469
O O15 0.991252 0.618112 0.357291
O O16 0.546316 0.500000 0.231750
#
# Coordination Sequence:
#
# PCOD9208151 Si02
#       8
#     8   2   8   8   8   8   8   8
#     4  12  21  38  65  91 124 161 207 264 315 372
#     4   8  24  40  56 100 126 172 198 268 296 366
#     4  10  22  38  60  89 124 161 205 243 308 370
#     4  11  22  39  61  88 127 166 197 251 304 379
#     4  10  21  37  62  92 122 157 205 259 311 365
#     4  10  23  42  62  88 123 164 212 262 312 367
#     4  10  23  38  61  92 128 159 210 252 313 363
#     4  11  23  41  62  92 122 166 205 256 309 379
#
# _framework density 18.266667000000002
#
# number of rings (size 3 to 8) (size 9 to 14) (size 15 to 20)
#    0.414    1.103    2.759    2.483    1.931    2.207 
#    0.000    0.690    0.000    5.793    0.000    0.000 
#    0.000    0.000    0.000    0.000    0.000    0.000 
#
# Total GULP energy -161681.162632 kJ/mol
# GULP energy per Si atom -5575.212505 kJ/mol
# Density = 1.822509 g / cm^3
# Si number density = 18.266667 Si / 1000 Ang^3
#
#
#
# Elastic Constant Matrix: (Units=GPa)
#
#
# Indices 1 2 3 4 5 6 
#
# 1 52.7690 27.3747 21.8613 0.0024 -13.8528 -0.0008
# 2 27.3747 50.4628 38.3467 -0.0050 -7.8673 0.0011
# 3 21.8613 38.3467 62.9148 -0.0032 -12.8944 -0.0004
# 4 0.0024 -0.0050 -0.0032 24.8567 -0.0011 -1.9160
# 5 -13.8528 -7.8673 -12.8944 -0.0011 14.5302 0.0009
# 6 -0.0008 0.0011 -0.0004 -1.9160 0.0009 25.5867
#
#
#
# Elastic Compliance Matrix: (Units=1/GPa)
#
#
# Indices 1 2 3 4 5 6 
#
# 1 0.032784 -0.016995 0.004262 -0.000005 0.025835 0.000001
# 2 -0.016995 0.045724 -0.024703 0.000007 -0.013368 -0.000002
# 3 0.004262 -0.024703 0.033689 0.000000 0.020584 0.000001
# 4 -0.000005 0.000007 0.000000 0.040464 0.000002 0.003030
# 5 0.025835 -0.013368 0.020584 0.000002 0.104482 -0.000002
# 6 0.000001 -0.000002 0.000001 0.003030 -0.000002 0.039310
#
#
# Mechanical properties :
#
#
# Convention : Reuss Voigt Hill
#
# Bulk Modulus (GPa) = 26.79244 37.92354 32.35799
# Shear Modulus (GPa) = 13.02877 18.23232 15.63055
#
# Velocity S-wave (km/s) = 2.67358 3.16273 2.92839
# Velocity P-wave (km/s) = 4.92239 5.84323 5.40246
#
# Compressibility (1/GPa) = 0.03732396
#
# Stress axis : x y z
#
# Youngs Moduli (GPa) = 30.50308 21.87039 29.68333
#
# Poissons Ratio (x) = 0.37169 -0.12652
# Poissons Ratio (y) = 0.51841 0.73327
# Poissons Ratio (z) = -0.13001 0.54027
#
# Static dielectric constant tensor:
#      x y z
#    x 1.606560 0.000000 0.020020 
#    y 0.000000 1.619740 0.000000 
#    z 0.020020 0.000000 1.611130 
# 
# From -- ./inp_files/306363.got.cif
#   From: 2010.05.17/outbox.cif.g08.bks.cpg/sg12_154_cif.got.tgz:306363.got - 2010.06.03 13:09:07.
