data_PCOD9208755
_publ_section_title
;
Structure prediction by ZEFSAII (Michael W. Deem and Ramdas Pophale) SiO2 
 PCOD9208755
Probable space group: C 2/M
;
_chemical_formula_sum "Si O2"
_cell_formula_units_Z 42
_cell_length_a 18.589815
_cell_length_b 14.276737
_cell_length_c 9.689869
_cell_angle_alpha 90.000000
_cell_angle_beta 120.813195
_cell_angle_gamma 90.000000
_cell_volume 2208.692129
_symmetry_space_group_name_H-M "C 2/M"
_symmetry_group_IT_number 12
_symmetry_cell_setting 'monoclinic'
loop_
_space_group_symop_operation_xyz
x,y,z
-x,y,-z
-x,-y,-z
x,-y,z
1/2+x,1/2+y,z
1/2-x,1/2+y,-z
1/2-x,1/2-y,-z
1/2+x,1/2-y,z
loop_
_atom_site_type_symbol
_atom_site_label
_atom_site_fract_x
_atom_site_fract_y
_atom_site_fract_z
Si Si1 0.417707 0.243643 0.178697
Si Si2 0.867664 0.828252 0.852751
Si Si3 0.384109 0.241360 0.578446
Si Si4 0.899925 0.895796 0.374765
Si Si5 0.818522 0.390222 0.284360
Si Si6 0.000000 0.000000 0.000000
O O1 0.515408 0.231193 0.309458
O O2 0.390341 0.342375 0.221493
O O3 0.365853 0.164740 0.207965
O O4 0.403357 0.257668 0.003504
O O5 0.853014 0.770003 0.698297
O O6 0.779732 0.868373 0.818936
O O7 0.931028 0.915699 0.894111
O O8 0.365257 0.329538 0.459846
O O9 0.349820 0.152895 0.461109
O O10 0.000000 0.901612 0.500000
O O11 0.865382 0.000000 0.340082
O O12 0.834684 0.500000 0.292714
#
# Coordination Sequence:
#
# PCOD9208755 Si02
#       6
#     8   8   8   8   8   2
#     4  10  21  38  59  87 121 161 203 251 301 362
#     4  12  23  40  62  96 126 153 202 256 317 361
#     4  10  21  38  59  87 121 161 203 251 301 362
#     4   8  16  27  49  79 115 150 193 237 291 353
#     4  11  24  41  62  88 124 167 207 250 297 359
#     4  12  24  36  68  94 124 160 192 250 328 376
#
# _framework density 19.015778999999998
#
# number of rings (size 3 to 8) (size 9 to 14) (size 15 to 20)
#    0.000    1.714    2.857    2.857    2.667    1.524 
#    0.000    0.952    0.000    2.286    0.000    0.000 
#    0.000    0.000    0.000    0.000    0.000    0.000 
#
# Total GULP energy -116949.724894 kJ/mol
# GULP energy per Si atom -5569.034519 kJ/mol
# Density = 1.897250 g / cm^3
# Si number density = 19.015779 Si / 1000 Ang^3
#
#
#
# Elastic Constant Matrix: (Units=GPa)
#
#
# Indices 1 2 3 4 5 6 
#
# 1 35.6154 18.4753 -1.4316 0.0000 -1.0681 0.0000
# 2 18.4753 104.9408 6.3034 0.0000 7.0685 0.0000
# 3 -1.4316 6.3034 62.0876 0.0000 -7.8605 0.0000
# 4 0.0000 0.0000 0.0000 10.0211 0.0000 11.0176
# 5 -1.0681 7.0685 -7.8605 0.0000 26.4152 0.0000
# 6 0.0000 0.0000 0.0000 11.0176 0.0000 16.3117
#
#
#
# Elastic Compliance Matrix: (Units=1/GPa)
#
#
# Indices 1 2 3 4 5 6 
#
# 1 0.031275 -0.005836 0.001737 0.000000 0.003343 0.000000
# 2 -0.005836 0.010906 -0.001705 0.000000 -0.003662 0.000000
# 3 0.001737 -0.001705 0.017028 0.000000 0.005594 0.000000
# 4 0.000000 0.000000 0.000000 0.387705 0.000000 -0.261874
# 5 0.003343 -0.003662 0.005594 0.000000 0.040637 0.000000
# 6 0.000000 0.000000 0.000000 -0.261874 0.000000 0.238187
#
#
# Mechanical properties :
#
#
# Convention : Reuss Voigt Hill
#
# Bulk Modulus (GPa) = 21.00837 27.70420 24.35628
# Shear Modulus (GPa) = 6.63824 22.50270 14.57047
#
# Velocity S-wave (km/s) = 1.87042 3.44375 2.77109
# Velocity P-wave (km/s) = 3.96693 5.51482 4.80363
#
# Compressibility (1/GPa) = 0.04760008
#
# Stress axis : x y z
#
# Youngs Moduli (GPa) = 31.97439 91.69567 58.72815
#
# Poissons Ratio (x) = 0.53510 -0.10200
# Poissons Ratio (y) = 0.18659 0.10015
# Poissons Ratio (z) = -0.05553 0.15637
#
# Static dielectric constant tensor:
#      x y z
#    x 1.699840 0.000000 -0.018600 
#    y 0.000000 1.631340 0.000000 
#    z -0.018600 0.000000 1.705840 
# 
# From -- ./inp_files/61601.got.cif
#   From: 2010.05.17/outbox.cif.g08.bks.cpg/sg12_31_cif.got.tgz:61601.got - 2010.06.03 13:09:07.
