data_PCOD9208454
_publ_section_title
;
Structure prediction by ZEFSAII (Michael W. Deem and Ramdas Pophale) SiO2 
 PCOD9208454
Probable space group: C 2/M
;
_chemical_formula_sum "Si O2"
_cell_formula_units_Z 58
_cell_length_a 24.149286
_cell_length_b 7.394783
_cell_length_c 14.669346
_cell_angle_alpha 90.000000
_cell_angle_beta 102.799147
_cell_angle_gamma 90.000000
_cell_volume 2554.542237
_symmetry_space_group_name_H-M "C 2/M"
_symmetry_group_IT_number 12
_symmetry_cell_setting 'monoclinic'
loop_
_space_group_symop_operation_xyz
x,y,z
-x,y,-z
-x,-y,-z
x,-y,z
1/2+x,1/2+y,z
1/2-x,1/2+y,-z
1/2-x,1/2-y,-z
1/2+x,1/2-y,z
loop_
_atom_site_type_symbol
_atom_site_label
_atom_site_fract_x
_atom_site_fract_y
_atom_site_fract_z
Si Si1 0.392836 0.220629 0.620685
Si Si2 0.000000 0.500000 0.000000
Si Si3 0.384786 0.707531 0.112123
Si Si4 0.483756 0.219090 0.286980
Si Si5 0.692060 0.719419 0.755843
Si Si6 0.918988 0.790276 0.927315
Si Si7 0.092661 0.711034 0.578342
Si Si8 0.817723 0.718641 0.752199
O O1 0.450917 0.273505 0.693167
O O2 0.397203 0.286162 0.518507
O O3 0.338828 0.278188 0.660044
O O4 0.391651 0.000000 0.618388
O O5 0.029168 0.658912 0.075081
O O6 0.369179 0.500000 0.087484
O O7 0.441234 0.712953 0.194288
O O8 0.335637 0.785022 0.159207
O O9 0.397979 0.786927 0.018321
O O10 0.457373 0.281522 0.374633
O O11 0.480599 0.000000 0.283631
O O12 0.691483 0.500000 0.758971
O O13 0.649323 0.773156 0.659636
O O14 0.755619 0.781703 0.759339
O O15 0.866606 0.774821 0.839981
O O16 0.935775 0.000000 0.940629
O O17 0.078950 0.500000 0.559792
O O18 0.815914 0.500000 0.751861
#
# Coordination Sequence:
#
# PCOD9208454 Si02
#       8
#     8   2   8   8   8   8   8   8
#     4   9  18  31  52  78 111 148 194 245 304 369
#     4  12  26  44  68  90 132 162 194 248 296 366
#     4   9  20  37  56  83 113 151 198 248 301 356
#     4   9  17  29  53  80 109 145 191 242 302 366
#     4   9  19  37  58  79 115 154 197 252 304 359
#     4  11  25  42  64  93 125 162 204 243 296 359
#     4   9  17  32  52  80 108 145 195 250 302 358
#     4  10  21  38  57  83 116 161 204 248 307 358
#
# _framework density 22.704656
#
# number of rings (size 3 to 8) (size 9 to 14) (size 15 to 20)
#    0.000    2.483    0.690    0.621    2.897    3.310 
#    0.000    1.379    0.000    3.310    0.000    0.000 
#    0.000    0.000    0.000    0.000    0.000    0.000 
#
# Total GULP energy -161803.921328 kJ/mol
# GULP energy per Si atom -5579.445563 kJ/mol
# Density = 2.265298 g / cm^3
# Si number density = 22.704656 Si / 1000 Ang^3
#
#
#
# Elastic Constant Matrix: (Units=GPa)
#
#
# Indices 1 2 3 4 5 6 
#
# 1 122.3683 6.0861 21.1232 0.0000 -18.9954 0.0000
# 2 6.0861 103.1773 -8.8651 0.0000 -5.5824 0.0000
# 3 21.1232 -8.8651 82.2792 0.0000 -29.7411 0.0000
# 4 0.0000 0.0000 0.0000 2.1059 0.0000 22.5695
# 5 -18.9954 -5.5824 -29.7411 0.0000 31.0231 0.0000
# 6 0.0000 0.0000 0.0000 22.5695 0.0000 2.6857
#
#
#
# Elastic Compliance Matrix: (Units=1/GPa)
#
#
# Indices 1 2 3 4 5 6 
#
# 1 0.009053 -0.000316 -0.000574 0.000000 0.004936 0.000000
# 2 -0.000316 0.010172 0.002707 0.000000 0.004232 0.000000
# 3 -0.000574 0.002707 0.019346 0.000000 0.018682 0.000000
# 4 0.000000 0.000000 0.000000 -0.005332 0.000000 0.044805
# 5 0.004936 0.004232 0.018682 0.000000 0.053927 0.000000
# 6 0.000000 0.000000 0.000000 0.044805 0.000000 -0.004181
#
#
# Mechanical properties :
#
#
# Convention : Reuss Voigt Hill
#
# Bulk Modulus (GPa) = 23.69457 38.27928 30.98692
# Shear Modulus (GPa) = 53.52114 26.46164 39.99139
#
# Velocity S-wave (km/s) = 4.86045 3.41760 4.20143
# Velocity P-wave (km/s) = 6.47744 5.69821 6.10028
#
# Compressibility (1/GPa) = 0.04220377
#
# Stress axis : x y z
#
# Youngs Moduli (GPa) = 110.45960 98.30672 51.69151
#
# Poissons Ratio (x) = 0.03109 0.02968
# Poissons Ratio (y) = 0.03494 -0.13992
# Poissons Ratio (z) = 0.06341 -0.26610
#
# Static dielectric constant tensor:
#      x y z
#    x 1.866770 0.000000 -0.071220 
#    y 0.000000 1.860280 0.000000 
#    z -0.071220 0.000000 1.842220 
# 
# From -- ./inp_files/237696.got.cif
#   From: 2010.05.17/outbox.cif.g08.bks.cpg/sg12_119_cif.got.tgz:237696.got - 2010.06.03 13:09:07.
