data_PCOD9208465
_publ_section_title
;
Structure prediction by ZEFSAII (Michael W. Deem and Ramdas Pophale) SiO2 
 PCOD9208465
Probable space group: C 2/M
;
_chemical_formula_sum "Si O2"
_cell_formula_units_Z 64
_cell_length_a 31.598452
_cell_length_b 9.118228
_cell_length_c 15.200368
_cell_angle_alpha 90.000000
_cell_angle_beta 130.702286
_cell_angle_gamma 90.000000
_cell_volume 3320.179920
_symmetry_space_group_name_H-M "C 2/M"
_symmetry_group_IT_number 12
_symmetry_cell_setting 'monoclinic'
loop_
_space_group_symop_operation_xyz
x,y,z
-x,y,-z
-x,-y,-z
x,-y,z
1/2+x,1/2+y,z
1/2-x,1/2+y,-z
1/2-x,1/2-y,-z
1/2+x,1/2-y,z
loop_
_atom_site_type_symbol
_atom_site_label
_atom_site_fract_x
_atom_site_fract_y
_atom_site_fract_z
Si Si1 0.458455 0.669698 0.863587
Si Si2 0.859327 0.327482 0.802427
Si Si3 0.251853 0.824503 0.406387
Si Si4 0.877730 0.331117 0.027216
Si Si5 0.170823 0.677247 0.651572
Si Si6 0.751176 0.827331 0.096263
Si Si7 0.541050 0.823521 0.476902
Si Si8 0.521403 0.330947 0.764000
O O1 0.440032 0.500000 0.850323
O O2 0.405219 0.774528 0.795314
O O3 0.491621 0.680810 0.818135
O O4 0.500000 0.704790 0.000000
O O5 0.846428 0.500000 0.776609
O O6 0.803867 0.232742 0.716866
O O7 0.885379 0.301960 0.934114
O O8 0.250000 0.750000 0.500000
O O9 0.302807 0.786231 0.408887
O O10 0.251490 0.000000 0.416504
O O11 0.893586 0.500000 0.066563
O O12 0.916178 0.228750 0.138147
O O13 0.812159 0.315585 0.954849
O O14 0.174545 0.500000 0.665952
O O15 0.207461 0.751398 0.777945
O O16 0.105938 0.721693 0.572197
O O17 0.764811 0.000000 0.106558
O O18 0.750000 0.750000 0.000000
O O19 0.500000 0.775566 0.500000
O O20 0.513665 0.762742 0.351770
O O21 0.541014 0.000000 0.475480
O O22 0.522078 0.500000 0.737783
#
# Coordination Sequence:
#
# PCOD9208465 Si02
#       8
#     8   8   8   8   8   8   8   8
#     4  10  21  38  57  86 127 166 200 246 307 365
#     4  11  22  38  61  89 122 163 210 256 310 371
#     4  11  24  41  63  91 126 167 212 259 313 379
#     4  10  22  40  62  90 126 165 206 254 313 375
#     4  10  23  44  67  94 127 167 213 260 316 379
#     4  11  24  42  66  96 128 163 204 258 318 376
#     4  10  24  46  68  89 122 167 211 262 319 375
#     4  11  24  40  63  93 126 165 211 260 311 368
#
# _framework density 19.276063000000001
#
# number of rings (size 3 to 8) (size 9 to 14) (size 15 to 20)
#    0.000    1.500    2.500    1.500    3.500    4.000 
#    0.000    0.000    0.000    0.000    0.000    0.000 
#    0.000    0.000    0.000    0.000    0.000    0.000 
#
# Total GULP energy -178748.438462 kJ/mol
# GULP energy per Si atom -5585.888702 kJ/mol
# Density = 1.923219 g / cm^3
# Si number density = 19.276063 Si / 1000 Ang^3
#
#
#
# Elastic Constant Matrix: (Units=GPa)
#
#
# Indices 1 2 3 4 5 6 
#
# 1 95.9408 48.6789 57.6444 0.0000 4.9565 0.0000
# 2 48.6789 38.0168 39.8631 0.0000 3.0881 0.0000
# 3 57.6444 39.8631 92.1381 0.0000 2.9361 0.0000
# 4 0.0000 0.0000 0.0000 36.7658 0.0000 -1.8883
# 5 4.9565 3.0881 2.9361 0.0000 29.4943 0.0000
# 6 0.0000 0.0000 0.0000 -1.8883 0.0000 25.1838
#
#
#
# Elastic Compliance Matrix: (Units=1/GPa)
#
#
# Indices 1 2 3 4 5 6 
#
# 1 0.030575 -0.034850 -0.004016 0.000000 -0.001089 0.000000
# 2 -0.034850 0.088131 -0.016270 0.000000 -0.001751 0.000000
# 3 -0.004016 -0.016270 0.020394 0.000000 0.000348 0.000000
# 4 0.000000 0.000000 0.000000 0.027304 0.000000 0.002047
# 5 -0.001089 -0.001751 0.000348 0.000000 0.034237 0.000000
# 6 0.000000 0.000000 0.000000 0.002047 0.000000 0.039862
#
#
# Mechanical properties :
#
#
# Convention : Reuss Voigt Hill
#
# Bulk Modulus (GPa) = 34.68991 57.60763 46.14877
# Shear Modulus (GPa) = 13.87404 23.61606 18.74505
#
# Velocity S-wave (km/s) = 2.68573 3.50401 3.12180
# Velocity P-wave (km/s) = 5.25861 6.80597 6.08170
#
# Compressibility (1/GPa) = 0.02882683
#
# Stress axis : x y z
#
# Youngs Moduli (GPa) = 32.70661 11.34669 49.03388
#
# Poissons Ratio (x) = 0.39544 0.19692
# Poissons Ratio (y) = 1.13983 0.79780
# Poissons Ratio (z) = 0.13135 0.18462
#
# Static dielectric constant tensor:
#      x y z
#    x 1.701950 0.000000 -0.011570 
#    y 0.000000 1.651730 0.000000 
#    z -0.011570 0.000000 1.639920 
# 
# From -- ./inp_files/249960.got.cif
#   From: 2010.05.17/outbox.cif.g08.bks.cpg/sg12_125_cif.got.tgz:249960.got - 2010.06.03 13:09:07.
