data_PCOD9208004
_publ_section_title
;
Structure prediction by ZEFSAII (Michael W. Deem and Ramdas Pophale) SiO2 
 PCOD9208004
Probable space group: C 2/M
;
_chemical_formula_sum "Si O2"
_cell_formula_units_Z 44
_cell_length_a 14.285999
_cell_length_b 9.563340
_cell_length_c 16.109204
_cell_angle_alpha 90.000000
_cell_angle_beta 65.719285
_cell_angle_gamma 90.000000
_cell_volume 2006.184408
_symmetry_space_group_name_H-M "C 2/M"
_symmetry_group_IT_number 12
_symmetry_cell_setting 'monoclinic'
loop_
_space_group_symop_operation_xyz
x,y,z
-x,y,-z
-x,-y,-z
x,-y,z
1/2+x,1/2+y,z
1/2-x,1/2+y,-z
1/2-x,1/2-y,-z
1/2+x,1/2-y,z
loop_
_atom_site_type_symbol
_atom_site_label
_atom_site_fract_x
_atom_site_fract_y
_atom_site_fract_z
Si Si1 0.888394 0.664835 0.203145
Si Si2 0.197741 0.000000 0.509811
Si Si3 0.544356 0.711837 0.651341
Si Si4 0.893801 0.341150 0.949971
Si Si5 0.937571 0.500000 0.439262
Si Si6 0.415773 0.500000 0.607091
Si Si7 0.731122 0.663099 0.875312
O O1 0.874110 0.500000 0.229476
O O2 0.923302 0.764588 0.265864
O O3 0.791885 0.736057 0.193293
O O4 0.984793 0.668068 0.104641
O O5 0.138066 0.132461 0.570500
O O6 0.314981 0.000000 0.493363
O O7 0.184757 0.000000 0.413864
O O8 0.444201 0.627938 0.656851
O O9 0.532146 0.864709 0.621517
O O10 0.866468 0.500000 0.989124
O O11 0.842970 0.327994 0.876778
O O12 0.843559 0.222725 0.024955
O O13 0.000000 0.500000 0.500000
O O14 0.500000 0.500000 0.500000
O O15 0.710306 0.500000 0.864076
#
# Coordination Sequence:
#
# PCOD9208004 Si02
#       7
#     8   4   8   8   4   4   8
#     4  11  22  39  57  87 125 155 193 242 300 345
#     4  10  22  42  64  86 116 158 191 236 304 347
#     4  10  21  39  59  89 117 152 193 245 292 351
#     4   9  20  40  60  82 118 165 199 237 291 346
#     4  12  22  40  64  92 115 151 201 241 274 361
#     4   8  18  40  62  78 116 153 189 231 296 350
#     4  10  21  37  61  88 118 156 205 242 283 351
#
# _framework density 21.932179999999999
#
# number of rings (size 3 to 8) (size 9 to 14) (size 15 to 20)
#    0.000    2.182    0.909    3.273    2.545    3.636 
#    6.545    0.000    0.000    0.000    0.000    0.000 
#    0.000    0.000    0.000    0.000    0.000    0.000 
#
# Total GULP energy -122810.809059 kJ/mol
# GULP energy per Si atom -5582.309503 kJ/mol
# Density = 2.188226 g / cm^3
# Si number density = 21.932180 Si / 1000 Ang^3
#
#
#
# Elastic Constant Matrix: (Units=GPa)
#
#
# Indices 1 2 3 4 5 6 
#
# 1 109.5089 28.5293 19.2697 0.0000 24.6725 0.0000
# 2 28.5293 131.3373 19.6484 0.0000 11.3915 0.0000
# 3 19.2697 19.6484 62.7633 0.0000 28.5307 0.0000
# 4 0.0000 0.0000 0.0000 3.1103 0.0000 92.7853
# 5 24.6725 11.3915 28.5307 0.0000 36.0995 0.0000
# 6 0.0000 0.0000 0.0000 92.7853 0.0000 -147.7100
#
#
#
# Elastic Compliance Matrix: (Units=1/GPa)
#
#
# Indices 1 2 3 4 5 6 
#
# 1 0.011213 -0.001867 0.000558 0.000000 -0.007516 0.000000
# 2 -0.001867 0.008316 -0.002212 0.000000 0.000400 0.000000
# 3 0.000558 -0.002212 0.025455 0.000000 -0.019802 0.000000
# 4 0.000000 0.000000 0.000000 0.016288 0.000000 0.010232
# 5 -0.007516 0.000400 -0.019802 0.000000 0.048362 0.000000
# 6 0.000000 0.000000 0.000000 0.010232 0.000000 -0.000343
#
#
# Mechanical properties :
#
#
# Convention : Reuss Voigt Hill
#
# Bulk Modulus (GPa) = 26.35572 48.72270 37.53921
# Shear Modulus (GPa) = 38.76549 -5.95588 16.40481
#
# Velocity S-wave (km/s) = 4.20875 -1.64969 2.73789
# Velocity P-wave (km/s) = 5.97169 4.31680 5.21036
#
# Compressibility (1/GPa) = 0.03794243
#
# Stress axis : x y z
#
# Youngs Moduli (GPa) = 89.18027 120.25283 39.28450
#
# Poissons Ratio (x) = 0.22456 -0.02194
# Poissons Ratio (y) = 0.16654 0.08690
# Poissons Ratio (z) = -0.04980 0.26600
#
# Static dielectric constant tensor:
#      x y z
#    x 1.863440 0.000000 0.050030 
#    y 0.000000 1.727790 0.000000 
#    z 0.050030 0.000000 1.875500 
# 
# From -- ./inp_files/267242.got.cif
#   From: 2010.05.17/outbox.cif.g08.bks.cpg/sg12_134_cif.got.tgz:267242.got - 2010.06.03 13:09:07.
