data_PCOD9208908
_publ_section_title
;
Structure prediction by ZEFSAII (Michael W. Deem and Ramdas Pophale) SiO2 
 PCOD9208908
Probable space group: C 2/M
;
_chemical_formula_sum "Si O2"
_cell_formula_units_Z 56
_cell_length_a 15.242934
_cell_length_b 8.636420
_cell_length_c 22.165173
_cell_angle_alpha 90.000000
_cell_angle_beta 99.970757
_cell_angle_gamma 90.000000
_cell_volume 2873.848924
_symmetry_space_group_name_H-M "C 2/M"
_symmetry_group_IT_number 12
_symmetry_cell_setting 'monoclinic'
loop_
_space_group_symop_operation_xyz
x,y,z
-x,y,-z
-x,-y,-z
x,-y,z
1/2+x,1/2+y,z
1/2-x,1/2+y,-z
1/2-x,1/2-y,-z
1/2+x,1/2-y,z
loop_
_atom_site_type_symbol
_atom_site_label
_atom_site_fract_x
_atom_site_fract_y
_atom_site_fract_z
Si Si1 0.276315 0.186525 0.092026
Si Si2 0.940433 0.819696 0.433756
Si Si3 0.744352 0.179843 0.565928
Si Si4 0.174657 0.678994 0.307464
Si Si5 0.398203 0.687067 0.002003
Si Si6 0.185158 0.683242 0.765582
Si Si7 0.995651 0.179702 0.305355
O O1 0.178444 0.234722 0.055563
O O2 0.290083 0.228162 0.163253
O O3 0.280150 0.000000 0.087403
O O4 0.354616 0.255000 0.059410
O O5 0.857038 0.706094 0.425285
O O6 0.000000 0.796336 0.500000
O O7 0.991803 0.798741 0.377291
O O8 0.908740 0.000000 0.431125
O O9 0.750000 0.250000 0.500000
O O10 0.802730 0.269899 0.621689
O O11 0.769328 0.000000 0.568153
O O12 0.196654 0.500000 0.301674
O O13 0.234172 0.779376 0.269650
O O14 0.071241 0.713954 0.286003
O O15 0.400666 0.500000 0.003324
O O16 0.500000 0.739592 0.000000
O O17 0.165944 0.500000 0.761685
O O18 0.100070 0.776510 0.732019
O O19 0.016547 0.000000 0.296270
#
# Coordination Sequence:
#
# PCOD9208908 Si02
#       7
#     8   8   8   8   8   8   8
#     4   9  20  37  58  88 124 162 203 252 305 358
#     4  10  21  38  60  86 117 150 194 251 314 376
#     4  12  24  39  61  87 119 155 200 254 313 374
#     4  12  25  42  63  89 122 160 207 256 311 376
#     4   9  18  35  60  90 124 162 206 252 298 354
#     4  11  23  41  62  88 127 168 210 257 309 371
#     4  11  23  40  63  89 120 158 203 256 314 374
#
# _framework density 19.486063000000001
#
# number of rings (size 3 to 8) (size 9 to 14) (size 15 to 20)
#    0.000    1.429    1.429    4.286    0.000    4.571 
#    0.000    1.429    0.000    0.000    0.000    0.000 
#    0.000    0.000    0.000    0.000    0.000    0.000 
#
# Total GULP energy -156472.397205 kJ/mol
# GULP energy per Si atom -5588.299900 kJ/mol
# Density = 1.944171 g / cm^3
# Si number density = 19.486063 Si / 1000 Ang^3
#
#
#
# Elastic Constant Matrix: (Units=GPa)
#
#
# Indices 1 2 3 4 5 6 
#
# 1 105.2199 1.0669 34.9121 0.0000 -3.6087 0.0000
# 2 1.0669 28.9048 9.3350 0.0000 3.1693 0.0000
# 3 34.9121 9.3350 113.7341 0.0000 3.8046 0.0000
# 4 0.0000 0.0000 0.0000 24.5112 0.0000 -6.5421
# 5 -3.6087 3.1693 3.8046 0.0000 14.7608 0.0000
# 6 0.0000 0.0000 0.0000 -6.5421 0.0000 30.8033
#
#
#
# Elastic Compliance Matrix: (Units=1/GPa)
#
#
# Indices 1 2 3 4 5 6 
#
# 1 0.010762 0.000338 -0.003447 0.000000 0.003447 0.000000
# 2 0.000338 0.036268 -0.002847 0.000000 -0.006971 0.000000
# 3 -0.003447 -0.002847 0.010180 0.000000 -0.002855 0.000000
# 4 0.000000 0.000000 0.000000 0.043249 0.000000 0.009185
# 5 0.003447 -0.006971 -0.002855 0.000000 0.070822 0.000000
# 6 0.000000 0.000000 0.000000 0.009185 0.000000 0.034415
#
#
# Mechanical properties :
#
#
# Convention : Reuss Voigt Hill
#
# Bulk Modulus (GPa) = 22.07625 37.60963 29.84294
# Shear Modulus (GPa) = 21.48622 27.51807 24.50214
#
# Velocity S-wave (km/s) = 3.32421 3.76199 3.54986
# Velocity P-wave (km/s) = 5.10761 6.18165 5.67012
#
# Compressibility (1/GPa) = 0.04529754
#
# Stress axis : x y z
#
# Youngs Moduli (GPa) = 92.91687 27.57277 98.23530
#
# Poissons Ratio (x) = -0.00932 0.33858
# Poissons Ratio (y) = -0.03140 0.27970
# Poissons Ratio (z) = 0.32025 0.07851
#
# Static dielectric constant tensor:
#      x y z
#    x 1.680340 0.000000 0.009370 
#    y 0.000000 1.653730 0.000000 
#    z 0.009370 0.000000 1.672870 
# 
# From -- ./inp_files/308934.got.cif
#   From: 2010.05.17/outbox.cif.g08.bks.cpg/sg12_155_cif.got.tgz:308934.got - 2010.06.03 13:09:07.
