data_PCOD9208851
_publ_section_title
;
Structure prediction by ZEFSAII (Michael W. Deem and Ramdas Pophale) SiO2 
 PCOD9208851
Probable space group: C 2/M
;
_chemical_formula_sum "Si O2"
_cell_formula_units_Z 40
_cell_length_a 30.375049
_cell_length_b 8.969405
_cell_length_c 7.072644
_cell_angle_alpha 90.000000
_cell_angle_beta 91.853650
_cell_angle_gamma 90.000000
_cell_volume 1925.906056
_symmetry_space_group_name_H-M "C 2/M"
_symmetry_group_IT_number 12
_symmetry_cell_setting 'monoclinic'
loop_
_space_group_symop_operation_xyz
x,y,z
-x,y,-z
-x,-y,-z
x,-y,z
1/2+x,1/2+y,z
1/2-x,1/2+y,-z
1/2-x,1/2-y,-z
1/2+x,1/2-y,z
loop_
_atom_site_type_symbol
_atom_site_label
_atom_site_fract_x
_atom_site_fract_y
_atom_site_fract_z
Si Si1 0.951995 0.322557 0.926096
Si Si2 0.803038 0.179031 0.653692
Si Si3 0.211279 0.323421 0.757213
Si Si4 0.599232 0.673865 0.383094
Si Si5 0.377513 0.324264 0.172355
O O1 0.950823 0.500000 0.938160
O O2 0.938824 0.270985 0.714165
O O3 0.914349 0.254320 0.053362
O O4 0.000000 0.270109 0.000000
O O5 0.795560 0.276310 0.464100
O O6 0.763126 0.213852 0.790902
O O7 0.853758 0.204450 0.713162
O O8 0.799667 0.000000 0.607695
O O9 0.205690 0.500000 0.782010
O O10 0.171840 0.239129 0.855428
O O11 0.588783 0.500000 0.353661
O O12 0.608500 0.697638 0.605694
O O13 0.376690 0.500000 0.133345
#
# Coordination Sequence:
#
# PCOD9208851 Si02
#       5
#     8   8   8   8   8
#     4  11  25  42  59  82 111 142 182 235 289 338
#     4   8  15  28  48  78 114 150 186 222 264 320
#     4   9  15  26  49  80 114 149 184 223 268 319
#     4   9  19  37  60  85 113 147 187 228 272 326
#     4  10  21  38  60  85 114 148 187 229 274 330
#
# _framework density 20.769445999999999
#
# number of rings (size 3 to 8) (size 9 to 14) (size 15 to 20)
#    0.000    2.600    0.000    3.000    0.000    7.200 
#    0.000    5.000    0.000    0.000    0.000    0.000 
#    0.000    0.000    0.000    0.000    0.000    0.000 
#
# Total GULP energy -111631.143149 kJ/mol
# GULP energy per Si atom -5581.557157 kJ/mol
# Density = 2.072217 g / cm^3
# Si number density = 20.769446 Si / 1000 Ang^3
#
#
#
# Elastic Constant Matrix: (Units=GPa)
#
#
# Indices 1 2 3 4 5 6 
#
# 1 97.2696 34.7754 30.4455 0.0000 19.3063 0.0000
# 2 34.7754 38.3190 22.8561 0.0000 12.9177 0.0000
# 3 30.4455 22.8561 53.9355 0.0000 7.5321 0.0000
# 4 0.0000 0.0000 0.0000 19.8066 0.0000 -0.3975
# 5 19.3063 12.9177 7.5321 0.0000 33.5942 0.0000
# 6 0.0000 0.0000 0.0000 -0.3975 0.0000 32.0177
#
#
#
# Elastic Compliance Matrix: (Units=1/GPa)
#
#
# Indices 1 2 3 4 5 6 
#
# 1 0.016290 -0.011002 -0.003940 0.000000 -0.004248 0.000000
# 2 -0.011002 0.046300 -0.012189 0.000000 -0.008748 0.000000
# 3 -0.003940 -0.012189 0.025766 0.000000 0.001174 0.000000
# 4 0.000000 0.000000 0.000000 0.050501 0.000000 0.000627
# 5 -0.004248 -0.008748 0.001174 0.000000 0.035309 0.000000
# 6 0.000000 0.000000 0.000000 0.000627 0.000000 0.031241
#
#
# Mechanical properties :
#
#
# Convention : Reuss Voigt Hill
#
# Bulk Modulus (GPa) = 29.32928 40.63092 34.98010
# Shear Modulus (GPa) = 18.44791 23.84682 21.14737
#
# Velocity S-wave (km/s) = 2.98354 3.39214 3.19438
# Velocity P-wave (km/s) = 5.10105 5.91164 5.52124
#
# Compressibility (1/GPa) = 0.03409562
#
# Stress axis : x y z
#
# Youngs Moduli (GPa) = 61.38564 21.59814 38.81084
#
# Poissons Ratio (x) = 0.23762 0.15292
# Poissons Ratio (y) = 0.67535 0.47305
# Poissons Ratio (z) = 0.24187 0.26325
#
# Static dielectric constant tensor:
#      x y z
#    x 1.751500 0.000000 0.006830 
#    y 0.000000 1.686500 0.000000 
#    z 0.006830 0.000000 1.793680 
# 
# From -- ./inp_files/101206.got.cif
#   From: 2010.05.17/outbox.cif.g08.bks.cpg/sg12_51_cif.got.tgz:101206.got - 2010.06.03 13:09:07.
