data_PCOD9208522
_publ_section_title
;
Structure prediction by ZEFSAII (Michael W. Deem and Ramdas Pophale) SiO2 
 PCOD9208522
Probable space group: C 2/M
;
_chemical_formula_sum "Si O2"
_cell_formula_units_Z 48
_cell_length_a 8.396020
_cell_length_b 14.563406
_cell_length_c 15.605102
_cell_angle_alpha 90.000000
_cell_angle_beta 91.544960
_cell_angle_gamma 90.000000
_cell_volume 1907.414712
_symmetry_space_group_name_H-M "C 2/M"
_symmetry_group_IT_number 12
_symmetry_cell_setting 'monoclinic'
loop_
_space_group_symop_operation_xyz
x,y,z
-x,y,-z
-x,-y,-z
x,-y,z
1/2+x,1/2+y,z
1/2-x,1/2+y,-z
1/2-x,1/2-y,-z
1/2+x,1/2-y,z
loop_
_atom_site_type_symbol
_atom_site_label
_atom_site_fract_x
_atom_site_fract_y
_atom_site_fract_z
Si Si1 0.619759 0.596307 0.921229
Si Si2 0.944833 0.107213 0.595506
Si Si3 0.098703 0.297700 0.915394
Si Si4 0.452120 0.246694 0.729698
Si Si5 0.560007 0.891787 0.593292
Si Si6 0.188560 0.900582 0.189373
O O1 0.713191 0.500000 0.919786
O O2 0.687236 0.698668 0.923599
O O3 0.496900 0.595664 0.839216
O O4 0.500000 0.593240 0.000000
O O5 0.024851 0.174242 0.666838
O O6 0.752401 0.118204 0.595557
O O7 0.000000 0.127598 0.500000
O O8 0.981865 0.000000 0.613962
O O9 0.215714 0.380815 0.895936
O O10 0.000093 0.288159 0.825328
O O11 0.000000 0.311470 0.000000
O O12 0.465545 0.160234 0.667306
O O13 0.296011 0.308134 0.754542
O O14 0.500000 0.858018 0.500000
O O15 0.524910 0.000000 0.598961
O O16 0.235314 0.000000 0.226106
#
# Coordination Sequence:
#
# PCOD9208522 Si02
#       6
#     8   8   8   8   8   8
#     4   8  16  32  53  76 105 145 195 252 313 373
#     4  10  22  41  67  99 133 173 219 264 321 397
#     4  10  22  37  57  87 122 164 219 275 325 379
#     4  11  22  36  62  92 125 167 213 264 321 384
#     4  10  23  44  68  97 135 172 210 265 329 392
#     4  10  21  38  58  81 116 162 210 265 327 390
#
# _framework density 25.164954000000002
#
# number of rings (size 3 to 8) (size 9 to 14) (size 15 to 20)
#    0.000    2.167    0.000    2.000    0.000   13.000 
#    0.000    0.833    0.000    4.000    0.000    0.000 
#    0.000    0.000    0.000    0.000    0.000    0.000 
#
# Total GULP energy -133777.887980 kJ/mol
# GULP energy per Si atom -5574.078666 kJ/mol
# Density = 2.510768 g / cm^3
# Si number density = 25.164954 Si / 1000 Ang^3
#
#
#
# Elastic Constant Matrix: (Units=GPa)
#
#
# Indices 1 2 3 4 5 6 
#
# 1 53.0530 33.5557 45.4896 0.0000 -5.6539 0.0000
# 2 33.5557 134.5149 68.2467 0.0000 -16.5294 0.0000
# 3 45.4896 68.2467 220.6433 0.0000 -15.2415 0.0000
# 4 0.0000 0.0000 0.0000 32.4894 0.0000 -7.3000
# 5 -5.6539 -16.5294 -15.2415 0.0000 44.0995 0.0000
# 6 0.0000 0.0000 0.0000 -7.3000 0.0000 18.2658
#
#
#
# Elastic Compliance Matrix: (Units=1/GPa)
#
#
# Indices 1 2 3 4 5 6 
#
# 1 0.024801 -0.004232 -0.003785 0.000000 0.000286 0.000000
# 2 -0.004232 0.009799 -0.001990 0.000000 0.002443 0.000000
# 3 -0.003785 -0.001990 0.005986 0.000000 0.000838 0.000000
# 4 0.000000 0.000000 0.000000 0.033816 0.000000 0.013515
# 5 0.000286 0.002443 0.000838 0.000000 0.023918 0.000000
# 6 0.000000 0.000000 0.000000 0.013515 0.000000 0.060148
#
#
# Mechanical properties :
#
#
# Convention : Reuss Voigt Hill
#
# Bulk Modulus (GPa) = 48.60459 78.08836 63.34647
# Shear Modulus (GPa) = 26.97767 36.36555 31.67161
#
# Velocity S-wave (km/s) = 3.27774 3.80555 3.55147
# Velocity P-wave (km/s) = 5.80354 7.09983 6.48416
#
# Compressibility (1/GPa) = 0.02057419
#
# Stress axis : x y z
#
# Youngs Moduli (GPa) = 40.32092 102.04624 167.06141
#
# Poissons Ratio (x) = 0.43182 0.63226
# Poissons Ratio (y) = 0.17062 0.33243
# Poissons Ratio (z) = 0.15260 0.20306
#
# Static dielectric constant tensor:
#      x y z
#    x 2.092950 0.000000 0.062510 
#    y 0.000000 2.040940 0.000000 
#    z 0.062510 0.000000 2.055870 
# 
# From -- ./inp_files/204357.got.cif
#   From: 2010.05.17/outbox.cif.g08.bks.cpg/sg12_103_cif.got.tgz:204357.got - 2010.06.03 13:09:07.
