data_PCOD9208286
_publ_section_title
;
Structure prediction by ZEFSAII (Michael W. Deem and Ramdas Pophale) SiO2 
 PCOD9208286
Probable space group: C 2/M
;
_chemical_formula_sum "Si O2"
_cell_formula_units_Z 46
_cell_length_a 26.598966
_cell_length_b 14.372036
_cell_length_c 9.089209
_cell_angle_alpha 90.000000
_cell_angle_beta 40.804970
_cell_angle_gamma 90.000000
_cell_volume 2270.625991
_symmetry_space_group_name_H-M "C 2/M"
_symmetry_group_IT_number 12
_symmetry_cell_setting 'monoclinic'
loop_
_space_group_symop_operation_xyz
x,y,z
-x,y,-z
-x,-y,-z
x,-y,z
1/2+x,1/2+y,z
1/2-x,1/2+y,-z
1/2-x,1/2-y,-z
1/2+x,1/2-y,z
loop_
_atom_site_type_symbol
_atom_site_label
_atom_site_fract_x
_atom_site_fract_y
_atom_site_fract_z
Si Si1 0.735043 0.887683 0.619655
Si Si2 0.000000 0.500000 0.000000
Si Si3 0.892588 0.338421 0.327037
Si Si4 0.500000 0.673979 0.000000
Si Si5 0.867132 0.107973 0.102114
Si Si6 0.202201 0.227821 0.251474
Si Si7 0.409216 0.611861 0.690682
O O1 0.655721 0.864363 0.712742
O O2 0.802386 0.856428 0.357032
O O3 0.749515 0.831254 0.736297
O O4 0.739474 0.000000 0.632626
O O5 0.955549 0.418828 0.196213
O O6 0.832661 0.319368 0.591422
O O7 0.938166 0.242345 0.209823
O O8 0.549403 0.616727 0.007386
O O9 0.848213 0.000000 0.126233
O O10 0.872098 0.146664 0.927025
O O11 0.132159 0.163093 0.350564
O O12 0.250000 0.250000 0.000000
O O13 0.500000 0.630424 0.500000
O O14 0.399642 0.500000 0.699066
#
# Coordination Sequence:
#
# PCOD9208286 Si02
#       7
#     8   2   8   4   8   8   8
#     4  11  23  43  65  93 128 167 222 273 332 393
#     4  10  24  48  74  94 130 174 230 284 320 388
#     4  11  23  43  69  95 125 174 224 279 329 385
#     4  11  21  35  67  92 128 158 225 275 315 387
#     4  10  21  37  64  94 129 169 208 270 325 400
#     4  12  25  41  65  98 133 172 216 276 335 404
#     4  10  22  40  60  91 134 171 203 258 336 401
#
# _framework density 20.258731000000001
#
# number of rings (size 3 to 8) (size 9 to 14) (size 15 to 20)
#    0.000    1.217    2.609    3.391    2.435    0.000 
#    3.130    0.000    0.000    1.043    0.000    0.000 
#    0.000    0.000    0.000    0.000    0.000    0.000 
#
# Total GULP energy -128197.576250 kJ/mol
# GULP energy per Si atom -5573.807663 kJ/mol
# Density = 2.021262 g / cm^3
# Si number density = 20.258731 Si / 1000 Ang^3
#
#
#
# Elastic Constant Matrix: (Units=GPa)
#
#
# Indices 1 2 3 4 5 6 
#
# 1 88.4572 10.2415 27.6951 0.0000 11.7465 0.0000
# 2 10.2415 58.0096 42.5016 0.0000 11.0427 0.0000
# 3 27.6951 42.5016 121.4838 0.0000 20.7039 0.0000
# 4 0.0000 0.0000 0.0000 31.1358 0.0000 2.5495
# 5 11.7465 11.0427 20.7039 0.0000 33.4972 0.0000
# 6 0.0000 0.0000 0.0000 2.5495 0.0000 23.8962
#
#
#
# Elastic Compliance Matrix: (Units=1/GPa)
#
#
# Indices 1 2 3 4 5 6 
#
# 1 0.012423 0.000099 -0.002368 0.000000 -0.002925 0.000000
# 2 0.000099 0.023443 -0.007714 0.000000 -0.002995 0.000000
# 3 -0.002368 -0.007714 0.012178 0.000000 -0.004154 0.000000
# 4 0.000000 0.000000 0.000000 0.032400 0.000000 -0.003457
# 5 -0.002925 -0.002995 -0.004154 0.000000 0.034434 0.000000
# 6 0.000000 0.000000 0.000000 -0.003457 0.000000 0.042217
#
#
# Mechanical properties :
#
#
# Convention : Reuss Voigt Hill
#
# Bulk Modulus (GPa) = 35.61534 47.64745 41.63139
# Shear Modulus (GPa) = 26.82113 30.20667 28.51390
#
# Velocity S-wave (km/s) = 3.64253 3.86559 3.75572
# Velocity P-wave (km/s) = 5.94215 6.59502 6.27708
#
# Compressibility (1/GPa) = 0.02807779
#
# Stress axis : x y z
#
# Youngs Moduli (GPa) = 80.49331 42.65718 82.11575
#
# Poissons Ratio (x) = -0.00421 0.19446
# Poissons Ratio (y) = -0.00794 0.63341
# Poissons Ratio (z) = 0.19062 0.32904
#
# Static dielectric constant tensor:
#      x y z
#    x 1.720990 0.000000 -0.023660 
#    y 0.000000 1.714870 0.000000 
#    z -0.023660 0.000000 1.769210 
# 
# From -- ./inp_files/104990.got.cif
#   From: 2010.05.17/outbox.cif.g08.bks.cpg/sg12_53_cif.got.tgz:104990.got - 2010.06.03 13:09:07.
