data_PCOD9208453
_publ_section_title
;
Structure prediction by ZEFSAII (Michael W. Deem and Ramdas Pophale) SiO2 
 PCOD9208453
Probable space group: C 2/M
;
_chemical_formula_sum "Si O2"
_cell_formula_units_Z 56
_cell_length_a 16.104905
_cell_length_b 24.334627
_cell_length_c 18.892081
_cell_angle_alpha 90.000000
_cell_angle_beta 156.711503
_cell_angle_gamma 90.000000
_cell_volume 2927.228327
_symmetry_space_group_name_H-M "C 2/M"
_symmetry_group_IT_number 12
_symmetry_cell_setting 'monoclinic'
loop_
_space_group_symop_operation_xyz
x,y,z
-x,y,-z
-x,-y,-z
x,-y,z
1/2+x,1/2+y,z
1/2-x,1/2+y,-z
1/2-x,1/2-y,-z
1/2+x,1/2-y,z
loop_
_atom_site_type_symbol
_atom_site_label
_atom_site_fract_x
_atom_site_fract_y
_atom_site_fract_z
Si Si1 0.007211 0.500000 0.627351
Si Si2 0.955590 0.614687 0.278967
Si Si3 0.199451 0.323163 0.704627
Si Si4 0.816806 0.000000 0.752158
Si Si5 0.036882 0.794892 0.604896
Si Si6 0.937366 0.708245 0.733829
Si Si7 0.169193 0.183618 0.859966
Si Si8 0.527034 0.386243 0.871974
O O1 0.960955 0.555675 0.632980
O O2 0.240795 0.500000 0.774648
O O3 0.868688 0.500000 0.449698
O O4 0.844047 0.642728 0.258922
O O5 0.096117 0.658986 0.348817
O O6 0.768325 0.605964 0.078249
O O7 0.181416 0.258760 0.705960
O O8 0.408822 0.340992 0.827903
O O9 0.000000 0.338157 0.500000
O O10 0.929534 0.056307 0.819401
O O11 0.137360 0.824939 0.751191
O O12 0.000000 0.824475 0.500000
O O13 0.799016 0.773762 0.433781
O O14 0.062634 0.757479 0.794273
O O15 0.092907 0.689318 0.920578
O O16 0.035813 0.138426 0.799933
#
# Coordination Sequence:
#
# PCOD9208453 Si02
#       8
#     4   8   8   4   8   8   8   8
#     4  11  23  35  53  85 118 155 194 231 271 345
#     4  11  22  37  56  81 117 159 197 230 282 335
#     4  11  21  33  51  82 112 154 192 227 277 336
#     4  11  23  37  55  83 120 155 196 227 277 337
#     4  11  23  37  57  83 112 151 194 245 298 341
#     4  10  22  38  57  83 113 156 194 241 290 344
#     4  10  21  38  57  83 115 150 199 238 288 348
#     4  11  23  37  58  82 117 160 194 235 278 341
#
# _framework density 19.130725000000002
#
# number of rings (size 3 to 8) (size 9 to 14) (size 15 to 20)
#    0.000    1.286    2.857    3.857    4.000    1.143 
#    5.143    0.000    0.000    0.000    0.000    2.000 
#    0.000    4.571    0.000    0.000    0.000    0.000 
#
# Total GULP energy -156114.652950 kJ/mol
# GULP energy per Si atom -5575.523320 kJ/mol
# Density = 1.908718 g / cm^3
# Si number density = 19.130725 Si / 1000 Ang^3
#
#
#
# Elastic Constant Matrix: (Units=GPa)
#
#
# Indices 1 2 3 4 5 6 
#
# 1 73.3907 32.3087 1.7525 -0.0250 -24.6271 -0.0235
# 2 32.3087 82.9175 -9.2307 -0.0197 -0.3094 -0.0223
# 3 1.7525 -9.2307 25.5907 0.0324 -5.7175 0.0138
# 4 -0.0250 -0.0197 0.0324 26.0855 0.0124 4.3460
# 5 -24.6271 -0.3094 -5.7175 0.0124 32.9562 0.0091
# 6 -0.0235 -0.0223 0.0138 4.3460 0.0091 6.4142
#
#
#
# Elastic Compliance Matrix: (Units=1/GPa)
#
#
# Indices 1 2 3 4 5 6 
#
# 1 0.023513 -0.009217 -0.001070 0.000004 0.017299 0.000029
# 2 -0.009217 0.016205 0.005172 -0.000004 -0.005838 0.000022
# 3 -0.001070 0.005172 0.042495 -0.000043 0.006621 -0.000057
# 4 0.000004 -0.000004 -0.000043 0.043214 -0.000013 -0.029280
# 5 0.017299 -0.005838 0.006621 -0.000013 0.044364 -0.000025
# 6 0.000029 0.000022 -0.000057 -0.029280 -0.000025 0.175742
#
#
# Mechanical properties :
#
#
# Convention : Reuss Voigt Hill
#
# Bulk Modulus (GPa) = 13.89165 25.72888 19.81027
# Shear Modulus (GPa) = 13.16630 23.56240 18.36435
#
# Velocity S-wave (km/s) = 2.62626 3.51330 3.10165
# Velocity P-wave (km/s) = 4.05875 5.47137 4.81712
#
# Compressibility (1/GPa) = 0.07198568
#
# Stress axis : x y z
#
# Youngs Moduli (GPa) = 42.52880 61.70774 23.53214
#
# Poissons Ratio (x) = 0.56873 0.02518
# Poissons Ratio (y) = 0.39197 -0.12172
# Poissons Ratio (z) = 0.04550 -0.31917
#
# Static dielectric constant tensor:
#      x y z
#    x 1.792700 0.000100 0.022980 
#    y 0.000100 1.220590 0.000180 
#    z 0.022980 0.000180 1.807260 
# 
# From -- ./inp_files/291050.got.cif
#   From: 2010.05.17/outbox.cif.g08.bks.cpg/sg12_146_cif.got.tgz:291050.got - 2010.06.03 13:09:07.
