data_PCOD9208896
_publ_section_title
;
Structure prediction by ZEFSAII (Michael W. Deem and Ramdas Pophale) SiO2 
 PCOD9208896
Probable space group: C 2/M
;
_chemical_formula_sum "Si O2"
_cell_formula_units_Z 56
_cell_length_a 22.793686
_cell_length_b 8.960521
_cell_length_c 30.273860
_cell_angle_alpha 90.000000
_cell_angle_beta 152.032685
_cell_angle_gamma 90.000000
_cell_volume 2899.737235
_symmetry_space_group_name_H-M "C 2/M"
_symmetry_group_IT_number 12
_symmetry_cell_setting 'monoclinic'
loop_
_space_group_symop_operation_xyz
x,y,z
-x,y,-z
-x,-y,-z
x,-y,z
1/2+x,1/2+y,z
1/2-x,1/2+y,-z
1/2-x,1/2-y,-z
1/2+x,1/2-y,z
loop_
_atom_site_type_symbol
_atom_site_label
_atom_site_fract_x
_atom_site_fract_y
_atom_site_fract_z
Si Si1 0.755235 0.321771 0.884364
Si Si2 0.747065 0.177794 0.386606
Si Si3 0.146583 0.821041 0.962844
Si Si4 0.479211 0.678673 0.600890
Si Si5 0.251388 0.821739 0.213572
Si Si6 0.363199 0.678551 0.769703
Si Si7 0.959045 0.824027 0.689225
O O1 0.772179 0.500000 0.897279
O O2 0.787227 0.259511 0.857261
O O3 0.606627 0.291442 0.793099
O O4 0.830450 0.240720 0.972845
O O5 0.874832 0.223147 0.496188
O O6 0.728667 0.245218 0.326026
O O7 0.631283 0.232489 0.339449
O O8 0.746432 0.000000 0.383790
O O9 0.006531 0.780707 0.854613
O O10 0.157200 0.000000 0.969401
O O11 0.250000 0.750000 0.000000
O O12 0.504149 0.500000 0.613949
O O13 0.607995 0.767399 0.682225
O O14 0.430593 0.703517 0.618592
O O15 0.167939 0.782903 0.200465
O O16 0.248737 0.000000 0.205253
O O17 0.351408 0.500000 0.757603
O O18 0.941185 0.000000 0.686497
#
# Coordination Sequence:
#
# PCOD9208896 Si02
#       7
#     8   8   8   8   8   8   8
#     4  10  21  38  60  86 116 148 181 229 285 331
#     4  11  22  34  54  83 113 147 189 233 279 329
#     4  11  23  40  61  86 116 149 185 228 277 332
#     4   9  20  37  55  81 115 148 182 230 285 330
#     4  10  21  39  61  83 107 145 193 231 270 330
#     4  10  24  42  57  78 113 150 185 230 280 327
#     4   9  18  34  55  79 113 149 180 222 280 336
#
# _framework density 19.312093999999998
#
# number of rings (size 3 to 8) (size 9 to 14) (size 15 to 20)
#    0.000    2.000    0.000    3.857    0.000   10.857 
#    0.000    5.714    0.000    0.000    0.000    0.000 
#    0.000    0.000    0.000    0.000    0.000    0.000 
#
# Total GULP energy -156469.262664 kJ/mol
# GULP energy per Si atom -5588.187952 kJ/mol
# Density = 1.926814 g / cm^3
# Si number density = 19.312094 Si / 1000 Ang^3
#
#
#
# Elastic Constant Matrix: (Units=GPa)
#
#
# Indices 1 2 3 4 5 6 
#
# 1 57.2437 18.5615 8.1188 0.0004 -2.1879 0.0000
# 2 18.5615 29.9627 17.7917 0.0003 -4.1804 -0.0002
# 3 8.1188 17.7917 58.2616 0.0003 -27.4910 0.0001
# 4 0.0004 0.0003 0.0003 28.9223 0.0001 -6.0924
# 5 -2.1879 -4.1804 -27.4910 0.0001 26.1967 0.0000
# 6 0.0000 -0.0002 0.0001 -6.0924 0.0000 35.9905
#
#
#
# Elastic Compliance Matrix: (Units=1/GPa)
#
#
# Indices 1 2 3 4 5 6 
#
# 1 0.021993 -0.014758 0.002372 0.000000 0.001971 0.000000
# 2 -0.014758 0.053032 -0.021248 0.000000 -0.015068 0.000000
# 3 0.002372 -0.021248 0.043213 0.000000 0.042156 0.000000
# 4 0.000000 0.000000 0.000000 0.035854 -0.000001 0.006069
# 5 0.001971 -0.015068 0.042156 -0.000001 0.080172 0.000000
# 6 0.000000 0.000000 0.000000 0.006069 0.000000 0.028813
#
#
# Mechanical properties :
#
#
# Convention : Reuss Voigt Hill
#
# Bulk Modulus (GPa) = 19.61903 26.04578 22.83240
# Shear Modulus (GPa) = 14.39531 24.95497 19.67514
#
# Velocity S-wave (km/s) = 2.73317 3.59861 3.19533
# Velocity P-wave (km/s) = 4.48790 5.54822 5.04599
#
# Compressibility (1/GPa) = 0.05097091
#
# Stress axis : x y z
#
# Youngs Moduli (GPa) = 45.46801 18.85650 23.14097
#
# Poissons Ratio (x) = 0.27829 -0.05489
# Poissons Ratio (y) = 0.67103 0.49170
# Poissons Ratio (z) = -0.10785 0.40066
#
# Static dielectric constant tensor:
#      x y z
#    x 1.667360 0.000000 -0.007670 
#    y 0.000000 1.641660 0.000000 
#    z -0.007670 0.000000 1.667280 
# 
# From -- ./inp_files/380794.got.cif
#   From: 2010.05.17/outbox.cif.g08.bks.cpg/sg12_191_cif.got.tgz:380794.got - 2010.06.03 13:09:07.
