data_PCOD9208182
_publ_section_title
;
Structure prediction by ZEFSAII (Michael W. Deem and Ramdas Pophale) SiO2 
 PCOD9208182
Probable space group: C 2/M
;
_chemical_formula_sum "Si O2"
_cell_formula_units_Z 32
_cell_length_a 12.567333
_cell_length_b 14.218867
_cell_length_c 8.999757
_cell_angle_alpha 90.000000
_cell_angle_beta 125.432821
_cell_angle_gamma 90.000000
_cell_volume 1310.351155
_symmetry_space_group_name_H-M "C 2/M"
_symmetry_group_IT_number 12
_symmetry_cell_setting 'monoclinic'
loop_
_space_group_symop_operation_xyz
x,y,z
-x,y,-z
-x,-y,-z
x,-y,z
1/2+x,1/2+y,z
1/2-x,1/2+y,-z
1/2-x,1/2-y,-z
1/2+x,1/2-y,z
loop_
_atom_site_type_symbol
_atom_site_label
_atom_site_fract_x
_atom_site_fract_y
_atom_site_fract_z
Si Si1 0.477088 0.146248 0.818776
Si Si2 0.861474 0.690630 0.308231
Si Si3 0.186487 0.898282 0.604303
Si Si4 0.587964 0.634789 0.207157
O O1 0.606225 0.143958 0.824218
O O2 0.334783 0.108600 0.659846
O O3 0.456524 0.257868 0.810979
O O4 0.500000 0.107406 0.000000
O O5 0.834473 0.803331 0.314176
O O6 0.736386 0.638836 0.270970
O O7 0.000000 0.674424 0.500000
O O8 0.094073 0.898328 0.383210
O O9 0.172318 0.000000 0.668636
O O10 0.500000 0.597004 0.000000
#
# Coordination Sequence:
#
# PCOD9208182 Si02
#       4
#     8   8   8   8
#     4  10  21  40  67  92 121 168 223 259 298 372
#     4  11  19  41  70  91 120 168 224 253 303 376
#     4  11  23  39  62  97 136 163 200 268 329 370
#     4  10  21  37  62  95 126 169 213 259 305 378
#
# _framework density 24.420935
#
# number of rings (size 3 to 8) (size 9 to 14) (size 15 to 20)
#    0.000    1.500    5.000    1.500    0.000   10.500 
#    0.000    2.500    0.000    0.750    0.000    0.000 
#    0.000    0.000    0.000    0.000    0.000    0.000 
#
# Total GULP energy -89182.253910 kJ/mol
# GULP energy per Si atom -5573.890869 kJ/mol
# Density = 2.436535 g / cm^3
# Si number density = 24.420935 Si / 1000 Ang^3
#
#
#
# Elastic Constant Matrix: (Units=GPa)
#
#
# Indices 1 2 3 4 5 6 
#
# 1 125.1393 -1.7756 -4.2915 0.0000 -1.8575 0.0000
# 2 -1.7756 93.2639 27.9234 0.0000 0.4913 0.0000
# 3 -4.2915 27.9234 103.9672 0.0000 4.9941 0.0000
# 4 0.0000 0.0000 0.0000 -19.3220 0.0000 -12.9745
# 5 -1.8575 0.4913 4.9941 0.0000 39.4193 0.0000
# 6 0.0000 0.0000 0.0000 -12.9745 0.0000 -17.2491
#
#
#
# Elastic Compliance Matrix: (Units=1/GPa)
#
#
# Indices 1 2 3 4 5 6 
#
# 1 0.008007 0.000062 0.000298 0.000000 0.000339 0.000000
# 2 0.000062 0.011663 -0.003142 0.000000 0.000256 0.000000
# 3 0.000298 -0.003142 0.010536 0.000000 -0.001282 0.000000
# 4 0.000000 0.000000 0.000000 -0.104573 0.000000 0.078658
# 5 0.000339 0.000256 -0.001282 0.000000 0.025543 0.000000
# 6 0.000000 0.000000 0.000000 0.078658 0.000000 -0.117140
#
#
# Mechanical properties :
#
#
# Convention : Reuss Voigt Hill
#
# Bulk Modulus (GPa) = 40.58367 40.67588 40.62977
# Shear Modulus (GPa) = -32.85503 20.60393 -6.12555
#
# Velocity S-wave (km/s) = -3.67190 2.90780 -1.58549
# Velocity P-wave (km/s) = 1.15007 5.28829 3.64989
#
# Compressibility (1/GPa) = 0.02464046
#
# Stress axis : x y z
#
# Youngs Moduli (GPa) = 124.88751 85.74234 94.91104
#
# Poissons Ratio (x) = -0.00528 -0.02826
# Poissons Ratio (y) = -0.00768 0.29822
# Poissons Ratio (z) = -0.03718 0.26941
#
# Static dielectric constant tensor:
#      x y z
#    x 2.092270 0.000000 -0.134160 
#    y 0.000000 1.943810 0.000000 
#    z -0.134160 0.000000 2.098400 
# 
# From -- ./inp_files/46719.got.cif
#   From: 2010.05.17/outbox.cif.g08.bks.cpg/sg12_24_cif.got.tgz:46719.got - 2010.06.03 13:09:07.
