data_PCOD9208011
_publ_section_title
;
Structure prediction by ZEFSAII (Michael W. Deem and Ramdas Pophale) SiO2 
 PCOD9208011
Probable space group: C 2/M
;
_chemical_formula_sum "Si O2"
_cell_formula_units_Z 56
_cell_length_a 14.242352
_cell_length_b 13.609280
_cell_length_c 12.676346
_cell_angle_alpha 90.000000
_cell_angle_beta 59.598273
_cell_angle_gamma 90.000000
_cell_volume 2119.186875
_symmetry_space_group_name_H-M "C 2/M"
_symmetry_group_IT_number 12
_symmetry_cell_setting 'monoclinic'
loop_
_space_group_symop_operation_xyz
x,y,z
-x,y,-z
-x,-y,-z
x,-y,z
1/2+x,1/2+y,z
1/2-x,1/2+y,-z
1/2-x,1/2-y,-z
1/2+x,1/2-y,z
loop_
_atom_site_type_symbol
_atom_site_label
_atom_site_fract_x
_atom_site_fract_y
_atom_site_fract_z
Si Si1 0.745048 0.391653 0.304272
Si Si2 0.233676 0.822564 0.677193
Si Si3 0.501191 0.611466 0.880608
Si Si4 0.612456 0.886724 0.983991
Si Si5 0.514604 0.385532 0.335585
Si Si6 0.572510 0.179499 0.565168
Si Si7 0.371915 0.115135 0.795011
O O1 0.769773 0.500000 0.334830
O O2 0.787600 0.292647 0.333745
O O3 0.615852 0.384823 0.357773
O O4 0.800400 0.387068 0.157556
O O5 0.124711 0.879168 0.767865
O O6 0.310615 0.859220 0.539378
O O7 0.304337 0.827733 0.744715
O O8 0.463258 0.500000 0.916073
O O9 0.441265 0.642719 0.807097
O O10 0.500000 0.652269 0.000000
O O11 0.648450 0.845748 0.075797
O O12 0.587774 0.000000 0.026337
O O13 0.500000 0.848095 0.000000
O O14 0.475810 0.500000 0.355613
O O15 0.432793 0.297169 0.409521
O O16 0.500000 0.165192 0.500000
O O17 0.500119 0.127465 0.695529
O O18 0.341346 0.000000 0.801722
#
# Coordination Sequence:
#
# PCOD9208011 Si02
#       7
#     8   8   8   8   8   8   8
#     4  10  21  38  62  90 123 163 206 254 315 371
#     4  11  23  39  62  92 123 164 207 257 305 368
#     4  10  24  43  64  93 128 164 206 258 312 371
#     4   9  20  38  59  88 123 157 202 257 310 367
#     4  10  21  40  64  89 124 165 209 259 309 369
#     4  10  21  39  59  89 121 157 210 257 305 364
#     4  10  21  37  61  88 122 164 202 250 310 372
#
# _framework density 26.425229999999999
#
# number of rings (size 3 to 8) (size 9 to 14) (size 15 to 20)
#    0.000    2.000    2.857    0.429    2.000    8.000 
#    0.000    0.000    0.000    3.429    0.000    0.000 
#    0.000    0.000    0.000    0.000    0.000    0.000 
#
# Total GULP energy -156537.571661 kJ/mol
# GULP energy per Si atom -5590.627559 kJ/mol
# Density = 2.636508 g / cm^3
# Si number density = 26.425230 Si / 1000 Ang^3
#
#
#
# Elastic Constant Matrix: (Units=GPa)
#
#
# Indices 1 2 3 4 5 6 
#
# 1 65.5025 3.8440 5.7062 0.0000 1.9653 0.0000
# 2 3.8440 113.4567 -0.0013 0.0000 -5.1477 0.0000
# 3 5.7062 -0.0013 98.0768 0.0000 17.3659 0.0000
# 4 0.0000 0.0000 0.0000 18.2108 0.0000 -8.4828
# 5 1.9653 -5.1477 17.3659 0.0000 43.5805 0.0000
# 6 0.0000 0.0000 0.0000 -8.4828 0.0000 26.4110
#
#
#
# Elastic Compliance Matrix: (Units=1/GPa)
#
#
# Indices 1 2 3 4 5 6 
#
# 1 0.015383 -0.000541 -0.000819 0.000000 -0.000431 0.000000
# 2 -0.000541 0.008884 -0.000171 0.000000 0.001142 0.000000
# 3 -0.000819 -0.000171 0.011018 0.000000 -0.004374 0.000000
# 4 0.000000 0.000000 0.000000 0.064573 0.000000 0.020740
# 5 -0.000431 0.001142 -0.004374 0.000000 0.024843 0.000000
# 6 0.000000 0.000000 0.000000 0.020740 0.000000 0.044524
#
#
# Mechanical properties :
#
#
# Convention : Reuss Voigt Hill
#
# Bulk Modulus (GPa) = 31.03189 32.90376 31.96782
# Shear Modulus (GPa) = 27.31832 35.47292 31.39562
#
# Velocity S-wave (km/s) = 3.21876 3.66784 3.45061
# Velocity P-wave (km/s) = 5.05793 5.51507 5.29144
#
# Compressibility (1/GPa) = 0.03222491
#
# Stress axis : x y z
#
# Youngs Moduli (GPa) = 65.00860 112.56119 90.75934
#
# Poissons Ratio (x) = 0.06087 0.07430
# Poissons Ratio (y) = 0.03515 0.01548
# Poissons Ratio (z) = 0.05322 0.01920
#
# Static dielectric constant tensor:
#      x y z
#    x 2.201430 0.000000 0.071180 
#    y 0.000000 2.063650 0.000000 
#    z 0.071180 0.000000 2.078270 
# 
# From -- ./inp_files/225186.got.cif
#   From: 2010.05.17/outbox.cif.g08.bks.cpg/sg12_113_cif.got.tgz:225186.got - 2010.06.03 13:09:07.
