data_PCOD9208408
_publ_section_title
;
Structure prediction by ZEFSAII (Michael W. Deem and Ramdas Pophale) SiO2 
 PCOD9208408
Probable space group: C 2/M
;
_chemical_formula_sum "Si O2"
_cell_formula_units_Z 48
_cell_length_a 17.847817
_cell_length_b 9.593278
_cell_length_c 27.584518
_cell_angle_alpha 90.000000
_cell_angle_beta 35.388717
_cell_angle_gamma 90.000000
_cell_volume 2735.184198
_symmetry_space_group_name_H-M "C 2/M"
_symmetry_group_IT_number 12
_symmetry_cell_setting 'monoclinic'
loop_
_space_group_symop_operation_xyz
x,y,z
-x,y,-z
-x,-y,-z
x,-y,z
1/2+x,1/2+y,z
1/2-x,1/2+y,-z
1/2-x,1/2-y,-z
1/2+x,1/2-y,z
loop_
_atom_site_type_symbol
_atom_site_label
_atom_site_fract_x
_atom_site_fract_y
_atom_site_fract_z
Si Si1 0.845121 0.337523 0.580203
Si Si2 0.775394 0.164776 0.251045
Si Si3 0.977589 0.662720 0.091135
Si Si4 0.792713 0.333276 0.429798
Si Si5 0.291604 0.162683 0.094135
Si Si6 0.595762 0.164620 0.253784
O O1 0.814833 0.500000 0.583522
O O2 0.784283 0.307963 0.664931
O O3 0.787869 0.231463 0.571710
O O4 0.000000 0.326224 0.500000
O O5 0.904839 0.249157 0.170119
O O6 0.668963 0.198542 0.265748
O O7 0.801970 0.000000 0.233360
O O8 0.986044 0.500000 0.100045
O O9 0.884864 0.670752 0.092418
O O10 0.118536 0.710424 0.998050
O O11 0.774204 0.500000 0.444954
O O12 0.750000 0.250000 0.500000
O O13 0.944465 0.307549 0.339426
O O14 0.166404 0.250689 0.174032
O O15 0.260082 0.000000 0.103696
O O16 0.613437 0.000000 0.235896
#
# Coordination Sequence:
#
# PCOD9208408 Si02
#       6
#     8   8   8   8   8   8
#     4  10  21  38  57  76 103 136 169 211 260 307
#     4   9  17  30  50  74 100 133 169 204 250 303
#     4   8  14  25  42  68 102 133 163 204 249 291
#     4  11  23  38  56  78 104 134 170 211 256 307
#     4   8  14  25  43  69 100 133 166 202 247 295
#     4   9  18  32  50  74 103 133 166 207 252 297
#
# _framework density 17.549091000000001
#
# number of rings (size 3 to 8) (size 9 to 14) (size 15 to 20)
#    0.000    2.833    0.000    2.500    0.000    5.667 
#    0.000    6.667    0.000    1.000    0.000    0.000 
#    0.000    0.000    0.000    0.000    0.000    0.000 
#
# Total GULP energy -133765.084415 kJ/mol
# GULP energy per Si atom -5573.545184 kJ/mol
# Density = 1.750915 g / cm^3
# Si number density = 17.549091 Si / 1000 Ang^3
#
#
#
# Elastic Constant Matrix: (Units=GPa)
#
#
# Indices 1 2 3 4 5 6 
#
# 1 42.2237 44.1164 46.4249 0.0000 -0.2922 0.0000
# 2 44.1164 74.8299 94.9770 0.0000 -2.3362 0.0000
# 3 46.4249 94.9770 178.9570 0.0000 4.3844 0.0000
# 4 0.0000 0.0000 0.0000 38.6745 0.0000 -0.0045
# 5 -0.2922 -2.3362 4.3844 0.0000 18.5286 0.0000
# 6 0.0000 0.0000 0.0000 -0.0045 0.0000 19.4125
#
#
#
# Elastic Compliance Matrix: (Units=1/GPa)
#
#
# Indices 1 2 3 4 5 6 
#
# 1 0.069697 -0.057321 0.012564 0.000000 -0.009101 0.000000
# 2 -0.057321 0.090167 -0.033434 0.000000 0.018376 0.000000
# 3 0.012564 -0.033434 0.020289 0.000000 -0.008818 0.000000
# 4 0.000000 0.000000 0.000000 0.025857 0.000000 0.000006
# 5 -0.009101 0.018376 -0.008818 0.000000 0.058231 0.000000
# 6 0.000000 0.000000 0.000000 0.000006 0.000000 0.051513
#
#
# Mechanical properties :
#
#
# Convention : Reuss Voigt Hill
#
# Bulk Modulus (GPa) = 42.06856 74.11637 58.09246
# Shear Modulus (GPa) = 10.41540 22.68928 16.55234
#
# Velocity S-wave (km/s) = 2.43883 3.59960 3.07449
# Velocity P-wave (km/s) = 5.65283 7.72020 6.76595
#
# Compressibility (1/GPa) = 0.02377072
#
# Stress axis : x y z
#
# Youngs Moduli (GPa) = 14.34786 11.09056 49.28824
#
# Poissons Ratio (x) = 0.63572 -0.61926
# Poissons Ratio (y) = 0.82243 1.64789
# Poissons Ratio (z) = -0.18027 0.37080
#
# Static dielectric constant tensor:
#      x y z
#    x 1.597550 0.000000 0.001250 
#    y 0.000000 1.584620 0.000000 
#    z 0.001250 0.000000 1.594850 
# 
# From -- ./inp_files/380133.got.cif
#   From: 2010.05.17/outbox.cif.g08.bks.cpg/sg12_191_cif.got.tgz:380133.got - 2010.06.03 13:09:07.
