data_PCOD9208891
_publ_section_title
;
Structure prediction by ZEFSAII (Michael W. Deem and Ramdas Pophale) SiO2 
 PCOD9208891
Probable space group: C 2/M
;
_chemical_formula_sum "Si O2"
_cell_formula_units_Z 48
_cell_length_a 24.746204
_cell_length_b 8.039041
_cell_length_c 9.740198
_cell_angle_alpha 90.000000
_cell_angle_beta 84.129338
_cell_angle_gamma 90.000000
_cell_volume 1927.511104
_symmetry_space_group_name_H-M "C 2/M"
_symmetry_group_IT_number 12
_symmetry_cell_setting 'monoclinic'
loop_
_space_group_symop_operation_xyz
x,y,z
-x,y,-z
-x,-y,-z
x,-y,z
1/2+x,1/2+y,z
1/2-x,1/2+y,-z
1/2-x,1/2-y,-z
1/2+x,1/2-y,z
loop_
_atom_site_type_symbol
_atom_site_label
_atom_site_fract_x
_atom_site_fract_y
_atom_site_fract_z
Si Si1 0.576048 0.797572 0.588575
Si Si2 0.712160 0.306292 0.214642
Si Si3 0.060724 0.193354 0.996981
Si Si4 0.462475 0.200506 0.711031
Si Si5 0.175756 0.303641 0.926971
Si Si6 0.189079 0.689312 0.499990
O O1 0.558842 0.762928 0.435562
O O2 0.525794 0.741702 0.694729
O O3 0.636981 0.729909 0.586416
O O4 0.576984 0.000000 0.600651
O O5 0.708881 0.500000 0.254637
O O6 0.689715 0.283598 0.067476
O O7 0.680861 0.202745 0.337546
O O8 0.775961 0.253559 0.189002
O O9 0.069660 0.213929 0.158499
O O10 0.112799 0.272590 0.909988
O O11 0.058701 0.000000 0.960791
O O12 0.000000 0.269069 0.000000
O O13 0.460160 0.000000 0.729944
O O14 0.183077 0.500000 0.945569
O O15 0.189037 0.500000 0.545858
O O16 0.250000 0.750000 0.500000
#
# Coordination Sequence:
#
# PCOD9208891 Si02
#       6
#     8   8   8   8   8   8
#     4   8  17  34  57  82 105 133 175 227 274 322
#     4  10  21  38  60  86 113 142 183 233 282 332
#     4  11  24  38  52  78 116 150 182 227 280 327
#     4   9  17  35  61  82 101 133 180 228 274 325
#     4  10  21  38  61  85 109 144 188 230 276 334
#     4  11  22  36  54  80 115 152 188 225 272 328
#
# _framework density 24.902581000000001
#
# number of rings (size 3 to 8) (size 9 to 14) (size 15 to 20)
#    0.000    2.167    0.000    4.000    0.000    6.000 
#    0.000    9.167    0.000    0.000    0.000    0.000 
#    0.000    0.000    0.000    0.000    0.000    0.000 
#
# Total GULP energy -134183.554487 kJ/mol
# GULP energy per Si atom -5590.981437 kJ/mol
# Density = 2.484590 g / cm^3
# Si number density = 24.902581 Si / 1000 Ang^3
#
#
#
# Elastic Constant Matrix: (Units=GPa)
#
#
# Indices 1 2 3 4 5 6 
#
# 1 158.6085 14.1324 23.0662 0.0000 -46.1529 0.0000
# 2 14.1324 26.6648 -5.9187 0.0000 -3.7252 0.0000
# 3 23.0662 -5.9187 86.5177 0.0000 -26.0731 0.0000
# 4 0.0000 0.0000 0.0000 20.9372 0.0000 3.7090
# 5 -46.1529 -3.7252 -26.0731 0.0000 48.1795 0.0000
# 6 0.0000 0.0000 0.0000 3.7090 0.0000 24.7261
#
#
#
# Elastic Compliance Matrix: (Units=1/GPa)
#
#
# Indices 1 2 3 4 5 6 
#
# 1 0.009079 -0.003686 -0.000164 0.000000 0.008323 0.000000
# 2 -0.003686 0.040701 0.004363 0.000000 0.001977 0.000000
# 3 -0.000164 0.004363 0.014284 0.000000 0.007910 0.000000
# 4 0.000000 0.000000 0.000000 0.049066 0.000000 -0.007360
# 5 0.008323 0.001977 0.007910 0.000000 0.033163 0.000000
# 6 0.000000 0.000000 0.000000 -0.007360 0.000000 0.041547
#
#
# Mechanical properties :
#
#
# Convention : Reuss Voigt Hill
#
# Bulk Modulus (GPa) = 15.36335 37.15010 26.25672
# Shear Modulus (GPa) = 23.97962 34.80264 29.39113
#
# Velocity S-wave (km/s) = 3.10649 3.74244 3.43920
# Velocity P-wave (km/s) = 4.36461 5.79871 5.13200
#
# Compressibility (1/GPa) = 0.06508998
#
# Stress axis : x y z
#
# Youngs Moduli (GPa) = 110.14306 24.56960 70.00634
#
# Poissons Ratio (x) = 0.09055 0.01151
# Poissons Ratio (y) = 0.40595 -0.30543
# Poissons Ratio (z) = 0.01810 -0.10719
#
# Static dielectric constant tensor:
#      x y z
#    x 2.100640 0.000000 0.047140 
#    y 0.000000 1.870540 0.000000 
#    z 0.047140 0.000000 1.963730 
# 
# From -- ./inp_files/172193.got.cif
#   From: 2010.05.17/outbox.cif.g08.bks.cpg/sg12_87_cif.got.tgz:172193.got - 2010.06.03 13:09:07.
