data_PCOD9208547
_publ_section_title
;
Structure prediction by ZEFSAII (Michael W. Deem and Ramdas Pophale) SiO2 
 PCOD9208547
Probable space group: C 2/M
;
_chemical_formula_sum "Si O2"
_cell_formula_units_Z 56
_cell_length_a 30.535467
_cell_length_b 14.718404
_cell_length_c 7.331692
_cell_angle_alpha 90.000000
_cell_angle_beta 127.519289
_cell_angle_gamma 90.000000
_cell_volume 2613.508544
_symmetry_space_group_name_H-M "C 2/M"
_symmetry_group_IT_number 12
_symmetry_cell_setting 'monoclinic'
loop_
_space_group_symop_operation_xyz
x,y,z
-x,y,-z
-x,-y,-z
x,-y,z
1/2+x,1/2+y,z
1/2-x,1/2+y,-z
1/2-x,1/2-y,-z
1/2+x,1/2-y,z
loop_
_atom_site_type_symbol
_atom_site_label
_atom_site_fract_x
_atom_site_fract_y
_atom_site_fract_z
Si Si1 0.705078 0.763390 0.650090
Si Si2 0.652550 0.102622 0.796522
Si Si3 0.129942 0.896985 0.529340
Si Si4 0.025816 0.598815 0.362490
Si Si5 0.015386 0.800318 0.325908
Si Si6 0.669118 0.238152 0.148729
Si Si7 0.593073 0.399544 0.018843
O O1 0.690940 0.840844 0.758083
O O2 0.682622 0.668861 0.678087
O O3 0.673064 0.778726 0.376192
O O4 0.769101 0.759076 0.762177
O O5 0.591710 0.101828 0.554780
O O6 0.671974 0.000000 0.869432
O O7 0.648702 0.153092 0.980367
O O8 0.075965 0.843332 0.462400
O O9 0.119212 0.905333 0.285376
O O10 0.135607 0.000000 0.615310
O O11 0.010597 0.500000 0.241280
O O12 0.010736 0.696853 0.241762
O O13 0.000000 0.598152 0.500000
O O14 0.000000 0.797676 0.500000
O O15 0.969197 0.864116 0.120418
O O16 0.629055 0.323175 0.009799
O O17 0.593743 0.500000 0.936931
#
# Coordination Sequence:
#
# PCOD9208547 Si02
#       7
#     8   8   8   8   8   8   8
#     4  10  22  41  62  89 122 160 202 251 307 358
#     4  11  22  39  62  89 119 156 205 251 299 358
#     4  10  21  38  58  83 120 160 198 245 301 364
#     4   9  18  33  56  81 114 158 197 243 299 353
#     4  11  20  34  57  86 121 153 194 245 301 364
#     4  10  22  41  63  87 123 161 201 251 304 362
#     4  10  22  38  58  86 118 158 200 243 302 365
#
# _framework density 21.427136000000001
#
# number of rings (size 3 to 8) (size 9 to 14) (size 15 to 20)
#    0.000    1.857    1.429    3.000    0.000    4.000 
#    0.000    2.857    0.000    2.571    0.000    0.000 
#    0.000    0.000    0.000    0.000    0.000    0.000 
#
# Total GULP energy -156438.861707 kJ/mol
# GULP energy per Si atom -5587.102204 kJ/mol
# Density = 2.137837 g / cm^3
# Si number density = 21.427136 Si / 1000 Ang^3
#
#
#
# Elastic Constant Matrix: (Units=GPa)
#
#
# Indices 1 2 3 4 5 6 
#
# 1 89.0200 50.6103 10.5100 0.0000 5.1747 0.0000
# 2 50.6103 203.7507 28.7507 0.0000 -13.0389 0.0000
# 3 10.5100 28.7507 43.1675 0.0000 -4.8237 0.0000
# 4 0.0000 0.0000 0.0000 15.1263 0.0000 -2.1805
# 5 5.1747 -13.0389 -4.8237 0.0000 24.2845 0.0000
# 6 0.0000 0.0000 0.0000 -2.1805 0.0000 26.2878
#
#
#
# Elastic Compliance Matrix: (Units=1/GPa)
#
#
# Indices 1 2 3 4 5 6 
#
# 1 0.013713 -0.003512 -0.001572 0.000000 -0.005120 0.000000
# 2 -0.003512 0.006439 -0.003030 0.000000 0.003603 0.000000
# 3 -0.001572 -0.003030 0.025999 0.000000 0.003872 0.000000
# 4 0.000000 0.000000 0.000000 0.066910 0.000000 0.005550
# 5 -0.005120 0.003603 0.003872 0.000000 0.044973 0.000000
# 6 0.000000 0.000000 0.000000 0.005550 0.000000 0.038501
#
#
# Mechanical properties :
#
#
# Convention : Reuss Voigt Hill
#
# Bulk Modulus (GPa) = 33.41972 57.29781 45.35876
# Shear Modulus (GPa) = 22.44782 29.54420 25.99601
#
# Velocity S-wave (km/s) = 3.24023 3.71728 3.48692
# Velocity P-wave (km/s) = 5.44330 6.72481 6.11770
#
# Compressibility (1/GPa) = 0.02992246
#
# Stress axis : x y z
#
# Youngs Moduli (GPa) = 72.92140 155.31364 38.46254
#
# Poissons Ratio (x) = 0.54549 0.06045
# Poissons Ratio (y) = 0.25611 0.11656
# Poissons Ratio (z) = 0.11461 0.47068
#
# Static dielectric constant tensor:
#      x y z
#    x 1.778590 0.000000 -0.037910 
#    y 0.000000 1.800460 0.000000 
#    z -0.037910 0.000000 1.815660 
# 
# From -- ./inp_files/111707.got.cif
#   From: 2010.05.17/outbox.cif.g08.bks.cpg/sg12_56_cif.got.tgz:111707.got - 2010.06.03 13:09:07.
