data_PCOD9208382
_publ_section_title
;
Structure prediction by ZEFSAII (Michael W. Deem and Ramdas Pophale) SiO2 
 PCOD9208382
Probable space group: C 2/M
;
_chemical_formula_sum "Si O2"
_cell_formula_units_Z 64
_cell_length_a 18.665502
_cell_length_b 9.477989
_cell_length_c 17.926927
_cell_angle_alpha 90.000000
_cell_angle_beta 91.243739
_cell_angle_gamma 90.000000
_cell_volume 3170.730974
_symmetry_space_group_name_H-M "C 2/M"
_symmetry_group_IT_number 12
_symmetry_cell_setting 'monoclinic'
loop_
_space_group_symop_operation_xyz
x,y,z
-x,y,-z
-x,-y,-z
x,-y,z
1/2+x,1/2+y,z
1/2-x,1/2+y,-z
1/2-x,1/2-y,-z
1/2+x,1/2-y,z
loop_
_atom_site_type_symbol
_atom_site_label
_atom_site_fract_x
_atom_site_fract_y
_atom_site_fract_z
Si Si1 0.523814 0.836355 0.222273
Si Si2 0.332449 0.836720 0.855349
Si Si3 0.717399 0.328491 0.742695
Si Si4 0.204948 0.339476 0.398995
Si Si5 0.823239 0.834290 0.994450
Si Si6 0.361984 0.340492 0.481745
Si Si7 0.536033 0.665931 0.919816
Si Si8 0.066220 0.829768 0.669868
O O1 0.608576 0.833321 0.208248
O O2 0.489372 0.762930 0.148265
O O3 0.499217 0.750788 0.294197
O O4 0.501945 0.000000 0.227044
O O5 0.255341 0.793609 0.820898
O O6 0.356363 0.731747 0.920219
O O7 0.328841 0.000000 0.881932
O O8 0.718953 0.500000 0.737641
O O9 0.769604 0.274011 0.678370
O O10 0.636318 0.289482 0.721511
O O11 0.180307 0.500000 0.387337
O O12 0.281602 0.346014 0.444411
O O13 0.147715 0.256161 0.446633
O O14 0.810723 0.000000 0.985720
O O15 0.750000 0.750000 0.000000
O O16 0.879476 0.815563 0.062377
O O17 0.382257 0.500000 0.502975
O O18 0.413478 0.293577 0.415189
O O19 0.522548 0.500000 0.902076
O O20 0.500000 0.694447 0.000000
O O21 0.058248 0.000000 0.673270
#
# Coordination Sequence:
#
# PCOD9208382 Si02
#       8
#     8   8   8   8   8   8   8   8
#     4  11  23  35  53  80 108 135 170 223 267 297
#     4  10  21  38  56  76 106 141 174 212 261 312
#     4   8  16  32  53  75 100 135 176 209 251 313
#     4   8  13  24  45  71  97 128 165 207 251 301
#     4  11  24  40  59  82 107 135 170 214 260 309
#     4   8  14  25  43  70 101 130 163 207 256 302
#     4  10  21  40  61  77  99 138 180 209 247 315
#     4   9  18  33  53  75 102 138 177 212 252 315
#
# _framework density 20.184619999999999
#
# number of rings (size 3 to 8) (size 9 to 14) (size 15 to 20)
#    0.000    2.625    1.250    2.250    1.750    2.250 
#    0.000    2.500    0.000    0.750    0.000    5.250 
#    0.000    0.000    0.000    0.000    0.000    0.000 
#
# Total GULP energy -178455.146206 kJ/mol
# GULP energy per Si atom -5576.723319 kJ/mol
# Density = 2.013868 g / cm^3
# Si number density = 20.184620 Si / 1000 Ang^3
#
#
#
# Elastic Constant Matrix: (Units=GPa)
#
#
# Indices 1 2 3 4 5 6 
#
# 1 43.6213 20.6424 10.7118 0.0000 -18.9602 0.0000
# 2 20.6424 44.5536 12.7127 0.0000 -12.2067 0.0000
# 3 10.7118 12.7127 28.9915 0.0000 -20.4250 0.0000
# 4 0.0000 0.0000 0.0000 29.9829 0.0000 -10.8951
# 5 -18.9602 -12.2067 -20.4250 0.0000 33.9082 0.0000
# 6 0.0000 0.0000 0.0000 -10.8951 0.0000 22.7750
#
#
#
# Elastic Compliance Matrix: (Units=1/GPa)
#
#
# Indices 1 2 3 4 5 6 
#
# 1 0.035897 -0.013116 0.005738 0.000000 0.018807 0.000000
# 2 -0.013116 0.030809 -0.010452 0.000000 -0.002539 0.000000
# 3 0.005738 -0.010452 0.063523 0.000000 0.037710 0.000000
# 4 0.000000 0.000000 0.000000 0.040370 0.000000 0.019312
# 5 0.018807 -0.002539 0.037710 0.000000 0.061808 0.000000
# 6 0.000000 0.000000 0.000000 0.019312 0.000000 0.053146
#
#
# Mechanical properties :
#
#
# Convention : Reuss Voigt Hill
#
# Bulk Modulus (GPa) = 10.57446 22.81113 16.69280
# Shear Modulus (GPa) = 14.17488 22.20651 18.19069
#
# Velocity S-wave (km/s) = 2.65290 3.32048 3.00528
# Velocity P-wave (km/s) = 3.82545 5.10162 4.50891
#
# Compressibility (1/GPa) = 0.09456744
#
# Stress axis : x y z
#
# Youngs Moduli (GPa) = 27.85760 32.45854 15.74228
#
# Poissons Ratio (x) = 0.42573 -0.09033
# Poissons Ratio (y) = 0.36539 0.16454
# Poissons Ratio (z) = -0.15984 0.33926
#
# Static dielectric constant tensor:
#      x y z
#    x 1.760740 0.000000 -0.022390 
#    y 0.000000 1.673450 0.000000 
#    z -0.022390 0.000000 1.762320 
# 
# From -- ./inp_files/281351.got.cif
#   From: 2010.05.17/outbox.cif.g08.bks.cpg/sg12_141_cif.got.tgz:281351.got - 2010.06.03 13:09:07.
