data_PCOD9208518
_publ_section_title
;
Structure prediction by ZEFSAII (Michael W. Deem and Ramdas Pophale) SiO2 
 PCOD9208518
Probable space group: C 2/M
;
_chemical_formula_sum "Si O2"
_cell_formula_units_Z 36
_cell_length_a 5.165024
_cell_length_b 13.704237
_cell_length_c 24.242504
_cell_angle_alpha 90.000000
_cell_angle_beta 73.496787
_cell_angle_gamma 90.000000
_cell_volume 1645.259587
_symmetry_space_group_name_H-M "C 2/M"
_symmetry_group_IT_number 12
_symmetry_cell_setting 'monoclinic'
loop_
_space_group_symop_operation_xyz
x,y,z
-x,y,-z
-x,-y,-z
x,-y,z
1/2+x,1/2+y,z
1/2-x,1/2+y,-z
1/2-x,1/2-y,-z
1/2+x,1/2-y,z
loop_
_atom_site_type_symbol
_atom_site_label
_atom_site_fract_x
_atom_site_fract_y
_atom_site_fract_z
Si Si1 0.336593 0.000000 0.169952
Si Si2 0.578617 0.684552 0.378400
Si Si3 0.431268 0.500000 0.097200
Si Si4 0.000000 0.179807 0.500000
Si Si5 0.374425 0.709306 0.935579
Si Si6 0.331188 0.817753 0.251201
O O1 0.350395 0.095682 0.206729
O O2 0.608413 0.000000 0.116443
O O3 0.064038 0.000000 0.150184
O O4 0.283000 0.724645 0.379343
O O5 0.562068 0.628357 0.437848
O O6 0.714640 0.639440 0.316161
O O7 0.544780 0.598065 0.063635
O O8 0.250000 0.250000 0.500000
O O9 0.639687 0.771279 0.906280
O O10 0.250000 0.750000 0.000000
O O11 0.614615 0.764002 0.245250
#
# Coordination Sequence:
#
# PCOD9208518 Si02
#       6
#     4   8   4   4   8   8
#     4  12  26  40  61  89 120 158 196 242 285 334
#     4   8  14  25  44  70 100 139 182 231 285 339
#     4  12  26  42  63  94 122 151 196 236 281 340
#     4   8  12  20  38  67  98 129 178 230 280 339
#     4  10  23  42  67  94 123 157 188 228 281 336
#     4  10  21  38  58  81 115 155 197 241 291 344
#
# _framework density 21.881048
#
# number of rings (size 3 to 8) (size 9 to 14) (size 15 to 20)
#    0.000    2.222    0.000    2.667    0.000    8.889 
#    0.000    0.000    0.000    0.667    0.000    0.000 
#    0.000   28.444    0.000    0.000    0.000    3.778 
#
# Total GULP energy -100440.670647 kJ/mol
# GULP energy per Si atom -5580.037258 kJ/mol
# Density = 2.183125 g / cm^3
# Si number density = 21.881048 Si / 1000 Ang^3
#
#
#
# Elastic Constant Matrix: (Units=GPa)
#
#
# Indices 1 2 3 4 5 6 
#
# 1 120.4639 -8.0584 -12.0333 0.0000 -5.2871 0.0000
# 2 -8.0584 77.3239 34.6810 0.0000 -9.1963 0.0000
# 3 -12.0333 34.6810 87.9187 0.0000 7.7694 0.0000
# 4 0.0000 0.0000 0.0000 4.8437 0.0000 -0.2234
# 5 -5.2871 -9.1963 7.7694 0.0000 28.0975 0.0000
# 6 0.0000 0.0000 0.0000 -0.2234 0.0000 23.9538
#
#
#
# Elastic Compliance Matrix: (Units=1/GPa)
#
#
# Indices 1 2 3 4 5 6 
#
# 1 0.008496 0.000760 0.000717 0.000000 0.001649 0.000000
# 2 0.000760 0.017262 -0.007398 0.000000 0.007839 0.000000
# 3 0.000717 -0.007398 0.014958 0.000000 -0.006423 0.000000
# 4 0.000000 0.000000 0.000000 0.206544 0.000000 0.001926
# 5 0.001649 0.007839 -0.006423 0.000000 0.040242 0.000000
# 6 0.000000 0.000000 0.000000 0.001926 0.000000 0.041765
#
#
# Mechanical properties :
#
#
# Convention : Reuss Voigt Hill
#
# Bulk Modulus (GPa) = 34.63233 34.98723 34.80978
# Shear Modulus (GPa) = 14.25582 29.45347 21.85465
#
# Velocity S-wave (km/s) = 2.55525 3.67287 3.16380
# Velocity P-wave (km/s) = 4.95657 5.83190 5.41196
#
# Compressibility (1/GPa) = 0.02887475
#
# Stress axis : x y z
#
# Youngs Moduli (GPa) = 117.70100 57.93006 66.85303
#
# Poissons Ratio (x) = -0.04401 -0.04796
# Poissons Ratio (y) = -0.08943 0.49458
# Poissons Ratio (z) = -0.08444 0.42857
#
# Static dielectric constant tensor:
#      x y z
#    x 1.797130 0.000000 -0.078690 
#    y 0.000000 1.753450 0.000000 
#    z -0.078690 0.000000 1.696420 
# 
# From -- ./inp_files/354667.got.cif
#   From: 2010.05.17/outbox.cif.g08.bks.cpg/sg12_178_cif.got.tgz:354667.got - 2010.06.03 13:09:07.
