data_PCOD9208311
_publ_section_title
;
Structure prediction by ZEFSAII (Michael W. Deem and Ramdas Pophale) SiO2 
 PCOD9208311
Probable space group: C 2/M
;
_chemical_formula_sum "Si O2"
_cell_formula_units_Z 64
_cell_length_a 20.436923
_cell_length_b 17.154802
_cell_length_c 24.482802
_cell_angle_alpha 90.000000
_cell_angle_beta 21.336877
_cell_angle_gamma 90.000000
_cell_volume 3123.098566
_symmetry_space_group_name_H-M "C 2/M"
_symmetry_group_IT_number 12
_symmetry_cell_setting 'monoclinic'
loop_
_space_group_symop_operation_xyz
x,y,z
-x,y,-z
-x,-y,-z
x,-y,z
1/2+x,1/2+y,z
1/2-x,1/2+y,-z
1/2-x,1/2-y,-z
1/2+x,1/2-y,z
loop_
_atom_site_type_symbol
_atom_site_label
_atom_site_fract_x
_atom_site_fract_y
_atom_site_fract_z
Si Si1 0.716125 0.908156 0.571817
Si Si2 0.102282 0.909567 0.684947
Si Si3 0.043914 0.782007 0.067554
Si Si4 0.172790 0.353486 0.893948
Si Si5 0.662517 0.833138 0.407797
Si Si6 0.978493 0.165325 0.453269
Si Si7 0.329752 0.087748 0.868267
Si Si8 0.223399 0.639005 0.974907
O O1 0.837375 0.900470 0.424074
O O2 0.814467 0.873256 0.547733
O O3 0.522391 0.875313 0.704473
O O4 0.687679 0.000000 0.603748
O O5 0.254348 0.886635 0.609836
O O6 0.934250 0.852453 0.823042
O O7 0.048968 0.000000 0.735523
O O8 0.834414 0.803153 0.238103
O O9 0.105782 0.732600 0.966334
O O10 0.165729 0.858403 0.977840
O O11 0.108609 0.718258 0.062328
O O12 0.340849 0.349330 0.722452
O O13 0.214649 0.393041 0.919838
O O14 0.000000 0.390809 0.000000
O O15 0.500000 0.871117 0.500000
O O16 0.570284 0.756484 0.505220
O O17 0.000000 0.139031 0.500000
O O18 0.309646 0.000000 0.862679
O O19 0.341126 0.087093 0.925294
#
# Coordination Sequence:
#
# PCOD9208311 Si02
#       8
#     8   8   8   8   8   8   8   8
#     4  10  23  40  59  88 123 161 203 256 310 364
#     4  11  23  41  63  91 127 162 209 257 305 369
#     4  10  22  38  61  90 125 153 206 255 299 365
#     4  10  22  38  60  92 119 161 201 258 311 357
#     4  11  24  39  62  94 125 165 205 252 310 366
#     4  11  23  39  62  88 122 160 208 254 302 374
#     4  11  22  37  61  90 121 158 199 253 310 363
#     4  10  21  37  65  90 119 159 205 257 306 355
#
# _framework density 20.492467999999999
#
# number of rings (size 3 to 8) (size 9 to 14) (size 15 to 20)
#    0.750    0.750    2.500    3.000    5.250    1.000 
#    0.000    0.000    0.000    2.250    0.000    0.000 
#    0.000    0.000    0.000    0.000    0.000    0.000 
#
# Total GULP energy -178342.474626 kJ/mol
# GULP energy per Si atom -5573.202332 kJ/mol
# Density = 2.044583 g / cm^3
# Si number density = 20.492468 Si / 1000 Ang^3
#
#
#
# Elastic Constant Matrix: (Units=GPa)
#
#
# Indices 1 2 3 4 5 6 
#
# 1 81.1719 6.4274 3.3055 -0.0441 -16.2256 0.0192
# 2 6.4274 26.0965 2.2575 -0.0592 -7.9259 -0.0122
# 3 3.3055 2.2575 95.5571 -0.0518 -13.0931 0.0259
# 4 -0.0441 -0.0592 -0.0518 20.1370 -0.0081 0.3024
# 5 -16.2256 -7.9259 -13.0931 -0.0081 41.3633 -0.0110
# 6 0.0192 -0.0122 0.0259 0.3024 -0.0110 12.7567
#
#
#
# Elastic Compliance Matrix: (Units=1/GPa)
#
#
# Indices 1 2 3 4 5 6 
#
# 1 0.013455 -0.001814 0.000264 0.000027 0.005014 -0.000019
# 2 -0.001814 0.040933 0.000076 0.000119 0.007156 0.000045
# 3 0.000264 0.000076 0.010945 0.000031 0.003583 -0.000020
# 4 0.000027 0.000119 0.000031 0.049678 0.000052 -0.001178
# 5 0.005014 0.007156 0.003583 0.000052 0.028648 0.000016
# 6 -0.000019 0.000045 -0.000020 -0.001178 0.000016 0.078418
#
#
# Mechanical properties :
#
#
# Convention : Reuss Voigt Hill
#
# Bulk Modulus (GPa) = 16.02908 25.20072 20.61490
# Shear Modulus (GPa) = 20.34019 27.57375 23.95697
#
# Velocity S-wave (km/s) = 3.15392 3.67216 3.42286
# Velocity P-wave (km/s) = 4.59368 5.50490 5.06980
#
# Compressibility (1/GPa) = 0.06238662
#
# Stress axis : x y z
#
# Youngs Moduli (GPa) = 74.32370 24.43008 91.36650
#
# Poissons Ratio (x) = 0.04431 -0.02416
# Poissons Ratio (y) = 0.13481 -0.00697
# Poissons Ratio (z) = -0.01966 -0.00186
#
# Static dielectric constant tensor:
#      x y z
#    x 1.768640 -0.000020 0.010760 
#    y -0.000020 1.720450 0.000010 
#    z 0.010760 0.000010 1.797910 
# 
# From -- ./inp_files/366778.got.cif
#   From: 2010.05.17/outbox.cif.g08.bks.cpg/sg12_184_cif.got.tgz:366778.got - 2010.06.03 13:09:07.
