data_PCOD9208395
_publ_section_title
;
Structure prediction by ZEFSAII (Michael W. Deem and Ramdas Pophale) SiO2 
 PCOD9208395
Probable space group: C 2/M
;
_chemical_formula_sum "Si O2"
_cell_formula_units_Z 28
_cell_length_a 24.335444
_cell_length_b 12.110868
_cell_length_c 5.249711
_cell_angle_alpha 90.000000
_cell_angle_beta 91.104135
_cell_angle_gamma 90.000000
_cell_volume 1546.925132
_symmetry_space_group_name_H-M "C 2/M"
_symmetry_group_IT_number 12
_symmetry_cell_setting 'monoclinic'
loop_
_space_group_symop_operation_xyz
x,y,z
-x,y,-z
-x,-y,-z
x,-y,z
1/2+x,1/2+y,z
1/2-x,1/2+y,-z
1/2-x,1/2-y,-z
1/2+x,1/2-y,z
loop_
_atom_site_type_symbol
_atom_site_label
_atom_site_fract_x
_atom_site_fract_y
_atom_site_fract_z
Si Si1 0.135168 0.665237 0.718018
Si Si2 0.818253 0.874120 0.457749
Si Si3 0.037350 0.500000 0.753567
Si Si4 0.201063 0.670146 0.231892
O O1 0.135706 0.797807 0.673052
O O2 0.077787 0.605737 0.753144
O O3 0.164295 0.624231 0.461457
O O4 0.174305 0.642679 0.961979
O O5 0.802190 0.802142 0.706849
O O6 0.763172 0.867139 0.281311
O O7 0.832839 0.000000 0.507161
O O8 0.000000 0.500000 0.500000
O O9 0.000000 0.500000 0.000000
#
# Coordination Sequence:
#
# PCOD9208395 Si02
#       4
#     8   8   4   8
#     4  10  21  38  56  82 117 145 196 241 289 333
#     4   9  20  33  57  86 124 154 189 215 288 358
#     4  12  26  42  66  84 106 156 204 262 298 327
#     4   9  20  34  52  89 119 159 178 226 273 368
#
# _framework density 18.100422999999999
#
# number of rings (size 3 to 8) (size 9 to 14) (size 15 to 20)
#    1.714    0.571    0.000    2.571    4.000    1.143 
#    0.000    0.000    0.000    1.714    0.000    0.000 
#    0.000    0.000    0.000    0.000    0.000    0.000 
#
# Total GULP energy -77967.991574 kJ/mol
# GULP energy per Si atom -5569.142255 kJ/mol
# Density = 1.805923 g / cm^3
# Si number density = 18.100423 Si / 1000 Ang^3
#
#
#
# Elastic Constant Matrix: (Units=GPa)
#
#
# Indices 1 2 3 4 5 6 
#
# 1 98.6602 44.4848 21.2745 0.0000 -11.5515 0.0000
# 2 44.4848 148.4625 4.0531 0.0000 -6.7284 0.0000
# 3 21.2745 4.0531 86.1575 0.0000 -9.6102 0.0000
# 4 0.0000 0.0000 0.0000 -7.6062 0.0000 -7.5936
# 5 -11.5515 -6.7284 -9.6102 0.0000 30.7356 0.0000
# 6 0.0000 0.0000 0.0000 -7.5936 0.0000 36.5738
#
#
#
# Elastic Compliance Matrix: (Units=1/GPa)
#
#
# Indices 1 2 3 4 5 6 
#
# 1 0.012687 -0.003587 -0.002611 0.000000 0.003167 0.000000
# 2 -0.003587 0.007819 0.000579 0.000000 0.000545 0.000000
# 3 -0.002611 0.000579 0.012567 0.000000 0.003075 0.000000
# 4 0.000000 0.000000 0.000000 -0.108899 0.000000 -0.022610
# 5 0.003167 0.000545 0.003075 0.000000 0.034806 0.000000
# 6 0.000000 0.000000 0.000000 -0.022610 0.000000 0.022648
#
#
# Mechanical properties :
#
#
# Convention : Reuss Voigt Hill
#
# Bulk Modulus (GPa) = 45.79714 52.54499 49.17106
# Shear Modulus (GPa) = 34814.02323 29.50517 17421.76420
#
# Velocity S-wave (km/s) = 138.83649 4.04181 98.21382
# Velocity P-wave (km/s) = 160.39364 7.13262 113.52752
#
# Compressibility (1/GPa) = 0.02183543
#
# Stress axis : x y z
#
# Youngs Moduli (GPa) = 78.82281 127.88900 79.57311
#
# Poissons Ratio (x) = 0.45869 0.20774
# Poissons Ratio (y) = 0.28271 -0.04604
# Poissons Ratio (z) = 0.20578 -0.07399
#
# Static dielectric constant tensor:
#      x y z
#    x 1.582810 0.000000 -0.027860 
#    y 0.000000 1.696730 0.000000 
#    z -0.027860 0.000000 1.641800 
# 
# From -- ./inp_files/14174.got.cif
#   From: 2010.05.17/outbox.cif.g08.bks.cpg/sg12_8_cif.got.tgz:14174.got - 2010.06.03 13:09:07.
