data_PCOD9208779
_publ_section_title
;
Structure prediction by ZEFSAII (Michael W. Deem and Ramdas Pophale) SiO2 
 PCOD9208779
Probable space group: C 2/M
;
_chemical_formula_sum "Si O2"
_cell_formula_units_Z 42
_cell_length_a 13.425489
_cell_length_b 26.827577
_cell_length_c 5.250313
_cell_angle_alpha 90.000000
_cell_angle_beta 91.992133
_cell_angle_gamma 90.000000
_cell_volume 1889.879853
_symmetry_space_group_name_H-M "C 2/M"
_symmetry_group_IT_number 12
_symmetry_cell_setting 'monoclinic'
loop_
_space_group_symop_operation_xyz
x,y,z
-x,y,-z
-x,-y,-z
x,-y,z
1/2+x,1/2+y,z
1/2-x,1/2+y,-z
1/2-x,1/2-y,-z
1/2+x,1/2-y,z
loop_
_atom_site_type_symbol
_atom_site_label
_atom_site_fract_x
_atom_site_fract_y
_atom_site_fract_z
Si Si1 0.148246 0.392016 0.169320
Si Si2 0.430980 0.323292 0.741969
Si Si3 0.000000 0.000000 0.000000
Si Si4 0.176564 0.078878 0.124465
Si Si5 0.430985 0.212491 0.742855
Si Si6 0.117193 0.555802 0.668118
O O1 0.141584 0.334398 0.240411
O O2 0.096712 0.424157 0.385521
O O3 0.261787 0.409306 0.128846
O O4 0.098253 0.404798 0.892161
O O5 0.500000 0.329241 0.500000
O O6 0.355178 0.368576 0.758810
O O7 0.384470 0.267817 0.726335
O O8 0.500000 0.325424 0.000000
O O9 0.083689 0.043521 0.071203
O O10 0.261652 0.054215 0.304777
O O11 0.500000 0.206446 0.500000
O O12 0.500000 0.211364 0.000000
O O13 0.080590 0.500000 0.717266
#
# Coordination Sequence:
#
# PCOD9208779 Si02
#       6
#     8   8   2   8   8   8
#     4  10  22  39  62  92 120 167 209 254 309 369
#     4  10  22  38  58  89 128 159 208 261 305 360
#     4  12  20  44  62 100 122 178 202 244 304 372
#     4  10  23  37  62  91 126 167 208 248 297 374
#     4  10  21  41  67  91 119 163 204 263 321 365
#     4  10  21  38  59  88 125 163 196 251 305 358
#
# _framework density 22.223635999999999
#
# number of rings (size 3 to 8) (size 9 to 14) (size 15 to 20)
#    1.143    0.762    1.905    1.714    4.000    0.762 
#    0.000    2.381    0.000   11.429    0.000    0.000 
#    0.000    0.000    0.000    0.000    0.000    0.000 
#
# Total GULP energy -116978.188688 kJ/mol
# GULP energy per Si atom -5570.389938 kJ/mol
# Density = 2.217305 g / cm^3
# Si number density = 22.223636 Si / 1000 Ang^3
#
#
#
# Elastic Constant Matrix: (Units=GPa)
#
#
# Indices 1 2 3 4 5 6 
#
# 1 54.9711 13.2932 8.6875 0.0000 11.8569 0.0000
# 2 13.2932 178.0003 34.4157 0.0000 -15.6269 0.0000
# 3 8.6875 34.4157 141.8751 0.0000 -9.5792 0.0000
# 4 0.0000 0.0000 0.0000 8.8154 0.0000 11.5070
# 5 11.8569 -15.6269 -9.5792 0.0000 19.3528 0.0000
# 6 0.0000 0.0000 0.0000 11.5070 0.0000 9.9263
#
#
#
# Elastic Compliance Matrix: (Units=1/GPa)
#
#
# Indices 1 2 3 4 5 6 
#
# 1 0.022906 -0.002865 -0.001874 0.000000 -0.017275 0.000000
# 2 -0.002865 0.006601 -0.000980 0.000000 0.006600 0.000000
# 3 -0.001874 -0.000980 0.007682 0.000000 0.004159 0.000000
# 4 0.000000 0.000000 0.000000 -0.221045 0.000000 0.256245
# 5 -0.017275 0.006600 0.004159 0.000000 0.069644 0.000000
# 6 0.000000 0.000000 0.000000 0.256245 0.000000 -0.196307
#
#
# Mechanical properties :
#
#
# Convention : Reuss Voigt Hill
#
# Bulk Modulus (GPa) = 38.83373 54.18215 46.50794
# Shear Modulus (GPa) = -17.21185 28.84892 5.81854
#
# Velocity S-wave (km/s) = -2.78597 3.60685 1.61983
# Velocity P-wave (km/s) = 2.67640 6.46368 4.94683
#
# Compressibility (1/GPa) = 0.02575081
#
# Stress axis : x y z
#
# Youngs Moduli (GPa) = 43.65579 151.49516 130.17807
#
# Poissons Ratio (x) = 0.43402 0.24396
# Poissons Ratio (y) = 0.12507 0.12760
# Poissons Ratio (z) = 0.08181 0.14849
#
# Static dielectric constant tensor:
#      x y z
#    x 1.868310 0.000000 0.012860 
#    y 0.000000 1.782840 0.000000 
#    z 0.012860 0.000000 1.810380 
# 
# From -- ./inp_files/11616.got.cif
#   From: 2010.05.17/outbox.cif.g08.bks.cpg/sg12_6_cif.got.tgz:11616.got - 2010.06.03 13:09:07.
