data_PCOD9208674
_publ_section_title
;
Structure prediction by ZEFSAII (Michael W. Deem and Ramdas Pophale) SiO2 
 PCOD9208674
Probable space group: C 2/M
;
_chemical_formula_sum "Si O2"
_cell_formula_units_Z 64
_cell_length_a 14.390999
_cell_length_b 8.996814
_cell_length_c 23.216561
_cell_angle_alpha 90.000000
_cell_angle_beta 78.521409
_cell_angle_gamma 90.000000
_cell_volume 2945.800050
_symmetry_space_group_name_H-M "C 2/M"
_symmetry_group_IT_number 12
_symmetry_cell_setting 'monoclinic'
loop_
_space_group_symop_operation_xyz
x,y,z
-x,y,-z
-x,-y,-z
x,-y,z
1/2+x,1/2+y,z
1/2-x,1/2+y,-z
1/2-x,1/2-y,-z
1/2+x,1/2-y,z
loop_
_atom_site_type_symbol
_atom_site_label
_atom_site_fract_x
_atom_site_fract_y
_atom_site_fract_z
Si Si1 0.444868 0.325595 0.447424
Si Si2 0.390186 0.829513 0.275513
Si Si3 0.657161 0.825585 0.985900
Si Si4 0.720528 0.829089 0.589104
Si Si5 0.279071 0.828127 0.763067
Si Si6 0.389259 0.829799 0.627727
Si Si7 0.054250 0.824955 0.199087
Si Si8 0.978800 0.676032 0.094581
O O1 0.500000 0.296151 0.500000
O O2 0.425261 0.500000 0.445226
O O3 0.348415 0.235646 0.450660
O O4 0.519665 0.273108 0.390113
O O5 0.340962 0.825413 0.343972
O O6 0.311775 0.772139 0.239782
O O7 0.480633 0.725000 0.257593
O O8 0.418564 0.000000 0.260760
O O9 0.613321 0.772446 0.930291
O O10 0.677355 0.000000 0.976381
O O11 0.750000 0.750000 0.000000
O O12 0.569915 0.811880 0.041320
O O13 0.810912 0.729298 0.592578
O O14 0.748475 0.000000 0.574694
O O15 0.340391 0.824831 0.696204
O O16 0.347184 0.760659 0.802994
O O17 0.253374 0.000000 0.777309
O O18 0.416838 0.000000 0.612401
O O19 0.003907 0.769818 0.147256
O O20 0.069786 0.000000 0.197733
O O21 0.967721 0.500000 0.109569
#
# Coordination Sequence:
#
# PCOD9208674 Si02
#       8
#     8   8   8   8   8   8   8   8
#     4  11  24  39  56  81 112 146 185 229 278 332
#     4  10  21  38  59  84 113 147 187 230 277 332
#     4   9  19  37  62  84 106 143 187 231 281 330
#     4  10  21  38  61  85 110 144 185 229 279 333
#     4  10  21  38  59  84 113 147 187 230 277 332
#     4  10  21  38  61  85 110 144 185 229 279 333
#     4  12  24  36  55  85 119 155 189 228 279 330
#     4   9  20  39  57  79 113 150 186 227 278 333
#
# _framework density 21.725847000000002
#
# number of rings (size 3 to 8) (size 9 to 14) (size 15 to 20)
#    0.000    1.875    0.000    4.500    0.000    9.500 
#    0.000    3.750    0.000    0.000    0.000    0.000 
#    0.000    0.000    0.000    0.000    0.000    0.000 
#
# Total GULP energy -178991.393718 kJ/mol
# GULP energy per Si atom -5593.481054 kJ/mol
# Density = 2.167640 g / cm^3
# Si number density = 21.725847 Si / 1000 Ang^3
#
#
#
# Elastic Constant Matrix: (Units=GPa)
#
#
# Indices 1 2 3 4 5 6 
#
# 1 82.8748 18.2042 11.1806 0.0000 35.9009 0.0000
# 2 18.2042 77.0523 35.1069 0.0000 26.5774 0.0000
# 3 11.1806 35.1069 54.9146 0.0000 25.6516 0.0000
# 4 0.0000 0.0000 0.0000 24.4922 0.0000 5.1102
# 5 35.9009 26.5774 25.6516 0.0000 33.8458 0.0000
# 6 0.0000 0.0000 0.0000 5.1102 0.0000 33.1030
#
#
#
# Elastic Compliance Matrix: (Units=1/GPa)
#
#
# Indices 1 2 3 4 5 6 
#
# 1 0.026779 0.001732 0.011369 0.000000 -0.038382 0.000000
# 2 0.001732 0.020164 -0.007723 0.000000 -0.011818 0.000000
# 3 0.011369 -0.007723 0.036585 0.000000 -0.033723 0.000000
# 4 0.000000 0.000000 0.000000 0.042188 0.000000 -0.006513
# 5 -0.038382 -0.011818 -0.033723 0.000000 0.105096 0.000000
# 6 0.000000 0.000000 0.000000 -0.006513 0.000000 0.031214
#
#
# Mechanical properties :
#
#
# Convention : Reuss Voigt Hill
#
# Bulk Modulus (GPa) = 10.60620 38.20278 24.40449
# Shear Modulus (GPa) = 17.68662 28.31152 22.99907
#
# Velocity S-wave (km/s) = 2.85631 3.61380 3.25715
# Velocity P-wave (km/s) = 3.97120 5.91903 5.04011
#
# Compressibility (1/GPa) = 0.09428451
#
# Stress axis : x y z
#
# Youngs Moduli (GPa) = 37.34276 49.59291 27.33326
#
# Poissons Ratio (x) = -0.08590 -0.31076
# Poissons Ratio (y) = -0.06468 0.21111
# Poissons Ratio (z) = -0.42456 0.38303
#
# Static dielectric constant tensor:
#      x y z
#    x 1.807630 0.000000 -0.041230 
#    y 0.000000 1.725450 0.000000 
#    z -0.041230 0.000000 1.867950 
# 
# From -- ./inp_files/338886.got.cif
#   From: 2010.05.17/outbox.cif.g08.bks.cpg/sg12_170_cif.got.tgz:338886.got - 2010.06.03 13:09:07.
