data_PCOD9208855
_publ_section_title
;
Structure prediction by ZEFSAII (Michael W. Deem and Ramdas Pophale) SiO2 
 PCOD9208855
Probable space group: C 2/M
;
_chemical_formula_sum "Si O2"
_cell_formula_units_Z 48
_cell_length_a 15.244680
_cell_length_b 8.954122
_cell_length_c 28.584277
_cell_angle_alpha 90.000000
_cell_angle_beta 143.502537
_cell_angle_gamma 90.000000
_cell_volume 2320.759516
_symmetry_space_group_name_H-M "C 2/M"
_symmetry_group_IT_number 12
_symmetry_cell_setting 'monoclinic'
loop_
_space_group_symop_operation_xyz
x,y,z
-x,y,-z
-x,-y,-z
x,-y,z
1/2+x,1/2+y,z
1/2-x,1/2+y,-z
1/2-x,1/2-y,-z
1/2+x,1/2-y,z
loop_
_atom_site_type_symbol
_atom_site_label
_atom_site_fract_x
_atom_site_fract_y
_atom_site_fract_z
Si Si1 0.084160 0.179627 0.290803
Si Si2 0.803723 0.332515 0.132215
Si Si3 0.544253 0.678274 0.662475
Si Si4 0.327760 0.668198 0.820831
Si Si5 0.576546 0.179419 0.581819
Si Si6 0.126474 0.322268 0.979444
O O1 0.250699 0.221394 0.349117
O O2 0.962605 0.253600 0.204600
O O3 0.045957 0.219776 0.328834
O O4 0.069202 0.000000 0.281084
O O5 0.815186 0.500000 0.116716
O O6 0.749217 0.345845 0.161769
O O7 0.678897 0.238406 0.052209
O O8 0.545266 0.500000 0.660455
O O9 0.709319 0.742416 0.740036
O O10 0.498358 0.746521 0.593053
O O11 0.355460 0.500000 0.814278
O O12 0.475352 0.757495 0.894653
O O13 0.500000 0.218035 0.500000
O O14 0.569765 0.000000 0.584680
O O15 0.125583 0.500000 0.978980
O O16 0.250000 0.250000 0.000000
#
# Coordination Sequence:
#
# PCOD9208855 Si02
#       6
#     8   8   8   8   8   8
#     4   9  20  39  61  86 119 159 200 243 299 363
#     4  10  21  38  60  85 114 151 196 243 293 350
#     4  10  21  38  61  89 120 156 199 248 298 356
#     4  10  21  39  61  84 114 153 195 241 293 352
#     4  10  22  40  62  88 120 158 197 243 303 367
#     4  12  25  38  55  82 117 156 197 243 292 344
#
# _framework density 20.682884999999999
#
# number of rings (size 3 to 8) (size 9 to 14) (size 15 to 20)
#    0.000    1.833    0.000    3.500    2.333    6.333 
#    0.000    0.000    0.000    0.000    0.000    0.000 
#    0.000    0.000    0.000    0.000    0.000    0.000 
#
# Total GULP energy -134052.894219 kJ/mol
# GULP energy per Si atom -5585.537259 kJ/mol
# Density = 2.063581 g / cm^3
# Si number density = 20.682885 Si / 1000 Ang^3
#
#
#
# Elastic Constant Matrix: (Units=GPa)
#
#
# Indices 1 2 3 4 5 6 
#
# 1 58.7633 16.9801 15.0027 0.0000 -9.0191 0.0000
# 2 16.9801 64.8869 -3.1078 0.0000 -2.9257 0.0000
# 3 15.0027 -3.1078 23.5167 0.0000 -14.0872 0.0000
# 4 0.0000 0.0000 0.0000 31.5340 0.0000 -6.1125
# 5 -9.0191 -2.9257 -14.0872 0.0000 37.0557 0.0000
# 6 0.0000 0.0000 0.0000 -6.1125 0.0000 24.4929
#
#
#
# Elastic Compliance Matrix: (Units=1/GPa)
#
#
# Indices 1 2 3 4 5 6 
#
# 1 0.022963 -0.006837 -0.016223 0.000000 -0.001118 0.000000
# 2 -0.006837 0.017740 0.008479 0.000000 0.002960 0.000000
# 3 -0.016223 0.008479 0.067371 0.000000 0.022333 0.000000
# 4 0.000000 0.000000 0.000000 0.033324 0.000000 0.008316
# 5 -0.001118 0.002960 0.022333 0.000000 0.035438 0.000000
# 6 0.000000 0.000000 0.000000 0.008316 0.000000 0.042904
#
#
# Mechanical properties :
#
#
# Convention : Reuss Voigt Hill
#
# Bulk Modulus (GPa) = 12.67205 22.76853 17.72029
# Shear Modulus (GPa) = 18.16829 26.50264 22.33546
#
# Velocity S-wave (km/s) = 2.96703 3.58352 3.28975
# Velocity P-wave (km/s) = 4.22822 5.30608 4.79751
#
# Compressibility (1/GPa) = 0.07891380
#
# Stress axis : x y z
#
# Youngs Moduli (GPa) = 43.54820 56.36960 14.84316
#
# Poissons Ratio (x) = 0.38537 0.24080
# Poissons Ratio (y) = 0.29772 -0.12586
# Poissons Ratio (z) = 0.70647 -0.47796
#
# Static dielectric constant tensor:
#      x y z
#    x 1.769690 0.000000 -0.128830 
#    y 0.000000 1.709670 0.000000 
#    z -0.128830 0.000000 1.874310 
# 
# From -- ./inp_files/295345.got.cif
#   From: 2010.05.17/outbox.cif.g08.bks.cpg/sg12_148_cif.got.tgz:295345.got - 2010.06.03 13:09:07.
