data_PCOD9208249
_publ_section_title
;
Structure prediction by ZEFSAII (Michael W. Deem and Ramdas Pophale) SiO2 
 PCOD9208249
Probable space group: C 2/M
;
_chemical_formula_sum "Si O2"
_cell_formula_units_Z 44
_cell_length_a 9.096883
_cell_length_b 27.874250
_cell_length_c 7.131477
_cell_angle_alpha 90.000000
_cell_angle_beta 89.973794
_cell_angle_gamma 90.000000
_cell_volume 1808.319812
_symmetry_space_group_name_H-M "C 2/M"
_symmetry_group_IT_number 12
_symmetry_cell_setting 'monoclinic'
loop_
_space_group_symop_operation_xyz
x,y,z
-x,y,-z
-x,-y,-z
x,-y,z
1/2+x,1/2+y,z
1/2-x,1/2+y,-z
1/2-x,1/2-y,-z
1/2+x,1/2-y,z
loop_
_atom_site_type_symbol
_atom_site_label
_atom_site_fract_x
_atom_site_fract_y
_atom_site_fract_z
Si Si1 0.772977 0.584933 0.289194
Si Si2 0.811418 0.193149 0.808079
Si Si3 0.500000 0.089791 0.000000
Si Si4 0.705197 0.123636 0.322527
Si Si5 0.139599 0.784717 0.750514
Si Si6 0.038425 0.052253 0.780505
O O1 0.728280 0.637942 0.217092
O O2 0.842016 0.595812 0.490593
O O3 0.619462 0.557802 0.317367
O O4 0.879106 0.563124 0.129513
O O5 0.689313 0.229991 0.733784
O O6 0.968280 0.206036 0.716377
O O7 0.831602 0.202211 0.030346
O O8 0.587601 0.120156 0.156239
O O9 0.756945 0.177837 0.358724
O O10 0.851839 0.095263 0.260017
O O11 0.104435 0.000000 0.739149
O O12 0.000000 0.054181 0.000000
#
# Coordination Sequence:
#
# PCOD9208249 Si02
#       6
#     8   8   4   8   8   8
#     4  12  25  44  71 102 139 183 232 291 347 411
#     4  10  21  37  63  95 138 184 228 282 343 406
#     4  12  26  46  67  96 142 182 224 274 347 428
#     4  12  25  44  71 102 139 183 232 291 347 411
#     4  10  21  37  63  95 138 184 228 282 343 406
#     4  11  23  47  80 106 137 184 234 292 351 410
#
# _framework density 24.331980999999999
#
# number of rings (size 3 to 8) (size 9 to 14) (size 15 to 20)
#    0.000    0.909    5.455    1.091    2.545    2.182 
#    0.000    1.818    0.000    2.182    0.000    0.000 
#    0.000    0.000    0.000    0.000    0.000    0.000 
#
# Total GULP energy -123166.672093 kJ/mol
# GULP energy per Si atom -5598.485095 kJ/mol
# Density = 2.427660 g / cm^3
# Si number density = 24.331981 Si / 1000 Ang^3
#
#
#
# Elastic Constant Matrix: (Units=GPa)
#
#
# Indices 1 2 3 4 5 6 
#
# 1 112.2594 5.5545 22.7272 0.0000 5.8498 0.0000
# 2 5.5545 89.6924 0.3596 0.0000 -2.0164 0.0000
# 3 22.7272 0.3596 119.7623 0.0000 0.5120 0.0000
# 4 0.0000 0.0000 0.0000 12.5236 0.0000 5.5178
# 5 5.8498 -2.0164 0.5120 0.0000 31.0479 0.0000
# 6 0.0000 0.0000 0.0000 5.5178 0.0000 15.4396
#
#
#
# Elastic Compliance Matrix: (Units=1/GPa)
#
#
# Indices 1 2 3 4 5 6 
#
# 1 0.009390 -0.000614 -0.001772 0.000000 -0.001780 0.000000
# 2 -0.000614 0.011206 0.000079 0.000000 0.000842 0.000000
# 3 -0.001772 0.000079 0.008685 0.000000 0.000196 0.000000
# 4 0.000000 0.000000 0.000000 0.094772 0.000000 -0.033869
# 5 -0.001780 0.000842 0.000196 0.000000 0.032595 0.000000
# 6 0.000000 0.000000 0.000000 -0.033869 0.000000 0.076873
#
#
# Mechanical properties :
#
#
# Convention : Reuss Voigt Hill
#
# Bulk Modulus (GPa) = 40.54181 42.11078 41.32629
# Shear Modulus (GPa) = 20.29570 31.34041 25.81806
#
# Velocity S-wave (km/s) = 2.89124 3.59281 3.26095
# Velocity P-wave (km/s) = 5.27672 5.87838 5.58566
#
# Compressibility (1/GPa) = 0.02466589
#
# Stress axis : x y z
#
# Youngs Moduli (GPa) = 106.49712 89.23886 115.13900
#
# Poissons Ratio (x) = 0.05483 0.20408
# Poissons Ratio (y) = 0.06543 -0.00914
# Poissons Ratio (z) = 0.18876 -0.00708
#
# Static dielectric constant tensor:
#      x y z
#    x 1.943310 0.000000 -0.016870 
#    y 0.000000 1.830530 0.000000 
#    z -0.016870 0.000000 2.029080 
# 
# From -- ./inp_files/41678.got.cif
#   From: 2010.05.17/outbox.cif.g08.bks.cpg/sg12_21_cif.got.tgz:41678.got - 2010.06.03 13:09:07.
