data_PCOD9208818
_publ_section_title
;
Structure prediction by ZEFSAII (Michael W. Deem and Ramdas Pophale) SiO2 
 PCOD9208818
Probable space group: C 2/M
;
_chemical_formula_sum "Si O2"
_cell_formula_units_Z 48
_cell_length_a 18.490371
_cell_length_b 17.941975
_cell_length_c 14.568058
_cell_angle_alpha 90.000000
_cell_angle_beta 145.569527
_cell_angle_gamma 90.000000
_cell_volume 2732.610706
_symmetry_space_group_name_H-M "C 2/M"
_symmetry_group_IT_number 12
_symmetry_cell_setting 'monoclinic'
loop_
_space_group_symop_operation_xyz
x,y,z
-x,y,-z
-x,-y,-z
x,-y,z
1/2+x,1/2+y,z
1/2-x,1/2+y,-z
1/2-x,1/2-y,-z
1/2+x,1/2-y,z
loop_
_atom_site_type_symbol
_atom_site_label
_atom_site_fract_x
_atom_site_fract_y
_atom_site_fract_z
Si Si1 0.614569 0.415630 0.833628
Si Si2 0.101985 0.780301 0.687805
Si Si3 0.301307 0.000000 0.282540
Si Si4 0.530551 0.000000 0.378472
Si Si5 0.101401 0.714226 0.028772
Si Si6 0.585807 0.391304 0.005218
Si Si7 0.097664 0.356973 0.828421
O O1 0.610351 0.500000 0.792683
O O2 0.567927 0.351985 0.715384
O O3 0.546089 0.414163 0.861144
O O4 0.761415 0.393143 0.011559
O O5 0.104060 0.707367 0.756829
O O6 0.000000 0.769576 0.500000
O O7 0.245126 0.796821 0.798167
O O8 0.422722 0.000000 0.344301
O O9 0.338497 0.000000 0.427825
O O10 0.221118 0.927981 0.170225
O O11 0.501768 0.923363 0.295652
O O12 0.088735 0.802883 0.009223
O O13 0.067886 0.680459 0.894806
O O14 0.000000 0.687998 0.000000
O O15 0.500000 0.416675 0.000000
#
# Coordination Sequence:
#
# PCOD9208818 Si02
#       7
#     8   8   4   4   8   8   8
#     4  11  19  36  59  84 108 148 194 222 269 339
#     4  11  23  37  60  85 114 147 187 236 276 325
#     4  11  21  32  50  90 115 142 167 235 294 331
#     4  11  22  32  57  82 116 139 186 231 284 320
#     4  10  21  38  60  82 109 148 194 227 272 334
#     4  11  19  33  55  84 112 144 181 225 281 337
#     4  11  19  38  59  84 108 149 188 230 271 340
#
# _framework density 17.565619999999999
#
# number of rings (size 3 to 8) (size 9 to 14) (size 15 to 20)
#    0.000    1.167    6.667    1.250    4.667    0.333 
#    0.000    2.917    0.000    0.000    0.000    0.000 
#    0.000    0.000    0.000    0.000    0.000    0.000 
#
# Total GULP energy -133765.415702 kJ/mol
# GULP energy per Si atom -5573.558988 kJ/mol
# Density = 1.752564 g / cm^3
# Si number density = 17.565620 Si / 1000 Ang^3
#
#
#
# Elastic Constant Matrix: (Units=GPa)
#
#
# Indices 1 2 3 4 5 6 
#
# 1 119.2046 36.9004 37.8064 0.0000 -4.7429 0.0000
# 2 36.9004 115.2117 27.5373 0.0000 -13.9473 0.0000
# 3 37.8064 27.5373 73.2164 0.0000 -19.7282 0.0000
# 4 0.0000 0.0000 0.0000 -100.9376 0.0000 47.8405
# 5 -4.7429 -13.9473 -19.7282 0.0000 18.7879 0.0000
# 6 0.0000 0.0000 0.0000 47.8405 0.0000 -6.5034
#
#
#
# Elastic Compliance Matrix: (Units=1/GPa)
#
#
# Indices 1 2 3 4 5 6 
#
# 1 0.010967 -0.002731 -0.006187 0.000000 -0.005755 0.000000
# 2 -0.002731 0.010513 -0.000874 0.000000 0.006197 0.000000
# 3 -0.006187 -0.000874 0.023130 0.000000 0.022077 0.000000
# 4 0.000000 0.000000 0.000000 0.003984 0.000000 0.029309
# 5 -0.005755 0.006197 0.022077 0.000000 0.079555 0.000000
# 6 0.000000 0.000000 0.000000 0.029309 0.000000 0.061839
#
#
# Mechanical properties :
#
#
# Convention : Reuss Voigt Hill
#
# Bulk Modulus (GPa) = 39.95598 56.90235 48.42916
# Shear Modulus (GPa) = 22.94465 -4.03806 9.45330
#
# Velocity S-wave (km/s) = 3.61809 -1.51784 2.32237
# Velocity P-wave (km/s) = 6.34431 5.42150 5.90097
#
# Compressibility (1/GPa) = 0.02502754
#
# Stress axis : x y z
#
# Youngs Moduli (GPa) = 91.17897 95.11624 43.23330
#
# Poissons Ratio (x) = 0.25973 0.26748
# Poissons Ratio (y) = 0.24897 0.03780
# Poissons Ratio (z) = 0.56411 0.08317
#
# Static dielectric constant tensor:
#      x y z
#    x 1.638160 0.000000 0.012920 
#    y 0.000000 1.608380 0.000000 
#    z 0.012920 0.000000 1.611520 
# 
# From -- ./inp_files/112771.got.cif
#   From: 2010.05.17/outbox.cif.g08.bks.cpg/sg12_57_cif.got.tgz:112771.got - 2010.06.03 13:09:07.
