data_PCOD9208212
_publ_section_title
;
Structure prediction by ZEFSAII (Michael W. Deem and Ramdas Pophale) SiO2 
 PCOD9208212
Probable space group: C 2/M
;
_chemical_formula_sum "Si O2"
_cell_formula_units_Z 64
_cell_length_a 20.093131
_cell_length_b 8.022226
_cell_length_c 24.685370
_cell_angle_alpha 90.000000
_cell_angle_beta 52.749143
_cell_angle_gamma 90.000000
_cell_volume 3167.315820
_symmetry_space_group_name_H-M "C 2/M"
_symmetry_group_IT_number 12
_symmetry_cell_setting 'monoclinic'
loop_
_space_group_symop_operation_xyz
x,y,z
-x,y,-z
-x,-y,-z
x,-y,z
1/2+x,1/2+y,z
1/2-x,1/2+y,-z
1/2-x,1/2-y,-z
1/2+x,1/2-y,z
loop_
_atom_site_type_symbol
_atom_site_label
_atom_site_fract_x
_atom_site_fract_y
_atom_site_fract_z
Si Si1 0.406483 0.300821 0.061364
Si Si2 0.585237 0.295600 0.209521
Si Si3 0.406573 0.701600 0.559684
Si Si4 0.249943 0.300719 0.437182
Si Si5 0.249212 0.699831 0.937287
Si Si6 0.667435 0.194865 0.790741
Si Si7 0.399417 0.306125 0.288282
Si Si8 0.857572 0.797831 0.702811
O O1 0.407261 0.500000 0.067092
O O2 0.333877 0.258530 0.053722
O O3 0.385214 0.222380 0.129666
O O4 0.500000 0.246252 0.000000
O O5 0.587554 0.500000 0.205645
O O6 0.665556 0.239903 0.134869
O O7 0.493257 0.235960 0.238046
O O8 0.594338 0.243416 0.267579
O O9 0.500000 0.759545 0.500000
O O10 0.407986 0.500000 0.560239
O O11 0.334287 0.748381 0.552900
O O12 0.384938 0.763536 0.630633
O O13 0.253309 0.500000 0.433132
O O14 0.250000 0.250000 0.500000
O O15 0.331569 0.234005 0.364108
O O16 0.249181 0.500000 0.934202
O O17 0.250000 0.750000 0.000000
O O18 0.638280 0.293501 0.752823
O O19 0.761360 0.245525 0.758718
O O20 0.667834 0.000000 0.775502
O O21 0.409590 0.500000 0.298811
O O22 0.863897 0.000000 0.698379
#
# Coordination Sequence:
#
# PCOD9208212 Si02
#       8
#     8   8   8   8   8   8   8   8
#     4  11  25  43  63  88 121 162 207 252 300 358
#     4   9  19  37  61  86 115 154 197 239 291 353
#     4  10  21  37  63  91 118 157 204 247 298 363
#     4  11  24  40  60  86 123 163 204 252 301 357
#     4  11  23  41  63  89 123 159 199 249 304 361
#     4  11  21  38  64  90 120 154 196 254 307 357
#     4  10  22  39  62  89 119 159 202 244 296 363
#     4   9  17  34  60  87 114 149 194 245 294 346
#
# _framework density 20.206384
#
# number of rings (size 3 to 8) (size 9 to 14) (size 15 to 20)
#    0.000    1.750    2.500    1.500    3.500    1.750 
#    0.000    0.625    0.000    0.000    0.000    0.000 
#    0.000    0.000    0.000    0.000    0.000    0.000 
#
# Total GULP energy -178623.396978 kJ/mol
# GULP energy per Si atom -5581.981156 kJ/mol
# Density = 2.016039 g / cm^3
# Si number density = 20.206384 Si / 1000 Ang^3
#
#
#
# Elastic Constant Matrix: (Units=GPa)
#
#
# Indices 1 2 3 4 5 6 
#
# 1 64.6838 1.8301 21.5593 -0.0002 -5.2435 0.0000
# 2 1.8301 18.0020 1.1107 -0.0004 -9.8763 -0.0009
# 3 21.5593 1.1107 117.3060 0.0000 -5.9488 -0.0001
# 4 -0.0002 -0.0004 0.0000 14.0348 0.0000 7.2371
# 5 -5.2435 -9.8763 -5.9488 0.0000 40.3353 0.0000
# 6 0.0000 -0.0009 -0.0001 7.2371 0.0000 26.1870
#
#
#
# Elastic Compliance Matrix: (Units=1/GPa)
#
#
# Indices 1 2 3 4 5 6 
#
# 1 0.016593 -0.000647 -0.002964 0.000000 0.001561 0.000000
# 2 -0.000647 0.064199 0.000306 0.000001 0.015681 0.000002
# 3 -0.002964 0.000306 0.009119 0.000000 0.001035 0.000000
# 4 0.000000 0.000001 0.000000 0.083093 0.000000 -0.022964
# 5 0.001561 0.015681 0.001035 0.000000 0.028987 0.000001
# 6 0.000000 0.000002 0.000000 -0.022964 0.000001 0.044533
#
#
# Mechanical properties :
#
#
# Convention : Reuss Voigt Hill
#
# Bulk Modulus (GPa) = 12.00477 27.66579 19.83528
# Shear Modulus (GPa) = 17.79984 27.81088 22.80536
#
# Velocity S-wave (km/s) = 2.97122 3.71393 3.36314
# Velocity P-wave (km/s) = 4.21009 5.66678 4.99185
#
# Compressibility (1/GPa) = 0.08330025
#
# Stress axis : x y z
#
# Youngs Moduli (GPa) = 60.26747 15.57654 109.66040
#
# Poissons Ratio (x) = 0.01008 0.32506
# Poissons Ratio (y) = 0.03902 -0.03359
# Poissons Ratio (z) = 0.17865 -0.00477
#
# Static dielectric constant tensor:
#      x y z
#    x 1.682900 0.000000 -0.013420 
#    y 0.000000 1.742340 0.000000 
#    z -0.013420 0.000000 1.881820 
# 
# From -- ./inp_files/346055.got.cif
#   From: 2010.05.17/outbox.cif.g08.bks.cpg/sg12_174_cif.got.tgz:346055.got - 2010.06.03 13:09:07.
