data_PCOD9208703
_publ_section_title
;
Structure prediction by ZEFSAII (Michael W. Deem and Ramdas Pophale) SiO2 
 PCOD9208703
Probable space group: C 2/M
;
_chemical_formula_sum "Si O2"
_cell_formula_units_Z 56
_cell_length_a 23.288476
_cell_length_b 8.903265
_cell_length_c 16.398019
_cell_angle_alpha 90.000000
_cell_angle_beta 126.288471
_cell_angle_gamma 90.000000
_cell_volume 2740.579033
_symmetry_space_group_name_H-M "C 2/M"
_symmetry_group_IT_number 12
_symmetry_cell_setting 'monoclinic'
loop_
_space_group_symop_operation_xyz
x,y,z
-x,y,-z
-x,-y,-z
x,-y,z
1/2+x,1/2+y,z
1/2-x,1/2+y,-z
1/2-x,1/2-y,-z
1/2+x,1/2-y,z
loop_
_atom_site_type_symbol
_atom_site_label
_atom_site_fract_x
_atom_site_fract_y
_atom_site_fract_z
Si Si1 0.855713 0.822433 0.228855
Si Si2 0.418579 0.317143 0.453414
Si Si3 0.185479 0.828819 0.247461
Si Si4 0.208681 0.178616 0.543029
Si Si5 0.039650 0.326862 0.116345
Si Si6 0.587765 0.828503 0.865306
Si Si7 0.791456 0.827330 0.926820
O O1 0.873568 0.772609 0.335215
O O2 0.917509 0.773920 0.218946
O O3 0.786219 0.744375 0.133387
O O4 0.845865 0.000000 0.221273
O O5 0.500000 0.268465 0.500000
O O6 0.420934 0.500000 0.458854
O O7 0.371060 0.270356 0.492858
O O8 0.240172 0.719763 0.338218
O O9 0.105574 0.774977 0.195906
O O10 0.192649 0.823774 0.156060
O O11 0.198071 0.000000 0.285484
O O12 0.250000 0.250000 0.500000
O O13 0.205225 0.000000 0.527458
O O14 0.063692 0.500000 0.121908
O O15 0.982863 0.325998 0.140498
O O16 0.000000 0.276562 0.000000
O O17 0.602999 0.000000 0.853950
O O18 0.649822 0.766039 0.975829
O O19 0.792269 0.000000 0.955848
#
# Coordination Sequence:
#
# PCOD9208703 Si02
#       7
#     8   8   8   8   8   8   8
#     4  11  22  38  61  88 120 160 204 250 306 365
#     4   9  20  40  66  93 121 159 205 255 311 371
#     4  11  23  38  62  91 121 158 204 254 303 361
#     4  11  23  42  68  96 127 160 206 260 319 386
#     4  10  21  38  59  84 120 164 205 247 303 367
#     4  11  23  38  58  87 124 162 204 252 305 363
#     4  11  22  37  59  87 120 158 204 251 298 357
#
# _framework density 20.433637999999998
#
# number of rings (size 3 to 8) (size 9 to 14) (size 15 to 20)
#    0.000    1.429    2.857    2.571    0.000    3.714 
#    0.000    1.429    0.000    6.000    0.000    0.000 
#    0.000    0.000    0.000    0.000    0.000    0.000 
#
# Total GULP energy -156307.923023 kJ/mol
# GULP energy per Si atom -5582.425822 kJ/mol
# Density = 2.038713 g / cm^3
# Si number density = 20.433638 Si / 1000 Ang^3
#
#
#
# Elastic Constant Matrix: (Units=GPa)
#
#
# Indices 1 2 3 4 5 6 
#
# 1 131.8324 21.4677 27.3434 0.0000 0.6374 0.0000
# 2 21.4677 32.1504 -0.7861 0.0000 3.7844 0.0000
# 3 27.3434 -0.7861 27.6794 0.0000 -1.6397 0.0000
# 4 0.0000 0.0000 0.0000 15.0976 0.0000 -1.0019
# 5 0.6374 3.7844 -1.6397 0.0000 27.6384 0.0000
# 6 0.0000 0.0000 0.0000 -1.0019 0.0000 29.9020
#
#
#
# Elastic Compliance Matrix: (Units=1/GPa)
#
#
# Indices 1 2 3 4 5 6 
#
# 1 0.011184 -0.007759 -0.011260 0.000000 0.000136 0.000000
# 2 -0.007759 0.037008 0.008456 0.000000 -0.004387 0.000000
# 3 -0.011260 0.008456 0.047606 0.000000 0.001926 0.000000
# 4 0.000000 0.000000 0.000000 0.066383 0.000000 0.002224
# 5 0.000136 -0.004387 0.001926 0.000000 0.036893 0.000000
# 6 0.000000 0.000000 0.000000 0.002224 0.000000 0.033517
#
#
# Mechanical properties :
#
#
# Convention : Reuss Voigt Hill
#
# Bulk Modulus (GPa) = 13.39211 31.96804 22.68008
# Shear Modulus (GPa) = 17.94637 24.10340 21.02489
#
# Velocity S-wave (km/s) = 2.96679 3.43825 3.21118
# Velocity P-wave (km/s) = 4.27831 5.60721 4.98722
#
# Compressibility (1/GPa) = 0.07467084
#
# Stress axis : x y z
#
# Youngs Moduli (GPa) = 89.41573 27.02127 21.00588
#
# Poissons Ratio (x) = 0.20966 0.23653
# Poissons Ratio (y) = 0.69378 -0.17763
# Poissons Ratio (z) = 1.00684 -0.22849
#
# Static dielectric constant tensor:
#      x y z
#    x 1.820540 0.000000 -0.013850 
#    y 0.000000 1.713240 0.000000 
#    z -0.013850 0.000000 1.696580 
# 
# From -- ./inp_files/288426.got.cif
#   From: 2010.05.17/outbox.cif.g08.bks.cpg/sg12_145_cif.got.tgz:288426.got - 2010.06.03 13:09:07.
