data_PCOD9208909
_publ_section_title
;
Structure prediction by ZEFSAII (Michael W. Deem and Ramdas Pophale) SiO2 
 PCOD9208909
Probable space group: C 2/M
;
_chemical_formula_sum "Si O2"
_cell_formula_units_Z 64
_cell_length_a 17.953232
_cell_length_b 15.727747
_cell_length_c 23.373612
_cell_angle_alpha 90.000000
_cell_angle_beta 152.159048
_cell_angle_gamma 90.000000
_cell_volume 3082.260399
_symmetry_space_group_name_H-M "C 2/M"
_symmetry_group_IT_number 12
_symmetry_cell_setting 'monoclinic'
loop_
_space_group_symop_operation_xyz
x,y,z
-x,y,-z
-x,-y,-z
x,-y,z
1/2+x,1/2+y,z
1/2-x,1/2+y,-z
1/2-x,1/2-y,-z
1/2+x,1/2-y,z
loop_
_atom_site_type_symbol
_atom_site_label
_atom_site_fract_x
_atom_site_fract_y
_atom_site_fract_z
Si Si1 0.388978 0.592249 0.184801
Si Si2 0.562786 0.174668 0.320745
Si Si3 0.026780 0.092265 0.155166
Si Si4 0.088245 0.845738 0.408919
Si Si5 0.635273 0.402045 0.640648
Si Si6 0.368581 0.222163 0.951599
Si Si7 0.229143 0.905234 0.121570
Si Si8 0.594396 0.769445 0.211918
O O1 0.316050 0.500000 0.145905
O O2 0.417936 0.602199 0.137635
O O3 0.557672 0.599418 0.331388
O O4 0.283005 0.664936 0.140182
O O5 0.739560 0.136120 0.446829
O O6 0.569173 0.248557 0.373738
O O7 0.411805 0.112762 0.226880
O O8 0.550503 0.213338 0.248274
O O9 0.146552 0.171376 0.238630
O O10 0.106005 0.000000 0.211112
O O11 0.901621 0.091061 0.018023
O O12 0.953859 0.871158 0.362980
O O13 0.500000 0.399366 0.500000
O O14 0.689866 0.500000 0.683719
O O15 0.777029 0.338531 0.720202
O O16 0.321208 0.311862 0.888640
O O17 0.500000 0.181134 0.000000
O O18 0.445927 0.228558 0.067279
O O19 0.219584 0.000000 0.143168
#
# Coordination Sequence:
#
# PCOD9208909 Si02
#       8
#     8   8   8   8   8   8   8   8
#     4  11  21  36  59  87 123 157 197 251 309 367
#     4  11  22  37  64  91 118 165 211 256 303 363
#     4   9  19  37  62  92 117 152 201 254 310 362
#     4  11  22  39  59  89 125 163 209 251 305 368
#     4  11  24  41  61  90 126 166 206 249 309 371
#     4  11  23  38  59  88 123 159 198 247 312 379
#     4  10  21  38  60  86 117 151 204 258 301 355
#     4  11  21  39  65  88 122 167 201 254 306 372
#
# _framework density 20.763983
#
# number of rings (size 3 to 8) (size 9 to 14) (size 15 to 20)
#    0.000    1.375    3.750    1.875    0.000    4.500 
#    0.000    0.000    0.000    0.375    0.000    0.000 
#    0.000    0.000    0.000    0.000    0.000    0.000 
#
# Total GULP energy -178376.138833 kJ/mol
# GULP energy per Si atom -5574.254339 kJ/mol
# Density = 2.071672 g / cm^3
# Si number density = 20.763983 Si / 1000 Ang^3
#
#
#
# Elastic Constant Matrix: (Units=GPa)
#
#
# Indices 1 2 3 4 5 6 
#
# 1 45.7866 23.9190 7.2001 -0.0013 0.4506 -0.0004
# 2 23.9190 142.6136 29.3813 0.0062 25.9655 0.0021
# 3 7.2001 29.3813 56.5391 0.0093 7.8476 0.0047
# 4 -0.0013 0.0062 0.0093 17.8953 0.0011 4.4312
# 5 0.4506 25.9655 7.8476 0.0011 28.3331 0.0010
# 6 -0.0004 0.0021 0.0047 4.4312 0.0010 -2.4825
#
#
#
# Elastic Compliance Matrix: (Units=1/GPa)
#
#
# Indices 1 2 3 4 5 6 
#
# 1 0.024399 -0.004583 -0.001305 0.000004 0.004174 -0.000001
# 2 -0.004583 0.009972 -0.003473 -0.000001 -0.008103 -0.000002
# 3 -0.001305 -0.003473 0.019982 -0.000012 -0.002330 0.000012
# 4 0.000004 -0.000001 -0.000012 0.038752 0.000000 0.069172
# 5 0.004174 -0.008103 -0.002330 0.000000 0.043300 0.000006
# 6 -0.000001 -0.000002 0.000012 0.069172 0.000006 -0.279346
#
#
# Mechanical properties :
#
#
# Convention : Reuss Voigt Hill
#
# Bulk Modulus (GPa) = 28.06688 40.66001 34.36344
# Shear Modulus (GPa) = -44.50665 21.04511 -11.73077
#
# Velocity S-wave (km/s) = -4.63477 3.18707 -2.37946
# Velocity P-wave (km/s) = 3.88523 5.75914 3.00605
#
# Compressibility (1/GPa) = 0.03562918
#
# Stress axis : x y z
#
# Youngs Moduli (GPa) = 40.98558 100.28453 50.04627
#
# Poissons Ratio (x) = 0.45963 0.06530
# Poissons Ratio (y) = 0.18785 0.17383
# Poissons Ratio (z) = 0.05347 0.34833
#
# Static dielectric constant tensor:
#      x y z
#    x 1.740160 0.000000 -0.022230 
#    y 0.000000 1.839260 0.000000 
#    z -0.022230 0.000000 1.757360 
# 
# From -- ./inp_files/290081.got.cif
#   From: 2010.05.17/outbox.cif.g08.bks.cpg/sg12_146_cif.got.tgz:290081.got - 2010.06.03 13:09:07.
