data_PCOD9208486
_publ_section_title
;
Structure prediction by ZEFSAII (Michael W. Deem and Ramdas Pophale) SiO2 
 PCOD9208486
Probable space group: C 2/M
;
_chemical_formula_sum "Si O2"
_cell_formula_units_Z 58
_cell_length_a 9.287681
_cell_length_b 17.387199
_cell_length_c 20.816316
_cell_angle_alpha 90.000000
_cell_angle_beta 67.358861
_cell_angle_gamma 90.000000
_cell_volume 3102.497616
_symmetry_space_group_name_H-M "C 2/M"
_symmetry_group_IT_number 12
_symmetry_cell_setting 'monoclinic'
loop_
_space_group_symop_operation_xyz
x,y,z
-x,y,-z
-x,-y,-z
x,-y,z
1/2+x,1/2+y,z
1/2-x,1/2+y,-z
1/2-x,1/2-y,-z
1/2+x,1/2-y,z
loop_
_atom_site_type_symbol
_atom_site_label
_atom_site_fract_x
_atom_site_fract_y
_atom_site_fract_z
Si Si1 0.323878 0.830156 0.508225
Si Si2 0.716195 0.815673 0.709587
Si Si3 0.411742 0.908803 0.747516
Si Si4 0.259521 0.588012 0.350880
Si Si5 0.417180 0.413859 0.142223
Si Si6 0.991800 0.829474 0.756154
Si Si7 0.000000 0.000000 0.000000
Si Si8 0.157084 0.909656 0.430294
O O1 0.500000 0.819621 0.500000
O O2 0.250000 0.750000 0.500000
O O3 0.241274 0.863578 0.584846
O O4 0.298078 0.890232 0.454947
O O5 0.573900 0.874813 0.741916
O O6 0.619305 0.736742 0.719022
O O7 0.817592 0.849417 0.632403
O O8 0.830433 0.809383 0.750480
O O9 0.360947 0.884809 0.683993
O O10 0.263967 0.889742 0.818150
O O11 0.425746 0.000000 0.743586
O O12 0.223282 0.500000 0.372576
O O13 0.430282 0.596912 0.291253
O O14 0.427514 0.500000 0.171252
O O15 0.513210 0.352890 0.168125
O O16 0.466381 0.433144 0.061506
O O17 0.000000 0.896934 0.500000
O O18 0.158785 0.000000 0.410275
#
# Coordination Sequence:
#
# PCOD9208486 Si02
#       8
#     8   8   8   8   8   8   2   8
#     4  12  25  39  55  76 106 147 196 249 311 374
#     4  12  24  37  58  84 121 164 205 265 304 348
#     4   9  18  35  59  89 118 152 200 248 298 354
#     4  10  21  38  58  78 107 144 193 252 302 358
#     4   8  17  35  64  97 124 159 190 229 287 357
#     4  11  22  37  57  86 119 154 204 243 294 353
#     4   8  16  36  72 102 132 164 184 226 294 356
#     4  11  25  43  60  83 115 155 207 262 329 378
#
# _framework density 18.694614000000001
#
# number of rings (size 3 to 8) (size 9 to 14) (size 15 to 20)
#    0.414    1.241    0.000    6.621    0.000    7.724 
#    0.000    0.000    0.000    4.966    0.000    0.000 
#    0.000    0.000    0.000    0.000    0.000    0.000 
#
# Total GULP energy -161449.066976 kJ/mol
# GULP energy per Si atom -5567.209206 kJ/mol
# Density = 1.865206 g / cm^3
# Si number density = 18.694614 Si / 1000 Ang^3
#
#
#
# Elastic Constant Matrix: (Units=GPa)
#
#
# Indices 1 2 3 4 5 6 
#
# 1 124.5577 33.3781 31.9598 0.0000 8.1507 0.0000
# 2 33.3781 72.3885 43.0430 0.0000 8.8668 0.0000
# 3 31.9598 43.0430 126.9263 0.0000 15.2862 0.0000
# 4 0.0000 0.0000 0.0000 19.0639 0.0000 1.0524
# 5 8.1507 8.8668 15.2862 0.0000 6.7787 0.0000
# 6 0.0000 0.0000 0.0000 1.0524 0.0000 31.3894
#
#
#
# Elastic Compliance Matrix: (Units=1/GPa)
#
#
# Indices 1 2 3 4 5 6 
#
# 1 0.009436 -0.003314 -0.000560 0.000000 -0.005749 0.000000
# 2 -0.003314 0.019331 -0.004332 0.000000 -0.011532 0.000000
# 3 -0.000560 -0.004332 0.011978 0.000000 -0.020672 0.000000
# 4 0.000000 0.000000 0.000000 0.052553 0.000000 -0.001762
# 5 -0.005749 -0.011532 -0.020672 0.000000 0.216134 0.000000
# 6 0.000000 0.000000 0.000000 -0.001762 0.000000 0.031917
#
#
# Mechanical properties :
#
#
# Convention : Reuss Voigt Hill
#
# Bulk Modulus (GPa) = 41.09575 60.07045 50.58310
# Shear Modulus (GPa) = 13.66599 25.81249 19.73924
#
# Velocity S-wave (km/s) = 2.70666 3.71987 3.25295
# Velocity P-wave (km/s) = 5.63900 7.11703 6.42069
#
# Compressibility (1/GPa) = 0.02433342
#
# Stress axis : x y z
#
# Youngs Moduli (GPa) = 105.97369 51.73069 83.48477
#
# Poissons Ratio (x) = 0.17143 0.04674
# Poissons Ratio (y) = 0.35119 0.36167
# Poissons Ratio (z) = 0.05933 0.22411
#
# Static dielectric constant tensor:
#      x y z
#    x 2.212020 0.000000 -0.144640 
#    y 0.000000 1.729630 0.000000 
#    z -0.144640 0.000000 1.701460 
# 
# From -- ./inp_files/300741.got.cif
#   From: 2010.05.17/outbox.cif.g08.bks.cpg/sg12_151_cif.got.tgz:300741.got - 2010.06.03 13:09:07.
