data_PCOD9208369
_publ_section_title
;
Structure prediction by ZEFSAII (Michael W. Deem and Ramdas Pophale) SiO2 
 PCOD9208369
Probable space group: C 2/M
;
_chemical_formula_sum "Si O2"
_cell_formula_units_Z 56
_cell_length_a 19.933128
_cell_length_b 11.672034
_cell_length_c 20.277641
_cell_angle_alpha 90.000000
_cell_angle_beta 41.981468
_cell_angle_gamma 90.000000
_cell_volume 3155.689509
_symmetry_space_group_name_H-M "C 2/M"
_symmetry_group_IT_number 12
_symmetry_cell_setting 'monoclinic'
loop_
_space_group_symop_operation_xyz
x,y,z
-x,y,-z
-x,-y,-z
x,-y,z
1/2+x,1/2+y,z
1/2-x,1/2+y,-z
1/2-x,1/2-y,-z
1/2+x,1/2-y,z
loop_
_atom_site_type_symbol
_atom_site_label
_atom_site_fract_x
_atom_site_fract_y
_atom_site_fract_z
Si Si1 0.474238 0.361853 0.699190
Si Si2 0.199049 0.626036 0.018367
Si Si3 0.414685 0.635101 0.011844
Si Si4 0.912528 0.861049 0.514086
Si Si5 0.801028 0.633780 0.274753
Si Si6 0.996457 0.745945 0.822830
Si Si7 0.746210 0.191280 0.839990
O O1 0.464376 0.500000 0.709018
O O2 0.554551 0.332125 0.584036
O O3 0.501301 0.312463 0.750545
O O4 0.365999 0.312578 0.756975
O O5 0.237621 0.500000 0.013773
O O6 0.084326 0.643221 0.124022
O O7 0.250000 0.750000 0.000000
O O8 0.207591 0.624229 0.932794
O O9 0.411994 0.500000 0.017625
O O10 0.448452 0.674763 0.914886
O O11 0.500000 0.679428 0.000000
O O12 0.308051 0.687163 0.110331
O O13 0.802810 0.822646 0.616918
O O14 0.000000 0.821649 0.500000
O O15 0.911071 0.000000 0.519734
O O16 0.813541 0.500000 0.282334
O O17 0.896580 0.702282 0.230777
O O18 0.787961 0.643746 0.205405
#
# Coordination Sequence:
#
# PCOD9208369 Si02
#       7
#     8   8   8   8   8   8   8
#     4  11  21  37  59  86 116 148 190 246 297 348
#     4  11  23  37  56  84 121 159 199 244 294 357
#     4  10  21  38  55  80 117 155 198 236 280 356
#     4   9  18  33  58  87 112 143 189 242 296 347
#     4  11  21  37  59  84 116 147 189 246 296 347
#     4  11  23  37  54  84 119 154 194 233 301 348
#     4  11  21  36  59  86 110 149 196 238 296 338
#
# _framework density 17.745726000000001
#
# number of rings (size 3 to 8) (size 9 to 14) (size 15 to 20)
#    0.000    1.429    4.286    2.143    0.000    2.857 
#    0.000    2.143    0.000    0.000    0.000    5.000 
#    0.000    0.000    0.000    0.000    0.000    0.000 
#
# Total GULP energy -156160.007399 kJ/mol
# GULP energy per Si atom -5577.143121 kJ/mol
# Density = 1.770534 g / cm^3
# Si number density = 17.745726 Si / 1000 Ang^3
#
#
#
# Elastic Constant Matrix: (Units=GPa)
#
#
# Indices 1 2 3 4 5 6 
#
# 1 116.8315 38.0547 54.1773 0.0000 -3.3769 0.0000
# 2 38.0547 82.9876 39.0295 0.0000 -5.6135 0.0000
# 3 54.1773 39.0295 129.4936 0.0000 -3.5033 0.0000
# 4 0.0000 0.0000 0.0000 23.5885 0.0000 5.6216
# 5 -3.3769 -5.6135 -3.5033 0.0000 35.3850 0.0000
# 6 0.0000 0.0000 0.0000 5.6216 0.0000 28.1327
#
#
#
# Elastic Compliance Matrix: (Units=1/GPa)
#
#
# Indices 1 2 3 4 5 6 
#
# 1 0.011425 -0.003474 -0.003728 0.000000 0.000170 0.000000
# 2 -0.003474 0.015214 -0.003084 0.000000 0.001777 0.000000
# 3 -0.003728 -0.003084 0.010216 0.000000 0.000166 0.000000
# 4 0.000000 0.000000 0.000000 0.044513 0.000000 -0.008895
# 5 0.000170 0.001777 0.000166 0.000000 0.028575 0.000000
# 6 0.000000 0.000000 0.000000 -0.008895 0.000000 0.037323
#
#
# Mechanical properties :
#
#
# Convention : Reuss Voigt Hill
#
# Bulk Modulus (GPa) = 61.41635 65.75952 63.58793
# Shear Modulus (GPa) = 28.85745 30.62466 29.74106
#
# Velocity S-wave (km/s) = 4.03695 4.15872 4.09829
# Velocity P-wave (km/s) = 7.51089 7.75867 7.63578
#
# Compressibility (1/GPa) = 0.01628231
#
# Stress axis : x y z
#
# Youngs Moduli (GPa) = 87.53019 65.73079 97.88424
#
# Poissons Ratio (x) = 0.22835 0.36493
# Poissons Ratio (y) = 0.30408 0.30186
# Poissons Ratio (z) = 0.32633 0.20271
#
# Static dielectric constant tensor:
#      x y z
#    x 1.640270 0.000000 -0.007780 
#    y 0.000000 1.616270 0.000000 
#    z -0.007780 0.000000 1.603350 
# 
# From -- ./inp_files/320902.got.cif
#   From: 2010.05.17/outbox.cif.g08.bks.cpg/sg12_161_cif.got.tgz:320902.got - 2010.06.03 13:09:07.
