data_PCOD9208530
_publ_section_title
;
Structure prediction by ZEFSAII (Michael W. Deem and Ramdas Pophale) SiO2 
 PCOD9208530
Probable space group: C 2/M
;
_chemical_formula_sum "Si O2"
_cell_formula_units_Z 56
_cell_length_a 14.694992
_cell_length_b 14.765554
_cell_length_c 17.306662
_cell_angle_alpha 90.000000
_cell_angle_beta 48.326885
_cell_angle_gamma 90.000000
_cell_volume 2804.943305
_symmetry_space_group_name_H-M "C 2/M"
_symmetry_group_IT_number 12
_symmetry_cell_setting 'monoclinic'
loop_
_space_group_symop_operation_xyz
x,y,z
-x,y,-z
-x,-y,-z
x,-y,z
1/2+x,1/2+y,z
1/2-x,1/2+y,-z
1/2-x,1/2-y,-z
1/2+x,1/2-y,z
loop_
_atom_site_type_symbol
_atom_site_label
_atom_site_fract_x
_atom_site_fract_y
_atom_site_fract_z
Si Si1 0.037652 0.105284 0.606202
Si Si2 0.552139 0.287047 0.205586
Si Si3 0.634068 0.900929 0.129066
Si Si4 0.298973 0.605586 0.632725
Si Si5 0.139804 0.101283 0.900572
Si Si6 0.308192 0.106959 0.078456
Si Si7 0.375440 0.232536 0.179979
O O1 0.142289 0.122894 0.484135
O O2 0.035145 0.168062 0.682170
O O3 0.909412 0.115773 0.632371
O O4 0.045398 0.000000 0.625040
O O5 0.577590 0.181635 0.207028
O O6 0.677144 0.344543 0.139507
O O7 0.492134 0.278153 0.155035
O O8 0.776764 0.899340 0.070504
O O9 0.585446 0.000000 0.177260
O O10 0.625056 0.889270 0.042046
O O11 0.259753 0.500000 0.658322
O O12 0.195407 0.675304 0.715408
O O13 0.190420 0.178785 0.816611
O O14 0.144797 0.000000 0.864206
O O15 0.000000 0.121388 0.000000
O O16 0.375830 0.163212 0.107229
O O17 0.294604 0.000000 0.106262
#
# Coordination Sequence:
#
# PCOD9208530 Si02
#       7
#     8   8   8   8   8   8   8
#     4   9  18  36  65  90 116 153 200 253 303 356
#     4  12  23  36  60  90 121 157 202 245 303 362
#     4  10  22  39  57  80 120 164 202 245 300 357
#     4   9  18  37  62  91 120 153 197 251 307 358
#     4  10  21  38  58  82 116 162 211 251 290 348
#     4  11  23  41  62  87 122 163 207 256 297 349
#     4  12  24  34  62  91 124 157 200 247 305 363
#
# _framework density 19.964753000000002
#
# number of rings (size 3 to 8) (size 9 to 14) (size 15 to 20)
#    0.000    1.571    2.857    3.000    2.000    4.000 
#    0.000    1.429    0.000    0.857    0.000    4.000 
#    0.000    0.000    0.000    0.000    0.000    0.000 
#
# Total GULP energy -156217.928859 kJ/mol
# GULP energy per Si atom -5579.211745 kJ/mol
# Density = 1.991931 g / cm^3
# Si number density = 19.964753 Si / 1000 Ang^3
#
#
#
# Elastic Constant Matrix: (Units=GPa)
#
#
# Indices 1 2 3 4 5 6 
#
# 1 105.2588 41.6192 16.9343 0.0000 12.1158 0.0000
# 2 41.6192 162.6327 72.0683 0.0000 20.6508 0.0000
# 3 16.9343 72.0683 51.9577 0.0000 5.0100 0.0000
# 4 0.0000 0.0000 0.0000 36.4142 0.0000 -2.1407
# 5 12.1158 20.6508 5.0100 0.0000 17.8856 0.0000
# 6 0.0000 0.0000 0.0000 -2.1407 0.0000 9.5147
#
#
#
# Elastic Compliance Matrix: (Units=1/GPa)
#
#
# Indices 1 2 3 4 5 6 
#
# 1 0.010924 -0.002080 -0.000199 0.000000 -0.004943 0.000000
# 2 -0.002080 0.019670 -0.025234 0.000000 -0.014235 0.000000
# 3 -0.000199 -0.025234 0.052919 0.000000 0.014446 0.000000
# 4 0.000000 0.000000 0.000000 0.027830 0.000000 0.006261
# 5 -0.004943 -0.014235 0.014446 0.000000 0.071648 0.000000
# 6 0.000000 0.000000 0.000000 0.006261 0.000000 0.106509
#
#
# Mechanical properties :
#
#
# Convention : Reuss Voigt Hill
#
# Bulk Modulus (GPa) = 35.10237 64.56588 49.83412
# Shear Modulus (GPa) = 14.12348 25.37807 19.75077
#
# Velocity S-wave (km/s) = 2.66262 3.56918 3.14870
# Velocity P-wave (km/s) = 5.20318 7.02819 6.18339
#
# Compressibility (1/GPa) = 0.02848811
#
# Stress axis : x y z
#
# Youngs Moduli (GPa) = 91.54459 50.83783 18.89684
#
# Poissons Ratio (x) = 0.10572 0.00377
# Poissons Ratio (y) = 0.19037 0.47684
# Poissons Ratio (z) = 0.01824 1.28282
#
# Static dielectric constant tensor:
#      x y z
#    x 1.771710 0.000000 -0.026560 
#    y 0.000000 1.714400 0.000000 
#    z -0.026560 0.000000 1.699910 
# 
# From -- ./inp_files/270181.got.cif
#   From: 2010.05.17/outbox.cif.g08.bks.cpg/sg12_136_cif.got.tgz:270181.got - 2010.06.03 13:09:07.
