data_PCOD9208463
_publ_section_title
;
Structure prediction by ZEFSAII (Michael W. Deem and Ramdas Pophale) SiO2 
 PCOD9208463
Probable space group: C 2/M
;
_chemical_formula_sum "Si O2"
_cell_formula_units_Z 64
_cell_length_a 19.714256
_cell_length_b 11.403419
_cell_length_c 32.257283
_cell_angle_alpha 90.000000
_cell_angle_beta 152.207743
_cell_angle_gamma 90.000000
_cell_volume 3381.255776
_symmetry_space_group_name_H-M "C 2/M"
_symmetry_group_IT_number 12
_symmetry_cell_setting 'monoclinic'
loop_
_space_group_symop_operation_xyz
x,y,z
-x,y,-z
-x,-y,-z
x,-y,z
1/2+x,1/2+y,z
1/2-x,1/2+y,-z
1/2-x,1/2-y,-z
1/2+x,1/2-y,z
loop_
_atom_site_type_symbol
_atom_site_label
_atom_site_fract_x
_atom_site_fract_y
_atom_site_fract_z
Si Si1 0.332896 0.142631 0.913859
Si Si2 0.510217 0.810953 0.864324
Si Si3 0.974422 0.723872 0.597721
Si Si4 0.287836 0.370143 0.066364
Si Si5 0.814672 0.367957 0.684692
Si Si6 0.697946 0.865548 0.417999
Si Si7 0.870453 0.368958 0.396394
Si Si8 0.741193 0.360949 0.773541
O O1 0.256470 0.188605 0.913978
O O2 0.249863 0.169516 0.826662
O O3 0.339258 0.000000 0.921138
O O4 0.500000 0.182219 0.000000
O O5 0.586563 0.692960 0.890694
O O6 0.447585 0.868814 0.788813
O O7 0.373370 0.799939 0.820780
O O8 0.640271 0.872985 0.959523
O O9 0.834032 0.780013 0.499579
O O10 0.919642 0.663301 0.610243
O O11 0.056793 0.642120 0.609532
O O12 0.088831 0.824038 0.672050
O O13 0.338122 0.500000 0.103028
O O14 0.743887 0.500000 0.650246
O O15 0.854256 0.353697 0.657684
O O16 0.723189 0.250451 0.647181
O O17 0.745966 0.000000 0.449550
O O18 0.800492 0.500000 0.362594
O O19 0.000000 0.364580 0.500000
O O20 0.766192 0.500000 0.782664
#
# Coordination Sequence:
#
# PCOD9208463 Si02
#       8
#     8   8   8   8   8   8   8   8
#     4   9  17  32  56  81 114 153 190 243 301 353
#     4  11  22  35  59  90 118 157 196 250 302 354
#     4  11  22  39  62  85 116 160 199 247 300 364
#     4  10  21  38  57  85 122 159 197 242 306 367
#     4  11  23  40  62  88 120 159 205 250 297 360
#     4  10  23  41  59  84 119 160 201 244 300 364
#     4  11  23  40  61  90 122 157 199 251 307 356
#     4  11  21  35  58  89 116 149 204 257 298 350
#
# _framework density 18.927879000000001
#
# number of rings (size 3 to 8) (size 9 to 14) (size 15 to 20)
#    0.000    1.500    3.750    1.875    1.750    1.250 
#    0.000    0.625    0.000    0.000    0.000    1.750 
#    0.000    0.000    0.000    0.000    0.000    0.000 
#
# Total GULP energy -178371.496000 kJ/mol
# GULP energy per Si atom -5574.109250 kJ/mol
# Density = 1.888480 g / cm^3
# Si number density = 18.927879 Si / 1000 Ang^3
#
#
#
# Elastic Constant Matrix: (Units=GPa)
#
#
# Indices 1 2 3 4 5 6 
#
# 1 114.7238 46.8353 35.2516 0.0000 -22.7024 0.0000
# 2 46.8353 73.5182 10.6342 0.0002 2.0067 0.0001
# 3 35.2516 10.6342 67.3606 0.0006 -18.6293 0.0002
# 4 0.0000 0.0002 0.0006 27.9925 0.0000 21.8960
# 5 -22.7024 2.0067 -18.6293 0.0000 27.1583 0.0000
# 6 0.0000 0.0001 0.0002 21.8960 0.0000 52.1248
#
#
#
# Elastic Compliance Matrix: (Units=1/GPa)
#
#
# Indices 1 2 3 4 5 6 
#
# 1 0.016380 -0.010232 -0.003654 0.000000 0.011942 0.000000
# 2 -0.010232 0.020531 -0.000829 0.000000 -0.010639 0.000000
# 3 -0.003654 -0.000829 0.019821 -0.000001 0.010603 0.000000
# 4 0.000000 0.000000 -0.000001 0.053206 0.000000 -0.022350
# 5 0.011942 -0.010639 0.010603 0.000000 0.054863 0.000000
# 6 0.000000 0.000000 0.000000 -0.022350 0.000000 0.028573
#
#
# Mechanical properties :
#
#
# Convention : Reuss Voigt Hill
#
# Bulk Modulus (GPa) = 36.62770 49.00495 42.81633
# Shear Modulus (GPa) = 21.56058 32.31391 26.93725
#
# Velocity S-wave (km/s) = 3.37870 4.13633 3.77656
# Velocity P-wave (km/s) = 5.88337 6.98275 6.45650
#
# Compressibility (1/GPa) = 0.02730174
#
# Stress axis : x y z
#
# Youngs Moduli (GPa) = 61.05089 48.70706 50.45190
#
# Poissons Ratio (x) = 0.49838 0.18435
# Poissons Ratio (y) = 0.62469 0.04181
# Poissons Ratio (z) = 0.22308 0.04036
#
# Static dielectric constant tensor:
#      x y z
#    x 1.663960 0.000000 -0.011670 
#    y 0.000000 1.672020 0.000000 
#    z -0.011670 0.000000 1.645420 
# 
# From -- ./inp_files/379107.got.cif
#   From: 2010.05.17/outbox.cif.g08.bks.cpg/sg12_190_cif.got.tgz:379107.got - 2010.06.03 13:09:07.
