data_PCOD9208289
_publ_section_title
;
Structure prediction by ZEFSAII (Michael W. Deem and Ramdas Pophale) SiO2 
 PCOD9208289
Probable space group: C 2/M
;
_chemical_formula_sum "Si O2"
_cell_formula_units_Z 42
_cell_length_a 25.787780
_cell_length_b 7.720495
_cell_length_c 16.547885
_cell_angle_alpha 90.000000
_cell_angle_beta 34.375932
_cell_angle_gamma 90.000000
_cell_volume 1860.193510
_symmetry_space_group_name_H-M "C 2/M"
_symmetry_group_IT_number 12
_symmetry_cell_setting 'monoclinic'
loop_
_space_group_symop_operation_xyz
x,y,z
-x,y,-z
-x,-y,-z
x,-y,z
1/2+x,1/2+y,z
1/2-x,1/2+y,-z
1/2-x,1/2-y,-z
1/2+x,1/2-y,z
loop_
_atom_site_type_symbol
_atom_site_label
_atom_site_fract_x
_atom_site_fract_y
_atom_site_fract_z
Si Si1 0.853242 0.792932 0.343440
Si Si2 0.470217 0.701966 0.341454
Si Si3 0.662068 0.801213 0.165693
Si Si4 0.874117 0.206399 0.130822
Si Si5 0.166512 0.293256 0.339118
Si Si6 0.000000 0.500000 0.000000
O O1 0.750000 0.750000 0.500000
O O2 0.863057 0.736839 0.238792
O O3 0.725604 0.729264 0.780489
O O4 0.863659 0.000000 0.329087
O O5 0.489036 0.500000 0.302625
O O6 0.567351 0.782386 0.239648
O O7 0.421214 0.776546 0.324637
O O8 0.398396 0.716413 0.508002
O O9 0.650096 0.719588 0.270337
O O10 0.678790 0.000000 0.163290
O O11 0.750000 0.750000 0.000000
O O12 0.898216 0.000000 0.092789
O O13 0.949821 0.344914 0.008419
O O14 0.146773 0.500000 0.368410
#
# Coordination Sequence:
#
# PCOD9208289 Si02
#       6
#     8   8   8   8   8   2
#     4  10  21  37  64  95 132 166 210 267 330 388
#     4  11  23  39  66 101 130 165 218 271 324 396
#     4  11  25  45  65  91 128 171 219 269 333 399
#     4  10  23  44  65  96 138 177 214 280 334 386
#     4  10  22  42  68  93 127 172 217 270 332 389
#     4  12  26  40  64  98 134 176 236 258 328 428
#
# _framework density 22.578298
#
# number of rings (size 3 to 8) (size 9 to 14) (size 15 to 20)
#    0.000    1.524    1.905    2.000    2.667    6.095 
#    3.429    5.714    0.000    0.000    0.000    0.000 
#    0.000    0.000    0.000    0.000    0.000    0.000 
#
# Total GULP energy -117048.060498 kJ/mol
# GULP energy per Si atom -5573.717167 kJ/mol
# Density = 2.252691 g / cm^3
# Si number density = 22.578298 Si / 1000 Ang^3
#
#
#
# Elastic Constant Matrix: (Units=GPa)
#
#
# Indices 1 2 3 4 5 6 
#
# 1 140.7486 -7.5419 32.1640 -0.0007 7.8422 0.0006
# 2 -7.5419 49.8714 -0.5775 0.0001 -2.0277 -0.0016
# 3 32.1640 -0.5775 35.4381 -0.0030 -3.7126 0.0006
# 4 -0.0007 0.0001 -0.0030 20.0954 0.0009 -11.4568
# 5 7.8422 -2.0277 -3.7126 0.0009 39.3100 -0.0002
# 6 0.0006 -0.0016 0.0006 -11.4568 -0.0002 26.0019
#
#
#
# Elastic Compliance Matrix: (Units=1/GPa)
#
#
# Indices 1 2 3 4 5 6 
#
# 1 0.009302 0.001200 -0.008697 -0.000001 -0.002615 -0.000001
# 2 0.001200 0.020255 -0.000681 0.000001 0.000741 0.000002
# 3 -0.008697 -0.000681 0.036642 0.000006 0.005161 0.000002
# 4 -0.000001 0.000001 0.000006 0.066457 0.000000 0.029282
# 5 -0.002615 0.000741 0.005161 0.000000 0.026486 0.000000
# 6 -0.000001 0.000002 0.000002 0.029282 0.000000 0.051361
#
#
# Mechanical properties :
#
#
# Convention : Reuss Voigt Hill
#
# Bulk Modulus (GPa) = 20.06355 30.46080 25.26218
# Shear Modulus (GPa) = 20.53607 30.54904 25.54255
#
# Velocity S-wave (km/s) = 3.01914 3.68234 3.36711
# Velocity P-wave (km/s) = 4.58902 5.62139 5.13123
#
# Compressibility (1/GPa) = 0.04984162
#
# Stress axis : x y z
#
# Youngs Moduli (GPa) = 107.49887 49.36990 27.29138
#
# Poissons Ratio (x) = -0.05923 0.23736
# Poissons Ratio (y) = -0.12897 0.01859
# Poissons Ratio (z) = 0.93496 0.03363
#
# Static dielectric constant tensor:
#      x y z
#    x 1.846240 0.000000 0.040940 
#    y 0.000000 1.869110 0.000000 
#    z 0.040940 0.000000 1.905340 
# 
# From -- ./inp_files/243485.got.cif
#   From: 2010.05.17/outbox.cif.g08.bks.cpg/sg12_122_cif.got.tgz:243485.got - 2010.06.03 13:09:07.
