data_PCOD9209480
_publ_section_title
;
Structure prediction by ZEFSAII (Michael W. Deem and Ramdas Pophale) SiO2 
 PCOD9209480
Probable space group: C 2/M
;
_chemical_formula_sum "Si O2"
_cell_formula_units_Z 48
_cell_length_a 15.400111
_cell_length_b 8.371311
_cell_length_c 15.319204
_cell_angle_alpha 90.000000
_cell_angle_beta 90.425305
_cell_angle_gamma 90.000000
_cell_volume 1974.883868
_symmetry_space_group_name_H-M "C 2/M"
_symmetry_group_IT_number 12
_symmetry_cell_setting 'monoclinic'
loop_
_space_group_symop_operation_xyz
x,y,z
-x,y,-z
-x,-y,-z
x,-y,z
1/2+x,1/2+y,z
1/2-x,1/2+y,-z
1/2-x,1/2-y,-z
1/2+x,1/2-y,z
loop_
_atom_site_type_symbol
_atom_site_label
_atom_site_fract_x
_atom_site_fract_y
_atom_site_fract_z
Si Si1 0.495216 0.316827 0.876520
Si Si2 0.170842 0.692236 0.793270
Si Si3 0.814917 0.193446 0.925147
Si Si4 0.415541 0.177531 0.711829
Si Si5 0.595938 0.817081 0.612159
Si Si6 0.167232 0.185165 0.448814
O O1 0.514451 0.500000 0.898788
O O2 0.586773 0.235375 0.852929
O O3 0.416038 0.252803 0.937427
O O4 0.440065 0.304048 0.785789
O O5 0.172873 0.500000 0.788215
O O6 0.260789 0.746815 0.838164
O O7 0.151908 0.749144 0.694528
O O8 0.818329 0.000000 0.924998
O O9 0.750000 0.250000 0.000000
O O10 0.500995 0.173141 0.652033
O O11 0.343973 0.223928 0.641798
O O12 0.404665 0.000000 0.750337
O O13 0.597134 0.718843 0.523731
O O14 0.623654 0.000000 0.592073
O O15 0.250000 0.250000 0.500000
O O16 0.170703 0.000000 0.428572
#
# Coordination Sequence:
#
# PCOD9209480 Si02
#       6
#     8   8   8   8   8   8
#     4  10  21  38  62  92 122 156 200 251 301 352
#     4   9  20  40  63  87 120 162 200 241 302 364
#     4  10  23  41  62  90 122 159 197 242 303 362
#     4  10  21  39  61  85 114 154 196 239 296 354
#     4   9  19  37  60  82 112 152 193 240 295 351
#     4  12  25  37  53  82 118 155 199 246 292 344
#
# _framework density 24.305226000000001
#
# number of rings (size 3 to 8) (size 9 to 14) (size 15 to 20)
#    0.000    2.000    0.000    4.000    2.333    8.000 
#    0.000    3.333    0.000    0.000    0.000    0.000 
#    0.000    0.000    0.000    0.000    0.000    0.000 
#
# Total GULP energy -134032.950706 kJ/mol
# GULP energy per Si atom -5584.706279 kJ/mol
# Density = 2.424991 g / cm^3
# Si number density = 24.305226 Si / 1000 Ang^3
#
#
#
# Elastic Constant Matrix: (Units=GPa)
#
#
# Indices 1 2 3 4 5 6 
#
# 1 126.5299 -3.8251 -11.3301 0.0000 -7.0601 0.0000
# 2 -3.8251 41.1092 -0.5385 0.0000 -0.8597 0.0000
# 3 -11.3301 -0.5385 53.8864 0.0000 5.1652 0.0000
# 4 0.0000 0.0000 0.0000 27.8970 0.0000 -4.9113
# 5 -7.0601 -0.8597 5.1652 0.0000 42.4713 0.0000
# 6 0.0000 0.0000 0.0000 -4.9113 0.0000 22.8079
#
#
#
# Elastic Compliance Matrix: (Units=1/GPa)
#
#
# Indices 1 2 3 4 5 6 
#
# 1 0.008137 0.000803 0.001606 0.000000 0.001173 0.000000
# 2 0.000803 0.024417 0.000357 0.000000 0.000584 0.000000
# 3 0.001606 0.000357 0.019095 0.000000 -0.002048 0.000000
# 4 0.000000 0.000000 0.000000 0.037259 0.000000 0.008023
# 5 0.001173 0.000584 -0.002048 0.000000 0.024001 0.000000
# 6 0.000000 0.000000 0.000000 0.008023 0.000000 0.045572
#
#
# Mechanical properties :
#
#
# Convention : Reuss Voigt Hill
#
# Bulk Modulus (GPa) = 17.48837 21.12643 19.30740
# Shear Modulus (GPa) = 29.06814 34.44986 31.75900
#
# Velocity S-wave (km/s) = 3.46202 3.76890 3.61872
# Velocity P-wave (km/s) = 4.81578 5.25837 5.04193
#
# Compressibility (1/GPa) = 0.05718087
#
# Stress axis : x y z
#
# Youngs Moduli (GPa) = 122.89749 40.95498 52.36923
#
# Poissons Ratio (x) = -0.03287 -0.08413
# Poissons Ratio (y) = -0.09865 -0.01868
# Poissons Ratio (z) = -0.19742 -0.01461
#
# Static dielectric constant tensor:
#      x y z
#    x 1.252930 0.000000 1.140650 
#    y 0.000000 1.885810 0.000000 
#    z 1.140650 0.000000 0.339520 
# 
# From -- ./inp_files/267701.got.cif
#   From: 2010.05.17/outbox.cif.g08.bks.cpg/sg12_134_cif.got.tgz:267701.got - 2010.06.03 13:09:07.
