data_PCOD9209267
_publ_section_title
;
Structure prediction by ZEFSAII (Michael W. Deem and Ramdas Pophale) SiO2 
 PCOD9209267
Probable space group: C 2/M
;
_chemical_formula_sum "Si O2"
_cell_formula_units_Z 44
_cell_length_a 14.163634
_cell_length_b 11.403838
_cell_length_c 19.038710
_cell_angle_alpha 90.000000
_cell_angle_beta 145.556638
_cell_angle_gamma 90.000000
_cell_volume 1739.265853
_symmetry_space_group_name_H-M "C 2/M"
_symmetry_group_IT_number 12
_symmetry_cell_setting 'monoclinic'
loop_
_space_group_symop_operation_xyz
x,y,z
-x,y,-z
-x,-y,-z
x,-y,z
1/2+x,1/2+y,z
1/2-x,1/2+y,-z
1/2-x,1/2-y,-z
1/2+x,1/2-y,z
loop_
_atom_site_type_symbol
_atom_site_label
_atom_site_fract_x
_atom_site_fract_y
_atom_site_fract_z
Si Si1 0.245350 0.638937 0.613918
Si Si2 0.587585 0.241897 0.799056
Si Si3 0.793707 0.243574 0.796515
Si Si4 0.250000 0.750000 0.500000
Si Si5 0.394484 0.867932 0.044035
Si Si6 0.820651 0.000000 0.308922
Si Si7 0.282935 0.500000 0.448569
O O1 0.235601 0.500000 0.604875
O O2 0.409881 0.693821 0.670618
O O3 0.262873 0.679790 0.703814
O O4 0.121003 0.714174 0.491085
O O5 0.692058 0.191210 0.798718
O O6 0.572077 0.149666 0.852553
O O7 0.704174 0.341527 0.906536
O O8 0.735733 0.378964 0.759723
O O9 0.993098 0.265644 0.921198
O O10 0.219874 0.615005 0.449001
O O11 0.435193 0.000000 0.047466
O O12 0.752497 0.000000 0.346621
O O13 0.017926 0.000000 0.425625
#
# Coordination Sequence:
#
# PCOD9209267 Si02
#       7
#     8   8   8   4   8   4   4
#     4  11  24  41  63  90 127 167 210 262 321 380
#     4  10  23  39  60  91 125 163 208 254 317 380
#     4  11  22  38  63  93 125 161 209 257 312 373
#     4  12  22  42  64  96 120 168 206 268 310 382
#     4  10  21  38  61  91 124 162 207 257 308 374
#     4  11  22  40  61  94 120 165 208 261 308 388
#     4  11  24  40  70  87 130 165 213 260 329 370
#
# _framework density 25.298027999999999
#
# number of rings (size 3 to 8) (size 9 to 14) (size 15 to 20)
#    0.000    1.273    3.636    2.182    2.545    1.455 
#    0.000    0.000    6.000   12.000    0.000    0.000 
#    0.000    0.000    0.000    0.000    0.000    0.000 
#
# Total GULP energy -122732.641065 kJ/mol
# GULP energy per Si atom -5578.756412 kJ/mol
# Density = 2.524045 g / cm^3
# Si number density = 25.298028 Si / 1000 Ang^3
#
#
#
# Elastic Constant Matrix: (Units=GPa)
#
#
# Indices 1 2 3 4 5 6 
#
# 1 134.7232 17.5072 10.4482 0.0001 -24.9451 0.0000
# 2 17.5072 134.4597 3.7187 0.0001 -12.4914 0.0000
# 3 10.4482 3.7187 69.3906 0.0002 7.3437 0.0001
# 4 0.0001 0.0001 0.0002 22.5790 0.0001 0.7272
# 5 -24.9451 -12.4914 7.3437 0.0001 49.5946 0.0000
# 6 0.0000 0.0000 0.0001 0.7272 0.0000 14.0721
#
#
#
# Elastic Compliance Matrix: (Units=1/GPa)
#
#
# Indices 1 2 3 4 5 6 
#
# 1 0.008441 -0.000650 -0.001695 0.000000 0.004333 0.000000
# 2 -0.000650 0.007692 -0.000493 0.000000 0.001684 0.000000
# 3 -0.001695 -0.000493 0.015032 0.000000 -0.003202 0.000000
# 4 0.000000 0.000000 0.000000 0.044363 0.000000 -0.002293
# 5 0.004333 0.001684 -0.003202 0.000000 0.023241 0.000000
# 6 0.000000 0.000000 0.000000 -0.002293 0.000000 0.071181
#
#
# Mechanical properties :
#
#
# Convention : Reuss Voigt Hill
#
# Bulk Modulus (GPa) = 39.23040 44.65797 41.94419
# Shear Modulus (GPa) = 27.15632 37.70912 32.43272
#
# Velocity S-wave (km/s) = 3.27992 3.86501 3.58442
# Velocity P-wave (km/s) = 5.46670 6.13260 5.80920
#
# Compressibility (1/GPa) = 0.02549044
#
# Stress axis : x y z
#
# Youngs Moduli (GPa) = 118.47324 130.00890 66.52643
#
# Poissons Ratio (x) = 0.08446 0.11274
# Poissons Ratio (y) = 0.07696 0.03277
# Poissons Ratio (z) = 0.20077 0.06404
#
# Static dielectric constant tensor:
#      x y z
#    x 2.158670 0.000000 -0.061160 
#    y 0.000000 1.966740 0.000000 
#    z -0.061160 0.000000 2.460530 
# 
# From -- ./inp_files/310115.got.cif
#   From: 2010.05.17/outbox.cif.g08.bks.cpg/sg12_156_cif.got.tgz:310115.got - 2010.06.03 13:09:07.
