data_PCOD9209511
_publ_section_title
;
Structure prediction by ZEFSAII (Michael W. Deem and Ramdas Pophale) SiO2 
 PCOD9209511
Probable space group: C 2/M
;
_chemical_formula_sum "Si O2"
_cell_formula_units_Z 32
_cell_length_a 11.434134
_cell_length_b 15.982876
_cell_length_c 8.447834
_cell_angle_alpha 90.000000
_cell_angle_beta 65.984516
_cell_angle_gamma 90.000000
_cell_volume 1410.202459
_symmetry_space_group_name_H-M "C 2/M"
_symmetry_group_IT_number 12
_symmetry_cell_setting 'monoclinic'
loop_
_space_group_symop_operation_xyz
x,y,z
-x,y,-z
-x,-y,-z
x,-y,z
1/2+x,1/2+y,z
1/2-x,1/2+y,-z
1/2-x,1/2-y,-z
1/2+x,1/2-y,z
loop_
_atom_site_type_symbol
_atom_site_label
_atom_site_fract_x
_atom_site_fract_y
_atom_site_fract_z
Si Si1 0.333111 0.281910 0.810932
Si Si2 0.690492 0.834304 0.459254
Si Si3 0.462990 0.407048 0.332629
Si Si4 0.611060 0.900443 0.813807
O O1 0.356524 0.204604 0.679551
O O2 0.462541 0.329643 0.785987
O O3 0.242506 0.353948 0.785918
O O4 0.250000 0.250000 0.000000
O O5 0.750000 0.750000 0.500000
O O6 0.812786 0.895667 0.381486
O O7 0.594523 0.874769 0.639144
O O8 0.500000 0.399807 0.500000
O O9 0.503747 0.500000 0.259273
O O10 0.625410 0.000000 0.816958
O O11 0.500000 0.875456 0.000000
#
# Coordination Sequence:
#
# PCOD9209511 Si02
#       4
#     8   8   8   8
#     4  11  25  38  63  94 130 164 213 267 322 383
#     4  10  21  38  62  93 124 163 212 263 317 375
#     4  11  21  39  67  93 124 168 217 264 320 387
#     4  10  21  39  62  86 122 166 207 255 320 384
#
# _framework density 22.691777999999999
#
# number of rings (size 3 to 8) (size 9 to 14) (size 15 to 20)
#    0.000    1.500    5.000    1.500    7.000    0.000 
#    0.000    6.250    0.000    3.000    0.000    0.000 
#    0.000    0.000    0.000    0.000    0.000    0.000 
#
# Total GULP energy -89345.840830 kJ/mol
# GULP energy per Si atom -5584.115052 kJ/mol
# Density = 2.264013 g / cm^3
# Si number density = 22.691778 Si / 1000 Ang^3
#
#
#
# Elastic Constant Matrix: (Units=GPa)
#
#
# Indices 1 2 3 4 5 6 
#
# 1 84.1742 39.3725 34.9819 0.0000 -25.0419 0.0000
# 2 39.3725 105.9835 59.8861 0.0000 -4.3783 0.0000
# 3 34.9819 59.8861 163.3162 0.0000 -21.2841 0.0000
# 4 0.0000 0.0000 0.0000 36.5832 0.0000 -13.9308
# 5 -25.0419 -4.3783 -21.2841 0.0000 24.0200 0.0000
# 6 0.0000 0.0000 0.0000 -13.9308 0.0000 31.4690
#
#
#
# Elastic Compliance Matrix: (Units=1/GPa)
#
#
# Indices 1 2 3 4 5 6 
#
# 1 0.021617 -0.007730 0.001083 0.000000 0.022087 0.000000
# 2 -0.007730 0.014744 -0.005032 0.000000 -0.009830 0.000000
# 3 0.001083 -0.005032 0.008778 0.000000 0.007989 0.000000
# 4 0.000000 0.000000 0.000000 0.032877 0.000000 0.014554
# 5 0.022087 -0.009830 0.007989 0.000000 0.069946 0.000000
# 6 0.000000 0.000000 0.000000 0.014554 0.000000 0.038220
#
#
# Mechanical properties :
#
#
# Convention : Reuss Voigt Hill
#
# Bulk Modulus (GPa) = 45.91326 69.10608 57.50967
# Shear Modulus (GPa) = 23.06275 33.02999 28.04637
#
# Velocity S-wave (km/s) = 3.19148 3.81936 3.51945
# Velocity P-wave (km/s) = 5.81877 7.06897 6.47412
#
# Compressibility (1/GPa) = 0.02178020
#
# Stress axis : x y z
#
# Youngs Moduli (GPa) = 46.26070 67.82309 113.92733
#
# Poissons Ratio (x) = 0.52426 -0.12334
# Poissons Ratio (y) = 0.35759 0.57327
# Poissons Ratio (z) = -0.05008 0.34128
#
# Static dielectric constant tensor:
#      x y z
#    x 1.796960 0.000000 0.097030 
#    y 0.000000 1.966820 0.000000 
#    z 0.097030 0.000000 1.875240 
# 
# From -- ./inp_files/46003.got.cif
#   From: 2010.05.17/outbox.cif.g08.bks.cpg/sg12_24_cif.got.tgz:46003.got - 2010.06.03 13:09:07.
