data_PCOD9209196
_publ_section_title
;
Structure prediction by ZEFSAII (Michael W. Deem and Ramdas Pophale) SiO2 
 PCOD9209196
Probable space group: C 2/M
;
_chemical_formula_sum "Si O2"
_cell_formula_units_Z 64
_cell_length_a 31.996299
_cell_length_b 7.672563
_cell_length_c 20.369172
_cell_angle_alpha 90.000000
_cell_angle_beta 37.087240
_cell_angle_gamma 90.000000
_cell_volume 3015.454319
_symmetry_space_group_name_H-M "C 2/M"
_symmetry_group_IT_number 12
_symmetry_cell_setting 'monoclinic'
loop_
_space_group_symop_operation_xyz
x,y,z
-x,y,-z
-x,-y,-z
x,-y,z
1/2+x,1/2+y,z
1/2-x,1/2+y,-z
1/2-x,1/2-y,-z
1/2+x,1/2-y,z
loop_
_atom_site_type_symbol
_atom_site_label
_atom_site_fract_x
_atom_site_fract_y
_atom_site_fract_z
Si Si1 0.561205 0.786583 0.873712
Si Si2 0.307367 0.298186 0.981280
Si Si3 0.215456 0.712844 0.723692
Si Si4 0.045980 0.299309 0.744275
Si Si5 0.933363 0.204742 0.622430
Si Si6 0.721551 0.711242 0.216792
Si Si7 0.804400 0.207941 0.488409
Si Si8 0.451129 0.197329 0.750221
O O1 0.637345 0.730465 0.803322
O O2 0.546332 0.725820 0.817780
O O3 0.562834 0.000000 0.869901
O O4 0.500000 0.735426 0.000000
O O5 0.325750 0.500000 0.951326
O O6 0.272888 0.264704 0.094373
O O7 0.250000 0.250000 0.000000
O O8 0.376137 0.194562 0.877880
O O9 0.213674 0.500000 0.726028
O O10 0.245289 0.769521 0.756194
O O11 0.269265 0.766087 0.599982
O O12 0.021386 0.500000 0.781777
O O13 0.124053 0.295638 0.620489
O O14 0.000430 0.217347 0.743257
O O15 0.857076 0.275569 0.698640
O O16 0.944656 0.219953 0.686459
O O17 0.000000 0.278655 0.500000
O O18 0.930382 0.000000 0.609184
O O19 0.719106 0.500000 0.220122
O O20 0.750000 0.250000 0.500000
O O21 0.815873 0.000000 0.477179
O O22 0.476039 0.000000 0.706800
#
# Coordination Sequence:
#
# PCOD9209196 Si02
#       8
#     8   8   8   8   8   8   8   8
#     4   9  17  32  56  83 114 151 193 238 282 339
#     4  12  24  41  64  89 120 157 200 251 302 360
#     4   9  19  34  57  86 115 152 199 239 285 354
#     4  10  22  39  59  89 120 152 200 247 293 352
#     4  10  22  39  60  86 121 160 201 247 295 358
#     4  10  21  38  61  89 118 154 200 247 295 354
#     4  11  21  37  62  88 119 158 199 248 297 350
#     4  11  24  40  62  90 122 160 201 251 303 356
#
# _framework density 21.223998000000002
#
# number of rings (size 3 to 8) (size 9 to 14) (size 15 to 20)
#    0.000    1.750    2.500    1.875    3.500    1.250 
#    0.000    1.250    0.000    0.375    0.000    0.000 
#    0.000    0.000    0.000    0.000    0.000    0.000 
#
# Total GULP energy -178737.106171 kJ/mol
# GULP energy per Si atom -5585.534568 kJ/mol
# Density = 2.117569 g / cm^3
# Si number density = 21.223998 Si / 1000 Ang^3
#
#
#
# Elastic Constant Matrix: (Units=GPa)
#
#
# Indices 1 2 3 4 5 6 
#
# 1 168.1780 -8.9042 72.6789 0.0008 12.4070 -0.0070
# 2 -8.9042 49.1716 -10.2877 0.0036 2.7247 -0.0110
# 3 72.6789 -10.2877 156.5418 0.0188 15.0561 -0.0055
# 4 0.0008 0.0036 0.0188 16.8656 -0.0055 4.6382
# 5 12.4070 2.7247 15.0561 -0.0055 41.3336 -0.0012
# 6 -0.0070 -0.0110 -0.0055 4.6382 -0.0012 13.6102
#
#
#
# Elastic Compliance Matrix: (Units=1/GPa)
#
#
# Indices 1 2 3 4 5 6 
#
# 1 0.007504 0.000722 -0.003332 0.000002 -0.001086 0.000002
# 2 0.000722 0.020838 0.001230 -0.000013 -0.002038 0.000022
# 3 -0.003332 0.001230 0.008215 -0.000012 -0.002073 0.000006
# 4 0.000002 -0.000013 -0.000012 0.065424 0.000012 -0.022296
# 5 -0.001086 -0.002038 -0.002073 0.000012 0.025409 -0.000005
# 6 0.000002 0.000022 0.000006 -0.022296 -0.000005 0.081073
#
#
# Mechanical properties :
#
#
# Convention : Reuss Voigt Hill
#
# Bulk Modulus (GPa) = 29.58747 53.42948 41.50847
# Shear Modulus (GPa) = 22.47295 35.72218 29.09756
#
# Velocity S-wave (km/s) = 3.25752 4.10701 3.70668
# Velocity P-wave (km/s) = 5.30278 6.90788 6.15785
#
# Compressibility (1/GPa) = 0.03379809
#
# Stress axis : x y z
#
# Youngs Moduli (GPa) = 133.25356 47.98912 121.72221
#
# Poissons Ratio (x) = -0.03465 0.40561
# Poissons Ratio (y) = -0.09621 -0.14976
# Poissons Ratio (z) = 0.44403 -0.05904
#
# Static dielectric constant tensor:
#      x y z
#    x 1.772830 -0.000010 -0.015280 
#    y -0.000010 1.808860 0.000020 
#    z -0.015280 0.000020 1.715200 
# 
# From -- ./inp_files/295615.got.cif
#   From: 2010.05.17/outbox.cif.g08.bks.cpg/sg12_148_cif.got.tgz:295615.got - 2010.06.03 13:09:07.
