data_PCOD9209753
_publ_section_title
;
Structure prediction by ZEFSAII (Michael W. Deem and Ramdas Pophale) SiO2 
 PCOD9209753
Probable space group: C 2/M
;
_chemical_formula_sum "Si O2"
_cell_formula_units_Z 56
_cell_length_a 23.920137
_cell_length_b 15.079425
_cell_length_c 9.572117
_cell_angle_alpha 90.000000
_cell_angle_beta 39.812178
_cell_angle_gamma 90.000000
_cell_volume 2210.658293
_symmetry_space_group_name_H-M "C 2/M"
_symmetry_group_IT_number 12
_symmetry_cell_setting 'monoclinic'
loop_
_space_group_symop_operation_xyz
x,y,z
-x,y,-z
-x,-y,-z
x,-y,z
1/2+x,1/2+y,z
1/2-x,1/2+y,-z
1/2-x,1/2-y,-z
1/2+x,1/2-y,z
loop_
_atom_site_type_symbol
_atom_site_label
_atom_site_fract_x
_atom_site_fract_y
_atom_site_fract_z
Si Si1 0.230015 0.142118 0.399330
Si Si2 0.098464 0.242032 0.335737
Si Si3 0.199294 0.351435 0.451029
Si Si4 0.847524 0.601443 0.924187
Si Si5 0.994269 0.606595 0.170633
Si Si6 0.366532 0.402221 0.965292
Si Si7 0.442193 0.599554 0.348390
O O1 0.225020 0.248095 0.399720
O O2 0.295037 0.116734 0.398909
O O3 0.133469 0.107258 0.620772
O O4 0.264403 0.105937 0.186050
O O5 0.157261 0.328588 0.192921
O O6 0.128204 0.173921 0.158999
O O7 0.086388 0.177903 0.491878
O O8 0.000000 0.274502 0.500000
O O9 0.100495 0.364762 0.591513
O O10 0.276980 0.397630 0.220136
O O11 0.861679 0.500000 0.850739
O O12 0.926466 0.630440 0.878217
O O13 0.995538 0.500000 0.161646
O O14 0.000000 0.641899 0.000000
O O15 0.372677 0.500000 0.888182
O O16 0.456116 0.389297 0.882605
O O17 0.435111 0.500000 0.422515
#
# Coordination Sequence:
#
# PCOD9209753 Si02
#       7
#     8   8   8   8   8   8   8
#     4  11  24  40  62  98 134 175 215 267 330 393
#     4  10  22  42  68  92 129 172 219 275 327 382
#     4  11  23  39  65  98 136 174 217 267 324 395
#     4  11  23  42  66  96 133 172 220 272 332 395
#     4  10  21  38  64  93 127 175 218 261 323 394
#     4  10  21  40  66  97 131 168 217 271 327 388
#     4  10  23  43  69  97 129 176 223 270 332 392
#
# _framework density 25.33182
#
# number of rings (size 3 to 8) (size 9 to 14) (size 15 to 20)
#    0.000    1.571    2.857    1.286    4.000    4.857 
#    0.000    1.429    0.000    0.000    0.000    0.000 
#    0.000    0.000    0.000    0.000    0.000    0.000 
#
# Total GULP energy -156624.461932 kJ/mol
# GULP energy per Si atom -5593.730783 kJ/mol
# Density = 2.527416 g / cm^3
# Si number density = 25.331820 Si / 1000 Ang^3
#
#
#
# Elastic Constant Matrix: (Units=GPa)
#
#
# Indices 1 2 3 4 5 6 
#
# 1 60.9196 12.2041 36.8401 0.0000 -27.1218 0.0000
# 2 12.2041 122.7441 23.3415 0.0000 11.1875 0.0000
# 3 36.8401 23.3415 133.5514 0.0000 -13.4817 0.0000
# 4 0.0000 0.0000 0.0000 19.7556 0.0000 -16.5982
# 5 -27.1218 11.1875 -13.4817 0.0000 46.9862 0.0000
# 6 0.0000 0.0000 0.0000 -16.5982 0.0000 1.3163
#
#
#
# Elastic Compliance Matrix: (Units=1/GPa)
#
#
# Indices 1 2 3 4 5 6 
#
# 1 0.026778 -0.002969 -0.005392 0.000000 0.014617 0.000000
# 2 -0.002969 0.009052 -0.001188 0.000000 -0.004210 0.000000
# 3 -0.005392 -0.001188 0.009163 0.000000 -0.000201 0.000000
# 4 0.000000 0.000000 0.000000 -0.005276 0.000000 -0.066527
# 5 0.014617 -0.004210 -0.000201 0.000000 0.030665 0.000000
# 6 0.000000 0.000000 0.000000 -0.066527 0.000000 -0.079182
#
#
# Mechanical properties :
#
#
# Convention : Reuss Voigt Hill
#
# Bulk Modulus (GPa) = 38.61942 51.33183 44.97563
# Shear Modulus (GPa) = 264.13276 29.93360 147.03318
#
# Velocity S-wave (km/s) = 10.22231 3.44126 7.62685
# Velocity P-wave (km/s) = 12.43406 6.00811 9.76482
#
# Compressibility (1/GPa) = 0.02589371
#
# Stress axis : x y z
#
# Youngs Moduli (GPa) = 37.34350 110.47409 109.13959
#
# Poissons Ratio (x) = 0.32804 0.58851
# Poissons Ratio (y) = 0.11089 0.12965
# Poissons Ratio (z) = 0.20137 0.13124
#
# Static dielectric constant tensor:
#      x y z
#    x 2.083370 0.000000 0.016320 
#    y 0.000000 1.944130 0.000000 
#    z 0.016320 0.000000 1.960990 
# 
# From -- ./inp_files/189623.got.cif
#   From: 2010.05.17/outbox.cif.g08.bks.cpg/sg12_95_cif.got.tgz:189623.got - 2010.06.03 13:09:07.
