data_PCOD9209735
_publ_section_title
;
Structure prediction by ZEFSAII (Michael W. Deem and Ramdas Pophale) SiO2 
 PCOD9209735
Probable space group: C 2/M
;
_chemical_formula_sum "Si O2"
_cell_formula_units_Z 40
_cell_length_a 19.440438
_cell_length_b 16.188128
_cell_length_c 5.544465
_cell_angle_alpha 90.000000
_cell_angle_beta 104.662732
_cell_angle_gamma 90.000000
_cell_volume 1688.041197
_symmetry_space_group_name_H-M "C 2/M"
_symmetry_group_IT_number 12
_symmetry_cell_setting 'monoclinic'
loop_
_space_group_symop_operation_xyz
x,y,z
-x,y,-z
-x,-y,-z
x,-y,z
1/2+x,1/2+y,z
1/2-x,1/2+y,-z
1/2-x,1/2-y,-z
1/2+x,1/2-y,z
loop_
_atom_site_type_symbol
_atom_site_label
_atom_site_fract_x
_atom_site_fract_y
_atom_site_fract_z
Si Si1 0.797606 0.800386 0.228159
Si Si2 0.462297 0.328878 0.717009
Si Si3 0.659369 0.406698 0.130213
Si Si4 0.961499 0.372154 0.716000
Si Si5 0.697061 0.868279 0.503462
O O1 0.743842 0.863291 0.305116
O O2 0.818521 0.726132 0.424582
O O3 0.750000 0.750000 0.000000
O O4 0.853408 0.847097 0.109643
O O5 0.500000 0.353238 0.500000
O O6 0.384028 0.368834 0.682926
O O7 0.461609 0.228767 0.723635
O O8 0.500000 0.356563 0.000000
O O9 0.637327 0.500000 0.066038
O O10 0.744412 0.405176 0.261803
O O11 0.880347 0.402883 0.618954
O O12 0.000000 0.395472 0.500000
O O13 0.000000 0.398202 0.000000
#
# Coordination Sequence:
#
# PCOD9209735 Si02
#       5
#     8   8   8   8   8
#     4   9  19  35  63  88 118 159 215 271 323 366
#     4  10  23  40  61  92 132 172 218 265 319 385
#     4  11  25  40  62  92 130 179 221 261 320 387
#     4  10  22  36  64 100 126 160 212 276 338 381
#     4  10  21  38  64  91 124 162 217 276 321 387
#
# _framework density 23.696104999999999
#
# number of rings (size 3 to 8) (size 9 to 14) (size 15 to 20)
#    0.000    2.000    0.000    3.600   16.800    1.600 
#    0.000    0.000    0.000    1.200    0.000    0.000 
#    0.000    0.000    0.000    0.000    0.000    0.000 
#
# Total GULP energy -111606.411486 kJ/mol
# GULP energy per Si atom -5580.320574 kJ/mol
# Density = 2.364217 g / cm^3
# Si number density = 23.696105 Si / 1000 Ang^3
#
#
#
# Elastic Constant Matrix: (Units=GPa)
#
#
# Indices 1 2 3 4 5 6 
#
# 1 160.8780 17.7293 81.9654 0.0000 3.8876 0.0000
# 2 17.7293 91.7558 4.5499 0.0000 -27.4141 0.0000
# 3 81.9654 4.5499 142.5077 0.0000 -20.3366 0.0000
# 4 0.0000 0.0000 0.0000 -2.0324 0.0000 2.1922
# 5 3.8876 -27.4141 -20.3366 0.0000 52.1738 0.0000
# 6 0.0000 0.0000 0.0000 2.1922 0.0000 4.1039
#
#
#
# Elastic Compliance Matrix: (Units=1/GPa)
#
#
# Indices 1 2 3 4 5 6 
#
# 1 0.009843 -0.003011 -0.006243 0.000000 -0.004749 0.000000
# 2 -0.003011 0.013896 0.002501 0.000000 0.008501 0.000000
# 3 -0.006243 0.002501 0.011417 0.000000 0.006230 0.000000
# 4 0.000000 0.000000 0.000000 -0.312175 0.000000 0.166751
# 5 -0.004749 0.008501 0.006230 0.000000 0.026416 0.000000
# 6 0.000000 0.000000 0.000000 0.166751 0.000000 0.154597
#
#
# Mechanical properties :
#
#
# Convention : Reuss Voigt Hill
#
# Bulk Modulus (GPa) = 46.18788 67.07008 56.62898
# Shear Modulus (GPa) = -66.41556 30.24221 -18.08667
#
# Velocity S-wave (km/s) = -5.29990 3.57634 -2.76574
# Velocity P-wave (km/s) = 4.23294 6.73939 3.70820
#
# Compressibility (1/GPa) = 0.02165070
#
# Stress axis : x y z
#
# Youngs Moduli (GPa) = 101.59202 71.96234 87.58769
#
# Poissons Ratio (x) = 0.21670 0.54682
# Poissons Ratio (y) = 0.30592 -0.21910
# Poissons Ratio (z) = 0.63425 -0.18001
#
# Static dielectric constant tensor:
#      x y z
#    x 2.301590 0.000000 0.619940 
#    y 0.000000 1.870510 0.000000 
#    z 0.619940 0.000000 2.946600 
# 
# From -- ./inp_files/15230.got.cif
#   From: 2010.05.17/outbox.cif.g08.bks.cpg/sg12_8_cif.got.tgz:15230.got - 2010.06.03 13:09:07.
