data_PCOD9209378
_publ_section_title
;
Structure prediction by ZEFSAII (Michael W. Deem and Ramdas Pophale) SiO2 
 PCOD9209378
Probable space group: C 2/M
;
_chemical_formula_sum "Si O2"
_cell_formula_units_Z 40
_cell_length_a 9.318740
_cell_length_b 10.511767
_cell_length_c 20.805308
_cell_angle_alpha 90.000000
_cell_angle_beta 74.685187
_cell_angle_gamma 90.000000
_cell_volume 1965.642002
_symmetry_space_group_name_H-M "C 2/M"
_symmetry_group_IT_number 12
_symmetry_cell_setting 'monoclinic'
loop_
_space_group_symop_operation_xyz
x,y,z
-x,y,-z
-x,-y,-z
x,-y,z
1/2+x,1/2+y,z
1/2-x,1/2+y,-z
1/2-x,1/2-y,-z
1/2+x,1/2-y,z
loop_
_atom_site_type_symbol
_atom_site_label
_atom_site_fract_x
_atom_site_fract_y
_atom_site_fract_z
Si Si1 0.593348 0.197439 0.047869
Si Si2 0.357897 0.000000 0.472324
Si Si3 0.739697 0.352708 0.715400
Si Si4 0.313147 0.355600 0.133402
Si Si5 0.950072 0.000000 0.432556
Si Si6 0.552454 0.226320 0.628679
O O1 0.459953 0.288604 0.087521
O O2 0.667752 0.143424 0.104263
O O3 0.500000 0.132043 0.000000
O O4 0.750000 0.250000 0.000000
O O5 0.500000 0.000000 0.500000
O O6 0.226809 0.000000 0.539443
O O7 0.361532 0.128761 0.428876
O O8 0.688262 0.500000 0.716874
O O9 0.728482 0.308033 0.790638
O O10 0.646686 0.263432 0.679723
O O11 0.906400 0.345221 0.669798
O O12 0.360178 0.500000 0.135129
O O13 0.000000 0.000000 0.500000
O O14 0.991378 0.136001 0.396727
#
# Coordination Sequence:
#
# PCOD9209378 Si02
#       6
#     8   4   8   8   4   8
#     4   9  19  36  59  91 124 158 208 252 300 368
#     4  12  24  42  66  96 128 164 208 266 324 384
#     4  11  23  42  63  93 126 166 217 264 315 380
#     4  10  21  38  62  88 123 167 204 255 314 365
#     4  12  24  40  62  98 124 162 214 260 316 390
#     4  12  23  43  67  91 130 167 213 263 324 377
#
# _framework density 20.349585999999999
#
# number of rings (size 3 to 8) (size 9 to 14) (size 15 to 20)
#    0.000    1.200    2.000    4.800    0.000    4.000 
#    0.000    3.000    4.400    0.000    0.000    0.000 
#    0.000    0.000    0.000    0.000    0.000    0.000 
#
# Total GULP energy -111343.571283 kJ/mol
# GULP energy per Si atom -5567.178564 kJ/mol
# Density = 2.030327 g / cm^3
# Si number density = 20.349586 Si / 1000 Ang^3
#
#
#
# Elastic Constant Matrix: (Units=GPa)
#
#
# Indices 1 2 3 4 5 6 
#
# 1 96.3160 18.1861 22.7768 0.0000 20.3068 0.0000
# 2 18.1861 103.9787 44.5803 0.0000 9.2099 0.0000
# 3 22.7768 44.5803 110.3148 0.0000 23.1926 0.0000
# 4 0.0000 0.0000 0.0000 60.1669 0.0000 2.8285
# 5 20.3068 9.2099 23.1926 0.0000 38.0597 0.0000
# 6 0.0000 0.0000 0.0000 2.8285 0.0000 19.7208
#
#
#
# Elastic Compliance Matrix: (Units=1/GPa)
#
#
# Indices 1 2 3 4 5 6 
#
# 1 0.011990 -0.001263 -0.000785 0.000000 -0.005613 0.000000
# 2 -0.001263 0.011766 -0.004630 0.000000 0.000649 0.000000
# 3 -0.000785 -0.004630 0.012358 0.000000 -0.005991 0.000000
# 4 0.000000 0.000000 0.000000 0.016733 0.000000 -0.002400
# 5 -0.005613 0.000649 -0.005991 0.000000 0.032763 0.000000
# 6 0.000000 0.000000 0.000000 -0.002400 0.000000 0.051052
#
#
# Mechanical properties :
#
#
# Convention : Reuss Voigt Hill
#
# Bulk Modulus (GPa) = 43.94299 53.52175 48.73237
# Shear Modulus (GPa) = 31.72467 38.59390 35.15929
#
# Velocity S-wave (km/s) = 3.95268 4.35966 4.16115
# Velocity P-wave (km/s) = 6.51709 7.19030 6.86196
#
# Compressibility (1/GPa) = 0.02275676
#
# Stress axis : x y z
#
# Youngs Moduli (GPa) = 83.40182 84.98958 80.92001
#
# Poissons Ratio (x) = 0.10737 0.06352
# Poissons Ratio (y) = 0.10537 0.37469
# Poissons Ratio (z) = 0.06546 0.39354
#
# Static dielectric constant tensor:
#      x y z
#    x 1.766510 0.000000 0.001230 
#    y 0.000000 1.742950 0.000000 
#    z 0.001230 0.000000 1.781830 
# 
# From -- ./inp_files/299038.got.cif
#   From: 2010.05.17/outbox.cif.g08.bks.cpg/sg12_150_cif.got.tgz:299038.got - 2010.06.03 13:09:07.
