data_PCOD9209414
_publ_section_title
;
Structure prediction by ZEFSAII (Michael W. Deem and Ramdas Pophale) SiO2 
 PCOD9209414
Probable space group: C 2/M
;
_chemical_formula_sum "Si O2"
_cell_formula_units_Z 40
_cell_length_a 10.939227
_cell_length_b 26.941991
_cell_length_c 7.030141
_cell_angle_alpha 90.000000
_cell_angle_beta 135.980235
_cell_angle_gamma 90.000000
_cell_volume 1439.815072
_symmetry_space_group_name_H-M "C 2/M"
_symmetry_group_IT_number 12
_symmetry_cell_setting 'monoclinic'
loop_
_space_group_symop_operation_xyz
x,y,z
-x,y,-z
-x,-y,-z
x,-y,z
1/2+x,1/2+y,z
1/2-x,1/2+y,-z
1/2-x,1/2-y,-z
1/2+x,1/2-y,z
loop_
_atom_site_type_symbol
_atom_site_label
_atom_site_fract_x
_atom_site_fract_y
_atom_site_fract_z
Si Si1 0.132292 0.345834 0.900593
Si Si2 0.749353 0.946809 0.927157
Si Si3 0.159288 0.055498 0.418419
Si Si4 0.578243 0.713949 0.802267
Si Si5 0.235014 0.329693 0.442353
O O1 0.317369 0.334737 0.007803
O O2 0.171681 0.323282 0.153184
O O3 0.125244 0.404735 0.874008
O O4 0.942818 0.324542 0.634136
O O5 0.784810 0.944884 0.741403
O O6 0.669645 0.000000 0.881804
O O7 0.949594 0.944322 0.225485
O O8 0.213147 0.112240 0.523573
O O9 0.218973 0.000000 0.556879
O O10 0.500000 0.713065 0.500000
O O11 0.386576 0.707444 0.685673
O O12 0.750000 0.750000 0.000000
#
# Coordination Sequence:
#
# PCOD9209414 Si02
#       5
#     8   8   8   8   8
#     4  10  21  38  62  89 126 165 210 261 320 378
#     4   9  18  34  57  89 130 171 211 259 311 371
#     4   9  18  34  57  89 128 168 214 260 307 371
#     4  10  22  44  67  92 126 160 210 272 333 388
#     4  10  21  38  62  91 123 166 210 263 312 383
#
# _framework density 27.781345999999999
#
# number of rings (size 3 to 8) (size 9 to 14) (size 15 to 20)
#    0.000    2.400    2.000    1.200    0.000    3.200 
#    3.600    6.000    0.000    0.000    0.000    0.000 
#    0.000    0.000    0.000    0.000    0.000    0.000 
#
# Total GULP energy -111346.739308 kJ/mol
# GULP energy per Si atom -5567.336965 kJ/mol
# Density = 2.771811 g / cm^3
# Si number density = 27.781346 Si / 1000 Ang^3
#
#
#
# Elastic Constant Matrix: (Units=GPa)
#
#
# Indices 1 2 3 4 5 6 
#
# 1 79.7648 13.5937 49.6045 0.0000 22.4443 0.0000
# 2 13.5937 134.2703 67.3236 0.0000 21.3119 0.0000
# 3 49.6045 67.3236 186.0130 0.0000 55.6603 0.0000
# 4 0.0000 0.0000 0.0000 -9.6224 0.0000 1.4855
# 5 22.4443 21.3119 55.6603 0.0000 53.9967 0.0000
# 6 0.0000 0.0000 0.0000 1.4855 0.0000 42.1020
#
#
#
# Elastic Compliance Matrix: (Units=1/GPa)
#
#
# Indices 1 2 3 4 5 6 
#
# 1 0.015433 0.000646 -0.003403 0.000000 -0.003162 0.000000
# 2 0.000646 0.009129 -0.003352 0.000000 -0.000417 0.000000
# 3 -0.003403 -0.003352 0.009656 0.000000 -0.007216 0.000000
# 4 0.000000 0.000000 0.000000 -0.103361 0.000000 0.003647
# 5 -0.003162 -0.000417 -0.007216 0.000000 0.027436 0.000000
# 6 0.000000 0.000000 0.000000 0.003647 0.000000 0.023623
#
#
# Mechanical properties :
#
#
# Convention : Reuss Voigt Hill
#
# Bulk Modulus (GPa) = 45.45556 73.45464 59.45510
# Shear Modulus (GPa) = 3407.53762 35.26367 1721.40064
#
# Velocity S-wave (km/s) = 35.06022 3.56663 24.91927
# Velocity P-wave (km/s) = 40.68606 6.59233 29.14459
#
# Compressibility (1/GPa) = 0.02199951
#
# Stress axis : x y z
#
# Youngs Moduli (GPa) = 64.79697 109.54224 103.56595
#
# Poissons Ratio (x) = -0.07074 0.35245
# Poissons Ratio (y) = -0.04184 0.34711
# Poissons Ratio (z) = 0.22051 0.36713
#
# Static dielectric constant tensor:
#      x y z
#    x 2.414440 0.000000 0.002960 
#    y 0.000000 2.410130 0.000000 
#    z 0.002960 0.000000 2.142280 
# 
# From -- ./inp_files/149001.got.cif
#   From: 2010.05.17/outbox.cif.g08.bks.cpg/sg12_75_cif.got.tgz:149001.got - 2010.06.03 13:09:07.
