data_PCOD9209034
_publ_section_title
;
Structure prediction by ZEFSAII (Michael W. Deem and Ramdas Pophale) SiO2 
 PCOD9209034
Probable space group: C 2/M
;
_chemical_formula_sum "Si O2"
_cell_formula_units_Z 64
_cell_length_a 29.713714
_cell_length_b 9.028380
_cell_length_c 13.191944
_cell_angle_alpha 90.000000
_cell_angle_beta 118.868787
_cell_angle_gamma 90.000000
_cell_volume 3099.164598
_symmetry_space_group_name_H-M "C 2/M"
_symmetry_group_IT_number 12
_symmetry_cell_setting 'monoclinic'
loop_
_space_group_symop_operation_xyz
x,y,z
-x,y,-z
-x,-y,-z
x,-y,z
1/2+x,1/2+y,z
1/2-x,1/2+y,-z
1/2-x,1/2-y,-z
1/2+x,1/2-y,z
loop_
_atom_site_type_symbol
_atom_site_label
_atom_site_fract_x
_atom_site_fract_y
_atom_site_fract_z
Si Si1 0.348218 0.324122 0.915620
Si Si2 0.672581 0.668818 0.459449
Si Si3 0.803602 0.824981 0.086189
Si Si4 0.953880 0.676588 0.027885
Si Si5 0.972610 0.823565 0.265689
Si Si6 0.578350 0.828728 0.426971
Si Si7 0.384211 0.827139 0.302272
Si Si8 0.759475 0.170839 0.670808
O O1 0.354864 0.500000 0.902859
O O2 0.295553 0.279020 0.802119
O O3 0.340009 0.304375 0.026840
O O4 0.398221 0.236993 0.933182
O O5 0.657579 0.500000 0.465443
O O6 0.622512 0.770508 0.400581
O O7 0.711393 0.730183 0.587040
O O8 0.703492 0.671345 0.387644
O O9 0.831225 0.748046 0.210705
O O10 0.797255 0.000000 0.095327
O O11 0.750000 0.750000 0.000000
O O12 0.951202 0.500000 0.040087
O O13 0.965663 0.757877 0.146023
O O14 0.000000 0.707844 0.000000
O O15 0.028047 0.770755 0.364767
O O16 0.929418 0.754448 0.290912
O O17 0.968051 0.000000 0.259043
O O18 0.602682 0.817532 0.565265
O O19 0.564938 0.000000 0.392508
O O20 0.382860 0.000000 0.272157
O O21 0.742677 0.000000 0.670412
#
# Coordination Sequence:
#
# PCOD9209034 Si02
#       8
#     8   8   8   8   8   8   8   8
#     4  10  22  41  65  93 125 168 214 256 316 379
#     4  10  21  38  60  92 124 160 206 256 308 362
#     4  11  24  41  64  95 130 169 212 261 316 376
#     4  11  25  43  65  96 130 168 214 260 312 376
#     4  12  25  43  67  94 125 162 205 258 315 372
#     4  11  25  42  64  91 124 164 205 254 312 372
#     4  11  24  44  67  91 124 165 207 256 315 374
#     4   9  20  39  61  86 124 165 203 250 308 370
#
# _framework density 20.650725999999999
#
# number of rings (size 3 to 8) (size 9 to 14) (size 15 to 20)
#    0.000    1.375    1.250    3.375    3.500    6.000 
#    0.000    0.000    0.000    0.000    0.000    0.000 
#    0.000    0.000    0.000    0.000    0.000    0.000 
#
# Total GULP energy -179041.875372 kJ/mol
# GULP energy per Si atom -5595.058605 kJ/mol
# Density = 2.060372 g / cm^3
# Si number density = 20.650726 Si / 1000 Ang^3
#
#
#
# Elastic Constant Matrix: (Units=GPa)
#
#
# Indices 1 2 3 4 5 6 
#
# 1 62.5122 31.5175 -9.4211 0.0000 15.4661 0.0000
# 2 31.5175 85.4707 10.2974 0.0000 1.4240 0.0000
# 3 -9.4211 10.2974 58.8755 0.0000 12.0495 0.0000
# 4 0.0000 0.0000 0.0000 33.4694 0.0000 7.6589
# 5 15.4661 1.4240 12.0495 0.0000 29.2947 0.0000
# 6 0.0000 0.0000 0.0000 7.6589 0.0000 29.4842
#
#
#
# Elastic Compliance Matrix: (Units=1/GPa)
#
#
# Indices 1 2 3 4 5 6 
#
# 1 0.027606 -0.011091 0.010078 0.000000 -0.018181 0.000000
# 2 -0.011091 0.016410 -0.006202 0.000000 0.007609 0.000000
# 3 0.010078 -0.006202 0.022613 0.000000 -0.014321 0.000000
# 4 0.000000 0.000000 0.000000 0.031766 0.000000 -0.008252
# 5 -0.018181 0.007609 -0.014321 0.000000 0.049255 0.000000
# 6 0.000000 0.000000 0.000000 -0.008252 0.000000 0.036060
#
#
# Mechanical properties :
#
#
# Convention : Reuss Voigt Hill
#
# Bulk Modulus (GPa) = 19.15745 30.18290 24.67018
# Shear Modulus (GPa) = 23.19756 30.08062 26.63909
#
# Velocity S-wave (km/s) = 3.35525 3.82073 3.59553
# Velocity P-wave (km/s) = 4.93024 5.84052 5.40458
#
# Compressibility (1/GPa) = 0.05219900
#
# Stress axis : x y z
#
# Youngs Moduli (GPa) = 36.22446 60.93768 44.22182
#
# Poissons Ratio (x) = 0.67586 -0.44567
# Poissons Ratio (y) = 0.40176 0.27427
# Poissons Ratio (z) = -0.36507 0.37794
#
# Static dielectric constant tensor:
#      x y z
#    x 1.735100 0.000000 -0.001020 
#    y 0.000000 1.697420 0.000000 
#    z -0.001020 0.000000 1.737120 
# 
# From -- ./inp_files/249903.got.cif
#   From: 2010.05.17/outbox.cif.g08.bks.cpg/sg12_125_cif.got.tgz:249903.got - 2010.06.03 13:09:07.
