data_PCOD9209732
_publ_section_title
;
Structure prediction by ZEFSAII (Michael W. Deem and Ramdas Pophale) SiO2 
 PCOD9209732
Probable space group: C 2/M
;
_chemical_formula_sum "Si O2"
_cell_formula_units_Z 64
_cell_length_a 20.175624
_cell_length_b 8.877688
_cell_length_c 31.547840
_cell_angle_alpha 90.000000
_cell_angle_beta 142.431959
_cell_angle_gamma 90.000000
_cell_volume 3445.203767
_symmetry_space_group_name_H-M "C 2/M"
_symmetry_group_IT_number 12
_symmetry_cell_setting 'monoclinic'
loop_
_space_group_symop_operation_xyz
x,y,z
-x,y,-z
-x,-y,-z
x,-y,z
1/2+x,1/2+y,z
1/2-x,1/2+y,-z
1/2-x,1/2-y,-z
1/2+x,1/2-y,z
loop_
_atom_site_type_symbol
_atom_site_label
_atom_site_fract_x
_atom_site_fract_y
_atom_site_fract_z
Si Si1 0.528822 0.321294 0.465413
Si Si2 0.623396 0.182128 0.684106
Si Si3 0.014528 0.823645 0.799064
Si Si4 0.750120 0.820663 0.546563
Si Si5 0.876891 0.183309 0.811862
Si Si6 0.256914 0.174650 0.958018
Si Si7 0.470372 0.318231 0.032277
Si Si8 0.026702 0.679477 0.311200
O O1 0.500000 0.299096 0.500000
O O2 0.538645 0.500000 0.462341
O O3 0.440595 0.253962 0.387941
O O4 0.643247 0.241111 0.515135
O O5 0.750294 0.228709 0.749696
O O6 0.559498 0.220408 0.695351
O O7 0.619963 0.000000 0.678078
O O8 0.138007 0.817103 0.877629
O O9 0.936126 0.772096 0.797933
O O10 0.008041 0.727316 0.753287
O O11 0.988183 0.000000 0.776623
O O12 0.750000 0.750000 0.500000
O O13 0.860475 0.763974 0.623565
O O14 0.746844 0.000000 0.542723
O O15 0.947462 0.233032 0.888579
O O16 0.878940 0.000000 0.813393
O O17 0.287384 0.000000 0.977293
O O18 0.250000 0.250000 0.000000
O O19 0.349986 0.260998 0.980270
O O20 0.471843 0.500000 0.033998
O O21 0.500000 0.268420 0.000000
O O22 0.042988 0.500000 0.322115
#
# Coordination Sequence:
#
# PCOD9209732 Si02
#       8
#     8   8   8   8   8   8   8   8
#     4  11  25  43  64  93 127 161 203 256 307 362
#     4  10  22  40  63  88 120 164 206 250 302 365
#     4  10  22  40  61  87 122 164 205 255 311 368
#     4  12  24  42  68  93 123 164 208 255 308 364
#     4   9  19  39  60  86 121 159 206 252 301 365
#     4  11  22  39  63  89 123 161 208 261 312 367
#     4  10  21  38  64  91 121 163 207 253 309 368
#     4  11  24  40  62  94 126 159 206 258 305 364
#
# _framework density 18.576549
#
# number of rings (size 3 to 8) (size 9 to 14) (size 15 to 20)
#    0.000    1.500    2.500    2.250    3.500    2.750 
#    0.000    0.625    0.000    0.000    0.000    0.000 
#    0.000    0.000    0.000    0.000    0.000    0.000 
#
# Total GULP energy -178732.786297 kJ/mol
# GULP energy per Si atom -5585.399572 kJ/mol
# Density = 1.853427 g / cm^3
# Si number density = 18.576549 Si / 1000 Ang^3
#
#
#
# Elastic Constant Matrix: (Units=GPa)
#
#
# Indices 1 2 3 4 5 6 
#
# 1 156.0022 57.8797 70.0402 0.0000 4.3831 0.0000
# 2 57.8797 54.5889 40.6025 0.0000 -3.4624 0.0001
# 3 70.0402 40.6025 93.4284 0.0000 3.2780 -0.0001
# 4 0.0000 0.0000 0.0000 31.6246 0.0000 2.1603
# 5 4.3831 -3.4624 3.2780 0.0000 37.3990 0.0000
# 6 0.0000 0.0001 -0.0001 2.1603 0.0000 22.6779
#
#
#
# Elastic Compliance Matrix: (Units=1/GPa)
#
#
# Indices 1 2 3 4 5 6 
#
# 1 0.012155 -0.009273 -0.005018 0.000000 -0.001843 0.000000
# 2 -0.009273 0.034619 -0.008270 0.000000 0.005017 0.000000
# 3 -0.005018 -0.008270 0.018121 0.000000 -0.001766 0.000000
# 4 0.000000 0.000000 0.000000 0.031828 0.000000 -0.003032
# 5 -0.001843 0.005017 -0.001766 0.000000 0.027574 0.000000
# 6 0.000000 0.000000 0.000000 -0.003032 0.000000 0.044385
#
#
# Mechanical properties :
#
#
# Convention : Reuss Voigt Hill
#
# Bulk Modulus (GPa) = 50.56859 71.22935 60.89897
# Shear Modulus (GPa) = 22.68663 27.37345 25.03004
#
# Velocity S-wave (km/s) = 3.49843 3.84285 3.67468
# Velocity P-wave (km/s) = 6.60299 7.62344 7.13149
#
# Compressibility (1/GPa) = 0.01977512
#
# Stress axis : x y z
#
# Youngs Moduli (GPa) = 82.26981 28.88560 55.18461
#
# Poissons Ratio (x) = 0.26784 0.27691
# Poissons Ratio (y) = 0.76285 0.45636
# Poissons Ratio (z) = 0.41282 0.23888
#
# Static dielectric constant tensor:
#      x y z
#    x 1.669780 0.000000 -0.027630 
#    y 0.000000 1.634680 0.000000 
#    z -0.027630 0.000000 1.624570 
# 
# From -- ./inp_files/378469.got.cif
#   From: 2010.05.17/outbox.cif.g08.bks.cpg/sg12_190_cif.got.tgz:378469.got - 2010.06.03 13:09:07.
