data_PCOD9209395
_publ_section_title
;
Structure prediction by ZEFSAII (Michael W. Deem and Ramdas Pophale) SiO2 
 PCOD9209395
Probable space group: C 2/M
;
_chemical_formula_sum "Si O2"
_cell_formula_units_Z 56
_cell_length_a 24.222742
_cell_length_b 14.573142
_cell_length_c 12.503368
_cell_angle_alpha 90.000000
_cell_angle_beta 140.294264
_cell_angle_gamma 90.000000
_cell_volume 2819.674036
_symmetry_space_group_name_H-M "C 2/M"
_symmetry_group_IT_number 12
_symmetry_cell_setting 'monoclinic'
loop_
_space_group_symop_operation_xyz
x,y,z
-x,y,-z
-x,-y,-z
x,-y,z
1/2+x,1/2+y,z
1/2-x,1/2+y,-z
1/2-x,1/2-y,-z
1/2+x,1/2-y,z
loop_
_atom_site_type_symbol
_atom_site_label
_atom_site_fract_x
_atom_site_fract_y
_atom_site_fract_z
Si Si1 0.041251 0.389144 0.761000
Si Si2 0.157718 0.395274 0.587825
Si Si3 0.064932 0.730177 0.999253
Si Si4 0.328486 0.774795 0.193375
Si Si5 0.409390 0.601295 0.426809
Si Si6 0.797753 0.819006 0.650051
Si Si7 0.546963 0.393691 0.259802
O O1 0.052796 0.500000 0.768477
O O2 0.067306 0.350888 0.916539
O O3 0.097519 0.330363 0.760899
O O4 0.939734 0.366773 0.589838
O O5 0.151162 0.500000 0.610755
O O6 0.194067 0.338903 0.740952
O O7 0.224326 0.382341 0.591004
O O8 0.025390 0.820380 0.881931
O O9 0.154162 0.759980 0.186637
O O10 0.000000 0.706736 0.000000
O O11 0.359079 0.680731 0.292661
O O12 0.250000 0.750000 0.000000
O O13 0.500000 0.596964 0.500000
O O14 0.368075 0.500000 0.357918
O O15 0.425979 0.621040 0.576598
O O16 0.750000 0.750000 0.500000
O O17 0.871721 0.873466 0.696036
O O18 0.519276 0.500000 0.207020
#
# Coordination Sequence:
#
# PCOD9209395 Si02
#       7
#     8   8   8   8   8   8   8
#     4  11  24  43  65  88 118 159 204 249 301 361
#     4  11  23  39  61  88 120 161 205 249 298 358
#     4  10  21  38  62  89 121 159 200 252 304 355
#     4  12  24  40  62  88 120 155 195 246 299 358
#     4  10  21  38  62  89 118 154 195 243 301 360
#     4  11  22  38  59  87 125 164 203 249 303 364
#     4  10  21  38  62  90 121 161 206 255 310 362
#
# _framework density 19.860451000000001
#
# number of rings (size 3 to 8) (size 9 to 14) (size 15 to 20)
#    0.000    1.286    0.000    7.286    0.000    5.714 
#    0.000    4.286    0.000    0.000    0.000    0.000 
#    0.000    0.000    0.000    0.000    0.000    0.000 
#
# Total GULP energy -156514.970200 kJ/mol
# GULP energy per Si atom -5589.820364 kJ/mol
# Density = 1.981525 g / cm^3
# Si number density = 19.860451 Si / 1000 Ang^3
#
#
#
# Elastic Constant Matrix: (Units=GPa)
#
#
# Indices 1 2 3 4 5 6 
#
# 1 81.8156 23.5657 36.9394 0.0000 -9.5938 0.0000
# 2 23.5657 113.9678 65.6769 0.0000 -11.3382 0.0000
# 3 36.9394 65.6769 122.9876 0.0000 -7.4269 0.0000
# 4 0.0000 0.0000 0.0000 29.0088 0.0000 -11.2860
# 5 -9.5938 -11.3382 -7.4269 0.0000 34.0235 0.0000
# 6 0.0000 0.0000 0.0000 -11.2860 0.0000 30.5303
#
#
#
# Elastic Compliance Matrix: (Units=1/GPa)
#
#
# Indices 1 2 3 4 5 6 
#
# 1 0.014484 -0.000417 -0.003941 0.000000 0.003085 0.000000
# 2 -0.000417 0.012952 -0.006625 0.000000 0.002753 0.000000
# 3 -0.003941 -0.006625 0.012821 0.000000 -0.000521 0.000000
# 4 0.000000 0.000000 0.000000 0.040263 0.000000 0.014884
# 5 0.003085 0.002753 -0.000521 0.000000 0.031065 0.000000
# 6 0.000000 0.000000 0.000000 0.014884 0.000000 0.038256
#
#
# Mechanical properties :
#
#
# Convention : Reuss Voigt Hill
#
# Bulk Modulus (GPa) = 54.67266 63.45945 59.06606
# Shear Modulus (GPa) = 28.10473 31.55178 29.82826
#
# Velocity S-wave (km/s) = 3.76588 3.99014 3.87963
# Velocity P-wave (km/s) = 6.81889 7.29728 7.06214
#
# Compressibility (1/GPa) = 0.01829068
#
# Stress axis : x y z
#
# Youngs Moduli (GPa) = 69.04207 77.20523 77.99482
#
# Poissons Ratio (x) = 0.03217 0.30742
# Poissons Ratio (y) = 0.02876 0.51675
# Poissons Ratio (z) = 0.27213 0.51152
#
# Static dielectric constant tensor:
#      x y z
#    x 1.447210 0.000000 0.088420 
#    y 0.000000 1.665780 0.000000 
#    z 0.088420 0.000000 1.649320 
# 
# From -- ./inp_files/183544.got.cif
#   From: 2010.05.17/outbox.cif.g08.bks.cpg/sg12_92_cif.got.tgz:183544.got - 2010.06.03 13:09:07.
