data_PCOD9209256
_publ_section_title
;
Structure prediction by ZEFSAII (Michael W. Deem and Ramdas Pophale) SiO2 
 PCOD9209256
Probable space group: C 2/M
;
_chemical_formula_sum "Si O2"
_cell_formula_units_Z 64
_cell_length_a 19.075261
_cell_length_b 14.038098
_cell_length_c 23.850698
_cell_angle_alpha 90.000000
_cell_angle_beta 150.052573
_cell_angle_gamma 90.000000
_cell_volume 3188.298012
_symmetry_space_group_name_H-M "C 2/M"
_symmetry_group_IT_number 12
_symmetry_cell_setting 'monoclinic'
loop_
_space_group_symop_operation_xyz
x,y,z
-x,y,-z
-x,-y,-z
x,-y,z
1/2+x,1/2+y,z
1/2-x,1/2+y,-z
1/2-x,1/2-y,-z
1/2+x,1/2-y,z
loop_
_atom_site_type_symbol
_atom_site_label
_atom_site_fract_x
_atom_site_fract_y
_atom_site_fract_z
Si Si1 0.389652 0.892049 0.973875
Si Si2 0.605672 0.110046 0.528018
Si Si3 0.907148 0.814061 0.263188
Si Si4 0.588193 0.241419 0.905744
Si Si5 0.441246 0.386678 0.521567
Si Si6 0.119200 0.391304 0.307387
Si Si7 0.956643 0.395408 0.305183
Si Si8 0.575014 0.614380 0.270865
O O1 0.233392 0.874444 0.842460
O O2 0.397338 0.000000 0.003303
O O3 0.500000 0.886457 0.000000
O O4 0.418767 0.809525 0.039136
O O5 0.500000 0.155594 0.500000
O O6 0.523735 0.109387 0.412846
O O7 0.763746 0.144943 0.627691
O O8 0.627274 0.000000 0.561464
O O9 0.871714 0.701321 0.235777
O O10 0.977700 0.834876 0.372038
O O11 0.012072 0.842944 0.285178
O O12 0.497312 0.172012 0.803078
O O13 0.516805 0.343223 0.843882
O O14 0.750000 0.250000 0.000000
O O15 0.500000 0.372252 0.500000
O O16 0.449388 0.500000 0.539478
O O17 0.277889 0.359461 0.408429
O O18 0.108364 0.500000 0.278982
O O19 0.082798 0.391964 0.347802
O O20 0.887216 0.500000 0.250057
O O21 0.567066 0.500000 0.268935
#
# Coordination Sequence:
#
# PCOD9209256 Si02
#       8
#     8   8   8   8   8   8   8   8
#     4  11  26  46  70 100 136 180 227 282 343 408
#     4   9  20  38  59  88 128 172 213 262 326 398
#     4  12  23  41  67  95 133 177 223 273 336 409
#     4  12  24  42  65  95 129 174 229 279 325 396
#     4  10  23  39  61  97 135 169 211 267 337 407
#     4  10  21  39  62  91 126 166 210 268 330 392
#     4  10  21  38  61  90 127 169 216 265 326 395
#     4  11  23  40  66  96 129 173 224 279 333 396
#
# _framework density 20.073405000000001
#
# number of rings (size 3 to 8) (size 9 to 14) (size 15 to 20)
#    0.000    1.375    2.500    2.250    3.500    5.000 
#    0.000    0.625    0.000    0.750    0.000    0.000 
#    0.000    0.000    0.000    0.000    0.000    0.000 
#
# Total GULP energy -178669.457398 kJ/mol
# GULP energy per Si atom -5583.420544 kJ/mol
# Density = 2.002772 g / cm^3
# Si number density = 20.073405 Si / 1000 Ang^3
#
#
#
# Elastic Constant Matrix: (Units=GPa)
#
#
# Indices 1 2 3 4 5 6 
#
# 1 108.6323 27.7777 60.6189 0.0001 5.1504 0.0001
# 2 27.7777 139.2656 16.2634 0.0004 -6.5455 0.0004
# 3 60.6189 16.2634 66.5668 0.0003 -1.9650 0.0005
# 4 0.0001 0.0004 0.0003 25.1148 0.0001 -17.6040
# 5 5.1504 -6.5455 -1.9650 0.0001 25.6640 0.0001
# 6 0.0001 0.0004 0.0005 -17.6040 0.0001 14.8184
#
#
#
# Elastic Compliance Matrix: (Units=1/GPa)
#
#
# Indices 1 2 3 4 5 6 
#
# 1 0.020018 -0.002185 -0.017871 0.000004 -0.005943 0.000005
# 2 -0.002185 0.007709 0.000178 -0.000002 0.002418 -0.000002
# 3 -0.017871 0.000178 0.031432 -0.000006 0.006038 -0.000008
# 4 0.000004 -0.000002 -0.000006 0.238009 -0.000004 0.282751
# 5 -0.005943 0.002418 0.006038 -0.000004 0.041237 -0.000006
# 6 0.000005 -0.000002 -0.000008 0.282751 -0.000006 0.403388
#
#
# Mechanical properties :
#
#
# Convention : Reuss Voigt Hill
#
# Bulk Modulus (GPa) = 51.54067 58.19828 54.86948
# Shear Modulus (GPa) = 6.34504 27.10643 16.72573
#
# Velocity S-wave (km/s) = 1.77983 3.67872 2.88970
# Velocity P-wave (km/s) = 5.47317 6.86292 6.20706
#
# Compressibility (1/GPa) = 0.01940215
#
# Stress axis : x y z
#
# Youngs Moduli (GPa) = 49.95414 129.71397 31.81501
#
# Poissons Ratio (x) = 0.28345 0.56857
# Poissons Ratio (y) = 0.10916 -0.00566
# Poissons Ratio (z) = 0.89274 -0.02306
#
# Static dielectric constant tensor:
#      x y z
#    x 1.695500 0.000000 0.000000 
#    y 0.000000 1.788450 0.000000 
#    z 0.000000 0.000000 1.664190 
# 
# From -- ./inp_files/344090.got.cif
#   From: 2010.05.17/outbox.cif.g08.bks.cpg/sg12_173_cif.got.tgz:344090.got - 2010.06.03 13:09:07.
