data_PCOD9209349
_publ_section_title
;
Structure prediction by ZEFSAII (Michael W. Deem and Ramdas Pophale) SiO2 
 PCOD9209349
Probable space group: C 2/M
;
_chemical_formula_sum "Si O2"
_cell_formula_units_Z 64
_cell_length_a 29.607650
_cell_length_b 13.989481
_cell_length_c 21.830888
_cell_angle_alpha 90.000000
_cell_angle_beta 157.676148
_cell_angle_gamma 90.000000
_cell_volume 3434.623302
_symmetry_space_group_name_H-M "C 2/M"
_symmetry_group_IT_number 12
_symmetry_cell_setting 'monoclinic'
loop_
_space_group_symop_operation_xyz
x,y,z
-x,y,-z
-x,-y,-z
x,-y,z
1/2+x,1/2+y,z
1/2-x,1/2+y,-z
1/2-x,1/2-y,-z
1/2+x,1/2-y,z
loop_
_atom_site_type_symbol
_atom_site_label
_atom_site_fract_x
_atom_site_fract_y
_atom_site_fract_z
Si Si1 0.227271 0.212423 0.262913
Si Si2 0.691977 0.111973 0.380918
Si Si3 0.141804 0.609266 0.681464
Si Si4 0.181693 0.886417 0.335912
Si Si5 0.521386 0.251631 0.912401
Si Si6 0.284987 0.253854 0.947517
Si Si7 0.858280 0.112188 0.151684
Si Si8 0.360652 0.391024 0.478598
O O1 0.297296 0.141618 0.305483
O O2 0.213458 0.164104 0.311882
O O3 0.300358 0.310361 0.361813
O O4 0.101523 0.237027 0.073374
O O5 0.731500 0.141040 0.499000
O O6 0.582623 0.172989 0.217909
O O7 0.803367 0.121510 0.474430
O O8 0.660375 0.000000 0.343018
O O9 0.176422 0.500000 0.739379
O O10 0.188752 0.683115 0.790528
O O11 0.000000 0.613809 0.500000
O O12 0.049826 0.850278 0.187334
O O13 0.185272 0.000000 0.333763
O O14 0.610853 0.230341 0.969366
O O15 0.223698 0.160615 0.899317
O O16 0.335007 0.322427 0.063304
O O17 0.997728 0.119650 0.342557
O O18 0.830893 0.000000 0.107790
O O19 0.332229 0.500000 0.423615
#
# Coordination Sequence:
#
# PCOD9209349 Si02
#       8
#     8   8   8   8   8   8   8   8
#     4  11  23  37  60  88 123 157 200 247 301 357
#     4  10  22  39  60  87 120 159 202 246 302 358
#     4  10  21  39  59  83 118 158 199 243 299 364
#     4  11  23  38  59  89 121 159 201 249 300 358
#     4  11  23  38  58  87 123 160 192 245 302 364
#     4  10  22  37  61  87 117 160 194 244 305 357
#     4  10  21  39  61  89 117 150 203 253 296 353
#     4  10  21  38  62  86 116 160 203 248 297 356
#
# _framework density 18.633776999999998
#
# number of rings (size 3 to 8) (size 9 to 14) (size 15 to 20)
#    0.000    1.625    1.250    3.000    1.750    5.500 
#    0.000    3.125    0.000    6.750    0.000    0.000 
#    0.000    0.000    0.000    0.000    0.000    0.000 
#
# Total GULP energy -178694.347958 kJ/mol
# GULP energy per Si atom -5584.198374 kJ/mol
# Density = 1.859137 g / cm^3
# Si number density = 18.633777 Si / 1000 Ang^3
#
#
#
# Elastic Constant Matrix: (Units=GPa)
#
#
# Indices 1 2 3 4 5 6 
#
# 1 32.3915 10.9827 -0.4922 0.0000 14.9297 0.0000
# 2 10.9827 98.9823 38.6556 0.0000 6.7140 0.0000
# 3 -0.4922 38.6556 68.9808 0.0000 9.2586 0.0000
# 4 0.0000 0.0000 0.0000 16.5571 0.0000 3.4416
# 5 14.9297 6.7140 9.2586 0.0000 24.9258 0.0000
# 6 0.0000 0.0000 0.0000 3.4416 0.0000 -7.7248
#
#
#
# Elastic Compliance Matrix: (Units=1/GPa)
#
#
# Indices 1 2 3 4 5 6 
#
# 1 0.046466 -0.006193 0.007698 0.000000 -0.029023 0.000000
# 2 -0.006193 0.013775 -0.008171 0.000000 0.003034 0.000000
# 3 0.007698 -0.008171 0.020475 0.000000 -0.010015 0.000000
# 4 0.000000 0.000000 0.000000 0.055278 0.000000 0.024628
# 5 -0.029023 0.003034 -0.010015 0.000000 0.060406 0.000000
# 6 0.000000 0.000000 0.000000 0.024628 0.000000 -0.118482
#
#
# Mechanical properties :
#
#
# Convention : Reuss Voigt Hill
#
# Bulk Modulus (GPa) = 14.84048 33.18296 24.01172
# Shear Modulus (GPa) = 43.97075 16.83219 30.40147
#
# Velocity S-wave (km/s) = 4.86298 3.00878 4.04360
# Velocity P-wave (km/s) = 6.28594 5.46964 5.89194
#
# Compressibility (1/GPa) = 0.06738326
#
# Stress axis : x y z
#
# Youngs Moduli (GPa) = 21.52098 72.59471 48.84094
#
# Poissons Ratio (x) = 0.44959 -0.37596
# Poissons Ratio (y) = 0.13328 0.39907
# Poissons Ratio (z) = -0.16566 0.59315
#
# Static dielectric constant tensor:
#      x y z
#    x 1.647790 0.000000 -0.006180 
#    y 0.000000 1.632720 0.000000 
#    z -0.006180 0.000000 1.620220 
# 
# From -- ./inp_files/330392.got.cif
#   From: 2010.05.17/outbox.cif.g08.bks.cpg/sg12_166_cif.got.tgz:330392.got - 2010.06.03 13:09:07.
