data_PCOD9209534
_publ_section_title
;
Structure prediction by ZEFSAII (Michael W. Deem and Ramdas Pophale) SiO2 
 PCOD9209534
Probable space group: C 2/M
;
_chemical_formula_sum "Si O2"
_cell_formula_units_Z 40
_cell_length_a 7.794545
_cell_length_b 21.973401
_cell_length_c 11.535970
_cell_angle_alpha 90.000000
_cell_angle_beta 89.004989
_cell_angle_gamma 90.000000
_cell_volume 1975.498373
_symmetry_space_group_name_H-M "C 2/M"
_symmetry_group_IT_number 12
_symmetry_cell_setting 'monoclinic'
loop_
_space_group_symop_operation_xyz
x,y,z
-x,y,-z
-x,-y,-z
x,-y,z
1/2+x,1/2+y,z
1/2-x,1/2+y,-z
1/2-x,1/2-y,-z
1/2+x,1/2-y,z
loop_
_atom_site_type_symbol
_atom_site_label
_atom_site_fract_x
_atom_site_fract_y
_atom_site_fract_z
Si Si1 0.926638 0.398830 0.617474
Si Si2 0.897456 0.170920 0.338759
Si Si3 0.089967 0.500000 0.186917
Si Si4 0.770036 0.000000 0.944500
Si Si5 0.775162 0.691833 0.308045
Si Si6 0.425724 0.630731 0.881780
O O1 0.743756 0.368089 0.594078
O O2 0.906587 0.443039 0.726439
O O3 0.000000 0.428841 0.500000
O O4 0.065796 0.347247 0.648892
O O5 0.822077 0.237747 0.316289
O O6 0.094416 0.179888 0.377041
O O7 0.926998 0.135872 0.216457
O O8 0.909751 0.500000 0.121280
O O9 0.230962 0.500000 0.082887
O O10 0.865046 0.938039 0.906304
O O11 0.726039 0.669325 0.178301
O O12 0.500000 0.656465 0.000000
#
# Coordination Sequence:
#
# PCOD9209534 Si02
#       6
#     8   8   4   4   8   8
#     4  12  24  43  67  93 130 169 214 266 315 374
#     4  10  22  42  64  92 133 167 208 266 312 379
#     4  11  23  42  65  99 124 168 214 263 323 379
#     4  11  21  40  71  90 131 167 210 266 315 386
#     4  10  22  42  62  94 136 159 218 259 314 380
#     4  10  21  38  62  94 127 169 210 259 317 376
#
# _framework density 20.248055999999998
#
# number of rings (size 3 to 8) (size 9 to 14) (size 15 to 20)
#    1.200    0.200    4.000    1.800    0.000    3.200 
#    0.000    0.000    0.000    3.600    0.000    0.000 
#    0.000    0.000    0.000    0.000    0.000    0.000 
#
# Total GULP energy -111511.386134 kJ/mol
# GULP energy per Si atom -5575.569307 kJ/mol
# Density = 2.020197 g / cm^3
# Si number density = 20.248056 Si / 1000 Ang^3
#
#
#
# Elastic Constant Matrix: (Units=GPa)
#
#
# Indices 1 2 3 4 5 6 
#
# 1 123.2795 41.1476 40.3891 0.0000 -14.6591 0.0000
# 2 41.1476 108.3604 46.5498 0.0000 -21.7382 0.0000
# 3 40.3891 46.5498 108.2170 0.0000 -9.9707 0.0000
# 4 0.0000 0.0000 0.0000 -2.6349 0.0000 -23.5033
# 5 -14.6591 -21.7382 -9.9707 0.0000 34.6671 0.0000
# 6 0.0000 0.0000 0.0000 -23.5033 0.0000 22.6714
#
#
#
# Elastic Compliance Matrix: (Units=1/GPa)
#
#
# Indices 1 2 3 4 5 6 
#
# 1 0.009948 -0.002273 -0.002547 0.000000 0.002049 0.000000
# 2 -0.002273 0.013127 -0.004241 0.000000 0.006051 0.000000
# 3 -0.002547 -0.004241 0.011989 0.000000 -0.000288 0.000000
# 4 0.000000 0.000000 0.000000 -0.037036 0.000000 -0.038395
# 5 0.002049 0.006051 -0.000288 0.000000 0.033424 0.000000
# 6 0.000000 0.000000 0.000000 -0.038395 0.000000 0.004304
#
#
# Mechanical properties :
#
#
# Convention : Reuss Voigt Hill
#
# Bulk Modulus (GPa) = 59.01823 66.22555 62.62189
# Shear Modulus (GPa) = 83.99958 25.05875 54.52917
#
# Velocity S-wave (km/s) = 6.44789 3.52175 5.19510
# Velocity P-wave (km/s) = 9.20025 7.02247 8.18412
#
# Compressibility (1/GPa) = 0.01694392
#
# Stress axis : x y z
#
# Youngs Moduli (GPa) = 100.52131 76.17809 83.41083
#
# Poissons Ratio (x) = 0.17312 0.21241
# Poissons Ratio (y) = 0.22844 0.35375
# Poissons Ratio (z) = 0.25598 0.32307
#
# Static dielectric constant tensor:
#      x y z
#    x 1.732370 0.000000 -0.002310 
#    y 0.000000 1.668160 0.000000 
#    z -0.002310 0.000000 1.742480 
# 
# From -- ./inp_files/121317.got.cif
#   From: 2010.05.17/outbox.cif.g08.bks.cpg/sg12_61_cif.got.tgz:121317.got - 2010.06.03 13:09:07.
