data_PCOD9209646
_publ_section_title
;
Structure prediction by ZEFSAII (Michael W. Deem and Ramdas Pophale) SiO2 
 PCOD9209646
Probable space group: C 2/M
;
_chemical_formula_sum "Si O2"
_cell_formula_units_Z 48
_cell_length_a 10.045686
_cell_length_b 32.582762
_cell_length_c 12.227389
_cell_angle_alpha 90.000000
_cell_angle_beta 35.927581
_cell_angle_gamma 90.000000
_cell_volume 2348.352957
_symmetry_space_group_name_H-M "C 2/M"
_symmetry_group_IT_number 12
_symmetry_cell_setting 'monoclinic'
loop_
_space_group_symop_operation_xyz
x,y,z
-x,y,-z
-x,-y,-z
x,-y,z
1/2+x,1/2+y,z
1/2-x,1/2+y,-z
1/2-x,1/2-y,-z
1/2+x,1/2-y,z
loop_
_atom_site_type_symbol
_atom_site_label
_atom_site_fract_x
_atom_site_fract_y
_atom_site_fract_z
Si Si1 0.089861 0.163981 0.263132
Si Si2 0.493226 0.246324 0.628266
Si Si3 0.768474 0.422072 0.215960
Si Si4 0.217506 0.047446 0.498051
Si Si5 0.906105 0.627322 0.445296
Si Si6 0.771478 0.825925 0.080647
O O1 0.111946 0.208071 0.304507
O O2 0.216424 0.126665 0.239530
O O3 0.825989 0.150662 0.430884
O O4 0.174891 0.170129 0.082548
O O5 0.500000 0.230381 0.500000
O O6 0.350670 0.216318 0.801204
O O7 0.750000 0.250000 0.500000
O O8 0.551142 0.444635 0.307773
O O9 0.770728 0.437281 0.339102
O O10 0.000000 0.431293 0.000000
O O11 0.348950 0.079347 0.485611
O O12 0.272030 0.000000 0.474832
O O13 0.000000 0.640167 0.500000
O O14 0.097141 0.638568 0.230882
O O15 0.000000 0.829504 0.000000
#
# Coordination Sequence:
#
# PCOD9209646 Si02
#       6
#     8   8   8   8   8   8
#     4  11  24  39  66  95 124 172 220 259 319 382
#     4  12  26  43  66  94 136 175 218 279 325 378
#     4  10  21  38  63  93 127 164 205 260 317 379
#     4  10  23  40  64  96 128 164 206 259 330 391
#     4  11  22  42  66  89 128 167 213 267 313 385
#     4  12  23  42  66  91 126 172 220 262 327 380
#
# _framework density 20.439858000000001
#
# number of rings (size 3 to 8) (size 9 to 14) (size 15 to 20)
#    0.000    1.000    3.333    4.000    4.667    3.667 
#    0.000    0.000    0.000    0.500    0.000    0.000 
#    0.000    0.000    0.000    0.000    0.000    0.000 
#
# Total GULP energy -134283.945807 kJ/mol
# GULP energy per Si atom -5595.164409 kJ/mol
# Density = 2.039334 g / cm^3
# Si number density = 20.439858 Si / 1000 Ang^3
#
#
#
# Elastic Constant Matrix: (Units=GPa)
#
#
# Indices 1 2 3 4 5 6 
#
# 1 50.0176 15.9473 25.7127 0.0000 -2.5545 0.0000
# 2 15.9473 158.9371 32.2420 0.0000 -1.3260 0.0000
# 3 25.7127 32.2420 144.9245 0.0000 -10.6448 0.0000
# 4 0.0000 0.0000 0.0000 7.6179 0.0000 -0.1422
# 5 -2.5545 -1.3260 -10.6448 0.0000 26.2043 0.0000
# 6 0.0000 0.0000 0.0000 -0.1422 0.0000 11.9231
#
#
#
# Elastic Compliance Matrix: (Units=1/GPa)
#
#
# Indices 1 2 3 4 5 6 
#
# 1 0.022349 -0.001510 -0.003582 0.000000 0.000647 0.000000
# 2 -0.001510 0.006693 -0.001244 0.000000 -0.000314 0.000000
# 3 -0.003582 -0.001244 0.008021 0.000000 0.002846 0.000000
# 4 0.000000 0.000000 0.000000 0.131299 0.000000 0.001566
# 5 0.000647 -0.000314 0.002846 0.000000 0.039365 0.000000
# 6 0.000000 0.000000 0.000000 0.001566 0.000000 0.083889
#
#
# Mechanical properties :
#
#
# Convention : Reuss Voigt Hill
#
# Bulk Modulus (GPa) = 40.99864 55.74258 48.37061
# Shear Modulus (GPa) = 16.00415 27.81422 21.90918
#
# Velocity S-wave (km/s) = 2.80123 3.69288 3.27752
# Velocity P-wave (km/s) = 5.52849 6.74640 6.16758
#
# Compressibility (1/GPa) = 0.02439105
#
# Stress axis : x y z
#
# Youngs Moduli (GPa) = 44.74516 149.40732 124.66579
#
# Poissons Ratio (x) = 0.22567 0.44650
# Poissons Ratio (y) = 0.06759 0.15510
# Poissons Ratio (z) = 0.16026 0.18588
#
# Static dielectric constant tensor:
#      x y z
#    x 1.714500 0.000000 0.005940 
#    y 0.000000 1.739580 0.000000 
#    z 0.005940 0.000000 1.715520 
# 
# From -- ./inp_files/209309.got.cif
#   From: 2010.05.17/outbox.cif.g08.bks.cpg/sg12_105_cif.got.tgz:209309.got - 2010.06.03 13:09:07.
