data_PCOD9209665
_publ_section_title
;
Structure prediction by ZEFSAII (Michael W. Deem and Ramdas Pophale) SiO2 
 PCOD9209665
Probable space group: C 2/M
;
_chemical_formula_sum "Si O2"
_cell_formula_units_Z 32
_cell_length_a 15.806387
_cell_length_b 20.810613
_cell_length_c 7.542643
_cell_angle_alpha 90.000000
_cell_angle_beta 144.025734
_cell_angle_gamma 90.000000
_cell_volume 1457.441452
_symmetry_space_group_name_H-M "C 2/M"
_symmetry_group_IT_number 12
_symmetry_cell_setting 'monoclinic'
loop_
_space_group_symop_operation_xyz
x,y,z
-x,y,-z
-x,-y,-z
x,-y,z
1/2+x,1/2+y,z
1/2-x,1/2+y,-z
1/2-x,1/2-y,-z
1/2+x,1/2-y,z
loop_
_atom_site_type_symbol
_atom_site_label
_atom_site_fract_x
_atom_site_fract_y
_atom_site_fract_z
Si Si1 0.666360 0.929865 0.837747
Si Si2 0.324833 0.794067 0.978157
Si Si3 0.454762 0.429354 0.129860
Si Si4 0.069479 0.794345 0.313098
O O1 0.500000 0.929171 0.500000
O O2 0.783301 0.924294 0.876903
O O3 0.693205 0.000000 0.967416
O O4 0.684737 0.868095 0.989169
O O5 0.236085 0.786274 0.644802
O O6 0.250000 0.750000 0.000000
O O7 0.485906 0.767303 0.246328
O O8 0.498732 0.500000 0.277312
O O9 0.500000 0.431152 0.000000
O O10 0.522441 0.363315 0.318041
O O11 0.000000 0.798757 0.000000
#
# Coordination Sequence:
#
# PCOD9209665 Si02
#       4
#     8   8   8   8
#     4  10  21  38  63  94 128 166 208 259 317 374
#     4  12  23  39  63  93 126 162 211 266 315 372
#     4   9  19  37  62  90 125 163 206 254 310 374
#     4  11  24  41  62  89 126 169 211 257 318 379
#
# _framework density 21.956287
#
# number of rings (size 3 to 8) (size 9 to 14) (size 15 to 20)
#    0.000    1.500    2.500    3.000    0.000    1.000 
#    0.000    2.500    0.000    0.750    0.000    0.000 
#    0.000    0.000    0.000    0.000    0.000    0.000 
#
# Total GULP energy -89169.152736 kJ/mol
# GULP energy per Si atom -5573.072046 kJ/mol
# Density = 2.190631 g / cm^3
# Si number density = 21.956287 Si / 1000 Ang^3
#
#
#
# Elastic Constant Matrix: (Units=GPa)
#
#
# Indices 1 2 3 4 5 6 
#
# 1 53.2364 40.3240 24.8864 0.0000 0.6916 0.0000
# 2 40.3240 183.2824 43.8876 0.0000 -1.7231 0.0000
# 3 24.8864 43.8876 117.7642 0.0000 7.1429 0.0000
# 4 0.0000 0.0000 0.0000 19.2486 0.0000 6.5934
# 5 0.6916 -1.7231 7.1429 0.0000 35.0989 0.0000
# 6 0.0000 0.0000 0.0000 6.5934 0.0000 28.2085
#
#
#
# Elastic Compliance Matrix: (Units=1/GPa)
#
#
# Indices 1 2 3 4 5 6 
#
# 1 0.023696 -0.004408 -0.003365 0.000000 0.000002 0.000000
# 2 -0.004408 0.006830 -0.001660 0.000000 0.000760 0.000000
# 3 -0.003365 -0.001660 0.009945 0.000000 -0.002039 0.000000
# 4 0.000000 0.000000 0.000000 0.056473 0.000000 -0.013200
# 5 0.000002 0.000760 -0.002039 0.000000 0.028943 0.000000
# 6 0.000000 0.000000 0.000000 -0.013200 0.000000 0.038536
#
#
# Mechanical properties :
#
#
# Convention : Reuss Voigt Hill
#
# Bulk Modulus (GPa) = 46.28406 63.60876 54.94641
# Shear Modulus (GPa) = 26.24804 32.85688 29.55246
#
# Velocity S-wave (km/s) = 3.46131 3.87262 3.67272
# Velocity P-wave (km/s) = 6.09098 7.00212 6.56238
#
# Compressibility (1/GPa) = 0.02160571
#
# Stress axis : x y z
#
# Youngs Moduli (GPa) = 42.20184 146.40331 100.55255
#
# Poissons Ratio (x) = 0.64527 0.33836
# Poissons Ratio (y) = 0.18600 0.16694
# Poissons Ratio (z) = 0.14201 0.24306
#
# Static dielectric constant tensor:
#      x y z
#    x 1.862510 0.000000 -0.033820 
#    y 0.000000 1.849420 0.000000 
#    z -0.033820 0.000000 1.793040 
# 
# From -- ./inp_files/37652.got.cif
#   From: 2010.05.17/outbox.cif.g08.bks.cpg/sg12_19_cif.got.tgz:37652.got - 2010.06.03 13:09:07.
