data_PCOD9209658
_publ_section_title
;
Structure prediction by ZEFSAII (Michael W. Deem and Ramdas Pophale) SiO2 
 PCOD9209658
Probable space group: C 2/M
;
_chemical_formula_sum "Si O2"
_cell_formula_units_Z 40
_cell_length_a 13.929022
_cell_length_b 13.550339
_cell_length_c 24.651452
_cell_angle_alpha 90.000000
_cell_angle_beta 157.546609
_cell_angle_gamma 90.000000
_cell_volume 1777.047555
_symmetry_space_group_name_H-M "C 2/M"
_symmetry_group_IT_number 12
_symmetry_cell_setting 'monoclinic'
loop_
_space_group_symop_operation_xyz
x,y,z
-x,y,-z
-x,-y,-z
x,-y,z
1/2+x,1/2+y,z
1/2-x,1/2+y,-z
1/2-x,1/2-y,-z
1/2+x,1/2-y,z
loop_
_atom_site_type_symbol
_atom_site_label
_atom_site_fract_x
_atom_site_fract_y
_atom_site_fract_z
Si Si1 0.866955 0.290092 0.631779
Si Si2 0.047620 0.883536 0.253747
Si Si3 0.848800 0.743017 0.324176
Si Si4 0.267772 0.617572 0.914431
Si Si5 0.098417 0.616800 0.942968
O O1 0.907047 0.174456 0.667111
O O2 0.572280 0.304150 0.469820
O O3 0.014982 0.313268 0.654093
O O4 0.005814 0.344471 0.753246
O O5 0.230005 0.832326 0.305053
O O6 0.088313 0.000000 0.278470
O O7 0.766138 0.865560 0.083707
O O8 0.642363 0.815749 0.191172
O O9 0.270774 0.500000 0.910562
O O10 0.273314 0.638291 0.981352
O O11 0.500000 0.657103 0.000000
O O12 0.036047 0.500000 0.909069
#
# Coordination Sequence:
#
# PCOD9209658 Si02
#       5
#     8   8   8   8   8
#     4  11  25  39  64  95 127 170 212 266 326 378
#     4  11  24  43  67  95 129 174 219 263 322 389
#     4  11  24  42  61  94 131 167 214 266 322 383
#     4  10  21  38  63  94 123 160 211 264 321 383
#     4  10  22  40  65  93 124 164 211 266 320 378
#
# _framework density 22.509246000000001
#
# number of rings (size 3 to 8) (size 9 to 14) (size 15 to 20)
#    0.000    1.400    2.000    2.400    2.800    5.600 
#    0.000    8.000    0.000    0.000    0.000    0.000 
#    0.000    0.000    0.000    0.000    0.000    0.000 
#
# Total GULP energy -111907.616081 kJ/mol
# GULP energy per Si atom -5595.380804 kJ/mol
# Density = 2.245801 g / cm^3
# Si number density = 22.509246 Si / 1000 Ang^3
#
#
#
# Elastic Constant Matrix: (Units=GPa)
#
#
# Indices 1 2 3 4 5 6 
#
# 1 48.8806 14.7629 9.4016 0.0023 0.3686 0.0001
# 2 14.7629 51.1812 26.3133 0.0074 13.2682 -0.0014
# 3 9.4016 26.3133 116.7838 0.0260 6.1398 -0.0084
# 4 0.0023 0.0074 0.0260 17.2901 -0.0065 -6.7893
# 5 0.3686 13.2682 6.1398 -0.0065 29.7678 0.0018
# 6 0.0001 -0.0014 -0.0084 -6.7893 0.0018 18.4018
#
#
#
# Elastic Compliance Matrix: (Units=1/GPa)
#
#
# Indices 1 2 3 4 5 6 
#
# 1 0.022656 -0.007110 -0.000378 0.000001 0.002966 -0.000001
# 2 -0.007110 0.026950 -0.004926 -0.000008 -0.010908 -0.000002
# 3 -0.000378 -0.004926 0.009693 -0.000013 0.000201 -0.000001
# 4 0.000001 -0.000008 -0.000013 0.067635 0.000019 0.024954
# 5 0.002966 -0.010908 0.000201 0.000019 0.038377 0.000003
# 6 -0.000001 -0.000002 -0.000001 0.024954 0.000003 0.063549
#
#
# Mechanical properties :
#
#
# Convention : Reuss Voigt Hill
#
# Bulk Modulus (GPa) = 29.01060 35.31126 32.16093
# Shear Modulus (GPa) = 18.85538 24.18314 21.51926
#
# Velocity S-wave (km/s) = 2.89740 3.28131 3.09531
# Velocity P-wave (km/s) = 4.91014 5.48429 5.20514
#
# Compressibility (1/GPa) = 0.03447016
#
# Stress axis : x y z
#
# Youngs Moduli (GPa) = 44.13927 37.10626 103.17079
#
# Poissons Ratio (x) = 0.26381 0.03899
# Poissons Ratio (y) = 0.31381 0.50826
# Poissons Ratio (z) = 0.01668 0.18280
#
# Static dielectric constant tensor:
#      x y z
#    x 1.859630 0.000000 0.012030 
#    y 0.000000 1.818090 0.000000 
#    z 0.012030 0.000000 1.838640 
# 
# From -- ./inp_files/58939.got.cif
#   From: 2010.05.17/outbox.cif.g08.bks.cpg/sg12_30_cif.got.tgz:58939.got - 2010.06.03 13:09:07.
