data_PCOD9209483
_publ_section_title
;
Structure prediction by ZEFSAII (Michael W. Deem and Ramdas Pophale) SiO2 
 PCOD9209483
Probable space group: C 2/M
;
_chemical_formula_sum "Si O2"
_cell_formula_units_Z 56
_cell_length_a 9.832671
_cell_length_b 16.530467
_cell_length_c 18.454855
_cell_angle_alpha 90.000000
_cell_angle_beta 132.510610
_cell_angle_gamma 90.000000
_cell_volume 2211.181770
_symmetry_space_group_name_H-M "C 2/M"
_symmetry_group_IT_number 12
_symmetry_cell_setting 'monoclinic'
loop_
_space_group_symop_operation_xyz
x,y,z
-x,y,-z
-x,-y,-z
x,-y,z
1/2+x,1/2+y,z
1/2-x,1/2+y,-z
1/2-x,1/2-y,-z
1/2+x,1/2-y,z
loop_
_atom_site_type_symbol
_atom_site_label
_atom_site_fract_x
_atom_site_fract_y
_atom_site_fract_z
Si Si1 0.325288 0.834068 0.317082
Si Si2 0.163669 0.595602 0.350970
Si Si3 0.053970 0.595520 0.862057
Si Si4 0.265081 0.595888 0.070880
Si Si5 0.394266 0.662398 0.895936
Si Si6 0.990323 0.904487 0.284737
Si Si7 0.571739 0.303584 0.456513
O O1 0.489306 0.886355 0.340471
O O2 0.215158 0.795542 0.208834
O O3 0.178724 0.886920 0.308257
O O4 0.415794 0.767065 0.400326
O O5 0.197696 0.500000 0.360493
O O6 0.335808 0.642041 0.446217
O O7 0.103956 0.625350 0.249233
O O8 0.022204 0.500000 0.859037
O O9 0.239478 0.609428 0.881151
O O10 0.103005 0.628337 0.959762
O O11 0.234081 0.500000 0.067278
O O12 0.449584 0.610795 0.089264
O O13 0.324804 0.625512 0.171949
O O14 0.500000 0.706601 0.000000
O O15 0.016908 0.860220 0.369677
O O16 0.965925 0.000000 0.286944
O O17 0.750000 0.250000 0.500000
#
# Coordination Sequence:
#
# PCOD9209483 Si02
#       7
#     8   8   8   8   8   8   8
#     4  10  22  38  65  93 125 160 202 253 311 361
#     4  10  21  38  62  92 123 159 207 255 301 358
#     4   8  13  24  49  85 121 152 186 239 300 355
#     4   8  13  25  51  87 121 149 185 239 300 355
#     4   8  13  25  49  83 123 153 189 233 298 364
#     4  10  22  41  67  96 122 156 205 255 302 360
#     4  12  28  43  61  82 124 170 208 251 311 371
#
# _framework density 25.325823
#
# number of rings (size 3 to 8) (size 9 to 14) (size 15 to 20)
#    0.000    2.571    0.000    1.714    4.000    6.286 
#    0.000    1.429    3.143    3.429    0.000    4.000 
#    0.000    0.000    0.000    0.000    0.000    0.000 
#
# Total GULP energy -156379.066724 kJ/mol
# GULP energy per Si atom -5584.966669 kJ/mol
# Density = 2.526818 g / cm^3
# Si number density = 25.325823 Si / 1000 Ang^3
#
#
#
# Elastic Constant Matrix: (Units=GPa)
#
#
# Indices 1 2 3 4 5 6 
#
# 1 68.4831 25.3562 56.0882 0.0000 5.2151 0.0000
# 2 25.3562 80.8927 62.1684 0.0000 -2.3346 0.0000
# 3 56.0882 62.1684 290.5697 0.0000 -2.0157 0.0000
# 4 0.0000 0.0000 0.0000 -15.3697 0.0000 -36.7093
# 5 5.2151 -2.3346 -2.0157 0.0000 53.4892 0.0000
# 6 0.0000 0.0000 0.0000 -36.7093 0.0000 8.3520
#
#
#
# Elastic Compliance Matrix: (Units=1/GPa)
#
#
# Indices 1 2 3 4 5 6 
#
# 1 0.018400 -0.003694 -0.002776 0.000000 -0.002060 0.000000
# 2 -0.003694 0.015551 -0.002608 0.000000 0.000941 0.000000
# 3 -0.002776 -0.002608 0.004538 0.000000 0.000328 0.000000
# 4 0.000000 0.000000 0.000000 -0.005659 0.000000 -0.024872
# 5 -0.002060 0.000941 0.000328 0.000000 0.018950 0.000000
# 6 0.000000 0.000000 0.000000 -0.024872 0.000000 0.010413
#
#
# Mechanical properties :
#
#
# Convention : Reuss Voigt Hill
#
# Bulk Modulus (GPa) = 49.17813 80.79676 64.98745
# Shear Modulus (GPa) = 57.38860 29.04983 43.21921
#
# Velocity S-wave (km/s) = 4.76543 3.39048 4.13550
# Velocity P-wave (km/s) = 7.05262 6.87745 6.96558
#
# Compressibility (1/GPa) = 0.02033424
#
# Stress axis : x y z
#
# Youngs Moduli (GPa) = 54.34789 64.30408 220.38560
#
# Poissons Ratio (x) = 0.23753 0.61173
# Poissons Ratio (y) = 0.20075 0.57470
# Poissons Ratio (z) = 0.15085 0.16768
#
# Static dielectric constant tensor:
#      x y z
#    x 2.384000 0.000000 -0.081960 
#    y 0.000000 2.077780 0.000000 
#    z -0.081960 0.000000 2.030500 
# 
# From -- ./inp_files/264317.got.cif
#   From: 2010.05.17/outbox.cif.g08.bks.cpg/sg12_133_cif.got.tgz:264317.got - 2010.06.03 13:09:07.
