data_PCOD9209641
_publ_section_title
;
Structure prediction by ZEFSAII (Michael W. Deem and Ramdas Pophale) SiO2 
 PCOD9209641
Probable space group: C 2/M
;
_chemical_formula_sum "Si O2"
_cell_formula_units_Z 40
_cell_length_a 9.588689
_cell_length_b 20.974727
_cell_length_c 15.148974
_cell_angle_alpha 90.000000
_cell_angle_beta 35.893151
_cell_angle_gamma 90.000000
_cell_volume 1786.242968
_symmetry_space_group_name_H-M "C 2/M"
_symmetry_group_IT_number 12
_symmetry_cell_setting 'monoclinic'
loop_
_space_group_symop_operation_xyz
x,y,z
-x,y,-z
-x,-y,-z
x,-y,z
1/2+x,1/2+y,z
1/2-x,1/2+y,-z
1/2-x,1/2-y,-z
1/2+x,1/2-y,z
loop_
_atom_site_type_symbol
_atom_site_label
_atom_site_fract_x
_atom_site_fract_y
_atom_site_fract_z
Si Si1 0.754033 0.264190 0.836859
Si Si2 0.940032 0.673503 0.194801
Si Si3 0.632681 0.573292 0.026564
Si Si4 0.216076 0.929014 0.628684
Si Si5 0.183956 0.322603 0.556203
O O1 0.925776 0.263503 0.833659
O O2 0.703642 0.197808 0.814889
O O3 0.893901 0.314420 0.702978
O O4 0.500000 0.286868 0.000000
O O5 0.776872 0.657386 0.362353
O O6 0.144341 0.621272 0.077663
O O7 0.721186 0.500000 0.985695
O O8 0.443759 0.581299 0.202717
O O9 0.500000 0.578932 0.000000
O O10 0.500000 0.930655 0.500000
O O11 0.197225 0.872002 0.569180
O O12 0.151900 0.000000 0.627053
O O13 0.250000 0.250000 0.500000
#
# Coordination Sequence:
#
# PCOD9209641 Si02
#       5
#     8   8   8   8   8
#     4  10  23  38  60  94 128 171 207 256 324 379
#     4  10  23  39  61  91 130 169 206 264 319 382
#     4  10  21  38  63  93 124 168 223 269 315 383
#     4  10  22  37  59  89 127 166 210 271 329 376
#     4  10  25  36  61  94 130 167 208 264 319 389
#
# _framework density 22.393370999999998
#
# number of rings (size 3 to 8) (size 9 to 14) (size 15 to 20)
#    1.200    0.800    0.000    2.400    8.400    2.400 
#    0.000    0.000    0.000    2.400    0.000    5.600 
#    0.000    0.000    0.000    0.000    0.000    0.000 
#
# Total GULP energy -111489.628932 kJ/mol
# GULP energy per Si atom -5574.481447 kJ/mol
# Density = 2.234240 g / cm^3
# Si number density = 22.393371 Si / 1000 Ang^3
#
#
#
# Elastic Constant Matrix: (Units=GPa)
#
#
# Indices 1 2 3 4 5 6 
#
# 1 46.7748 49.2082 46.4773 0.0001 -1.1580 0.0001
# 2 49.2082 161.4557 86.2587 0.0007 20.1960 -0.0002
# 3 46.4773 86.2587 173.6512 -0.0010 21.0730 -0.0003
# 4 0.0001 0.0007 -0.0010 43.3025 -0.0001 -1.0768
# 5 -1.1580 20.1960 21.0730 -0.0001 37.6994 0.0002
# 6 0.0001 -0.0002 -0.0003 -1.0768 0.0002 32.6944
#
#
#
# Elastic Compliance Matrix: (Units=1/GPa)
#
#
# Indices 1 2 3 4 5 6 
#
# 1 0.038088 -0.009201 -0.006827 0.000000 0.009915 0.000000
# 2 -0.009201 0.010850 -0.002346 0.000000 -0.004784 0.000000
# 3 -0.006827 -0.002346 0.009252 0.000000 -0.004124 0.000000
# 4 0.000000 0.000000 0.000000 0.023112 0.000000 0.000761
# 5 0.009915 -0.004784 -0.004124 0.000000 0.031698 0.000000
# 6 0.000000 0.000000 0.000000 0.000761 0.000000 0.030611
#
#
# Mechanical properties :
#
#
# Convention : Reuss Voigt Hill
#
# Bulk Modulus (GPa) = 46.64008 82.86335 64.75172
# Shear Modulus (GPa) = 26.66563 36.06843 31.36703
#
# Velocity S-wave (km/s) = 3.45452 4.01767 3.74669
# Velocity P-wave (km/s) = 6.06502 7.65546 6.90618
#
# Compressibility (1/GPa) = 0.02144079
#
# Stress axis : x y z
#
# Youngs Moduli (GPa) = 26.25504 92.16642 108.08693
#
# Poissons Ratio (x) = 0.84806 0.73788
# Poissons Ratio (y) = 0.24158 0.25361
# Poissons Ratio (z) = 0.17924 0.21625
#
# Static dielectric constant tensor:
#      x y z
#    x 1.939330 0.000000 0.080880 
#    y 0.000000 1.860050 0.000000 
#    z 0.080880 0.000000 1.972900 
# 
# From -- ./inp_files/198194.got.cif
#   From: 2010.05.17/outbox.cif.g08.bks.cpg/sg12_100_cif.got.tgz:198194.got - 2010.06.03 13:09:07.
