data_PCOD9209625
_publ_section_title
;
Structure prediction by ZEFSAII (Michael W. Deem and Ramdas Pophale) SiO2 
 PCOD9209625
Probable space group: C 2/M
;
_chemical_formula_sum "Si O2"
_cell_formula_units_Z 56
_cell_length_a 9.149383
_cell_length_b 18.865665
_cell_length_c 26.893931
_cell_angle_alpha 90.000000
_cell_angle_beta 39.721613
_cell_angle_gamma 90.000000
_cell_volume 2966.596573
_symmetry_space_group_name_H-M "C 2/M"
_symmetry_group_IT_number 12
_symmetry_cell_setting 'monoclinic'
loop_
_space_group_symop_operation_xyz
x,y,z
-x,y,-z
-x,-y,-z
x,-y,z
1/2+x,1/2+y,z
1/2-x,1/2+y,-z
1/2-x,1/2-y,-z
1/2+x,1/2-y,z
loop_
_atom_site_type_symbol
_atom_site_label
_atom_site_fract_x
_atom_site_fract_y
_atom_site_fract_z
Si Si1 0.499255 0.085222 0.644752
Si Si2 0.212845 0.822891 0.980086
Si Si3 0.774736 0.918071 0.930948
Si Si4 0.198073 0.413943 0.485984
Si Si5 0.783173 0.914822 0.670422
Si Si6 0.148479 0.321200 0.797560
Si Si7 0.532715 0.329714 0.778969
O O1 0.635740 0.104642 0.558906
O O2 0.643544 0.101565 0.656626
O O3 0.260252 0.126042 0.707827
O O4 0.461004 0.000000 0.653729
O O5 0.437759 0.839053 0.889099
O O6 0.250000 0.750000 0.000000
O O7 0.159556 0.883683 0.033815
O O8 0.000000 0.812601 0.000000
O O9 0.886776 0.873310 0.857652
O O10 0.843074 0.000000 0.909376
O O11 0.500000 0.913325 0.000000
O O12 0.200072 0.500000 0.483228
O O13 0.452902 0.391002 0.404643
O O14 0.000000 0.389389 0.500000
O O15 0.675802 0.877349 0.746219
O O16 0.780494 0.000000 0.677230
O O17 0.375899 0.319205 0.771607
O O18 0.098032 0.245243 0.786120
#
# Coordination Sequence:
#
# PCOD9209625 Si02
#       7
#     8   8   8   8   8   8   8
#     4  10  21  38  63  92 127 168 205 255 312 368
#     4  12  24  42  67  90 122 167 212 255 310 373
#     4  11  24  43  65  93 125 160 205 259 313 366
#     4   9  17  34  61  91 125 166 208 250 306 371
#     4  10  22  39  61  94 129 161 208 260 309 369
#     4  12  25  40  64  90 122 164 209 256 316 372
#     4  12  24  41  62  90 122 163 209 258 308 376
#
# _framework density 18.876850000000001
#
# number of rings (size 3 to 8) (size 9 to 14) (size 15 to 20)
#    0.000    1.143    2.857    3.857    2.000    4.857 
#    0.000    0.714    0.000    0.000    0.000    0.000 
#    0.000    0.000    0.000    0.000    0.000    0.000 
#
# Total GULP energy -156554.870536 kJ/mol
# GULP energy per Si atom -5591.245376 kJ/mol
# Density = 1.883389 g / cm^3
# Si number density = 18.876850 Si / 1000 Ang^3
#
#
#
# Elastic Constant Matrix: (Units=GPa)
#
#
# Indices 1 2 3 4 5 6 
#
# 1 166.2461 56.8620 47.1627 -0.0032 8.1336 0.0019
# 2 56.8620 68.0017 36.4087 0.0316 8.1571 -0.0020
# 3 47.1627 36.4087 117.3400 0.0075 13.0994 0.0024
# 4 -0.0032 0.0316 0.0075 5.4625 0.0174 8.1228
# 5 8.1336 8.1571 13.0994 0.0174 36.0099 -0.0026
# 6 0.0019 -0.0020 0.0024 8.1228 -0.0026 30.1161
#
#
#
# Elastic Compliance Matrix: (Units=1/GPa)
#
#
# Indices 1 2 3 4 5 6 
#
# 1 0.008633 -0.006432 -0.001479 0.000076 0.000045 -0.000021
# 2 -0.006432 0.022580 -0.004182 -0.000209 -0.002141 0.000058
# 3 -0.001479 -0.004182 0.010706 0.000031 -0.002613 -0.000010
# 4 0.000076 -0.000209 0.000031 0.305662 -0.000135 -0.082442
# 5 0.000045 -0.002141 -0.002613 -0.000135 0.029196 0.000039
# 6 -0.000021 0.000058 -0.000010 -0.082442 0.000039 0.055441
#
#
# Mechanical properties :
#
#
# Convention : Reuss Voigt Hill
#
# Bulk Modulus (GPa) = 56.39359 70.27275 63.33317
# Shear Modulus (GPa) = 10.81517 28.39467 19.60492
#
# Velocity S-wave (km/s) = 2.39620 3.88262 3.22618
# Velocity P-wave (km/s) = 6.13148 7.57677 6.89211
#
# Compressibility (1/GPa) = 0.01773251
#
# Stress axis : x y z
#
# Youngs Moduli (GPa) = 115.84117 44.28749 93.40554
#
# Poissons Ratio (x) = 0.28486 0.13815
# Poissons Ratio (y) = 0.74509 0.39061
# Poissons Ratio (z) = 0.17133 0.18521
#
# Static dielectric constant tensor:
#      x y z
#    x 1.625240 0.000010 -0.024060 
#    y 0.000010 1.631510 0.000010 
#    z -0.024060 0.000010 1.606030 
# 
# From -- ./inp_files/197534.got.cif
#   From: 2010.05.17/outbox.cif.g08.bks.cpg/sg12_99_cif.got.tgz:197534.got - 2010.06.03 13:09:07.
