data_PCOD9209445
_publ_section_title
;
Structure prediction by ZEFSAII (Michael W. Deem and Ramdas Pophale) SiO2 
 PCOD9209445
Probable space group: C 2/M
;
_chemical_formula_sum "Si O2"
_cell_formula_units_Z 42
_cell_length_a 23.845075
_cell_length_b 14.907748
_cell_length_c 8.355978
_cell_angle_alpha 90.000000
_cell_angle_beta 39.637837
_cell_angle_gamma 90.000000
_cell_volume 1894.885078
_symmetry_space_group_name_H-M "C 2/M"
_symmetry_group_IT_number 12
_symmetry_cell_setting 'monoclinic'
loop_
_space_group_symop_operation_xyz
x,y,z
-x,y,-z
-x,-y,-z
x,-y,z
1/2+x,1/2+y,z
1/2-x,1/2+y,-z
1/2-x,1/2-y,-z
1/2+x,1/2-y,z
loop_
_atom_site_type_symbol
_atom_site_label
_atom_site_fract_x
_atom_site_fract_y
_atom_site_fract_z
Si Si1 0.692036 0.209400 0.925254
Si Si2 0.552232 0.106229 0.044861
Si Si3 0.614389 0.899153 0.384659
Si Si4 0.500000 0.500000 0.000000
Si Si5 0.779260 0.098197 0.227835
Si Si6 0.667319 0.403382 0.520793
O O1 0.681105 0.315508 0.943973
O O2 0.791940 0.176216 0.672305
O O3 0.635648 0.165117 0.906000
O O4 0.655833 0.167774 0.167265
O O5 0.483316 0.118681 0.341527
O O6 0.573667 0.000000 0.985271
O O7 0.500000 0.132303 0.000000
O O8 0.677261 0.900855 0.402788
O O9 0.617569 0.000000 0.308523
O O10 0.436009 0.422493 0.225660
O O11 0.797315 0.106190 0.375625
O O12 0.815344 0.000000 0.099790
O O13 0.702331 0.500000 0.378770
#
# Coordination Sequence:
#
# PCOD9209445 Si02
#       6
#     8   8   8   2   8   8
#     4  12  21  36  64  94 118 164 212 251 313 373
#     4  10  21  38  62  96 130 160 199 255 313 374
#     4  10  21  38  62  90 126 157 198 262 316 369
#     4   8  20  40  64  90 126 160 200 254 310 352
#     4  10  22  41  59  84 124 168 206 258 309 364
#     4   9  19  38  62  88 121 159 203 251 297 369
#
# _framework density 22.164932
#
# number of rings (size 3 to 8) (size 9 to 14) (size 15 to 20)
#    0.571    1.333    0.000    4.571    0.000    4.571 
#    5.143    0.000    0.000    3.429    0.000    0.000 
#    0.000    0.000    0.000    0.000    0.000    0.000 
#
# Total GULP energy -116997.925003 kJ/mol
# GULP energy per Si atom -5571.329762 kJ/mol
# Density = 2.211448 g / cm^3
# Si number density = 22.164932 Si / 1000 Ang^3
#
#
#
# Elastic Constant Matrix: (Units=GPa)
#
#
# Indices 1 2 3 4 5 6 
#
# 1 45.8468 3.0136 4.5260 0.0000 1.0845 0.0000
# 2 3.0136 136.3179 66.7390 0.0000 5.3722 0.0000
# 3 4.5260 66.7390 92.9678 0.0000 -7.2988 0.0000
# 4 0.0000 0.0000 0.0000 8.1390 0.0000 3.0352
# 5 1.0845 5.3722 -7.2988 0.0000 21.4851 0.0000
# 6 0.0000 0.0000 0.0000 3.0352 0.0000 11.0532
#
#
#
# Elastic Compliance Matrix: (Units=1/GPa)
#
#
# Indices 1 2 3 4 5 6 
#
# 1 0.021970 0.000256 -0.001382 0.000000 -0.001642 0.000000
# 2 0.000256 0.012048 -0.009143 0.000000 -0.006131 0.000000
# 3 -0.001382 -0.009143 0.018053 0.000000 0.008489 0.000000
# 4 0.000000 0.000000 0.000000 0.136883 0.000000 -0.037589
# 5 -0.001642 -0.006131 0.008489 0.000000 0.051044 0.000000
# 6 0.000000 0.000000 0.000000 -0.037589 0.000000 0.100794
#
#
# Mechanical properties :
#
#
# Convention : Reuss Voigt Hill
#
# Bulk Modulus (GPa) = 31.71235 47.07662 39.39449
# Shear Modulus (GPa) = 13.44659 21.52569 17.48614
#
# Velocity S-wave (km/s) = 2.46572 3.11972 2.81180
# Velocity P-wave (km/s) = 4.73760 5.85340 5.32481
#
# Compressibility (1/GPa) = 0.03153346
#
# Stress axis : x y z
#
# Youngs Moduli (GPa) = 45.51604 83.00250 55.39141
#
# Poissons Ratio (x) = -0.02122 0.07655
# Poissons Ratio (y) = -0.01164 0.50642
# Poissons Ratio (z) = 0.06291 0.75886
#
# Static dielectric constant tensor:
#      x y z
#    x 1.883120 0.000000 -0.004610 
#    y 0.000000 1.828420 0.000000 
#    z -0.004610 0.000000 1.799360 
# 
# From -- ./inp_files/73304.got.cif
#   From: 2010.05.17/outbox.cif.g08.bks.cpg/sg12_37_cif.got.tgz:73304.got - 2010.06.03 13:09:07.
