data_PCOD9209980
_publ_section_title
;
Structure prediction by ZEFSAII (Michael W. Deem and Ramdas Pophale) SiO2 
 PCOD9209980
Probable space group: C 2/M
;
_chemical_formula_sum "Si O2"
_cell_formula_units_Z 46
_cell_length_a 15.094954
_cell_length_b 30.546373
_cell_length_c 5.165905
_cell_angle_alpha 90.000000
_cell_angle_beta 74.560772
_cell_angle_gamma 90.000000
_cell_volume 2296.021027
_symmetry_space_group_name_H-M "C 2/M"
_symmetry_group_IT_number 12
_symmetry_cell_setting 'monoclinic'
loop_
_space_group_symop_operation_xyz
x,y,z
-x,y,-z
-x,-y,-z
x,-y,z
1/2+x,1/2+y,z
1/2-x,1/2+y,-z
1/2-x,1/2-y,-z
1/2+x,1/2-y,z
loop_
_atom_site_type_symbol
_atom_site_label
_atom_site_fract_x
_atom_site_fract_y
_atom_site_fract_z
Si Si1 0.355385 0.421308 0.530815
Si Si2 0.605189 0.835521 0.341255
Si Si3 0.000000 0.155465 0.500000
Si Si4 0.144311 0.803850 0.045908
Si Si5 0.739200 0.395776 0.884697
Si Si6 0.325360 0.785105 0.211700
Si Si7 0.000000 0.000000 0.500000
O O1 0.419803 0.377818 0.472598
O O2 0.306278 0.426309 0.294402
O O3 0.420601 0.461633 0.543751
O O4 0.281056 0.413452 0.814247
O O5 0.500000 0.840353 0.500000
O O6 0.657994 0.881455 0.263040
O O7 0.653201 0.807618 0.533433
O O8 0.619393 0.810106 0.059875
O O9 0.046609 0.185525 0.247562
O O10 0.218681 0.789498 0.208566
O O11 0.184868 0.849444 0.913169
O O12 0.145893 0.765315 0.836607
#
# Coordination Sequence:
#
# PCOD9209980 Si02
#       7
#     8   8   4   8   8   8   2
#     4  10  22  38  59  90 115 153 174 230 282 362
#     4  11  22  38  55  81 110 151 204 259 282 339
#     4   9  18  33  54  78 108 146 194 224 284 345
#     4   9  20  35  54  76 111 154 196 252 291 352
#     4  10  21  39  58  79 115 151 195 226 296 344
#     4  10  22  36  53  76 110 152 200 254 313 316
#     4  10  24  42  68  98 134 138 188 222 284 358
#
# _framework density 20.034661
#
# number of rings (size 3 to 8) (size 9 to 14) (size 15 to 20)
#    0.000    2.087    0.000    3.652    1.217   16.696 
#    3.130    0.000    0.000    0.000    0.000    3.652 
#    0.000    0.000    0.000    0.000    0.000    0.000 
#
# Total GULP energy -128305.335310 kJ/mol
# GULP energy per Si atom -5578.492840 kJ/mol
# Density = 1.998906 g / cm^3
# Si number density = 20.034661 Si / 1000 Ang^3
#
#
#
# Elastic Constant Matrix: (Units=GPa)
#
#
# Indices 1 2 3 4 5 6 
#
# 1 61.5080 14.3518 39.5439 0.0000 -20.5949 0.0000
# 2 14.3518 75.9073 18.0620 0.0000 -10.7521 0.0000
# 3 39.5439 18.0620 94.5332 0.0000 -16.0983 0.0000
# 4 0.0000 0.0000 0.0000 -5.5614 0.0000 -3.5514
# 5 -20.5949 -10.7521 -16.0983 0.0000 32.7199 0.0000
# 6 0.0000 0.0000 0.0000 -3.5514 0.0000 21.7058
#
#
#
# Elastic Compliance Matrix: (Units=1/GPa)
#
#
# Indices 1 2 3 4 5 6 
#
# 1 0.026036 -0.001199 -0.008664 0.000000 0.011731 0.000000
# 2 -0.001199 0.014242 -0.001693 0.000000 0.003092 0.000000
# 3 -0.008664 -0.001693 0.014737 0.000000 0.001241 0.000000
# 4 0.000000 0.000000 0.000000 -0.162802 0.000000 -0.026637
# 5 0.011731 0.003092 0.001241 0.000000 0.039573 0.000000
# 6 0.000000 0.000000 0.000000 -0.026637 0.000000 0.041713
#
#
# Mechanical properties :
#
#
# Convention : Reuss Voigt Hill
#
# Bulk Modulus (GPa) = 31.34577 41.76266 36.55422
# Shear Modulus (GPa) = 690.12706 20.43892 355.28299
#
# Velocity S-wave (km/s) = 18.57995 3.19749 13.33113
# Velocity P-wave (km/s) = 21.81663 5.87557 15.97636
#
# Compressibility (1/GPa) = 0.03190223
#
# Stress axis : x y z
#
# Youngs Moduli (GPa) = 38.40821 70.21732 67.85465
#
# Poissons Ratio (x) = 0.08422 0.58791
# Poissons Ratio (y) = 0.04606 0.11486
# Poissons Ratio (z) = 0.33278 0.11886
#
# Static dielectric constant tensor:
#      x y z
#    x 1.749000 0.000000 0.006460 
#    y 0.000000 1.686050 0.000000 
#    z 0.006460 0.000000 1.739600 
# 
# From -- ./inp_files/12823.got.cif
#   From: 2010.05.17/outbox.cif.g08.bks.cpg/sg12_7_cif.got.tgz:12823.got - 2010.06.03 13:09:07.
