data_PCOD9209912
_publ_section_title
;
Structure prediction by ZEFSAII (Michael W. Deem and Ramdas Pophale) SiO2 
 PCOD9209912
Probable space group: C 2/M
;
_chemical_formula_sum "Si O2"
_cell_formula_units_Z 60
_cell_length_a 16.454925
_cell_length_b 15.344088
_cell_length_c 18.942422
_cell_angle_alpha 90.000000
_cell_angle_beta 39.011226
_cell_angle_gamma 90.000000
_cell_volume 3010.574353
_symmetry_space_group_name_H-M "C 2/M"
_symmetry_group_IT_number 12
_symmetry_cell_setting 'monoclinic'
loop_
_space_group_symop_operation_xyz
x,y,z
-x,y,-z
-x,-y,-z
x,-y,z
1/2+x,1/2+y,z
1/2-x,1/2+y,-z
1/2-x,1/2-y,-z
1/2+x,1/2-y,z
loop_
_atom_site_type_symbol
_atom_site_label
_atom_site_fract_x
_atom_site_fract_y
_atom_site_fract_z
Si Si1 0.636166 0.895469 0.693192
Si Si2 0.205714 0.895526 0.826222
Si Si3 0.046551 0.894628 0.075521
Si Si4 0.932906 0.000000 0.699504
Si Si5 0.317275 0.344994 0.873488
Si Si6 0.532617 0.894685 0.058900
Si Si7 0.455499 0.807555 0.699744
Si Si8 0.426377 0.661989 0.475388
O O1 0.576153 0.872874 0.810282
O O2 0.539101 0.865959 0.696671
O O3 0.774824 0.851917 0.589788
O O4 0.651408 0.000000 0.680864
O O5 0.349503 0.859543 0.725899
O O6 0.099551 0.864094 0.841296
O O7 0.211523 0.000000 0.817748
O O8 0.137669 0.874859 0.947285
O O9 0.105461 0.859526 0.106892
O O10 0.042899 0.000000 0.083296
O O11 0.015879 0.922734 0.602967
O O12 0.850913 0.923796 0.797574
O O13 0.368065 0.257411 0.804783
O O14 0.165332 0.348480 0.989769
O O15 0.550152 0.000000 0.050462
O O16 0.500000 0.872210 0.000000
O O17 0.545187 0.747155 0.590674
O O18 0.500000 0.669743 0.500000
#
# Coordination Sequence:
#
# PCOD9209912 Si02
#       8
#     8   8   8   4   8   8   8   8
#     4  11  24  43  68  91 125 173 212 260 313 377
#     4   9  19  37  61  88 127 169 215 252 308 375
#     4   9  17  34  62  91 125 174 210 251 304 383
#     4  10  21  38  67  93 120 166 205 257 306 387
#     4  11  21  37  61  94 135 159 203 257 321 372
#     4  10  22  37  63  97 133 166 208 257 312 381
#     4  11  25  40  62  95 129 166 207 266 313 376
#     4  11  25  43  69  91 122 166 219 262 314 371
#
# _framework density 19.929751
#
# number of rings (size 3 to 8) (size 9 to 14) (size 15 to 20)
#    0.000    1.733    2.000    2.600    3.733    5.333 
#    2.400    0.000    0.000    0.800    0.000    0.000 
#    0.000    0.000    0.000    0.000    0.000    0.000 
#
# Total GULP energy -167167.303625 kJ/mol
# GULP energy per Si atom -5572.243454 kJ/mol
# Density = 1.988439 g / cm^3
# Si number density = 19.929751 Si / 1000 Ang^3
#
#
#
# Elastic Constant Matrix: (Units=GPa)
#
#
# Indices 1 2 3 4 5 6 
#
# 1 85.7747 36.6898 52.9315 0.0000 -21.4214 0.0000
# 2 36.6898 47.6615 48.5277 0.0000 -7.4583 0.0000
# 3 52.9315 48.5277 137.5114 0.0000 -9.0528 0.0000
# 4 0.0000 0.0000 0.0000 9.2938 0.0000 -6.4831
# 5 -21.4214 -7.4583 -9.0528 0.0000 22.7500 0.0000
# 6 0.0000 0.0000 0.0000 -6.4831 0.0000 -2.9174
#
#
#
# Elastic Compliance Matrix: (Units=1/GPa)
#
#
# Indices 1 2 3 4 5 6 
#
# 1 0.022860 -0.011200 -0.003770 0.000000 0.016353 0.000000
# 2 -0.011200 0.039139 -0.009602 0.000000 -0.001535 0.000000
# 3 -0.003770 -0.009602 0.011985 0.000000 -0.001929 0.000000
# 4 0.000000 0.000000 0.000000 0.042193 0.000000 -0.093762
# 5 0.016353 -0.001535 -0.001929 0.000000 0.058083 0.000000
# 6 0.000000 0.000000 0.000000 -0.093762 0.000000 -0.134413
#
#
# Mechanical properties :
#
#
# Convention : Reuss Voigt Hill
#
# Bulk Modulus (GPa) = 40.25834 60.80508 50.53171
# Shear Modulus (GPa) = 51.40282 14.67854 33.04068
#
# Velocity S-wave (km/s) = 5.08409 2.71682 4.07610
# Velocity P-wave (km/s) = 7.39648 6.35747 6.89657
#
# Compressibility (1/GPa) = 0.02483957
#
# Stress axis : x y z
#
# Youngs Moduli (GPa) = 43.74531 25.54973 83.43691
#
# Poissons Ratio (x) = 0.28614 0.31459
# Poissons Ratio (y) = 0.48993 0.80119
# Poissons Ratio (z) = 0.16494 0.24534
#
# Static dielectric constant tensor:
#      x y z
#    x 1.705510 0.000000 -0.002130 
#    y 0.000000 1.700190 0.000000 
#    z -0.002130 0.000000 1.678110 
# 
# From -- ./inp_files/311022.got.cif
#   From: 2010.05.17/outbox.cif.g08.bks.cpg/sg12_156_cif.got.tgz:311022.got - 2010.06.03 13:09:07.
