data_PCOD9209817
_publ_section_title
;
Structure prediction by ZEFSAII (Michael W. Deem and Ramdas Pophale) SiO2 
 PCOD9209817
Probable space group: C 2/M
;
_chemical_formula_sum "Si O2"
_cell_formula_units_Z 40
_cell_length_a 14.682498
_cell_length_b 17.840193
_cell_length_c 15.289273
_cell_angle_alpha 90.000000
_cell_angle_beta 152.598740
_cell_angle_gamma 90.000000
_cell_volume 1843.109637
_symmetry_space_group_name_H-M "C 2/M"
_symmetry_group_IT_number 12
_symmetry_cell_setting 'monoclinic'
loop_
_space_group_symop_operation_xyz
x,y,z
-x,y,-z
-x,-y,-z
x,-y,z
1/2+x,1/2+y,z
1/2-x,1/2+y,-z
1/2-x,1/2-y,-z
1/2+x,1/2-y,z
loop_
_atom_site_type_symbol
_atom_site_label
_atom_site_fract_x
_atom_site_fract_y
_atom_site_fract_z
Si Si1 0.227090 0.753676 0.728046
Si Si2 0.713105 0.418002 0.933320
Si Si3 0.847512 0.161863 0.674791
Si Si4 0.552311 0.801478 0.752064
Si Si5 0.280512 0.581864 0.271297
O O1 0.332300 0.690736 0.760708
O O2 0.204523 0.729891 0.809176
O O3 0.310564 0.837482 0.780826
O O4 0.000000 0.757240 0.500000
O O5 0.790022 0.500000 0.022900
O O6 0.490536 0.406980 0.779282
O O7 0.705503 0.413793 0.821727
O O8 0.842570 0.354065 0.088644
O O9 0.626385 0.154691 0.448465
O O10 0.950966 0.229953 0.710210
O O11 0.500000 0.580897 0.500000
O O12 0.189876 0.500000 0.217681
#
# Coordination Sequence:
#
# PCOD9209817 Si02
#       5
#     8   8   8   8   8
#     4   9  18  35  60  89 121 157 202 255 301 356
#     4  11  23  40  62  90 126 163 203 254 308 360
#     4  10  21  38  65  90 117 166 208 244 309 365
#     4  10  21  39  60  91 124 157 210 257 295 358
#     4   9  18  34  58  87 123 160 192 246 313 364
#
# _framework density 21.702452999999998
#
# number of rings (size 3 to 8) (size 9 to 14) (size 15 to 20)
#    0.000    2.200    2.000    0.600    2.800    1.600 
#    0.000    3.000    0.000    6.000    0.000    0.000 
#    0.000    0.000    0.000    0.000    0.000    0.000 
#
# Total GULP energy -111723.587811 kJ/mol
# GULP energy per Si atom -5586.179391 kJ/mol
# Density = 2.165306 g / cm^3
# Si number density = 21.702453 Si / 1000 Ang^3
#
#
#
# Elastic Constant Matrix: (Units=GPa)
#
#
# Indices 1 2 3 4 5 6 
#
# 1 75.7263 2.2212 11.4851 0.0025 -16.3772 0.0012
# 2 2.2212 68.0690 29.5056 -0.0020 -17.0553 -0.0009
# 3 11.4851 29.5056 115.2305 -0.0083 -7.8127 -0.0041
# 4 0.0025 -0.0020 -0.0083 6.0187 -0.0042 -6.5216
# 5 -16.3772 -17.0553 -7.8127 -0.0042 28.5485 -0.0017
# 6 0.0012 -0.0009 -0.0041 -6.5216 -0.0017 19.5733
#
#
#
# Elastic Compliance Matrix: (Units=1/GPa)
#
#
# Indices 1 2 3 4 5 6 
#
# 1 0.015548 0.002699 -0.001556 -0.000001 0.010106 -0.000001
# 2 0.002699 0.019544 -0.004459 0.000013 0.012004 0.000005
# 3 -0.001556 -0.004459 0.009918 0.000022 -0.000842 0.000009
# 4 -0.000001 0.000013 0.000022 0.260027 0.000057 0.086638
# 5 0.010106 0.012004 -0.000842 0.000057 0.047766 0.000023
# 6 -0.000001 0.000005 0.000009 0.086638 0.000023 0.079957
#
#
# Mechanical properties :
#
#
# Convention : Reuss Voigt Hill
#
# Bulk Modulus (GPa) = 26.05690 38.38328 32.22009
# Shear Modulus (GPa) = 11.05747 25.21568 18.13657
#
# Velocity S-wave (km/s) = 2.25967 3.41234 2.89397
# Velocity P-wave (km/s) = 4.34058 5.76628 5.10346
#
# Compressibility (1/GPa) = 0.03837755
#
# Stress axis : x y z
#
# Youngs Moduli (GPa) = 64.31772 51.16790 100.82608
#
# Poissons Ratio (x) = -0.13811 0.15684
# Poissons Ratio (y) = -0.17360 0.44963
# Poissons Ratio (z) = 0.10005 0.22818
#
# Static dielectric constant tensor:
#      x y z
#    x 1.784340 0.000000 0.040430 
#    y 0.000000 1.805710 0.000010 
#    z 0.040430 0.000010 1.862720 
# 
# From -- ./inp_files/75520.got.cif
#   From: 2010.05.17/outbox.cif.g08.bks.cpg/sg12_38_cif.got.tgz:75520.got - 2010.06.03 13:09:07.
