data_PCOD9209885
_publ_section_title
;
Structure prediction by ZEFSAII (Michael W. Deem and Ramdas Pophale) SiO2 
 PCOD9209885
Probable space group: C 2/M
;
_chemical_formula_sum "Si O2"
_cell_formula_units_Z 64
_cell_length_a 15.163734
_cell_length_b 28.219467
_cell_length_c 10.625566
_cell_angle_alpha 90.000000
_cell_angle_beta 136.375092
_cell_angle_gamma 90.000000
_cell_volume 3137.001821
_symmetry_space_group_name_H-M "C 2/M"
_symmetry_group_IT_number 12
_symmetry_cell_setting 'monoclinic'
loop_
_space_group_symop_operation_xyz
x,y,z
-x,y,-z
-x,-y,-z
x,-y,z
1/2+x,1/2+y,z
1/2-x,1/2+y,-z
1/2-x,1/2-y,-z
1/2+x,1/2-y,z
loop_
_atom_site_type_symbol
_atom_site_label
_atom_site_fract_x
_atom_site_fract_y
_atom_site_fract_z
Si Si1 0.796796 0.364673 0.567140
Si Si2 0.538989 0.830447 0.679386
Si Si3 0.709702 0.910069 0.955961
Si Si4 0.954715 0.052349 0.098237
Si Si5 0.544748 0.654735 0.189659
Si Si6 0.148167 0.138676 0.672492
Si Si7 0.881293 0.772335 0.187831
Si Si8 0.458076 0.054576 0.817919
O O1 0.697500 0.346032 0.360554
O O2 0.725369 0.355225 0.623703
O O3 0.840233 0.419121 0.629303
O O4 0.932108 0.341327 0.674257
O O5 0.500000 0.847434 0.500000
O O6 0.550623 0.774270 0.690874
O O7 0.664617 0.860129 0.848850
O O8 0.804012 0.938659 0.962539
O O9 0.783011 0.897526 0.161217
O O10 0.582077 0.938263 0.858938
O O11 0.010711 0.102029 0.208331
O O12 0.987442 0.000000 0.185414
O O13 0.000000 0.051503 0.000000
O O14 0.471063 0.696737 0.186279
O O15 0.500000 0.656628 0.000000
O O16 0.149770 0.190011 0.737645
O O17 0.000000 0.125270 0.500000
O O18 0.750000 0.750000 0.000000
O O19 0.426662 0.000000 0.803609
O O20 0.500000 0.074312 0.000000
#
# Coordination Sequence:
#
# PCOD9209885 Si02
#       8
#     8   8   8   8   8   8   8   8
#     4  11  25  43  68  94 131 174 215 275 335 398
#     4  11  27  43  68  97 129 177 222 274 331 398
#     4  11  21  43  67  93 139 172 217 271 337 391
#     4  10  21  38  66  96 129 174 219 263 322 390
#     4  11  25  43  65  94 132 173 219 273 333 388
#     4  12  22  42  65  95 131 173 213 267 333 391
#     4  12  24  43  66  95 132 173 218 274 325 399
#     4  10  21  39  68  99 129 169 216 274 331 395
#
# _framework density 20.401646
#
# number of rings (size 3 to 8) (size 9 to 14) (size 15 to 20)
#    0.000    1.000    5.000    0.750    5.250    2.000 
#    0.000    0.000    0.000    3.750    0.000    0.000 
#    0.000    0.000    0.000    0.000    0.000    0.000 
#
# Total GULP energy -178455.438612 kJ/mol
# GULP energy per Si atom -5576.732457 kJ/mol
# Density = 2.035521 g / cm^3
# Si number density = 20.401646 Si / 1000 Ang^3
#
#
#
# Elastic Constant Matrix: (Units=GPa)
#
#
# Indices 1 2 3 4 5 6 
#
# 1 104.6773 1.7397 19.0030 0.0000 2.0326 0.0000
# 2 1.7397 73.5044 16.9848 0.0000 0.6015 0.0000
# 3 19.0030 16.9848 94.0443 0.0000 -2.7540 0.0000
# 4 0.0000 0.0000 0.0000 17.4096 0.0000 -1.9366
# 5 2.0326 0.6015 -2.7540 0.0000 26.6122 0.0000
# 6 0.0000 0.0000 0.0000 -1.9366 0.0000 16.3050
#
#
#
# Elastic Compliance Matrix: (Units=1/GPa)
#
#
# Indices 1 2 3 4 5 6 
#
# 1 0.009946 0.000254 -0.002084 0.000000 -0.000981 0.000000
# 2 0.000254 0.014213 -0.002636 0.000000 -0.000613 0.000000
# 3 -0.002084 -0.002636 0.011572 0.000000 0.001416 0.000000
# 4 0.000000 0.000000 0.000000 0.058209 0.000000 0.006914
# 5 -0.000981 -0.000613 0.001416 0.000000 0.037812 0.000000
# 6 0.000000 0.000000 0.000000 0.006914 0.000000 0.062152
#
#
# Mechanical properties :
#
#
# Convention : Reuss Voigt Hill
#
# Bulk Modulus (GPa) = 37.31562 38.63120 37.97341
# Shear Modulus (GPa) = 23.61057 27.69860 25.65459
#
# Velocity S-wave (km/s) = 3.40558 3.68865 3.54994
# Velocity P-wave (km/s) = 5.81328 6.09245 5.95450
#
# Compressibility (1/GPa) = 0.02679843
#
# Stress axis : x y z
#
# Youngs Moduli (GPa) = 100.53882 70.35918 86.41493
#
# Poissons Ratio (x) = -0.01789 0.18013
# Poissons Ratio (y) = -0.02556 0.22781
# Poissons Ratio (z) = 0.20957 0.18548
#
# Static dielectric constant tensor:
#      x y z
#    x 1.745550 0.000000 0.000320 
#    y 0.000000 1.750620 0.000000 
#    z 0.000320 0.000000 1.777790 
# 
# From -- ./inp_files/150304.got.cif
#   From: 2010.05.17/outbox.cif.g08.bks.cpg/sg12_76_cif.got.tgz:150304.got - 2010.06.03 13:09:07.
