data_PCOD9209379
_publ_section_title
;
Structure prediction by ZEFSAII (Michael W. Deem and Ramdas Pophale) SiO2 
 PCOD9209379
Probable space group: C 2/M
;
_chemical_formula_sum "Si O2"
_cell_formula_units_Z 44
_cell_length_a 15.530685
_cell_length_b 22.443914
_cell_length_c 8.941771
_cell_angle_alpha 90.000000
_cell_angle_beta 131.018544
_cell_angle_gamma 90.000000
_cell_volume 2351.637547
_symmetry_space_group_name_H-M "C 2/M"
_symmetry_group_IT_number 12
_symmetry_cell_setting 'monoclinic'
loop_
_space_group_symop_operation_xyz
x,y,z
-x,y,-z
-x,-y,-z
x,-y,z
1/2+x,1/2+y,z
1/2-x,1/2+y,-z
1/2-x,1/2-y,-z
1/2+x,1/2-y,z
loop_
_atom_site_type_symbol
_atom_site_label
_atom_site_fract_x
_atom_site_fract_y
_atom_site_fract_z
Si Si1 0.700780 0.070540 0.415164
Si Si2 0.536449 0.429059 0.368793
Si Si3 0.027855 0.292932 0.748776
Si Si4 0.668787 0.161976 0.636685
Si Si5 0.919566 0.173517 0.049722
Si Si6 0.500000 0.871335 0.000000
O O1 0.829752 0.086049 0.508393
O O2 0.672648 0.102639 0.540388
O O3 0.696179 0.000000 0.427088
O O4 0.604534 0.091129 0.187478
O O5 0.500000 0.419111 0.500000
O O6 0.521720 0.500000 0.321229
O O7 0.460358 0.387651 0.174165
O O8 0.093462 0.331770 0.699905
O O9 0.071635 0.226365 0.819372
O O10 0.894947 0.291906 0.547598
O O11 0.042618 0.328250 0.918071
O O12 0.794857 0.172898 0.837405
O O13 0.000000 0.186587 0.000000
#
# Coordination Sequence:
#
# PCOD9209379 Si02
#       6
#     8   8   8   8   8   4
#     4  10  21  41  64  89 123 160 203 251 301 357
#     4  10  24  42  62  92 126 158 201 251 298 359
#     4  10  23  41  59  89 127 158 202 254 298 358
#     4  10  23  41  59  90 123 159 202 252 300 355
#     4  12  23  39  65  93 118 166 200 242 314 363
#     4  10  21  38  62  88 125 158 204 248 300 358
#
# _framework density 18.710367000000002
#
# number of rings (size 3 to 8) (size 9 to 14) (size 15 to 20)
#    0.000    1.636    2.727    0.818    5.091    3.273 
#    0.000    8.182    0.000    0.000    0.000    0.000 
#    0.000    0.000    0.000    0.000    0.000    0.000 
#
# Total GULP energy -122656.546769 kJ/mol
# GULP energy per Si atom -5575.297580 kJ/mol
# Density = 1.866778 g / cm^3
# Si number density = 18.710367 Si / 1000 Ang^3
#
#
#
# Elastic Constant Matrix: (Units=GPa)
#
#
# Indices 1 2 3 4 5 6 
#
# 1 104.5981 41.3666 52.9676 0.0000 -6.4640 0.0000
# 2 41.3666 84.7966 68.4866 0.0000 2.9938 0.0000
# 3 52.9676 68.4866 150.1004 0.0000 20.8699 0.0000
# 4 0.0000 0.0000 0.0000 8.7406 0.0000 -10.8266
# 5 -6.4640 2.9938 20.8699 0.0000 42.0028 0.0000
# 6 0.0000 0.0000 0.0000 -10.8266 0.0000 36.9001
#
#
#
# Elastic Compliance Matrix: (Units=1/GPa)
#
#
# Indices 1 2 3 4 5 6 
#
# 1 0.013023 -0.003696 -0.003463 0.000000 0.003988 0.000000
# 2 -0.003696 0.020112 -0.008157 0.000000 0.002051 0.000000
# 3 -0.003463 -0.008157 0.012460 0.000000 -0.006143 0.000000
# 4 0.000000 0.000000 0.000000 0.179724 0.000000 0.052731
# 5 0.003988 0.002051 -0.006143 0.000000 0.027328 0.000000
# 6 0.000000 0.000000 0.000000 0.052731 0.000000 0.042572
#
#
# Mechanical properties :
#
#
# Convention : Reuss Voigt Hill
#
# Bulk Modulus (GPa) = 66.84135 73.90410 70.37273
# Shear Modulus (GPa) = 15.11305 29.30698 22.21001
#
# Velocity S-wave (km/s) = 2.84515 3.96201 3.44909
# Velocity P-wave (km/s) = 6.82605 7.77912 7.31812
#
# Compressibility (1/GPa) = 0.01496080
#
# Stress axis : x y z
#
# Youngs Moduli (GPa) = 76.78965 49.72138 80.25416
#
# Poissons Ratio (x) = 0.18379 0.27795
# Poissons Ratio (y) = 0.28385 0.65466
# Poissons Ratio (z) = 0.26595 0.40559
#
# Static dielectric constant tensor:
#      x y z
#    x 2.932540 0.000000 0.415940 
#    y 0.000000 1.631070 0.000000 
#    z 0.415940 0.000000 1.773760 
# 
# From -- ./inp_files/51185.got.cif
#   From: 2010.05.17/outbox.cif.g08.bks.cpg/sg12_26_cif.got.tgz:51185.got - 2010.06.03 13:09:07.
