data_PCOD9209316
_publ_section_title
;
Structure prediction by ZEFSAII (Michael W. Deem and Ramdas Pophale) SiO2 
 PCOD9209316
Probable space group: C 2/M
;
_chemical_formula_sum "Si O2"
_cell_formula_units_Z 60
_cell_length_a 33.900506
_cell_length_b 9.415092
_cell_length_c 10.137856
_cell_angle_alpha 90.000000
_cell_angle_beta 104.214755
_cell_angle_gamma 90.000000
_cell_volume 3136.692050
_symmetry_space_group_name_H-M "C 2/M"
_symmetry_group_IT_number 12
_symmetry_cell_setting 'monoclinic'
loop_
_space_group_symop_operation_xyz
x,y,z
-x,y,-z
-x,-y,-z
x,-y,z
1/2+x,1/2+y,z
1/2-x,1/2+y,-z
1/2-x,1/2-y,-z
1/2+x,1/2-y,z
loop_
_atom_site_type_symbol
_atom_site_label
_atom_site_fract_x
_atom_site_fract_y
_atom_site_fract_z
Si Si1 0.778788 0.339101 0.188041
Si Si2 0.969916 0.831694 0.100570
Si Si3 0.892348 0.334267 0.627298
Si Si4 0.811882 0.167822 0.976166
Si Si5 0.890530 0.666541 0.941197
Si Si6 0.516847 0.832221 0.366779
Si Si7 0.243946 0.500000 0.441797
Si Si8 0.805695 0.261193 0.500627
O O1 0.785480 0.500000 0.143244
O O2 0.730411 0.312140 0.138491
O O3 0.793781 0.329403 0.349477
O O4 0.801196 0.227009 0.113025
O O5 0.991856 0.762279 0.244027
O O6 0.962711 0.000000 0.112193
O O7 0.928190 0.748677 0.037781
O O8 0.000000 0.813743 0.000000
O O9 0.884389 0.500000 0.585603
O O10 0.895851 0.324648 0.787923
O O11 0.935543 0.293353 0.601494
O O12 0.853843 0.243801 0.549356
O O13 0.848787 0.256881 0.947797
O O14 0.820908 0.000000 0.985820
O O15 0.890080 0.500000 0.978064
O O16 0.500000 0.816817 0.500000
O O17 0.513882 0.000000 0.326701
O O18 0.208936 0.375235 0.404165
O O19 0.279054 0.621977 0.489880
#
# Coordination Sequence:
#
# PCOD9209316 Si02
#       8
#     8   8   8   8   8   8   4   8
#     4  10  21  39  60  83 119 168 208 251 309 371
#     4  11  23  42  65  94 127 167 207 259 321 377
#     4  10  21  38  61  94 123 157 207 261 311 372
#     4  10  23  38  57  87 122 159 207 260 308 365
#     4  11  23  38  64  92 121 160 207 260 310 377
#     4  10  22  42  69  98 129 168 212 262 323 389
#     4  10  24  36  58  90 120 162 206 244 318 358
#     4  11  22  39  58  89 122 164 204 259 304 378
#
# _framework density 19.128430000000002
#
# number of rings (size 3 to 8) (size 9 to 14) (size 15 to 20)
#    0.000    1.600    2.667    1.200    4.667    2.400 
#    2.400    2.667    0.000    0.000    0.000    0.000 
#    0.000    0.000    0.000    0.000    0.000    0.000 
#
# Total GULP energy -167080.983648 kJ/mol
# GULP energy per Si atom -5569.366122 kJ/mol
# Density = 1.908489 g / cm^3
# Si number density = 19.128430 Si / 1000 Ang^3
#
#
#
# Elastic Constant Matrix: (Units=GPa)
#
#
# Indices 1 2 3 4 5 6 
#
# 1 147.6956 70.1037 28.9255 0.0000 11.7691 0.0000
# 2 70.1037 119.7691 32.9250 0.0000 -2.5042 0.0000
# 3 28.9255 32.9250 54.2630 0.0000 10.1011 0.0000
# 4 0.0000 0.0000 0.0000 14.7567 0.0000 10.0939
# 5 11.7691 -2.5042 10.1011 0.0000 23.1173 0.0000
# 6 0.0000 0.0000 0.0000 10.0939 0.0000 11.4640
#
#
#
# Elastic Compliance Matrix: (Units=1/GPa)
#
#
# Indices 1 2 3 4 5 6 
#
# 1 0.010125 -0.005799 -0.000873 0.000000 -0.005401 0.000000
# 2 -0.005799 0.013708 -0.006588 0.000000 0.007316 0.000000
# 3 -0.000873 -0.006588 0.024973 0.000000 -0.011181 0.000000
# 4 0.000000 0.000000 0.000000 0.170381 0.000000 -0.150017
# 5 -0.005401 0.007316 -0.011181 0.000000 0.051685 0.000000
# 6 0.000000 0.000000 0.000000 -0.150017 0.000000 0.219316
#
#
# Mechanical properties :
#
#
# Convention : Reuss Voigt Hill
#
# Bulk Modulus (GPa) = 44.87287 65.07070 54.97179
# Shear Modulus (GPa) = 9.53950 22.51918 16.02934
#
# Velocity S-wave (km/s) = 2.23560 3.43485 2.89794
# Velocity P-wave (km/s) = 5.49304 7.05851 6.32440
#
# Compressibility (1/GPa) = 0.02228518
#
# Stress axis : x y z
#
# Youngs Moduli (GPa) = 98.76949 72.95114 40.04362
#
# Poissons Ratio (x) = 0.42305 0.03495
# Poissons Ratio (y) = 0.57278 0.26381
# Poissons Ratio (z) = 0.08621 0.48060
#
# Static dielectric constant tensor:
#      x y z
#    x 1.657980 0.000000 -0.017330 
#    y 0.000000 1.646080 0.000000 
#    z -0.017330 0.000000 1.663270 
# 
# From -- ./inp_files/187649.got.cif
#   From: 2010.05.17/outbox.cif.g08.bks.cpg/sg12_94_cif.got.tgz:187649.got - 2010.06.03 13:09:07.
