data_PCOD9209354
_publ_section_title
;
Structure prediction by ZEFSAII (Michael W. Deem and Ramdas Pophale) SiO2 
 PCOD9209354
Probable space group: C 2/M
;
_chemical_formula_sum "Si O2"
_cell_formula_units_Z 60
_cell_length_a 14.862859
_cell_length_b 8.629085
_cell_length_c 21.166522
_cell_angle_alpha 90.000000
_cell_angle_beta 73.203660
_cell_angle_gamma 90.000000
_cell_volume 2598.854024
_symmetry_space_group_name_H-M "C 2/M"
_symmetry_group_IT_number 12
_symmetry_cell_setting 'monoclinic'
loop_
_space_group_symop_operation_xyz
x,y,z
-x,y,-z
-x,-y,-z
x,-y,z
1/2+x,1/2+y,z
1/2-x,1/2+y,-z
1/2-x,1/2-y,-z
1/2+x,1/2-y,z
loop_
_atom_site_type_symbol
_atom_site_label
_atom_site_fract_x
_atom_site_fract_y
_atom_site_fract_z
Si Si1 0.699572 0.816685 0.146031
Si Si2 0.898973 0.813530 0.098678
Si Si3 0.000000 0.762856 0.500000
Si Si4 0.394207 0.314210 0.949273
Si Si5 0.518707 0.678444 0.249690
Si Si6 0.174828 0.681483 0.691833
Si Si7 0.388052 0.314850 0.635401
Si Si8 0.331917 0.675225 0.441947
O O1 0.801292 0.752004 0.146820
O O2 0.682480 0.771360 0.076668
O O3 0.608281 0.757115 0.200031
O O4 0.703422 0.000000 0.151400
O O5 0.002605 0.759162 0.096065
O O6 0.901133 0.000000 0.106886
O O7 0.892119 0.786677 0.024434
O O8 0.925976 0.709483 0.569881
O O9 0.924396 0.833593 0.466743
O O10 0.386007 0.500000 0.941746
O O11 0.520797 0.500000 0.230870
O O12 0.414450 0.739819 0.256977
O O13 0.541982 0.690563 0.319701
O O14 0.170511 0.500000 0.705733
O O15 0.283372 0.731454 0.679378
O O16 0.158223 0.717450 0.621046
O O17 0.382778 0.500000 0.615997
O O18 0.309353 0.500000 0.425941
O O19 0.250000 0.750000 0.500000
#
# Coordination Sequence:
#
# PCOD9209354 Si02
#       8
#     8   8   4   8   8   8   8   8
#     4  11  22  37  57  86 121 157 195 245 296 339
#     4   8  17  34  59  89 123 158 196 241 290 341
#     4  12  21  38  65  90 119 156 189 234 297 362
#     4   9  17  35  61  89 120 159 199 237 287 349
#     4  11  24  43  62  82 111 156 205 242 285 354
#     4  11  23  41  62  87 117 148 186 241 298 350
#     4  10  21  38  62  87 115 152 191 234 296 360
#     4  12  23  38  61  89 119 152 190 232 288 353
#
# _framework density 23.087098000000001
#
# number of rings (size 3 to 8) (size 9 to 14) (size 15 to 20)
#    0.000    1.600    2.667    4.000    0.000    1.067 
#    0.000   11.333    0.000    0.000    0.000    0.000 
#    0.000    0.000    0.000    0.000    0.000    0.000 
#
# Total GULP energy -167385.898554 kJ/mol
# GULP energy per Si atom -5579.529952 kJ/mol
# Density = 2.303455 g / cm^3
# Si number density = 23.087098 Si / 1000 Ang^3
#
#
#
# Elastic Constant Matrix: (Units=GPa)
#
#
# Indices 1 2 3 4 5 6 
#
# 1 166.3207 23.6408 18.6964 0.0000 -35.3291 0.0000
# 2 23.6408 38.9139 1.5688 0.0000 -14.9018 0.0000
# 3 18.6964 1.5688 55.0718 0.0000 -15.4009 0.0000
# 4 0.0000 0.0000 0.0000 12.5124 0.0000 2.3467
# 5 -35.3291 -14.9018 -15.4009 0.0000 47.2649 0.0000
# 6 0.0000 0.0000 0.0000 2.3467 0.0000 11.5621
#
#
#
# Elastic Compliance Matrix: (Units=1/GPa)
#
#
# Indices 1 2 3 4 5 6 
#
# 1 0.007467 -0.002849 -0.001259 0.000000 0.004273 0.000000
# 2 -0.002849 0.030499 0.002412 0.000000 0.008272 0.000000
# 3 -0.001259 0.002412 0.020318 0.000000 0.006440 0.000000
# 4 0.000000 0.000000 0.000000 0.083083 0.000000 -0.016863
# 5 0.004273 0.008272 0.006440 0.000000 0.029057 0.000000
# 6 0.000000 0.000000 0.000000 -0.016863 0.000000 0.089912
#
#
# Mechanical properties :
#
#
# Convention : Reuss Voigt Hill
#
# Bulk Modulus (GPa) = 18.21795 38.67981 28.44888
# Shear Modulus (GPa) = 17.72888 28.69458 23.21173
#
# Velocity S-wave (km/s) = 2.77413 3.52928 3.17424
# Velocity P-wave (km/s) = 4.26253 5.77910 5.07775
#
# Compressibility (1/GPa) = 0.05489091
#
# Stress axis : x y z
#
# Youngs Moduli (GPa) = 133.93126 32.78784 49.21818
#
# Poissons Ratio (x) = 0.09342 0.06196
# Poissons Ratio (y) = 0.38159 -0.11870
# Poissons Ratio (z) = 0.16860 -0.07908
#
# Static dielectric constant tensor:
#      x y z
#    x 1.934800 0.000000 -0.055670 
#    y 0.000000 1.790990 0.000000 
#    z -0.055670 0.000000 1.923570 
# 
# From -- ./inp_files/338657.got.cif
#   From: 2010.05.17/outbox.cif.g08.bks.cpg/sg12_170_cif.got.tgz:338657.got - 2010.06.03 13:09:07.
