data_PCOD9209932
_publ_section_title
;
Structure prediction by ZEFSAII (Michael W. Deem and Ramdas Pophale) SiO2 
 PCOD9209932
Probable space group: C 2/M
;
_chemical_formula_sum "Si O2"
_cell_formula_units_Z 44
_cell_length_a 6.635402
_cell_length_b 31.148168
_cell_length_c 9.479566
_cell_angle_alpha 90.000000
_cell_angle_beta 81.123344
_cell_angle_gamma 90.000000
_cell_volume 1935.776337
_symmetry_space_group_name_H-M "C 2/M"
_symmetry_group_IT_number 12
_symmetry_cell_setting 'monoclinic'
loop_
_space_group_symop_operation_xyz
x,y,z
-x,y,-z
-x,-y,-z
x,-y,z
1/2+x,1/2+y,z
1/2-x,1/2+y,-z
1/2-x,1/2-y,-z
1/2+x,1/2-y,z
loop_
_atom_site_type_symbol
_atom_site_label
_atom_site_fract_x
_atom_site_fract_y
_atom_site_fract_z
Si Si1 0.091008 0.810448 0.633239
Si Si2 0.336009 0.548656 0.143523
Si Si3 0.642688 0.247704 0.886052
Si Si4 0.857175 0.610835 0.629492
Si Si5 0.313609 0.150886 0.195386
Si Si6 0.000000 0.583963 0.000000
O O1 0.175626 0.777989 0.743458
O O2 0.256025 0.846395 0.575108
O O3 0.000000 0.789443 0.500000
O O4 0.907312 0.838429 0.720294
O O5 0.372263 0.500000 0.188683
O O6 0.313648 0.581936 0.275403
O O7 0.111231 0.553722 0.099240
O O8 0.500000 0.556474 0.000000
O O9 0.384864 0.258553 0.928500
O O10 0.608423 0.197757 0.852461
O O11 0.000000 0.587380 0.500000
O O12 0.018615 0.629045 0.724188
O O13 0.321653 0.117317 0.066181
#
# Coordination Sequence:
#
# PCOD9209932 Si02
#       6
#     8   8   8   8   8   4
#     4  12  26  42  65  91 131 183 229 276 336 400
#     4  10  22  41  69 102 132 167 214 273 340 408
#     4  12  24  41  62  93 130 170 234 289 333 389
#     4  11  24  43  66  94 133 173 226 274 333 409
#     4  11  23  41  62  93 127 174 221 278 339 389
#     4  10  21  38  68  94 132 170 214 270 331 410
#
# _framework density 22.729897999999999
#
# number of rings (size 3 to 8) (size 9 to 14) (size 15 to 20)
#    0.000    0.909    4.545    2.455    2.545    2.545 
#    0.000    0.000    0.000    0.545    0.000    0.000 
#    0.000    0.000    0.000    0.000    0.000    0.000 
#
# Total GULP energy -122600.821568 kJ/mol
# GULP energy per Si atom -5572.764617 kJ/mol
# Density = 2.267816 g / cm^3
# Si number density = 22.729898 Si / 1000 Ang^3
#
#
#
# Elastic Constant Matrix: (Units=GPa)
#
#
# Indices 1 2 3 4 5 6 
#
# 1 84.9907 28.4273 35.2988 0.0000 4.4779 0.0000
# 2 28.4273 118.4037 60.5958 0.0000 4.4831 0.0000
# 3 35.2988 60.5958 115.2817 0.0000 -5.4158 0.0000
# 4 0.0000 0.0000 0.0000 21.3391 0.0000 0.1180
# 5 4.4779 4.4831 -5.4158 0.0000 50.2422 0.0000
# 6 0.0000 0.0000 0.0000 0.1180 0.0000 20.1268
#
#
#
# Elastic Compliance Matrix: (Units=1/GPa)
#
#
# Indices 1 2 3 4 5 6 
#
# 1 0.013796 -0.001448 -0.003532 0.000000 -0.001481 0.000000
# 2 -0.001448 0.011851 -0.005859 0.000000 -0.001560 0.000000
# 3 -0.003532 -0.005859 0.012941 0.000000 0.002233 0.000000
# 4 0.000000 0.000000 0.000000 0.046864 0.000000 -0.000275
# 5 -0.001481 -0.001560 0.002233 0.000000 0.020415 0.000000
# 6 0.000000 0.000000 0.000000 -0.000275 0.000000 0.049687
#
#
# Mechanical properties :
#
#
# Convention : Reuss Voigt Hill
#
# Bulk Modulus (GPa) = 59.14519 63.03555 61.09037
# Shear Modulus (GPa) = 27.34205 31.29857 29.32031
#
# Velocity S-wave (km/s) = 3.47206 3.71479 3.59548
# Velocity P-wave (km/s) = 6.49238 6.79648 6.64617
#
# Compressibility (1/GPa) = 0.01690754
#
# Stress axis : x y z
#
# Youngs Moduli (GPa) = 72.48712 84.38125 77.27588
#
# Poissons Ratio (x) = 0.12220 0.27298
# Poissons Ratio (y) = 0.10498 0.45277
# Poissons Ratio (z) = 0.25606 0.49440
#
# Static dielectric constant tensor:
#      x y z
#    x 1.912000 0.000000 -0.016480 
#    y 0.000000 1.781360 0.000000 
#    z -0.016480 0.000000 2.010200 
# 
# From -- ./inp_files/116078.got.cif
#   From: 2010.05.17/outbox.cif.g08.bks.cpg/sg12_59_cif.got.tgz:116078.got - 2010.06.03 13:09:07.
