data_PCOD9209839
_publ_section_title
;
Structure prediction by ZEFSAII (Michael W. Deem and Ramdas Pophale) SiO2 
 PCOD9209839
Probable space group: C 2/M
;
_chemical_formula_sum "Si O2"
_cell_formula_units_Z 48
_cell_length_a 27.303377
_cell_length_b 14.836062
_cell_length_c 11.910328
_cell_angle_alpha 90.000000
_cell_angle_beta 28.794027
_cell_angle_gamma 90.000000
_cell_volume 2323.814185
_symmetry_space_group_name_H-M "C 2/M"
_symmetry_group_IT_number 12
_symmetry_cell_setting 'monoclinic'
loop_
_space_group_symop_operation_xyz
x,y,z
-x,y,-z
-x,-y,-z
x,-y,z
1/2+x,1/2+y,z
1/2-x,1/2+y,-z
1/2-x,1/2-y,-z
1/2+x,1/2-y,z
loop_
_atom_site_type_symbol
_atom_site_label
_atom_site_fract_x
_atom_site_fract_y
_atom_site_fract_z
Si Si1 0.139379 0.701537 0.942255
Si Si2 0.168293 0.099805 0.455816
Si Si3 0.883772 0.252248 0.260566
Si Si4 0.264346 0.833992 0.849423
Si Si5 0.924900 0.396151 0.351495
Si Si6 0.889315 0.838708 0.667858
O O1 0.213272 0.616280 0.809937
O O2 0.161583 0.741038 0.772690
O O3 0.181354 0.775804 0.944628
O O4 0.023550 0.666183 0.183881
O O5 0.143810 0.174413 0.597302
O O6 0.109179 0.119339 0.459127
O O7 0.148200 0.000000 0.537101
O O8 0.879565 0.348700 0.331316
O O9 0.000000 0.234758 0.000000
O O10 0.336401 0.889887 0.622216
O O11 0.343201 0.762011 0.745173
O O12 0.196714 0.882851 0.079138
O O13 0.954463 0.500000 0.274259
O O14 0.000000 0.839998 0.500000
#
# Coordination Sequence:
#
# PCOD9209839 Si02
#       6
#     8   8   8   8   8   8
#     4  10  21  40  65  90 128 166 208 258 322 378
#     4  11  23  40  62  92 125 169 217 257 313 381
#     4  10  22  40  64  90 127 167 203 262 317 379
#     4  10  21  38  65  95 121 169 210 260 320 378
#     4  11  22  38  63  98 129 161 208 259 314 378
#     4  10  21  39  65  87 123 169 215 260 317 373
#
# _framework density 20.655695999999999
#
# number of rings (size 3 to 8) (size 9 to 14) (size 15 to 20)
#    0.000    1.667    3.333    2.000    2.333    5.000 
#    0.000    0.000    0.000   10.500    0.000    0.000 
#    0.000    0.000    0.000    0.000    0.000    0.000 
#
# Total GULP energy -133856.391500 kJ/mol
# GULP energy per Si atom -5577.349646 kJ/mol
# Density = 2.060868 g / cm^3
# Si number density = 20.655696 Si / 1000 Ang^3
#
#
#
# Elastic Constant Matrix: (Units=GPa)
#
#
# Indices 1 2 3 4 5 6 
#
# 1 120.1671 32.2098 34.0791 0.0000 -2.6590 0.0000
# 2 32.2098 94.7820 32.5128 0.0000 0.4067 0.0000
# 3 34.0791 32.5128 96.8706 0.0000 10.3625 0.0000
# 4 0.0000 0.0000 0.0000 10.9158 0.0000 -6.5199
# 5 -2.6590 0.4067 10.3625 0.0000 25.7667 0.0000
# 6 0.0000 0.0000 0.0000 -6.5199 0.0000 -4.3470
#
#
#
# Elastic Compliance Matrix: (Units=1/GPa)
#
#
# Indices 1 2 3 4 5 6 
#
# 1 0.009825 -0.002352 -0.002904 0.000000 0.002219 0.000000
# 2 -0.002352 0.012541 -0.003484 0.000000 0.000961 0.000000
# 3 -0.002904 -0.003484 0.013104 0.000000 -0.005515 0.000000
# 4 0.000000 0.000000 0.000000 0.048321 0.000000 -0.072475
# 5 0.002219 0.000961 -0.005515 0.000000 0.041241 0.000000
# 6 0.000000 0.000000 0.000000 -0.072475 0.000000 -0.121341
#
#
# Mechanical properties :
#
#
# Convention : Reuss Voigt Hill
#
# Bulk Modulus (GPa) = 55.59141 56.60257 56.09699
# Shear Modulus (GPa) = 184.02637 20.66832 102.34735
#
# Velocity S-wave (km/s) = 9.44911 3.16668 7.04676
# Velocity P-wave (km/s) = 12.08385 6.39006 9.66572
#
# Compressibility (1/GPa) = 0.01798839
#
# Stress axis : x y z
#
# Youngs Moduli (GPa) = 101.78152 79.73872 76.31128
#
# Poissons Ratio (x) = 0.18755 0.22164
# Poissons Ratio (y) = 0.23940 0.26590
# Poissons Ratio (z) = 0.29561 0.27784
#
# Static dielectric constant tensor:
#      x y z
#    x 1.772660 0.000000 0.005750 
#    y 0.000000 1.733490 0.000000 
#    z 0.005750 0.000000 1.807550 
# 
# From -- ./inp_files/183686.got.cif
#   From: 2010.05.17/outbox.cif.g08.bks.cpg/sg12_92_cif.got.tgz:183686.got - 2010.06.03 13:09:07.
