data_PCOD9209294
_publ_section_title
;
Structure prediction by ZEFSAII (Michael W. Deem and Ramdas Pophale) SiO2 
 PCOD9209294
Probable space group: C 2/M
;
_chemical_formula_sum "Si O2"
_cell_formula_units_Z 48
_cell_length_a 18.587268
_cell_length_b 13.645987
_cell_length_c 7.926064
_cell_angle_alpha 90.000000
_cell_angle_beta 90.406061
_cell_angle_gamma 90.000000
_cell_volume 2010.329206
_symmetry_space_group_name_H-M "C 2/M"
_symmetry_group_IT_number 12
_symmetry_cell_setting 'monoclinic'
loop_
_space_group_symop_operation_xyz
x,y,z
-x,y,-z
-x,-y,-z
x,-y,z
1/2+x,1/2+y,z
1/2-x,1/2+y,-z
1/2-x,1/2-y,-z
1/2+x,1/2-y,z
loop_
_atom_site_type_symbol
_atom_site_label
_atom_site_fract_x
_atom_site_fract_y
_atom_site_fract_z
Si Si1 0.548564 0.266611 0.336474
Si Si2 0.081351 0.726276 0.899974
Si Si3 0.650213 0.821223 0.567630
Si Si4 0.851111 0.116732 0.899713
Si Si5 0.784128 0.893081 0.398264
Si Si6 0.795941 0.387465 0.962600
O O1 0.500000 0.299278 0.500000
O O2 0.499490 0.238125 0.172791
O O3 0.592420 0.176080 0.416873
O O4 0.604202 0.345773 0.260819
O O5 0.113825 0.663254 0.744839
O O6 0.108444 0.836983 0.936590
O O7 0.130427 0.672760 0.042311
O O8 0.719431 0.884482 0.531204
O O9 0.671199 0.705635 0.577409
O O10 0.851239 0.000000 0.907685
O O11 0.767316 0.149617 0.911142
O O12 0.744125 0.885986 0.217806
O O13 0.819754 0.000000 0.411674
O O14 0.812014 0.500000 0.003275
#
# Coordination Sequence:
#
# PCOD9209294 Si02
#       6
#     8   8   8   8   8   8
#     4  10  24  42  58  89 127 172 208 249 308 377
#     4  11  22  40  65  89 127 166 208 256 312 370
#     4  10  22  38  61  88 126 164 205 253 309 368
#     4  11  23  39  63  93 126 164 210 259 310 368
#     4  10  21  38  61  92 127 160 204 259 311 363
#     4  10  22  40  65  97 124 159 212 264 311 362
#
# _framework density 23.876684000000001
#
# number of rings (size 3 to 8) (size 9 to 14) (size 15 to 20)
#    0.000    1.667    1.667    2.000    4.667    3.000 
#    0.000    4.167    0.000    7.000    0.000    0.000 
#    0.000    0.000    0.000    0.000    0.000    0.000 
#
# Total GULP energy -133852.216833 kJ/mol
# GULP energy per Si atom -5577.175701 kJ/mol
# Density = 2.382234 g / cm^3
# Si number density = 23.876684 Si / 1000 Ang^3
#
#
#
# Elastic Constant Matrix: (Units=GPa)
#
#
# Indices 1 2 3 4 5 6 
#
# 1 117.4178 29.9171 6.4153 0.0000 0.4185 0.0000
# 2 29.9171 55.0464 -3.8644 0.0000 4.2285 0.0000
# 3 6.4153 -3.8644 77.4667 0.0000 15.7704 0.0000
# 4 0.0000 0.0000 0.0000 22.4791 0.0000 -3.2330
# 5 0.4185 4.2285 15.7704 0.0000 47.5173 0.0000
# 6 0.0000 0.0000 0.0000 -3.2330 0.0000 17.0761
#
#
#
# Elastic Compliance Matrix: (Units=1/GPa)
#
#
# Indices 1 2 3 4 5 6 
#
# 1 0.010009 -0.005593 -0.001278 0.000000 0.000834 0.000000
# 2 -0.005593 0.021547 0.002057 0.000000 -0.002551 0.000000
# 3 -0.001278 0.002057 0.014105 0.000000 -0.004853 0.000000
# 4 0.000000 0.000000 0.000000 0.045731 0.000000 0.008658
# 5 0.000834 -0.002551 -0.004853 0.000000 0.022875 0.000000
# 6 0.000000 0.000000 0.000000 0.008658 0.000000 0.060201
#
#
# Mechanical properties :
#
#
# Convention : Reuss Voigt Hill
#
# Bulk Modulus (GPa) = 27.75188 34.98520 31.36854
# Shear Modulus (GPa) = 25.49647 31.91202 28.70425
#
# Velocity S-wave (km/s) = 3.27133 3.65983 3.47102
# Velocity P-wave (km/s) = 5.09088 5.70468 5.40650
#
# Compressibility (1/GPa) = 0.03603359
#
# Stress axis : x y z
#
# Youngs Moduli (GPa) = 99.91462 46.41073 70.89586
#
# Poissons Ratio (x) = 0.25959 0.09057
# Poissons Ratio (y) = 0.55885 -0.14586
# Poissons Ratio (z) = 0.12765 -0.09548
#
# Static dielectric constant tensor:
#      x y z
#    x 2.069640 0.000000 -0.077490 
#    y 0.000000 1.885870 0.000000 
#    z -0.077490 0.000000 2.098650 
# 
# From -- ./inp_files/85167.got.cif
#   From: 2010.05.17/outbox.cif.g08.bks.cpg/sg12_43_cif.got.tgz:85167.got - 2010.06.03 13:09:07.
