data_PCOD9209089
_publ_section_title
;
Structure prediction by ZEFSAII (Michael W. Deem and Ramdas Pophale) SiO2 
 PCOD9209089
Probable space group: C 2/M
;
_chemical_formula_sum "Si O2"
_cell_formula_units_Z 56
_cell_length_a 21.007562
_cell_length_b 8.312200
_cell_length_c 18.258066
_cell_angle_alpha 90.000000
_cell_angle_beta 116.766818
_cell_angle_gamma 90.000000
_cell_volume 2846.579722
_symmetry_space_group_name_H-M "C 2/M"
_symmetry_group_IT_number 12
_symmetry_cell_setting 'monoclinic'
loop_
_space_group_symop_operation_xyz
x,y,z
-x,y,-z
-x,-y,-z
x,-y,z
1/2+x,1/2+y,z
1/2-x,1/2+y,-z
1/2-x,1/2-y,-z
1/2+x,1/2-y,z
loop_
_atom_site_type_symbol
_atom_site_label
_atom_site_fract_x
_atom_site_fract_y
_atom_site_fract_z
Si Si1 0.564784 0.194217 0.809016
Si Si2 0.904136 0.192098 0.746193
Si Si3 0.581475 0.803492 0.530820
Si Si4 0.326503 0.192506 0.010134
Si Si5 0.317839 0.694594 0.841598
Si Si6 0.328586 0.807090 0.562167
Si Si7 0.157605 0.303608 0.718479
O O1 0.483629 0.247209 0.773002
O O2 0.603503 0.248096 0.754376
O O3 0.566091 0.000000 0.809022
O O4 0.612159 0.250244 0.902461
O O5 0.871902 0.250734 0.806690
O O6 0.853335 0.244152 0.653474
O O7 0.905339 0.000000 0.749265
O O8 0.500000 0.751102 0.500000
O O9 0.616221 0.751890 0.472370
O O10 0.629610 0.751987 0.624629
O O11 0.580963 0.000000 0.530284
O O12 0.336764 0.249432 0.932606
O O13 0.326638 0.000000 0.011791
O O14 0.250000 0.250000 0.000000
O O15 0.317258 0.500000 0.841473
O O16 0.237640 0.748384 0.779201
O O17 0.250000 0.750000 0.500000
O O18 0.329760 0.000000 0.564115
O O19 0.158057 0.500000 0.718424
#
# Coordination Sequence:
#
# PCOD9209089 Si02
#       7
#     8   8   8   8   8   8   8
#     4  10  21  38  61  86 117 156 194 242 297 355
#     4  11  24  40  60  87 120 158 199 246 299 355
#     4   9  17  30  54  84 110 146 196 242 283 338
#     4  11  22  38  62  91 120 153 196 244 297 356
#     4  10  21  39  60  83 115 155 201 246 291 353
#     4  11  22  38  61  87 119 157 199 246 297 356
#     4   9  16  32  57  82 109 147 197 241 284 345
#
# _framework density 19.672733000000001
#
# number of rings (size 3 to 8) (size 9 to 14) (size 15 to 20)
#    0.000    1.857    1.429    3.000    0.000    7.429 
#    0.000    2.857    0.000    9.429    0.000    0.000 
#    0.000    0.000    0.000    0.000    0.000    0.000 
#
# Total GULP energy -156460.227189 kJ/mol
# GULP energy per Si atom -5587.865257 kJ/mol
# Density = 1.962796 g / cm^3
# Si number density = 19.672733 Si / 1000 Ang^3
#
#
#
# Elastic Constant Matrix: (Units=GPa)
#
#
# Indices 1 2 3 4 5 6 
#
# 1 82.3293 3.9956 -5.2140 0.0000 -13.3394 0.0000
# 2 3.9956 7.7021 -0.4472 0.0000 -3.2455 0.0000
# 3 -5.2140 -0.4472 76.9953 0.0000 -14.9019 0.0000
# 4 0.0000 0.0000 0.0000 28.2917 0.0000 1.7101
# 5 -13.3394 -3.2455 -14.9019 0.0000 41.4570 0.0000
# 6 0.0000 0.0000 0.0000 1.7101 0.0000 27.9801
#
#
#
# Elastic Compliance Matrix: (Units=1/GPa)
#
#
# Indices 1 2 3 4 5 6 
#
# 1 0.013221 -0.004862 0.001738 0.000000 0.004498 0.000000
# 2 -0.004862 0.136710 0.002400 0.000000 0.010001 0.000000
# 3 0.001738 0.002400 0.014256 0.000000 0.005871 0.000000
# 4 0.000000 0.000000 0.000000 0.035477 0.000000 -0.002168
# 5 0.004498 0.010001 0.005871 0.000000 0.028462 0.000000
# 6 0.000000 0.000000 0.000000 -0.002168 0.000000 0.035872
#
#
# Mechanical properties :
#
#
# Convention : Reuss Voigt Hill
#
# Bulk Modulus (GPa) = 6.14483 18.18836 12.16660
# Shear Modulus (GPa) = 15.63999 30.79190 23.21595
#
# Velocity S-wave (km/s) = 2.82265 3.96056 3.43900
# Velocity P-wave (km/s) = 3.70856 5.49366 4.68688
#
# Compressibility (1/GPa) = 0.16273844
#
# Stress axis : x y z
#
# Youngs Moduli (GPa) = 75.63623 7.31475 70.14697
#
# Poissons Ratio (x) = 0.03557 -0.12189
# Poissons Ratio (y) = 0.36777 -0.16838
# Poissons Ratio (z) = -0.13143 -0.01756
#
# Static dielectric constant tensor:
#      x y z
#    x 1.666700 0.000000 -0.011410 
#    y 0.000000 1.693850 0.000000 
#    z -0.011410 0.000000 1.664790 
# 
# From -- ./inp_files/280883.got.cif
#   From: 2010.05.17/outbox.cif.g08.bks.cpg/sg12_141_cif.got.tgz:280883.got - 2010.06.03 13:09:07.
