data_PCOD9209321
_publ_section_title
;
Structure prediction by ZEFSAII (Michael W. Deem and Ramdas Pophale) SiO2 
 PCOD9209321
Probable space group: C 2/M
;
_chemical_formula_sum "Si O2"
_cell_formula_units_Z 36
_cell_length_a 10.534360
_cell_length_b 16.032630
_cell_length_c 9.258732
_cell_angle_alpha 90.000000
_cell_angle_beta 106.882267
_cell_angle_gamma 90.000000
_cell_volume 1496.347929
_symmetry_space_group_name_H-M "C 2/M"
_symmetry_group_IT_number 12
_symmetry_cell_setting 'monoclinic'
loop_
_space_group_symop_operation_xyz
x,y,z
-x,y,-z
-x,-y,-z
x,-y,z
1/2+x,1/2+y,z
1/2-x,1/2+y,-z
1/2-x,1/2-y,-z
1/2+x,1/2-y,z
loop_
_atom_site_type_symbol
_atom_site_label
_atom_site_fract_x
_atom_site_fract_y
_atom_site_fract_z
Si Si1 0.144556 0.824669 0.119388
Si Si2 0.500000 0.349238 0.500000
Si Si3 0.387239 0.903074 0.085181
Si Si4 0.747974 0.591328 0.434592
Si Si5 0.435699 0.203657 0.672544
O O1 0.258399 0.843815 0.039205
O O2 0.182347 0.891307 0.257487
O O3 0.141254 0.739219 0.212418
O O4 0.000000 0.833307 0.000000
O O5 0.371434 0.403014 0.489052
O O6 0.510162 0.285204 0.637462
O O7 0.465356 0.869272 0.250518
O O8 0.349100 0.000000 0.078126
O O9 0.500000 0.895266 0.000000
O O10 0.810195 0.500000 0.459526
O O11 0.842104 0.665871 0.518631
#
# Coordination Sequence:
#
# PCOD9209321 Si02
#       5
#     8   4   8   8   8
#     4  11  25  44  69  98 135 179 223 269 329 400
#     4  10  21  38  61  94 130 164 210 264 325 394
#     4  11  25  43  65  97 135 176 224 277 332 390
#     4  11  23  40  66  98 132 169 215 273 331 388
#     4  11  22  42  69  95 129 172 223 274 325 391
#
# _framework density 24.058574
#
# number of rings (size 3 to 8) (size 9 to 14) (size 15 to 20)
#    0.000    1.111    0.000    7.667    0.000    8.889 
#    0.000    5.556    0.000    0.000    0.000    0.000 
#    0.000    0.889    0.000    0.000    0.000    0.000 
#
# Total GULP energy -100580.453915 kJ/mol
# GULP energy per Si atom -5587.802995 kJ/mol
# Density = 2.400382 g / cm^3
# Si number density = 24.058574 Si / 1000 Ang^3
#
#
#
# Elastic Constant Matrix: (Units=GPa)
#
#
# Indices 1 2 3 4 5 6 
#
# 1 119.7271 28.5282 63.3830 0.0000 -5.4759 0.0000
# 2 28.5282 140.7836 45.4292 0.0000 0.0262 0.0000
# 3 63.3830 45.4292 111.7353 0.0000 2.5820 0.0000
# 4 0.0000 0.0000 0.0000 27.1397 0.0000 -1.5028
# 5 -5.4759 0.0262 2.5820 0.0000 48.4361 0.0000
# 6 0.0000 0.0000 0.0000 -1.5028 0.0000 32.8246
#
#
#
# Elastic Compliance Matrix: (Units=1/GPa)
#
#
# Indices 1 2 3 4 5 6 
#
# 1 0.012089 -0.000258 -0.006793 0.000000 0.001729 0.000000
# 2 -0.000258 0.008183 -0.003184 0.000000 0.000136 0.000000
# 3 -0.006793 -0.003184 0.014132 0.000000 -0.001520 0.000000
# 4 0.000000 0.000000 0.000000 0.036940 0.000000 0.001691
# 5 0.001729 0.000136 -0.001520 0.000000 0.020922 0.000000
# 6 0.000000 0.000000 0.000000 0.001691 0.000000 0.030542
#
#
# Mechanical properties :
#
#
# Convention : Reuss Voigt Hill
#
# Bulk Modulus (GPa) = 71.75997 71.88075 71.82036
# Shear Modulus (GPa) = 33.80157 37.34045 35.57101
#
# Velocity S-wave (km/s) = 3.75236 3.94390 3.84932
# Velocity P-wave (km/s) = 6.97607 7.11908 7.04794
#
# Compressibility (1/GPa) = 0.01393534
#
# Stress axis : x y z
#
# Youngs Moduli (GPa) = 82.72094 122.20903 70.75956
#
# Poissons Ratio (x) = 0.03154 0.48064
# Poissons Ratio (y) = 0.02135 0.22527
# Poissons Ratio (z) = 0.56188 0.38907
#
# Static dielectric constant tensor:
#      x y z
#    x 2.010340 0.000000 -0.100830 
#    y 0.000000 1.870890 0.000000 
#    z -0.100830 0.000000 1.965920 
# 
# From -- ./inp_files/46638.got.cif
#   From: 2010.05.17/outbox.cif.g08.bks.cpg/sg12_24_cif.got.tgz:46638.got - 2010.06.03 13:09:07.
