data_PCOD9209926
_publ_section_title
;
Structure prediction by ZEFSAII (Michael W. Deem and Ramdas Pophale) SiO2 
 PCOD9209926
Probable space group: C 2/M
;
_chemical_formula_sum "Si O2"
_cell_formula_units_Z 40
_cell_length_a 16.163950
_cell_length_b 18.547884
_cell_length_c 5.718199
_cell_angle_alpha 90.000000
_cell_angle_beta 100.337743
_cell_angle_gamma 90.000000
_cell_volume 1686.527406
_symmetry_space_group_name_H-M "C 2/M"
_symmetry_group_IT_number 12
_symmetry_cell_setting 'monoclinic'
loop_
_space_group_symop_operation_xyz
x,y,z
-x,y,-z
-x,-y,-z
x,-y,z
1/2+x,1/2+y,z
1/2-x,1/2+y,-z
1/2-x,1/2-y,-z
1/2+x,1/2-y,z
loop_
_atom_site_type_symbol
_atom_site_label
_atom_site_fract_x
_atom_site_fract_y
_atom_site_fract_z
Si Si1 0.917524 0.801632 0.607335
Si Si2 0.388806 0.915094 0.304529
Si Si3 0.184937 0.084148 0.160591
Si Si4 0.097796 0.653958 0.193280
Si Si5 0.782707 0.190125 0.193959
O O1 0.873237 0.871973 0.690242
O O2 0.930941 0.736822 0.795070
O O3 0.845232 0.771231 0.400049
O O4 0.000000 0.815900 0.500000
O O5 0.285912 0.907597 0.251259
O O6 0.422188 0.887680 0.574201
O O7 0.406657 0.000000 0.291352
O O8 0.419992 0.877049 0.077540
O O9 0.166018 0.000000 0.146337
O O10 0.168771 0.125937 0.910350
O O11 0.199492 0.655776 0.254908
O O12 0.750000 0.250000 0.000000
#
# Coordination Sequence:
#
# PCOD9209926 Si02
#       5
#     8   8   8   8   8
#     4  12  25  40  62  94 133 176 220 270 328 398
#     4  10  21  38  68 101 129 162 219 283 336 389
#     4  10  22  39  61  93 130 173 220 269 329 394
#     4  11  21  39  67  96 130 170 221 275 329 395
#     4  11  21  41  67  92 125 173 222 282 328 385
#
# _framework density 23.717372999999998
#
# number of rings (size 3 to 8) (size 9 to 14) (size 15 to 20)
#    0.000    1.200    4.000    3.600    0.000    2.800 
#    0.000    1.000    0.000    3.600    0.000    0.000 
#    0.000    0.000    0.000    0.000    0.000    0.000 
#
# Total GULP energy -111877.406256 kJ/mol
# GULP energy per Si atom -5593.870313 kJ/mol
# Density = 2.366339 g / cm^3
# Si number density = 23.717373 Si / 1000 Ang^3
#
#
#
# Elastic Constant Matrix: (Units=GPa)
#
#
# Indices 1 2 3 4 5 6 
#
# 1 110.6164 41.8634 67.8535 0.0000 -34.6097 0.0000
# 2 41.8634 197.3393 92.3712 0.0000 -27.0267 0.0000
# 3 67.8535 92.3712 189.9017 0.0000 -3.8167 0.0000
# 4 0.0000 0.0000 0.0000 38.4779 0.0000 -11.7994
# 5 -34.6097 -27.0267 -3.8167 0.0000 58.0304 0.0000
# 6 0.0000 0.0000 0.0000 -11.7994 0.0000 19.3720
#
#
#
# Elastic Compliance Matrix: (Units=1/GPa)
#
#
# Indices 1 2 3 4 5 6 
#
# 1 0.014908 0.000588 -0.005436 0.000000 0.008807 0.000000
# 2 0.000588 0.007092 -0.003591 0.000000 0.003417 0.000000
# 3 -0.005436 -0.003591 0.008868 0.000000 -0.004331 0.000000
# 4 0.000000 0.000000 0.000000 0.031958 0.000000 0.019465
# 5 0.008807 0.003417 -0.004331 0.000000 0.023792 0.000000
# 6 0.000000 0.000000 0.000000 0.019465 0.000000 0.063477
#
#
# Mechanical properties :
#
#
# Convention : Reuss Voigt Hill
#
# Bulk Modulus (GPa) = 71.47991 100.22593 85.85292
# Shear Modulus (GPa) = 29.13174 42.89401 36.01287
#
# Velocity S-wave (km/s) = 3.50849 4.25732 3.90091
# Velocity P-wave (km/s) = 6.82762 8.15577 7.52107
#
# Compressibility (1/GPa) = 0.01398994
#
# Stress axis : x y z
#
# Youngs Moduli (GPa) = 67.07962 141.01388 112.76894
#
# Poissons Ratio (x) = -0.08292 0.61297
# Poissons Ratio (y) = -0.03945 0.40494
# Poissons Ratio (z) = 0.36462 0.50636
#
# Static dielectric constant tensor:
#      x y z
#    x 1.930540 0.000000 0.003430 
#    y 0.000000 1.844040 0.000000 
#    z 0.003430 0.000000 1.996500 
# 
# From -- ./inp_files/15296.got.cif
#   From: 2010.05.17/outbox.cif.g08.bks.cpg/sg12_8_cif.got.tgz:15296.got - 2010.06.03 13:09:07.
