data_PCOD9209660
_publ_section_title
;
Structure prediction by ZEFSAII (Michael W. Deem and Ramdas Pophale) SiO2 
 PCOD9209660
Probable space group: C 2/M
;
_chemical_formula_sum "Si O2"
_cell_formula_units_Z 44
_cell_length_a 5.916149
_cell_length_b 25.471794
_cell_length_c 12.730520
_cell_angle_alpha 90.000000
_cell_angle_beta 58.161693
_cell_angle_gamma 90.000000
_cell_volume 1629.778970
_symmetry_space_group_name_H-M "C 2/M"
_symmetry_group_IT_number 12
_symmetry_cell_setting 'monoclinic'
loop_
_space_group_symop_operation_xyz
x,y,z
-x,y,-z
-x,-y,-z
x,-y,z
1/2+x,1/2+y,z
1/2-x,1/2+y,-z
1/2-x,1/2-y,-z
1/2+x,1/2-y,z
loop_
_atom_site_type_symbol
_atom_site_label
_atom_site_fract_x
_atom_site_fract_y
_atom_site_fract_z
Si Si1 0.000000 0.276152 0.000000
Si Si2 0.251134 0.250537 0.744667
Si Si3 0.731989 0.865443 0.202626
Si Si4 0.226944 0.350231 0.525248
Si Si5 0.440732 0.055438 0.892709
Si Si6 0.462717 0.439852 0.319579
O O1 0.852621 0.294330 0.145946
O O2 0.750000 0.250000 0.000000
O O3 0.572873 0.250084 0.681976
O O4 0.176463 0.193911 0.813473
O O5 0.447353 0.863158 0.331159
O O6 0.710055 0.891514 0.095826
O O7 0.891623 0.907623 0.232246
O O8 0.500000 0.323200 0.500000
O O9 0.335559 0.402784 0.440297
O O10 0.000000 0.327643 0.500000
O O11 0.719102 0.056200 0.761758
O O12 0.305186 0.000000 0.896858
O O13 0.500000 0.054253 0.000000
O O14 0.360312 0.500000 0.347878
#
# Coordination Sequence:
#
# PCOD9209660 Si02
#       6
#     4   8   8   8   8   8
#     4   8  16  36  56  84 115 152 205 262 310 358
#     4  10  23  40  64  92 128 168 216 274 325 382
#     4  11  23  39  66  91 132 170 220 265 333 386
#     4  10  21  38  63  94 125 166 215 271 314 374
#     4  10  22  39  60  94 135 173 214 261 323 400
#     4  10  22  39  63  94 129 170 218 269 323 383
#
# _framework density 26.997527999999999
#
# number of rings (size 3 to 8) (size 9 to 14) (size 15 to 20)
#    0.000    2.000    1.818    0.545    2.545    6.545 
#    6.545    2.727    0.000   14.182    0.000    0.000 
#    0.000    0.000    0.000    0.000    0.000    0.000 
#
# Total GULP energy -122632.875428 kJ/mol
# GULP energy per Si atom -5574.221610 kJ/mol
# Density = 2.693608 g / cm^3
# Si number density = 26.997528 Si / 1000 Ang^3
#
#
#
# Elastic Constant Matrix: (Units=GPa)
#
#
# Indices 1 2 3 4 5 6 
#
# 1 217.3902 47.3745 31.6942 0.0000 -8.5680 0.0000
# 2 47.3745 148.3617 13.0445 0.0000 6.9689 0.0000
# 3 31.6942 13.0445 90.2307 0.0000 -13.3746 0.0000
# 4 0.0000 0.0000 0.0000 20.2388 0.0000 0.9289
# 5 -8.5680 6.9689 -13.3746 0.0000 62.8932 0.0000
# 6 0.0000 0.0000 0.0000 0.9289 0.0000 50.4010
#
#
#
# Elastic Compliance Matrix: (Units=1/GPa)
#
#
# Indices 1 2 3 4 5 6 
#
# 1 0.005180 -0.001547 -0.001513 0.000000 0.000555 0.000000
# 2 -0.001547 0.007350 -0.000693 0.000000 -0.001173 0.000000
# 3 -0.001513 -0.000693 0.012076 0.000000 0.002439 0.000000
# 4 0.000000 0.000000 0.000000 0.049452 0.000000 -0.000911
# 5 0.000555 -0.001173 0.002439 0.000000 0.016624 0.000000
# 6 0.000000 0.000000 0.000000 -0.000911 0.000000 0.019858
#
#
# Mechanical properties :
#
#
# Convention : Reuss Voigt Hill
#
# Bulk Modulus (GPa) = 58.48299 71.13433 64.80866
# Shear Modulus (GPa) = 40.40524 50.96455 45.68490
#
# Velocity S-wave (km/s) = 3.87282 4.34954 4.11808
# Velocity P-wave (km/s) = 6.45815 7.18542 6.83147
#
# Compressibility (1/GPa) = 0.01709899
#
# Stress axis : x y z
#
# Youngs Moduli (GPa) = 193.06206 136.04937 82.80900
#
# Poissons Ratio (x) = 0.21046 0.12533
# Poissons Ratio (y) = 0.29866 0.05739
# Poissons Ratio (z) = 0.29219 0.09429
#
# Static dielectric constant tensor:
#      x y z
#    x 2.196910 0.000000 0.011840 
#    y 0.000000 2.169630 0.000000 
#    z 0.011840 0.000000 2.123230 
# 
# From -- ./inp_files/192040.got.cif
#   From: 2010.05.17/outbox.cif.g08.bks.cpg/sg12_97_cif.got.tgz:192040.got - 2010.06.03 13:09:07.
