data_PCOD9209900
_publ_section_title
;
Structure prediction by ZEFSAII (Michael W. Deem and Ramdas Pophale) SiO2 
 PCOD9209900
Probable space group: C 2/M
;
_chemical_formula_sum "Si O2"
_cell_formula_units_Z 38
_cell_length_a 14.908875
_cell_length_b 7.813231
_cell_length_c 18.769712
_cell_angle_alpha 90.000000
_cell_angle_beta 42.306706
_cell_angle_gamma 90.000000
_cell_volume 1471.675777
_symmetry_space_group_name_H-M "C 2/M"
_symmetry_group_IT_number 12
_symmetry_cell_setting 'monoclinic'
loop_
_space_group_symop_operation_xyz
x,y,z
-x,y,-z
-x,-y,-z
x,-y,z
1/2+x,1/2+y,z
1/2-x,1/2+y,-z
1/2-x,1/2-y,-z
1/2+x,1/2-y,z
loop_
_atom_site_type_symbol
_atom_site_label
_atom_site_fract_x
_atom_site_fract_y
_atom_site_fract_z
Si Si1 0.500000 0.500000 0.500000
Si Si2 0.500000 0.246615 0.000000
Si Si3 0.736775 0.795904 0.219141
Si Si4 0.599898 0.688932 0.096531
Si Si5 0.696947 0.807578 0.409857
Si Si6 0.963597 0.693595 0.310848
O O1 0.595266 0.652749 0.478991
O O2 0.649534 0.188931 0.888453
O O3 0.462922 0.320803 0.944694
O O4 0.746037 0.786061 0.298652
O O5 0.588490 0.740799 0.283548
O O6 0.752486 0.000000 0.189576
O O7 0.594495 0.500000 0.131802
O O8 0.523022 0.808863 0.195790
O O9 0.750000 0.750000 0.000000
O O10 0.825884 0.792177 0.384384
O O11 0.641505 0.000000 0.447896
O O12 0.935910 0.500000 0.350271
#
# Coordination Sequence:
#
# PCOD9209900 Si02
#       6
#     2   4   8   8   8   8
#     4  12  26  52  80 104 132 168 230 298 364 412
#     4  12  21  36  61  94 139 194 235 266 323 405
#     4  10  21  38  66  99 142 187 230 273 336 407
#     4  12  23  37  57  90 132 188 238 278 327 392
#     4  11  24  47  76 103 135 180 226 283 355 421
#     4  11  22  41  66  98 139 181 225 285 343 402
#
# _framework density 25.820905
#
# number of rings (size 3 to 8) (size 9 to 14) (size 15 to 20)
#    0.000    0.842    5.263    3.474    0.000    0.000 
#    3.789    5.263    0.000    0.000    0.000    0.000 
#    0.000    0.000    0.000    0.000    0.000    0.000 
#
# Total GULP energy -105911.528601 kJ/mol
# GULP energy per Si atom -5574.290979 kJ/mol
# Density = 2.576214 g / cm^3
# Si number density = 25.820905 Si / 1000 Ang^3
#
#
#
# Elastic Constant Matrix: (Units=GPa)
#
#
# Indices 1 2 3 4 5 6 
#
# 1 150.6341 27.4882 64.5052 0.0000 -34.4909 0.0000
# 2 27.4882 150.7458 52.7975 0.0000 -25.5310 0.0000
# 3 64.5052 52.7975 130.3304 0.0000 -3.9828 0.0000
# 4 0.0000 0.0000 0.0000 -7.0302 0.0000 5.9357
# 5 -34.4909 -25.5310 -3.9828 0.0000 77.4799 0.0000
# 6 0.0000 0.0000 0.0000 5.9357 0.0000 -26.8464
#
#
#
# Elastic Compliance Matrix: (Units=1/GPa)
#
#
# Indices 1 2 3 4 5 6 
#
# 1 0.009577 0.000683 -0.004887 0.000000 0.004237 0.000000
# 2 0.000683 0.008248 -0.003593 0.000000 0.002837 0.000000
# 3 -0.004887 -0.003593 0.011462 0.000000 -0.002770 0.000000
# 4 0.000000 0.000000 0.000000 -0.174890 0.000000 -0.038668
# 5 0.004237 0.002837 -0.002770 0.000000 0.015585 0.000000
# 6 0.000000 0.000000 0.000000 -0.038668 0.000000 -0.045798
#
#
# Mechanical properties :
#
#
# Convention : Reuss Voigt Hill
#
# Bulk Modulus (GPa) = 73.02653 80.14357 76.58505
# Shear Modulus (GPa) = -32.12172 27.84861 -2.13655
#
# Velocity S-wave (km/s) = -3.53089 3.28766 -0.91063
# Velocity P-wave (km/s) = 3.42351 6.74665 5.34966
#
# Compressibility (1/GPa) = 0.01369365
#
# Stress axis : x y z
#
# Youngs Moduli (GPa) = 104.41731 121.24232 87.24201
#
# Poissons Ratio (x) = -0.08280 0.42637
# Poissons Ratio (y) = -0.07131 0.31343
# Poissons Ratio (z) = 0.51030 0.43558
#
# Static dielectric constant tensor:
#      x y z
#    x 2.042570 0.000000 0.049640 
#    y 0.000000 1.945210 0.000000 
#    z 0.049640 0.000000 2.079450 
# 
# From -- ./inp_files/267404.got.cif
#   From: 2010.05.17/outbox.cif.g08.bks.cpg/sg12_134_cif.got.tgz:267404.got - 2010.06.03 13:09:07.
