data_PCOD9209501
_publ_section_title
;
Structure prediction by ZEFSAII (Michael W. Deem and Ramdas Pophale) SiO2 
 PCOD9209501
Probable space group: C 2/M
;
_chemical_formula_sum "Si O2"
_cell_formula_units_Z 40
_cell_length_a 17.609469
_cell_length_b 14.199094
_cell_length_c 15.857325
_cell_angle_alpha 90.000000
_cell_angle_beta 30.067697
_cell_angle_gamma 90.000000
_cell_volume 1986.526625
_symmetry_space_group_name_H-M "C 2/M"
_symmetry_group_IT_number 12
_symmetry_cell_setting 'monoclinic'
loop_
_space_group_symop_operation_xyz
x,y,z
-x,y,-z
-x,-y,-z
x,-y,z
1/2+x,1/2+y,z
1/2-x,1/2+y,-z
1/2-x,1/2-y,-z
1/2+x,1/2-y,z
loop_
_atom_site_type_symbol
_atom_site_label
_atom_site_fract_x
_atom_site_fract_y
_atom_site_fract_z
Si Si1 0.712142 0.765063 0.438717
Si Si2 0.592057 0.108423 0.828281
Si Si3 0.673617 0.390776 0.804601
Si Si4 0.702512 0.891653 0.999566
Si Si5 0.645786 0.784750 0.225975
O O1 0.750000 0.750000 0.500000
O O2 0.771351 0.674896 0.329475
O O3 0.804757 0.852180 0.310355
O O4 0.535046 0.783840 0.596787
O O5 0.638130 0.000000 0.798536
O O6 0.500000 0.140382 0.000000
O O7 0.468445 0.111315 0.872268
O O8 0.716926 0.500000 0.769709
O O9 0.778622 0.327472 0.763696
O O10 0.500000 0.380971 0.000000
O O11 0.798200 0.820447 0.849869
O O12 0.754000 0.000000 0.947425
O O13 0.700651 0.850179 0.095382
#
# Coordination Sequence:
#
# PCOD9209501 Si02
#       5
#     8   8   8   8   8
#     4  12  24  40  64  97 134 168 213 273 329 387
#     4  10  21  40  64  90 127 173 217 263 323 395
#     4  11  26  46  70  96 131 178 225 271 329 398
#     4  10  21  38  62  92 129 173 219 269 329 393
#     4  11  23  40  65  96 132 172 218 279 328 393
#
# _framework density 20.135646999999999
#
# number of rings (size 3 to 8) (size 9 to 14) (size 15 to 20)
#    0.000    1.200    2.000    4.200    2.800    4.000 
#    0.000    0.000    0.000    6.000    0.000    0.000 
#    0.000    0.000    0.000    0.000    0.000    0.000 
#
# Total GULP energy -111852.994147 kJ/mol
# GULP energy per Si atom -5592.649707 kJ/mol
# Density = 2.008982 g / cm^3
# Si number density = 20.135647 Si / 1000 Ang^3
#
#
#
# Elastic Constant Matrix: (Units=GPa)
#
#
# Indices 1 2 3 4 5 6 
#
# 1 93.8872 33.2716 32.5043 0.0000 18.6695 0.0000
# 2 33.2716 154.6960 65.0600 0.0000 10.6703 0.0000
# 3 32.5043 65.0600 112.7026 0.0000 7.2189 -0.0001
# 4 0.0000 0.0000 0.0000 14.5432 0.0000 -4.2393
# 5 18.6695 10.6703 7.2189 0.0000 31.6221 0.0000
# 6 0.0000 0.0000 -0.0001 -4.2393 0.0000 25.1578
#
#
#
# Elastic Compliance Matrix: (Units=1/GPa)
#
#
# Indices 1 2 3 4 5 6 
#
# 1 0.013400 -0.001278 -0.002687 0.000000 -0.006866 0.000000
# 2 -0.001278 0.008759 -0.004614 0.000000 -0.001147 0.000000
# 3 -0.002687 -0.004614 0.012290 0.000000 0.000338 0.000000
# 4 0.000000 0.000000 0.000000 0.072313 0.000000 0.012185
# 5 -0.006866 -0.001147 0.000338 0.000000 0.035987 0.000000
# 6 0.000000 0.000000 0.000000 0.012185 0.000000 0.041803
#
#
# Mechanical properties :
#
#
# Convention : Reuss Voigt Hill
#
# Bulk Modulus (GPa) = 57.83744 69.21752 63.52748
# Shear Modulus (GPa) = 24.09952 29.62792 26.86372
#
# Velocity S-wave (km/s) = 3.46332 3.84007 3.65655
# Velocity P-wave (km/s) = 6.69171 7.35607 7.03174
#
# Compressibility (1/GPa) = 0.01728984
#
# Stress axis : x y z
#
# Youngs Moduli (GPa) = 74.62867 114.16935 81.36855
#
# Poissons Ratio (x) = 0.14595 0.21862
# Poissons Ratio (y) = 0.09540 0.37544
# Poissons Ratio (z) = 0.20051 0.52679
#
# Static dielectric constant tensor:
#      x y z
#    x 1.722100 0.000000 0.031140 
#    y 0.000000 1.717740 0.000000 
#    z 0.031140 0.000000 1.692630 
# 
# From -- ./inp_files/73328.got.cif
#   From: 2010.05.17/outbox.cif.g08.bks.cpg/sg12_37_cif.got.tgz:73328.got - 2010.06.03 13:09:07.
