data_PCOD9209054
_publ_section_title
;
Structure prediction by ZEFSAII (Michael W. Deem and Ramdas Pophale) SiO2 
 PCOD9209054
Probable space group: C 2/M
;
_chemical_formula_sum "Si O2"
_cell_formula_units_Z 56
_cell_length_a 11.916988
_cell_length_b 15.093280
_cell_length_c 12.930750
_cell_angle_alpha 90.000000
_cell_angle_beta 110.867463
_cell_angle_gamma 90.000000
_cell_volume 2173.250991
_symmetry_space_group_name_H-M "C 2/M"
_symmetry_group_IT_number 12
_symmetry_cell_setting 'monoclinic'
loop_
_space_group_symop_operation_xyz
x,y,z
-x,y,-z
-x,-y,-z
x,-y,z
1/2+x,1/2+y,z
1/2-x,1/2+y,-z
1/2-x,1/2-y,-z
1/2+x,1/2-y,z
loop_
_atom_site_type_symbol
_atom_site_label
_atom_site_fract_x
_atom_site_fract_y
_atom_site_fract_z
Si Si1 0.982243 0.337839 0.327462
Si Si2 0.276831 0.401694 0.258752
Si Si3 0.479703 0.746286 0.878163
Si Si4 0.770460 0.101556 0.810090
Si Si5 0.478675 0.641698 0.607157
Si Si6 0.268718 0.896204 0.529928
Si Si7 0.197392 0.894525 0.945285
O O1 0.011584 0.314647 0.215351
O O2 0.975885 0.241246 0.373975
O O3 0.089495 0.383465 0.425843
O O4 0.854641 0.385475 0.289964
O O5 0.225425 0.500000 0.254391
O O6 0.421795 0.406001 0.291547
O O7 0.257751 0.357905 0.363115
O O8 0.230899 0.366405 0.134840
O O9 0.364752 0.680990 0.823488
O O10 0.588060 0.673897 0.912081
O O11 0.500000 0.784660 0.000000
O O12 0.816253 0.000000 0.807860
O O13 0.741037 0.110339 0.923212
O O14 0.500000 0.603206 0.500000
O O15 0.335660 0.642165 0.577917
O O16 0.242516 0.000000 0.517046
O O17 0.167872 0.000000 0.924577
#
# Coordination Sequence:
#
# PCOD9209054 Si02
#       7
#     8   8   8   8   8   8   8
#     4  12  24  38  62  89 123 159 197 246 311 358
#     4   9  17  33  60  88 113 147 197 249 295 345
#     4  10  22  37  61  93 123 159 204 248 290 354
#     4  10  23  41  61  87 128 167 197 240 300 368
#     4  10  21  38  61  84 113 150 200 256 297 347
#     4  10  22  39  59  84 119 157 199 249 302 361
#     4   9  17  35  61  89 120 160 204 241 288 358
#
# _framework density 25.767848000000001
#
# number of rings (size 3 to 8) (size 9 to 14) (size 15 to 20)
#    0.000    2.000    1.429    1.714    4.000    6.857 
#    0.000    0.000    0.000    5.143    0.000    0.000 
#    0.000    0.000    0.000    0.000    0.000    0.000 
#
# Total GULP energy -156257.570067 kJ/mol
# GULP energy per Si atom -5580.627502 kJ/mol
# Density = 2.570920 g / cm^3
# Si number density = 25.767848 Si / 1000 Ang^3
#
#
#
# Elastic Constant Matrix: (Units=GPa)
#
#
# Indices 1 2 3 4 5 6 
#
# 1 58.0458 0.1285 23.6005 0.0000 20.1372 0.0000
# 2 0.1285 62.4407 13.8197 0.0000 10.7004 0.0000
# 3 23.6005 13.8197 94.5120 0.0000 15.2926 0.0000
# 4 0.0000 0.0000 0.0000 37.4129 0.0000 2.7975
# 5 20.1372 10.7004 15.2926 0.0000 46.9913 0.0000
# 6 0.0000 0.0000 0.0000 2.7975 0.0000 34.3338
#
#
#
# Elastic Compliance Matrix: (Units=1/GPa)
#
#
# Indices 1 2 3 4 5 6 
#
# 1 0.021993 0.002403 -0.004465 0.000000 -0.008519 0.000000
# 2 0.002403 0.017266 -0.002451 0.000000 -0.004164 0.000000
# 3 -0.004465 -0.002451 0.012302 0.000000 -0.001532 0.000000
# 4 0.000000 0.000000 0.000000 0.026893 0.000000 -0.002191
# 5 -0.008519 -0.004164 -0.001532 0.000000 0.026378 0.000000
# 6 0.000000 0.000000 0.000000 -0.002191 0.000000 0.029304
#
#
# Mechanical properties :
#
#
# Convention : Reuss Voigt Hill
#
# Bulk Modulus (GPa) = 23.50995 32.23288 27.87141
# Shear Modulus (GPa) = 31.77822 35.57757 33.67790
#
# Velocity S-wave (km/s) = 3.51558 3.71980 3.61913
# Velocity P-wave (km/s) = 5.06188 5.56645 5.32015
#
# Compressibility (1/GPa) = 0.04253519
#
# Stress axis : x y z
#
# Youngs Moduli (GPa) = 45.46876 57.91649 81.28858
#
# Poissons Ratio (x) = -0.13916 0.36294
# Poissons Ratio (y) = -0.10925 0.19924
# Poissons Ratio (z) = 0.20301 0.14195
#
# Static dielectric constant tensor:
#      x y z
#    x 2.183940 0.000000 -0.023950 
#    y 0.000000 1.985980 0.000000 
#    z -0.023950 0.000000 2.070200 
# 
# From -- ./inp_files/206753.got.cif
#   From: 2010.05.17/outbox.cif.g08.bks.cpg/sg12_104_cif.got.tgz:206753.got - 2010.06.03 13:09:07.
