data_PCOD9209711
_publ_section_title
;
Structure prediction by ZEFSAII (Michael W. Deem and Ramdas Pophale) SiO2 
 PCOD9209711
Probable space group: C 2/M
;
_chemical_formula_sum "Si O2"
_cell_formula_units_Z 44
_cell_length_a 19.693172
_cell_length_b 12.213834
_cell_length_c 12.185900
_cell_angle_alpha 90.000000
_cell_angle_beta 124.900079
_cell_angle_gamma 90.000000
_cell_volume 2403.915302
_symmetry_space_group_name_H-M "C 2/M"
_symmetry_group_IT_number 12
_symmetry_cell_setting 'monoclinic'
loop_
_space_group_symop_operation_xyz
x,y,z
-x,y,-z
-x,-y,-z
x,-y,z
1/2+x,1/2+y,z
1/2-x,1/2+y,-z
1/2-x,1/2-y,-z
1/2+x,1/2-y,z
loop_
_atom_site_type_symbol
_atom_site_label
_atom_site_fract_x
_atom_site_fract_y
_atom_site_fract_z
Si Si1 0.389476 0.266141 0.632117
Si Si2 0.055761 0.000000 0.235847
Si Si3 0.251861 0.739809 0.678305
Si Si4 0.187799 0.216011 0.846094
Si Si5 0.031834 0.630137 0.654647
Si Si6 0.794647 0.000000 0.787958
Si Si7 0.367442 0.500000 0.088681
O O1 0.422913 0.389031 0.679257
O O2 0.336936 0.235996 0.692489
O O3 0.323161 0.265504 0.472473
O O4 0.462644 0.183369 0.669742
O O5 0.114823 0.000000 0.184575
O O6 0.958990 0.000000 0.123287
O O7 0.238958 0.799741 0.781325
O O8 0.251613 0.610018 0.705606
O O9 0.117502 0.306399 0.755746
O O10 0.144666 0.106152 0.848109
O O11 0.250000 0.250000 0.000000
O O12 0.040776 0.500000 0.679328
O O13 0.000000 0.647950 0.500000
O O14 0.804298 0.000000 0.927718
#
# Coordination Sequence:
#
# PCOD9209711 Si02
#       7
#     8   4   8   8   8   4   4
#     4  10  21  41  64  94 125 162 203 261 315 367
#     4  10  21  39  62  95 122 156 208 259 317 367
#     4  10  22  39  62  93 126 164 207 255 310 370
#     4  12  25  41  62  94 130 165 210 257 310 371
#     4  11  24  42  69  92 123 165 212 259 306 371
#     4  10  21  38  64  88 121 166 216 253 293 377
#     4  12  23  39  64  86 125 170 203 258 311 367
#
# _framework density 18.303471999999999
#
# number of rings (size 3 to 8) (size 9 to 14) (size 15 to 20)
#    0.000    1.273    5.455    0.273    3.818    0.727 
#    3.273    2.727    0.000    1.091    0.000    0.000 
#    0.000    0.000    0.000    0.000    0.000    0.000 
#
# Total GULP energy -122864.713382 kJ/mol
# GULP energy per Si atom -5584.759699 kJ/mol
# Density = 1.826181 g / cm^3
# Si number density = 18.303472 Si / 1000 Ang^3
#
#
#
# Elastic Constant Matrix: (Units=GPa)
#
#
# Indices 1 2 3 4 5 6 
#
# 1 89.5337 40.3388 42.5401 0.0000 -4.8640 0.0000
# 2 40.3388 115.8402 49.2135 0.0000 1.2760 0.0000
# 3 42.5401 49.2135 108.9322 0.0000 -3.4254 0.0000
# 4 0.0000 0.0000 0.0000 23.6667 0.0000 0.2331
# 5 -4.8640 1.2760 -3.4254 0.0000 34.0425 0.0000
# 6 0.0000 0.0000 0.0000 0.2331 0.0000 31.3951
#
#
#
# Elastic Compliance Matrix: (Units=1/GPa)
#
#
# Indices 1 2 3 4 5 6 
#
# 1 0.014783 -0.003390 -0.004184 0.000000 0.001818 0.000000
# 2 -0.003390 0.011487 -0.003907 0.000000 -0.001308 0.000000
# 3 -0.004184 -0.003907 0.012605 0.000000 0.000817 0.000000
# 4 0.000000 0.000000 0.000000 0.042257 0.000000 -0.000314
# 5 0.001818 -0.001308 0.000817 0.000000 0.029766 0.000000
# 6 0.000000 0.000000 0.000000 -0.000314 0.000000 0.031854
#
#
# Mechanical properties :
#
#
# Convention : Reuss Voigt Hill
#
# Bulk Modulus (GPa) = 62.84397 64.27678 63.56037
# Shear Modulus (GPa) = 29.23633 29.96842 29.60238
#
# Velocity S-wave (km/s) = 4.00097 4.05076 4.02594
# Velocity P-wave (km/s) = 7.46677 7.55458 7.51080
#
# Compressibility (1/GPa) = 0.01591243
#
# Stress axis : x y z
#
# Youngs Moduli (GPa) = 67.64374 87.05166 79.33454
#
# Poissons Ratio (x) = 0.29513 0.33196
# Poissons Ratio (y) = 0.22934 0.30996
# Poissons Ratio (z) = 0.28304 0.34011
#
# Static dielectric constant tensor:
#      x y z
#    x 1.651720 0.000000 -0.003470 
#    y 0.000000 1.603490 0.000000 
#    z -0.003470 0.000000 1.598140 
# 
# From -- ./inp_files/154115.got.cif
#   From: 2010.05.17/outbox.cif.g08.bks.cpg/sg12_78_cif.got.tgz:154115.got - 2010.06.03 13:09:07.
