data_PCOD9209883
_publ_section_title
;
Structure prediction by ZEFSAII (Michael W. Deem and Ramdas Pophale) SiO2 
 PCOD9209883
Probable space group: C 2/M
;
_chemical_formula_sum "Si O2"
_cell_formula_units_Z 64
_cell_length_a 17.520220
_cell_length_b 14.072867
_cell_length_c 18.830277
_cell_angle_alpha 90.000000
_cell_angle_beta 140.505844
_cell_angle_gamma 90.000000
_cell_volume 2952.810868
_symmetry_space_group_name_H-M "C 2/M"
_symmetry_group_IT_number 12
_symmetry_cell_setting 'monoclinic'
loop_
_space_group_symop_operation_xyz
x,y,z
-x,y,-z
-x,-y,-z
x,-y,z
1/2+x,1/2+y,z
1/2-x,1/2+y,-z
1/2-x,1/2-y,-z
1/2+x,1/2-y,z
loop_
_atom_site_type_symbol
_atom_site_label
_atom_site_fract_x
_atom_site_fract_y
_atom_site_fract_z
Si Si1 0.627268 0.271630 0.113642
Si Si2 0.300225 0.113055 0.158130
Si Si3 0.893766 0.108365 0.101778
Si Si4 0.245027 0.895561 0.849769
Si Si5 0.119732 0.389790 0.543582
Si Si6 0.947669 0.291690 0.641805
Si Si7 0.487874 0.389230 0.406575
Si Si8 0.862259 0.772027 0.724397
O O1 0.728656 0.351615 0.176328
O O2 0.659649 0.187225 0.083723
O O3 0.627027 0.224701 0.190987
O O4 0.500000 0.313840 0.000000
O O5 0.419254 0.176177 0.238660
O O6 0.324621 0.000000 0.176569
O O7 0.208855 0.135472 0.028193
O O8 0.834334 0.110724 0.136444
O O9 0.016265 0.165863 0.190701
O O10 0.925907 0.000000 0.107316
O O11 0.150980 0.884102 0.717601
O O12 0.299868 0.000000 0.886291
O O13 0.137662 0.500000 0.573688
O O14 0.092078 0.372771 0.441083
O O15 0.240304 0.331336 0.642108
O O16 0.000000 0.357218 0.500000
O O17 0.951001 0.192745 0.598407
O O18 0.866281 0.283761 0.653262
O O19 0.500000 0.372574 0.500000
O O20 0.526311 0.500000 0.419840
#
# Coordination Sequence:
#
# PCOD9209883 Si02
#       8
#     8   8   8   8   8   8   8   8
#     4  12  25  40  62  95 138 177 219 267 325 392
#     4  11  24  43  68  99 137 179 219 270 329 398
#     4  10  21  40  69 100 129 169 222 276 332 387
#     4  10  22  43  67  93 127 172 222 270 329 395
#     4  11  26  47  70  96 133 180 223 270 332 399
#     4  12  24  43  70  98 133 170 223 274 333 392
#     4  10  21  38  66  96 123 160 212 273 330 387
#     4  12  25  41  66  99 134 174 221 278 326 390
#
# _framework density 21.674263
#
# number of rings (size 3 to 8) (size 9 to 14) (size 15 to 20)
#    0.000    1.000    3.750    2.250    3.500    4.000 
#    0.000    1.250    0.000    0.000    0.000    0.000 
#    0.000    0.000    0.000    0.000    0.000    0.000 
#
# Total GULP energy -178775.807182 kJ/mol
# GULP energy per Si atom -5586.743974 kJ/mol
# Density = 2.162493 g / cm^3
# Si number density = 21.674263 Si / 1000 Ang^3
#
#
#
# Elastic Constant Matrix: (Units=GPa)
#
#
# Indices 1 2 3 4 5 6 
#
# 1 110.8392 31.1408 38.8673 0.0000 -3.1193 0.0000
# 2 31.1408 85.5066 6.7765 0.0000 7.3916 0.0000
# 3 38.8673 6.7765 84.6892 0.0000 -6.5213 0.0000
# 4 0.0000 0.0000 0.0000 24.7176 0.0000 -5.7735
# 5 -3.1193 7.3916 -6.5213 0.0000 38.5952 0.0000
# 6 0.0000 0.0000 0.0000 -5.7735 0.0000 -0.1347
#
#
#
# Elastic Compliance Matrix: (Units=1/GPa)
#
#
# Indices 1 2 3 4 5 6 
#
# 1 0.011968 -0.004030 -0.005103 0.000000 0.000877 0.000000
# 2 -0.004030 0.013359 0.000566 0.000000 -0.002789 0.000000
# 3 -0.005103 0.000566 0.014250 0.000000 0.001887 0.000000
# 4 0.000000 0.000000 0.000000 0.003673 0.000000 -0.157480
# 5 0.000877 -0.002789 0.001887 0.000000 0.026834 0.000000
# 6 0.000000 0.000000 0.000000 -0.157480 0.000000 -0.674202
#
#
# Mechanical properties :
#
#
# Convention : Reuss Voigt Hill
#
# Bulk Modulus (GPa) = 44.55709 48.28935 46.42322
# Shear Modulus (GPa) = -8.62809 26.25233 8.81212
#
# Velocity S-wave (km/s) = -1.99736 3.48404 2.01855
# Velocity P-wave (km/s) = 3.90934 6.20585 5.18631
#
# Compressibility (1/GPa) = 0.02244312
#
# Stress axis : x y z
#
# Youngs Moduli (GPa) = 83.55315 74.85603 70.17659
#
# Poissons Ratio (x) = 0.30169 0.35810
# Poissons Ratio (y) = 0.33674 -0.03972
# Poissons Ratio (z) = 0.42635 -0.04237
#
# Static dielectric constant tensor:
#      x y z
#    x 1.795950 0.000000 -0.027230 
#    y 0.000000 1.791370 0.000000 
#    z -0.027230 0.000000 1.828990 
# 
# From -- ./inp_files/278208.got.cif
#   From: 2010.05.17/outbox.cif.g08.bks.cpg/sg12_140_cif.got.tgz:278208.got - 2010.06.03 13:09:07.
