data_PCOD9209774
_publ_section_title
;
Structure prediction by ZEFSAII (Michael W. Deem and Ramdas Pophale) SiO2 
 PCOD9209774
Probable space group: C 2/M
;
_chemical_formula_sum "Si O2"
_cell_formula_units_Z 64
_cell_length_a 22.618594
_cell_length_b 19.017496
_cell_length_c 8.993036
_cell_angle_alpha 90.000000
_cell_angle_beta 125.111446
_cell_angle_gamma 90.000000
_cell_volume 3164.441468
_symmetry_space_group_name_H-M "C 2/M"
_symmetry_group_IT_number 12
_symmetry_cell_setting 'monoclinic'
loop_
_space_group_symop_operation_xyz
x,y,z
-x,y,-z
-x,-y,-z
x,-y,z
1/2+x,1/2+y,z
1/2-x,1/2+y,-z
1/2-x,1/2-y,-z
1/2+x,1/2-y,z
loop_
_atom_site_type_symbol
_atom_site_label
_atom_site_fract_x
_atom_site_fract_y
_atom_site_fract_z
Si Si1 0.674660 0.327630 0.901990
Si Si2 0.462250 0.423404 0.285873
Si Si3 0.289276 0.917475 0.911354
Si Si4 0.797006 0.821765 0.725258
Si Si5 0.047268 0.300638 0.346384
Si Si6 0.890018 0.677566 0.237620
Si Si7 0.943299 0.845535 0.790226
Si Si8 0.332428 0.162469 0.688626
O O1 0.596052 0.362237 0.804820
O O2 0.661640 0.245695 0.852480
O O3 0.718466 0.370153 0.841576
O O4 0.711886 0.338290 0.115371
O O5 0.500000 0.421042 0.500000
O O6 0.427670 0.500000 0.216187
O O7 0.521648 0.409921 0.245889
O O8 0.348000 0.889744 0.115532
O O9 0.275024 0.000000 0.903504
O O10 0.318322 0.895923 0.791254
O O11 0.866552 0.859685 0.754235
O O12 0.726544 0.838968 0.528397
O O13 0.818068 0.739029 0.742432
O O14 0.082851 0.323845 0.553610
O O15 0.063128 0.218307 0.336817
O O16 0.088593 0.338624 0.271267
O O17 0.961711 0.310961 0.240282
O O18 0.000000 0.822907 0.000000
#
# Coordination Sequence:
#
# PCOD9209774 Si02
#       8
#     8   8   8   8   8   8   8   8
#     4  12  22  42  67  97 125 176 219 271 315 389
#     4  11  24  39  57  89 134 180 214 259 327 393
#     4  12  28  45  64  96 136 177 220 269 330 395
#     4  10  21  38  64  95 124 167 219 274 319 374
#     4  10  22  39  69 105 126 160 215 280 324 384
#     4  11  22  42  72 100 128 166 220 271 331 386
#     4  11  20  37  60  95 135 163 215 270 317 383
#     4  10  23  40  63  95 133 164 213 272 329 382
#
# _framework density 20.224740000000001
#
# number of rings (size 3 to 8) (size 9 to 14) (size 15 to 20)
#    0.000    1.125    3.750    2.250    8.750    0.250 
#    0.000    5.625    0.000    0.000    0.000    0.000 
#    0.000    0.000    0.000    0.000    0.000    0.000 
#
# Total GULP energy -178917.228232 kJ/mol
# GULP energy per Si atom -5591.163382 kJ/mol
# Density = 2.017871 g / cm^3
# Si number density = 20.224740 Si / 1000 Ang^3
#
#
#
# Elastic Constant Matrix: (Units=GPa)
#
#
# Indices 1 2 3 4 5 6 
#
# 1 130.9926 32.3916 9.6968 0.0000 -6.6545 0.0000
# 2 32.3916 68.4197 20.6679 0.0000 -4.9932 0.0000
# 3 9.6968 20.6679 51.7195 0.0000 -5.6511 0.0000
# 4 0.0000 0.0000 0.0000 41.9869 0.0000 -23.3212
# 5 -6.6545 -4.9932 -5.6511 0.0000 23.7017 0.0000
# 6 0.0000 0.0000 0.0000 -23.3212 0.0000 34.2242
#
#
#
# Elastic Compliance Matrix: (Units=1/GPa)
#
#
# Indices 1 2 3 4 5 6 
#
# 1 0.008707 -0.004053 0.000165 0.000000 0.001630 0.000000
# 2 -0.004053 0.018599 -0.006539 0.000000 0.001221 0.000000
# 3 0.000165 -0.006539 0.022354 0.000000 0.003999 0.000000
# 4 0.000000 0.000000 0.000000 0.038321 0.000000 0.026113
# 5 0.001630 0.001221 0.003999 0.000000 0.043859 0.000000
# 6 0.000000 0.000000 0.000000 0.026113 0.000000 0.047013
#
#
# Mechanical properties :
#
#
# Convention : Reuss Voigt Hill
#
# Bulk Modulus (GPa) = 34.71463 41.84936 38.28199
# Shear Modulus (GPa) = 23.88813 32.54092 28.21452
#
# Velocity S-wave (km/s) = 3.44049 4.01554 3.73909
# Velocity P-wave (km/s) = 5.74320 6.49896 6.13274
#
# Compressibility (1/GPa) = 0.02880630
#
# Stress axis : x y z
#
# Youngs Moduli (GPa) = 114.85260 53.76670 44.73456
#
# Poissons Ratio (x) = 0.21792 -0.00740
# Poissons Ratio (y) = 0.46550 0.29252
# Poissons Ratio (z) = -0.01899 0.35158
#
# Static dielectric constant tensor:
#      x y z
#    x 1.735230 0.000000 0.006540 
#    y 0.000000 1.678830 0.000000 
#    z 0.006540 0.000000 1.717910 
# 
# From -- ./inp_files/89628.got.cif
#   From: 2010.05.17/outbox.cif.g08.bks.cpg/sg12_45_cif.got.tgz:89628.got - 2010.06.03 13:09:07.
