data_PCOD9209508
_publ_section_title
;
Structure prediction by ZEFSAII (Michael W. Deem and Ramdas Pophale) SiO2 
 PCOD9209508
Probable space group: C 2/M
;
_chemical_formula_sum "Si O2"
_cell_formula_units_Z 40
_cell_length_a 5.106586
_cell_length_b 32.671592
_cell_length_c 12.105544
_cell_angle_alpha 90.000000
_cell_angle_beta 76.921504
_cell_angle_gamma 90.000000
_cell_volume 1967.303648
_symmetry_space_group_name_H-M "C 2/M"
_symmetry_group_IT_number 12
_symmetry_cell_setting 'monoclinic'
loop_
_space_group_symop_operation_xyz
x,y,z
-x,y,-z
-x,-y,-z
x,-y,z
1/2+x,1/2+y,z
1/2-x,1/2+y,-z
1/2-x,1/2-y,-z
1/2+x,1/2-y,z
loop_
_atom_site_type_symbol
_atom_site_label
_atom_site_fract_x
_atom_site_fract_y
_atom_site_fract_z
Si Si1 0.524732 0.135304 0.708493
Si Si2 0.974444 0.500000 0.864560
Si Si3 0.077714 0.092398 0.620959
Si Si4 0.710314 0.912765 0.078422
Si Si5 0.440631 0.225814 0.636904
Si Si6 0.522785 0.500000 0.360301
O O1 0.819037 0.115437 0.697969
O O2 0.352246 0.122886 0.830773
O O3 0.521531 0.183128 0.683852
O O4 0.354408 0.114017 0.626469
O O5 0.823913 0.457213 0.861379
O O6 0.216884 0.500000 0.749634
O O7 0.000000 0.500000 0.000000
O O8 0.000000 0.094792 0.500000
O O9 0.098742 0.044706 0.651141
O O10 0.500000 0.910712 0.000000
O O11 0.000000 0.910012 0.000000
O O12 0.500000 0.222446 0.500000
O O13 0.630681 0.260898 0.670216
O O14 0.500000 0.500000 0.500000
#
# Coordination Sequence:
#
# PCOD9209508 Si02
#       6
#     8   4   8   8   8   4
#     4  12  23  40  66  88 126 165 212 259 325 375
#     4  10  21  40  64  89 126 178 226 273 315 377
#     4  11  23  38  59  90 128 170 212 250 313 385
#     4  11  24  41  62  91 122 165 222 276 310 368
#     4  10  21  38  62  93 124 155 198 253 320 399
#     4  10  22  40  59  93 138 176 214 271 325 381
#
# _framework density 20.332398999999999
#
# number of rings (size 3 to 8) (size 9 to 14) (size 15 to 20)
#    0.000    1.200    2.000    4.500    2.800    3.200 
#    0.000    3.000    0.000    3.600    0.000    0.000 
#    0.000    0.000    0.000    0.000    0.000    0.000 
#
# Total GULP energy -111551.849282 kJ/mol
# GULP energy per Si atom -5577.592464 kJ/mol
# Density = 2.028612 g / cm^3
# Si number density = 20.332399 Si / 1000 Ang^3
#
#
#
# Elastic Constant Matrix: (Units=GPa)
#
#
# Indices 1 2 3 4 5 6 
#
# 1 93.4764 16.0857 27.3094 0.0000 3.5827 0.0000
# 2 16.0857 116.0246 10.2868 0.0000 4.2931 0.0000
# 3 27.3094 10.2868 100.8061 0.0000 -2.5148 0.0000
# 4 0.0000 0.0000 0.0000 24.2520 0.0000 -4.6065
# 5 3.5827 4.2931 -2.5148 0.0000 36.9987 0.0000
# 6 0.0000 0.0000 0.0000 -4.6065 0.0000 32.3609
#
#
#
# Elastic Compliance Matrix: (Units=1/GPa)
#
#
# Indices 1 2 3 4 5 6 
#
# 1 0.011882 -0.001327 -0.003114 0.000000 -0.001208 0.000000
# 2 -0.001327 0.008888 -0.000571 0.000000 -0.000942 0.000000
# 3 -0.003114 -0.000571 0.010849 0.000000 0.001105 0.000000
# 4 0.000000 0.000000 0.000000 0.042380 0.000000 0.006033
# 5 -0.001208 -0.000942 0.001105 0.000000 0.027329 0.000000
# 6 0.000000 0.000000 0.000000 0.006033 0.000000 0.031760
#
#
# Mechanical properties :
#
#
# Convention : Reuss Voigt Hill
#
# Bulk Modulus (GPa) = 46.30284 46.40788 46.35536
# Shear Modulus (GPa) = 33.26437 35.83065 34.54751
#
# Velocity S-wave (km/s) = 4.04917 4.20246 4.12653
# Velocity P-wave (km/s) = 6.68457 6.81335 6.74927
#
# Compressibility (1/GPa) = 0.02159695
#
# Stress axis : x y z
#
# Youngs Moduli (GPa) = 84.15963 112.50792 92.17064
#
# Poissons Ratio (x) = 0.14925 0.28700
# Poissons Ratio (y) = 0.11164 0.05264
# Poissons Ratio (z) = 0.26205 0.06426
#
# Static dielectric constant tensor:
#      x y z
#    x 1.741910 0.000000 0.024530 
#    y 0.000000 1.715550 0.000000 
#    z 0.024530 0.000000 1.809970 
# 
# From -- ./inp_files/116029.got.cif
#   From: 2010.05.17/outbox.cif.g08.bks.cpg/sg12_59_cif.got.tgz:116029.got - 2010.06.03 13:09:07.
