data_PCOD9209244
_publ_section_title
;
Structure prediction by ZEFSAII (Michael W. Deem and Ramdas Pophale) SiO2 
 PCOD9209244
Probable space group: C 2/M
;
_chemical_formula_sum "Si O2"
_cell_formula_units_Z 56
_cell_length_a 20.366808
_cell_length_b 8.937467
_cell_length_c 19.251781
_cell_angle_alpha 90.000000
_cell_angle_beta 119.905600
_cell_angle_gamma 90.000000
_cell_volume 3037.744872
_symmetry_space_group_name_H-M "C 2/M"
_symmetry_group_IT_number 12
_symmetry_cell_setting 'monoclinic'
loop_
_space_group_symop_operation_xyz
x,y,z
-x,y,-z
-x,-y,-z
x,-y,z
1/2+x,1/2+y,z
1/2-x,1/2+y,-z
1/2-x,1/2-y,-z
1/2+x,1/2-y,z
loop_
_atom_site_type_symbol
_atom_site_label
_atom_site_fract_x
_atom_site_fract_y
_atom_site_fract_z
Si Si1 0.670942 0.320181 0.435419
Si Si2 0.454159 0.178016 0.149758
Si Si3 0.517160 0.320834 0.428767
Si Si4 0.887782 0.676949 0.267259
Si Si5 0.314671 0.819621 0.985426
Si Si6 0.881817 0.179314 0.747608
Si Si7 0.725790 0.179236 0.193430
O O1 0.678268 0.500000 0.440415
O O2 0.750000 0.250000 0.500000
O O3 0.602059 0.278956 0.450547
O O4 0.645926 0.275731 0.344309
O O5 0.409316 0.202719 0.198154
O O6 0.533157 0.263399 0.194709
O O7 0.469403 0.000000 0.151874
O O8 0.397101 0.223705 0.058287
O O9 0.500000 0.289947 0.500000
O O10 0.509131 0.500000 0.413083
O O11 0.457121 0.236008 0.349516
O O12 0.876816 0.500000 0.271553
O O13 0.811448 0.763480 0.245805
O O14 0.301888 0.777832 0.898679
O O15 0.309276 0.000000 0.988014
O O16 0.250000 0.750000 0.000000
O O17 0.826824 0.248419 0.776079
O O18 0.880138 0.000000 0.750184
O O19 0.723148 0.000000 0.197679
#
# Coordination Sequence:
#
# PCOD9209244 Si02
#       7
#     8   8   8   8   8   8   8
#     4  10  23  41  61  87 121 158 197 244 300 360
#     4  10  21  39  63  89 120 160 200 245 301 361
#     4  10  22  41  63  90 122 158 201 249 300 361
#     4  11  22  38  63  92 123 159 201 251 299 356
#     4  10  21  38  61  90 123 158 201 251 302 357
#     4  11  24  42  62  88 123 161 203 250 298 359
#     4  11  24  40  62  90 123 164 204 249 303 359
#
# _framework density 18.434726999999999
#
# number of rings (size 3 to 8) (size 9 to 14) (size 15 to 20)
#    0.000    1.571    2.857    1.286    2.000    4.286 
#    0.000    2.857    0.000    0.000    0.000    0.000 
#    0.000    0.000    0.000    0.000    0.000    0.000 
#
# Total GULP energy -156476.861140 kJ/mol
# GULP energy per Si atom -5588.459326 kJ/mol
# Density = 1.839277 g / cm^3
# Si number density = 18.434727 Si / 1000 Ang^3
#
#
#
# Elastic Constant Matrix: (Units=GPa)
#
#
# Indices 1 2 3 4 5 6 
#
# 1 168.0885 56.1909 84.0111 0.0000 6.8103 0.0000
# 2 56.1909 32.7169 35.5314 0.0000 -1.2927 0.0000
# 3 84.0111 35.5314 110.2591 0.0000 11.2677 0.0000
# 4 0.0000 0.0000 0.0000 28.6944 0.0000 3.5003
# 5 6.8103 -1.2927 11.2677 0.0000 37.5714 0.0000
# 6 0.0000 0.0000 0.0000 3.5003 0.0000 38.5173
#
#
#
# Elastic Compliance Matrix: (Units=1/GPa)
#
#
# Indices 1 2 3 4 5 6 
#
# 1 0.015746 -0.022072 -0.004658 0.000000 -0.002217 0.000000
# 2 -0.022072 0.079481 -0.009784 0.000000 0.009669 0.000000
# 3 -0.004658 -0.009784 0.016217 0.000000 -0.004356 0.000000
# 4 0.000000 0.000000 0.000000 0.035241 0.000000 -0.003203
# 5 -0.002217 0.009669 -0.004356 0.000000 0.028657 0.000000
# 6 0.000000 0.000000 0.000000 -0.003203 0.000000 0.026253
#
#
# Mechanical properties :
#
#
# Convention : Reuss Voigt Hill
#
# Bulk Modulus (GPa) = 26.03086 73.61458 49.82272
# Shear Modulus (GPa) = 17.39580 29.97868 23.68724
#
# Velocity S-wave (km/s) = 3.07521 4.03700 3.58847
# Velocity P-wave (km/s) = 5.17305 7.85806 6.65242
#
# Compressibility (1/GPa) = 0.03841594
#
# Stress axis : x y z
#
# Youngs Moduli (GPa) = 63.50988 12.58170 61.66507
#
# Poissons Ratio (x) = 0.27770 0.28724
# Poissons Ratio (y) = 1.40177 0.60331
# Poissons Ratio (z) = 0.29583 0.12309
#
# Static dielectric constant tensor:
#      x y z
#    x 1.600330 0.000000 -0.006420 
#    y 0.000000 1.617530 0.000000 
#    z -0.006420 0.000000 1.624040 
# 
# From -- ./inp_files/275605.got.cif
#   From: 2010.05.17/outbox.cif.g08.bks.cpg/sg12_138_cif.got.tgz:275605.got - 2010.06.03 13:09:07.
