data_PCOD9209104
_publ_section_title
;
Structure prediction by ZEFSAII (Michael W. Deem and Ramdas Pophale) SiO2 
 PCOD9209104
Probable space group: C 2/M
;
_chemical_formula_sum "Si O2"
_cell_formula_units_Z 64
_cell_length_a 23.561327
_cell_length_b 24.743234
_cell_length_c 19.370431
_cell_angle_alpha 90.000000
_cell_angle_beta 162.459254
_cell_angle_gamma 90.000000
_cell_volume 3403.420649
_symmetry_space_group_name_H-M "C 2/M"
_symmetry_group_IT_number 12
_symmetry_cell_setting 'monoclinic'
loop_
_space_group_symop_operation_xyz
x,y,z
-x,y,-z
-x,-y,-z
x,-y,z
1/2+x,1/2+y,z
1/2-x,1/2+y,-z
1/2-x,1/2-y,-z
1/2+x,1/2-y,z
loop_
_atom_site_type_symbol
_atom_site_label
_atom_site_fract_x
_atom_site_fract_y
_atom_site_fract_z
Si Si1 0.512500 0.562950 0.722419
Si Si2 0.139138 0.762657 0.976148
Si Si3 0.794694 0.150896 0.381448
Si Si4 0.620790 0.150892 0.033884
Si Si5 0.411664 0.330408 0.823438
Si Si6 0.534797 0.762634 0.371954
Si Si7 0.329160 0.563005 0.658426
Si Si8 0.592732 0.062943 0.882685
O O1 0.469242 0.500000 0.656773
O O2 0.406038 0.602370 0.546632
O O3 0.441999 0.573218 0.718047
O O4 0.735081 0.570940 0.970318
O O5 0.039041 0.803900 0.911447
O O6 0.009113 0.750049 0.759026
O O7 0.167471 0.706567 0.049637
O O8 0.339931 0.782139 0.179974
O O9 0.756258 0.141997 0.256163
O O10 0.903245 0.206577 0.520848
O O11 0.591129 0.155633 0.182136
O O12 0.624426 0.102368 0.983661
O O13 0.205564 0.303909 0.578085
O O14 0.395807 0.394129 0.791659
O O15 0.500000 0.317594 0.000000
O O16 0.351616 0.500000 0.703185
O O17 0.109820 0.573176 0.386068
O O18 0.594226 0.000000 0.906594
#
# Coordination Sequence:
#
# PCOD9209104 Si02
#       8
#     8   8   8   8   8   8   8   8
#     4  10  21  38  61  87 115 155 204 245 287 344
#     4  11  24  41  63  89 119 159 204 247 293 349
#     4  11  22  36  57  86 122 159 194 239 295 351
#     4  11  22  36  57  86 122 159 194 239 295 351
#     4  12  25  40  62  92 124 155 194 245 300 363
#     4  11  24  41  63  89 119 159 204 247 293 349
#     4  10  22  42  65  87 116 151 193 248 297 347
#     4  10  21  38  61  87 115 155 204 245 287 344
#
# _framework density 18.804611000000001
#
# number of rings (size 3 to 8) (size 9 to 14) (size 15 to 20)
#    0.000    1.250    2.500    3.375    0.000    7.250 
#    0.000    2.500    0.000    0.000    0.000    5.250 
#    0.000    0.000    0.000    0.000    0.000    0.000 
#
# Total GULP energy -178940.354136 kJ/mol
# GULP energy per Si atom -5591.886067 kJ/mol
# Density = 1.876181 g / cm^3
# Si number density = 18.804611 Si / 1000 Ang^3
#
#
#
# Elastic Constant Matrix: (Units=GPa)
#
#
# Indices 1 2 3 4 5 6 
#
# 1 76.0084 36.6779 70.5765 0.0031 3.9891 0.0022
# 2 36.6779 75.2026 36.2868 -0.0014 -1.4261 -0.0010
# 3 70.5765 36.2868 83.4889 0.0005 10.7319 0.0001
# 4 0.0031 -0.0014 0.0005 -94.8905 0.0020 -77.4203
# 5 3.9891 -1.4261 10.7319 0.0020 18.9110 0.0011
# 6 0.0022 -0.0010 0.0001 -77.4203 0.0011 -57.1082
#
#
#
# Elastic Compliance Matrix: (Units=1/GPa)
#
#
# Indices 1 2 3 4 5 6 
#
# 1 0.068680 -0.005078 -0.058184 0.000000 0.018149 0.000003
# 2 -0.005078 0.017823 -0.004061 0.000000 0.004720 0.000000
# 3 -0.058184 -0.004061 0.066220 0.000000 -0.025613 -0.000002
# 4 0.000000 0.000000 0.000000 0.099339 -0.000002 -0.134672
# 5 0.018149 0.004720 -0.025613 -0.000002 0.063942 0.000005
# 6 0.000003 0.000000 -0.000002 -0.134672 0.000005 0.165061
#
#
# Mechanical properties :
#
#
# Convention : Reuss Voigt Hill
#
# Bulk Modulus (GPa) = 55.31486 57.97581 56.64533
# Shear Modulus (GPa) = 8.04202 -20.54027 -6.24913
#
# Velocity S-wave (km/s) = 2.07024 -3.30858 -1.82494
# Velocity P-wave (km/s) = 5.93245 4.03757 5.07425
#
# Compressibility (1/GPa) = 0.01807832
#
# Stress axis : x y z
#
# Youngs Moduli (GPa) = 14.56028 56.10819 15.10118
#
# Poissons Ratio (x) = 0.28489 0.87865
# Poissons Ratio (y) = 0.07393 0.06132
# Poissons Ratio (z) = 0.84717 0.22784
#
# Static dielectric constant tensor:
#      x y z
#    x 1.631100 0.000000 0.027060 
#    y 0.000000 1.639180 0.000000 
#    z 0.027060 0.000000 1.643000 
# 
# From -- ./inp_files/286472.got.cif
#   From: 2010.05.17/outbox.cif.g08.bks.cpg/sg12_144_cif.got.tgz:286472.got - 2010.06.03 13:09:07.
