data_PCOD9209861
_publ_section_title
;
Structure prediction by ZEFSAII (Michael W. Deem and Ramdas Pophale) SiO2 
 PCOD9209861
Probable space group: C 2/M
;
_chemical_formula_sum "Si O2"
_cell_formula_units_Z 48
_cell_length_a 22.262867
_cell_length_b 16.069832
_cell_length_c 11.889953
_cell_angle_alpha 90.000000
_cell_angle_beta 28.460237
_cell_angle_gamma 90.000000
_cell_volume 2027.122067
_symmetry_space_group_name_H-M "C 2/M"
_symmetry_group_IT_number 12
_symmetry_cell_setting 'monoclinic'
loop_
_space_group_symop_operation_xyz
x,y,z
-x,y,-z
-x,-y,-z
x,-y,z
1/2+x,1/2+y,z
1/2-x,1/2+y,-z
1/2-x,1/2-y,-z
1/2+x,1/2-y,z
loop_
_atom_site_type_symbol
_atom_site_label
_atom_site_fract_x
_atom_site_fract_y
_atom_site_fract_z
Si Si1 0.148641 0.847732 0.763423
Si Si2 0.799599 0.820619 0.564018
Si Si3 0.496494 0.905580 0.654513
Si Si4 0.047960 0.218932 0.296078
Si Si5 0.564158 0.095632 0.003954
Si Si6 0.779703 0.908326 0.113492
O O1 0.186471 0.873578 0.574160
O O2 0.231270 0.765904 0.649503
O O3 0.171728 0.901414 0.837157
O O4 0.000000 0.829930 0.000000
O O5 0.931539 0.801131 0.404071
O O6 0.698780 0.865259 0.809524
O O7 0.427160 0.818270 0.746790
O O8 0.523866 0.900194 0.743186
O O9 0.628478 0.902590 0.371995
O O10 0.442281 0.000000 0.728451
O O11 0.000000 0.196939 0.500000
O O12 0.160762 0.164025 0.060128
O O13 0.588658 0.000000 0.937442
O O14 0.500000 0.134894 0.000000
O O15 0.814602 0.000000 0.012590
#
# Coordination Sequence:
#
# PCOD9209861 Si02
#       6
#     8   8   8   8   8   8
#     4  11  21  38  65  99 134 174 217 278 339 411
#     4  11  23  38  65 101 134 178 223 280 342 408
#     4  10  23  46  71  99 134 176 231 286 338 404
#     4  12  27  46  71  96 136 185 235 284 344 410
#     4  10  21  38  65  99 138 175 217 276 343 409
#     4  11  24  45  70 101 139 180 227 281 344 414
#
# _framework density 23.678891
#
# number of rings (size 3 to 8) (size 9 to 14) (size 15 to 20)
#    0.000    1.167    3.333    2.500    2.333    4.333 
#    0.000    0.000    0.000    0.000    0.000    0.000 
#    0.000    0.000    0.000    0.000    0.000    0.000 
#
# Total GULP energy -134163.972308 kJ/mol
# GULP energy per Si atom -5590.165513 kJ/mol
# Density = 2.362500 g / cm^3
# Si number density = 23.678891 Si / 1000 Ang^3
#
#
#
# Elastic Constant Matrix: (Units=GPa)
#
#
# Indices 1 2 3 4 5 6 
#
# 1 84.5797 34.8327 19.8403 0.0000 17.1423 0.0000
# 2 34.8327 159.1044 62.5794 0.0000 5.4792 0.0000
# 3 19.8403 62.5794 113.6154 0.0000 15.5362 0.0000
# 4 0.0000 0.0000 0.0000 33.6836 0.0000 2.5684
# 5 17.1423 5.4792 15.5362 0.0000 47.3537 0.0000
# 6 0.0000 0.0000 0.0000 2.5684 0.0000 10.6033
#
#
#
# Elastic Compliance Matrix: (Units=1/GPa)
#
#
# Indices 1 2 3 4 5 6 
#
# 1 0.013979 -0.002796 -0.000265 0.000000 -0.004650 0.000000
# 2 -0.002796 0.008596 -0.004448 0.000000 0.001477 0.000000
# 3 -0.000265 -0.004448 0.011741 0.000000 -0.003241 0.000000
# 4 0.000000 0.000000 0.000000 0.030247 0.000000 -0.007327
# 5 -0.004650 0.001477 -0.003241 0.000000 0.023694 0.000000
# 6 0.000000 0.000000 0.000000 -0.007327 0.000000 0.096085
#
#
# Mechanical properties :
#
#
# Convention : Reuss Voigt Hill
#
# Bulk Modulus (GPa) = 51.82049 65.75603 58.78826
# Shear Modulus (GPa) = 24.29617 34.33127 29.31372
#
# Velocity S-wave (km/s) = 3.20671 3.81184 3.52229
# Velocity P-wave (km/s) = 5.97016 6.87050 6.43609
#
# Compressibility (1/GPa) = 0.01929739
#
# Stress axis : x y z
#
# Youngs Moduli (GPa) = 71.53413 116.33140 85.16866
#
# Poissons Ratio (x) = 0.32527 0.02259
# Poissons Ratio (y) = 0.20001 0.37887
# Poissons Ratio (z) = 0.01898 0.51750
#
# Static dielectric constant tensor:
#      x y z
#    x 1.967170 0.000000 0.022370 
#    y 0.000000 1.874480 0.000000 
#    z 0.022370 0.000000 1.914980 
# 
# From -- ./inp_files/177297.got.cif
#   From: 2010.05.17/outbox.cif.g08.bks.cpg/sg12_89_cif.got.tgz:177297.got - 2010.06.03 13:09:07.
