data_PCOD9209197
_publ_section_title
;
Structure prediction by ZEFSAII (Michael W. Deem and Ramdas Pophale) SiO2 
 PCOD9209197
Probable space group: C 2/M
;
_chemical_formula_sum "Si O2"
_cell_formula_units_Z 58
_cell_length_a 27.167962
_cell_length_b 8.390384
_cell_length_c 23.641824
_cell_angle_alpha 90.000000
_cell_angle_beta 148.114915
_cell_angle_gamma 90.000000
_cell_volume 2846.639771
_symmetry_space_group_name_H-M "C 2/M"
_symmetry_group_IT_number 12
_symmetry_cell_setting 'monoclinic'
loop_
_space_group_symop_operation_xyz
x,y,z
-x,y,-z
-x,-y,-z
x,-y,z
1/2+x,1/2+y,z
1/2-x,1/2+y,-z
1/2-x,1/2-y,-z
1/2+x,1/2-y,z
loop_
_atom_site_type_symbol
_atom_site_label
_atom_site_fract_x
_atom_site_fract_y
_atom_site_fract_z
Si Si1 0.680272 0.809294 0.883765
Si Si2 0.226115 0.810022 0.141966
Si Si3 0.122497 0.191400 0.278027
Si Si4 0.520194 0.809164 0.954849
Si Si5 0.637060 0.688319 0.633495
Si Si6 0.029149 0.192300 0.305118
Si Si7 0.168953 0.805466 0.539579
Si Si8 0.500000 0.500000 0.500000
O O1 0.720503 0.757186 0.862288
O O2 0.576267 0.749736 0.792536
O O3 0.680568 0.000000 0.884348
O O4 0.750000 0.750000 0.000000
O O5 0.274715 0.726293 0.243049
O O6 0.237461 0.000000 0.160113
O O7 0.117984 0.767513 0.032287
O O8 0.062217 0.256268 0.166834
O O9 0.074833 0.244020 0.290259
O O10 0.228012 0.250592 0.376924
O O11 0.121149 0.000000 0.274680
O O12 0.529391 0.000000 0.961848
O O13 0.500000 0.762424 0.000000
O O14 0.378651 0.500000 0.400516
O O15 0.648592 0.762499 0.583109
O O16 0.546277 0.658495 0.584409
O O17 0.092996 0.247267 0.419674
O O18 0.028761 0.000000 0.304831
O O19 0.170277 0.000000 0.539965
#
# Coordination Sequence:
#
# PCOD9209197 Si02
#       8
#     8   8   8   8   8   8   8   2
#     4  11  25  42  61  88 119 154 198 245 294 355
#     4  11  24  40  60  90 124 154 192 243 303 354
#     4  11  23  39  59  89 124 155 194 247 302 351
#     4  11  24  41  63  89 116 155 203 244 290 353
#     4   9  20  36  61  87 116 154 202 241 282 344
#     4  10  23  40  63  88 118 158 200 243 293 349
#     4  10  21  38  61  89 119 157 203 242 286 349
#     4   8  20  36  62  88 118 152 214 240 282 344
#
# _framework density 20.3749
#
# number of rings (size 3 to 8) (size 9 to 14) (size 15 to 20)
#    0.414    1.241    0.000    3.724    1.931   12.138 
#    0.000    0.345    0.000    0.000    0.000    0.000 
#    0.000    0.000    0.000    0.000    0.000    0.000 
#
# Total GULP energy -161452.923615 kJ/mol
# GULP energy per Si atom -5567.342194 kJ/mol
# Density = 2.032853 g / cm^3
# Si number density = 20.374900 Si / 1000 Ang^3
#
#
#
# Elastic Constant Matrix: (Units=GPa)
#
#
# Indices 1 2 3 4 5 6 
#
# 1 149.1962 22.1008 88.9076 0.0000 -3.4010 0.0000
# 2 22.1008 15.7060 16.6128 0.0000 -0.1847 0.0000
# 3 88.9076 16.6128 191.1070 0.0000 0.9787 0.0000
# 4 0.0000 0.0000 0.0000 19.9645 0.0000 13.0604
# 5 -3.4010 -0.1847 0.9787 0.0000 40.2683 0.0000
# 6 0.0000 0.0000 0.0000 13.0604 0.0000 22.3412
#
#
#
# Elastic Compliance Matrix: (Units=1/GPa)
#
#
# Indices 1 2 3 4 5 6 
#
# 1 0.010749 -0.010814 -0.004066 0.000000 0.000957 0.000000
# 2 -0.010814 0.081005 -0.002008 0.000000 -0.000493 0.000000
# 3 -0.004066 -0.002008 0.007301 0.000000 -0.000530 0.000000
# 4 0.000000 0.000000 0.000000 0.081106 0.000000 -0.047414
# 5 0.000957 -0.000493 -0.000530 0.000000 0.024925 0.000000
# 6 0.000000 0.000000 0.000000 -0.047414 0.000000 0.072478
#
#
# Mechanical properties :
#
#
# Convention : Reuss Voigt Hill
#
# Bulk Modulus (GPa) = 15.31862 67.91686 41.61774
# Shear Modulus (GPa) = 15.01050 31.74068 23.37559
#
# Velocity S-wave (km/s) = 2.71719 3.95122 3.39082
# Velocity P-wave (km/s) = 4.16880 7.36357 5.98335
#
# Compressibility (1/GPa) = 0.06528002
#
# Stress axis : x y z
#
# Youngs Moduli (GPa) = 93.03173 12.34487 136.96087
#
# Poissons Ratio (x) = 0.13350 0.55682
# Poissons Ratio (y) = 1.00605 0.27505
# Poissons Ratio (z) = 0.37823 0.02479
#
# Static dielectric constant tensor:
#      x y z
#    x 1.720110 0.000000 0.006420 
#    y 0.000000 1.724500 0.000000 
#    z 0.006420 0.000000 1.768390 
# 
# From -- ./inp_files/351503.got.cif
#   From: 2010.05.17/outbox.cif.g08.bks.cpg/sg12_176_cif.got.tgz:351503.got - 2010.06.03 13:09:07.
