data_PCOD9209221
_publ_section_title
;
Structure prediction by ZEFSAII (Michael W. Deem and Ramdas Pophale) SiO2 
 PCOD9209221
Probable space group: C 2/M
;
_chemical_formula_sum "Si O2"
_cell_formula_units_Z 48
_cell_length_a 23.675252
_cell_length_b 11.503884
_cell_length_c 8.924825
_cell_angle_alpha 90.000000
_cell_angle_beta 101.010229
_cell_angle_gamma 90.000000
_cell_volume 2385.999297
_symmetry_space_group_name_H-M "C 2/M"
_symmetry_group_IT_number 12
_symmetry_cell_setting 'monoclinic'
loop_
_space_group_symop_operation_xyz
x,y,z
-x,y,-z
-x,-y,-z
x,-y,z
1/2+x,1/2+y,z
1/2-x,1/2+y,-z
1/2-x,1/2-y,-z
1/2+x,1/2-y,z
loop_
_atom_site_type_symbol
_atom_site_label
_atom_site_fract_x
_atom_site_fract_y
_atom_site_fract_z
Si Si1 0.564379 0.865362 0.594474
Si Si2 0.384612 0.300680 0.616323
Si Si3 0.718820 0.317606 0.620033
Si Si4 0.091492 0.000000 0.929181
Si Si5 0.461402 0.500000 0.761912
Si Si6 0.664493 0.870726 0.169163
Si Si7 0.640711 0.746408 0.854038
O O1 0.500000 0.855815 0.500000
O O2 0.601394 0.807360 0.482950
O O3 0.581533 0.796442 0.752932
O O4 0.578322 0.000000 0.624003
O O5 0.334483 0.369751 0.501952
O O6 0.437933 0.385398 0.668027
O O7 0.365213 0.236458 0.757793
O O8 0.750000 0.250000 0.500000
O O9 0.771650 0.379013 0.729167
O O10 0.687144 0.254532 0.743157
O O11 0.127215 0.884297 0.904309
O O12 0.029927 0.000000 0.812688
O O13 0.071323 0.000000 0.092898
O O14 0.637721 0.000000 0.172056
O O15 0.662705 0.829373 0.996949
#
# Coordination Sequence:
#
# PCOD9209221 Si02
#       7
#     8   8   8   4   4   8   8
#     4  10  21  38  61  89 123 158 200 255 314 374
#     4  10  21  40  63  88 124 162 209 256 315 377
#     4   9  22  40  60  86 122 161 205 255 312 378
#     4  11  24  39  65  95 129 167 211 269 317 369
#     4  11  22  41  65  93 129 169 209 265 323 372
#     4  11  22  38  61  90 120 163 210 258 312 372
#     4  11  22  41  63  90 125 163 209 260 316 377
#
# _framework density 20.117356999999998
#
# number of rings (size 3 to 8) (size 9 to 14) (size 15 to 20)
#    0.000    1.667    1.667    2.500    2.333    2.000 
#    0.000    5.000    3.667    4.000    0.000    0.000 
#    0.000    0.000    0.000    0.000    0.000    0.000 
#
# Total GULP energy -133646.487867 kJ/mol
# GULP energy per Si atom -5568.603661 kJ/mol
# Density = 2.007157 g / cm^3
# Si number density = 20.117357 Si / 1000 Ang^3
#
#
#
# Elastic Constant Matrix: (Units=GPa)
#
#
# Indices 1 2 3 4 5 6 
#
# 1 42.0034 13.2056 9.4996 0.0000 -1.3959 0.0000
# 2 13.2056 107.1779 31.8463 0.0000 6.2299 0.0000
# 3 9.4996 31.8463 107.0330 0.0000 -2.9926 0.0000
# 4 0.0000 0.0000 0.0000 -30.1626 0.0000 -2.2659
# 5 -1.3959 6.2299 -2.9926 0.0000 28.4809 0.0000
# 6 0.0000 0.0000 0.0000 -2.2659 0.0000 8.6538
#
#
#
# Elastic Compliance Matrix: (Units=1/GPa)
#
#
# Indices 1 2 3 4 5 6 
#
# 1 0.025044 -0.002784 -0.001347 0.000000 0.001695 0.000000
# 2 -0.002784 0.010735 -0.003025 0.000000 -0.002803 0.000000
# 3 -0.001347 -0.003025 0.010410 0.000000 0.001690 0.000000
# 4 0.000000 0.000000 0.000000 -0.032514 0.000000 -0.008513
# 5 0.001695 -0.002803 0.001690 0.000000 0.035985 0.000000
# 6 0.000000 0.000000 0.000000 -0.008513 0.000000 0.113327
#
#
# Mechanical properties :
#
#
# Convention : Reuss Voigt Hill
#
# Bulk Modulus (GPa) = 31.37143 40.59082 35.98113
# Shear Modulus (GPa) = 26.60635 14.83861 20.72248
#
# Velocity S-wave (km/s) = 3.64064 2.71883 3.21297
# Velocity P-wave (km/s) = 5.77065 5.48424 5.62927
#
# Compressibility (1/GPa) = 0.03187613
#
# Stress axis : x y z
#
# Youngs Moduli (GPa) = 39.92995 93.15199 96.06269
#
# Poissons Ratio (x) = 0.25933 0.12940
# Poissons Ratio (y) = 0.11116 0.29063
# Poissons Ratio (z) = 0.05379 0.28182
#
# Static dielectric constant tensor:
#      x y z
#    x 1.772630 0.000000 0.001690 
#    y 0.000000 1.598190 0.000000 
#    z 0.001690 0.000000 1.720920 
# 
# From -- ./inp_files/95001.got.cif
#   From: 2010.05.17/outbox.cif.g08.bks.cpg/sg12_48_cif.got.tgz:95001.got - 2010.06.03 13:09:07.
