data_PCOD9209670
_publ_section_title
;
Structure prediction by ZEFSAII (Michael W. Deem and Ramdas Pophale) SiO2 
 PCOD9209670
Probable space group: C 2/M
;
_chemical_formula_sum "Si O2"
_cell_formula_units_Z 52
_cell_length_a 15.474999
_cell_length_b 32.343916
_cell_length_c 8.886998
_cell_angle_alpha 90.000000
_cell_angle_beta 36.648078
_cell_angle_gamma 90.000000
_cell_volume 2655.086487
_symmetry_space_group_name_H-M "C 2/M"
_symmetry_group_IT_number 12
_symmetry_cell_setting 'monoclinic'
loop_
_space_group_symop_operation_xyz
x,y,z
-x,y,-z
-x,-y,-z
x,-y,z
1/2+x,1/2+y,z
1/2-x,1/2+y,-z
1/2-x,1/2-y,-z
1/2+x,1/2-y,z
loop_
_atom_site_type_symbol
_atom_site_label
_atom_site_fract_x
_atom_site_fract_y
_atom_site_fract_z
Si Si1 0.327855 0.242977 0.231188
Si Si2 0.216893 0.655527 0.850995
Si Si3 0.673361 0.189033 0.250163
Si Si4 0.254896 0.951760 0.522258
Si Si5 0.647299 0.617000 0.886687
Si Si6 0.044473 0.909617 0.588218
Si Si7 0.500000 0.094404 0.000000
O O1 0.250000 0.250000 0.500000
O O2 0.304925 0.195181 0.223438
O O3 0.253241 0.270347 0.203553
O O4 0.500000 0.252131 0.000000
O O5 0.357369 0.629337 0.602274
O O6 0.088410 0.623615 0.991131
O O7 0.212346 0.674063 0.026320
O O8 0.500000 0.193801 0.500000
O O9 0.735586 0.153156 0.272401
O O10 0.216490 0.923718 0.718724
O O11 0.129375 0.939697 0.580008
O O12 0.396820 0.934262 0.243439
O O13 0.261282 0.000000 0.545100
O O14 0.500000 0.628153 0.000000
O O15 0.591620 0.607296 0.130614
O O16 0.000000 0.932484 0.500000
#
# Coordination Sequence:
#
# PCOD9209670 Si02
#       7
#     8   8   8   8   8   8   4
#     4  12  28  44  67  98 137 178 226 282 337 396
#     4  11  23  42  67  91 129 171 221 270 332 392
#     4  12  25  41  66  96 132 177 228 278 330 394
#     4  10  22  39  67  96 129 171 216 266 333 406
#     4  10  22  40  66  93 131 173 221 266 335 391
#     4  10  21  38  63  95 125 167 213 274 323 394
#     4  10  21  42  70  92 130 170 222 268 333 402
#
# _framework density 19.585048
#
# number of rings (size 3 to 8) (size 9 to 14) (size 15 to 20)
#    0.000    1.231    2.308    3.000    8.615    3.692 
#    0.000    0.000    0.000    1.385    0.000    0.000 
#    0.000    0.000    0.000    0.000    0.000    0.000 
#
# Total GULP energy -145178.737157 kJ/mol
# GULP energy per Si atom -5583.797583 kJ/mol
# Density = 1.954047 g / cm^3
# Si number density = 19.585048 Si / 1000 Ang^3
#
#
#
# Elastic Constant Matrix: (Units=GPa)
#
#
# Indices 1 2 3 4 5 6 
#
# 1 46.8891 14.1357 22.3998 0.0000 -7.7775 0.0000
# 2 14.1357 97.4532 14.3482 0.0000 -23.3023 0.0000
# 3 22.3998 14.3482 92.7788 0.0000 -8.9062 0.0000
# 4 0.0000 0.0000 0.0000 5.4209 0.0000 8.2927
# 5 -7.7775 -23.3023 -8.9062 0.0000 32.4073 0.0000
# 6 0.0000 0.0000 0.0000 8.2927 0.0000 12.4709
#
#
#
# Elastic Compliance Matrix: (Units=1/GPa)
#
#
# Indices 1 2 3 4 5 6 
#
# 1 0.025059 -0.002118 -0.005435 0.000000 0.002998 0.000000
# 2 -0.002118 0.012679 -0.000640 0.000000 0.008433 0.000000
# 3 -0.005435 -0.000640 0.012346 0.000000 0.001628 0.000000
# 4 0.000000 0.000000 0.000000-10.700537 0.000000 7.115435
# 5 0.002998 0.008433 0.001628 0.000000 0.038088 0.000000
# 6 0.000000 0.000000 0.000000 7.115435 0.000000 -4.651297
#
#
# Mechanical properties :
#
#
# Convention : Reuss Voigt Hill
#
# Bulk Modulus (GPa) = 29.67496 37.65427 33.66461
# Shear Modulus (GPa) = -0.32817 22.47565 11.07374
#
# Velocity S-wave (km/s) = -0.40979 3.39129 2.38043
# Velocity P-wave (km/s) = 3.86792 5.88236 4.97810
#
# Compressibility (1/GPa) = 0.03369845
#
# Stress axis : x y z
#
# Youngs Moduli (GPa) = 39.90598 78.86976 80.99964
#
# Poissons Ratio (x) = 0.16704 0.44021
# Poissons Ratio (y) = 0.08452 0.05184
# Poissons Ratio (z) = 0.21688 0.05048
#
# Static dielectric constant tensor:
#      x y z
#    x 1.732130 0.000000 -0.002250 
#    y 0.000000 1.653450 0.000000 
#    z -0.002250 0.000000 1.690700 
# 
# From -- ./inp_files/68543.got.cif
#   From: 2010.05.17/outbox.cif.g08.bks.cpg/sg12_35_cif.got.tgz:68543.got - 2010.06.03 13:09:07.
