data_PCOD9209638
_publ_section_title
;
Structure prediction by ZEFSAII (Michael W. Deem and Ramdas Pophale) SiO2 
 PCOD9209638
Probable space group: C 2/M
;
_chemical_formula_sum "Si O2"
_cell_formula_units_Z 56
_cell_length_a 15.053629
_cell_length_b 18.982164
_cell_length_c 19.499771
_cell_angle_alpha 90.000000
_cell_angle_beta 30.212119
_cell_angle_gamma 90.000000
_cell_volume 2803.880120
_symmetry_space_group_name_H-M "C 2/M"
_symmetry_group_IT_number 12
_symmetry_cell_setting 'monoclinic'
loop_
_space_group_symop_operation_xyz
x,y,z
-x,y,-z
-x,-y,-z
x,-y,z
1/2+x,1/2+y,z
1/2-x,1/2+y,-z
1/2-x,1/2-y,-z
1/2+x,1/2-y,z
loop_
_atom_site_type_symbol
_atom_site_label
_atom_site_fract_x
_atom_site_fract_y
_atom_site_fract_z
Si Si1 0.136287 0.422894 0.472590
Si Si2 0.340441 0.918685 0.911243
Si Si3 0.670201 0.767698 0.479593
Si Si4 0.429753 0.790382 0.191451
Si Si5 0.542496 0.421934 0.226804
Si Si6 0.156879 0.189795 0.949128
Si Si7 0.650505 0.304957 0.263370
O O1 0.111583 0.500000 0.523482
O O2 0.103720 0.348053 0.528794
O O3 0.349733 0.417005 0.319009
O O4 0.000000 0.423439 0.500000
O O5 0.487917 0.860367 0.830217
O O6 0.237250 0.884570 0.916521
O O7 0.396860 0.000000 0.864493
O O8 0.198437 0.916645 0.067791
O O9 0.750000 0.750000 0.500000
O O10 0.807219 0.750920 0.327542
O O11 0.502499 0.717911 0.583216
O O12 0.322313 0.816009 0.195658
O O13 0.575565 0.734752 0.066734
O O14 0.548420 0.500000 0.253934
O O15 0.579718 0.366052 0.261409
O O16 0.302105 0.239750 0.817658
O O17 0.000000 0.179974 0.000000
#
# Coordination Sequence:
#
# PCOD9209638 Si02
#       7
#     8   8   8   8   8   8   8
#     4  10  21  39  62  91 125 161 206 258 312 374
#     4  11  23  39  63  93 127 165 208 260 316 372
#     4  12  23  39  64  94 127 165 210 261 313 374
#     4  11  23  40  64  92 128 163 211 261 310 370
#     4  10  21  38  63  93 124 165 213 260 312 376
#     4  10  22  40  65  91 122 162 204 256 315 375
#     4  11  22  40  63  95 124 165 210 258 312 373
#
# _framework density 19.972322999999999
#
# number of rings (size 3 to 8) (size 9 to 14) (size 15 to 20)
#    0.000    1.286    2.857    3.429    0.000    2.000 
#    0.000    5.000    0.000    2.571    0.000    0.000 
#    0.000    0.000    0.000    0.000    0.000    0.000 
#
# Total GULP energy -156191.288076 kJ/mol
# GULP energy per Si atom -5578.260288 kJ/mol
# Density = 1.992687 g / cm^3
# Si number density = 19.972323 Si / 1000 Ang^3
#
#
#
# Elastic Constant Matrix: (Units=GPa)
#
#
# Indices 1 2 3 4 5 6 
#
# 1 84.1465 55.2952 14.4361 0.0022 -7.9871 -0.0001
# 2 55.2952 160.8790 12.8614 0.0004 -3.9163 0.0003
# 3 14.4361 12.8614 57.0079 0.0006 7.6264 -0.0022
# 4 0.0022 0.0004 0.0006 13.3506 0.0002 3.2527
# 5 -7.9871 -3.9163 7.6264 0.0002 30.1320 0.0042
# 6 -0.0001 0.0003 -0.0022 3.2527 0.0042 15.7816
#
#
#
# Elastic Compliance Matrix: (Units=1/GPa)
#
#
# Indices 1 2 3 4 5 6 
#
# 1 0.016366 -0.005228 -0.003575 -0.000002 0.004564 -0.000001
# 2 -0.005228 0.008044 -0.000461 0.000001 -0.000224 0.000000
# 3 -0.003575 -0.000461 0.019340 -0.000001 -0.005903 0.000005
# 4 -0.000002 0.000001 -0.000001 0.078863 0.000002 -0.016254
# 5 0.004564 -0.000224 -0.005903 0.000002 0.035862 -0.000011
# 6 -0.000001 0.000000 0.000005 -0.016254 -0.000011 0.066715
#
#
# Mechanical properties :
#
#
# Convention : Reuss Voigt Hill
#
# Bulk Modulus (GPa) = 39.64838 51.91320 45.78079
# Shear Modulus (GPa) = 19.83127 26.48224 23.15675
#
# Velocity S-wave (km/s) = 3.15451 3.64531 3.40875
# Velocity P-wave (km/s) = 5.75870 6.61564 6.20199
#
# Compressibility (1/GPa) = 0.02522171
#
# Stress axis : x y z
#
# Youngs Moduli (GPa) = 61.10140 124.31244 51.70499
#
# Poissons Ratio (x) = 0.64994 0.18487
# Poissons Ratio (y) = 0.31945 0.02383
# Poissons Ratio (z) = 0.21846 0.05730
#
# Static dielectric constant tensor:
#      x y z
#    x 1.717860 0.000000 -0.045960 
#    y 0.000000 1.705260 0.000000 
#    z -0.045960 0.000000 1.738950 
# 
# From -- ./inp_files/311676.got.cif
#   From: 2010.05.17/outbox.cif.g08.bks.cpg/sg12_156_cif.got.tgz:311676.got - 2010.06.03 13:09:07.
