data_PCOD9209627
_publ_section_title
;
Structure prediction by ZEFSAII (Michael W. Deem and Ramdas Pophale) SiO2 
 PCOD9209627
Probable space group: C 2/M
;
_chemical_formula_sum "Si O2"
_cell_formula_units_Z 40
_cell_length_a 8.608862
_cell_length_b 24.957070
_cell_length_c 17.670744
_cell_angle_alpha 90.000000
_cell_angle_beta 29.886124
_cell_angle_gamma 90.000000
_cell_volume 1891.758517
_symmetry_space_group_name_H-M "C 2/M"
_symmetry_group_IT_number 12
_symmetry_cell_setting 'monoclinic'
loop_
_space_group_symop_operation_xyz
x,y,z
-x,y,-z
-x,-y,-z
x,-y,z
1/2+x,1/2+y,z
1/2-x,1/2+y,-z
1/2-x,1/2-y,-z
1/2+x,1/2-y,z
loop_
_atom_site_type_symbol
_atom_site_label
_atom_site_fract_x
_atom_site_fract_y
_atom_site_fract_z
Si Si1 0.762018 0.110946 0.969449
Si Si2 0.700934 0.178554 0.208754
Si Si3 0.362482 0.562325 0.760676
Si Si4 0.099307 0.291233 0.824812
Si Si5 0.743839 0.155585 0.464957
O O1 0.865397 0.087746 0.844402
O O2 0.068157 0.127608 0.886352
O O3 0.497573 0.071020 0.113264
O O4 0.562379 0.166087 0.051806
O O5 0.904672 0.229723 0.149623
O O6 0.552129 0.195123 0.192235
O O7 0.433170 0.166161 0.382505
O O8 0.438039 0.500000 0.731212
O O9 0.599792 0.597008 0.610463
O O10 0.465785 0.304800 0.666507
O O11 0.500000 0.163486 0.500000
#
# Coordination Sequence:
#
# PCOD9209627 Si02
#       5
#     8   8   8   8   8
#     4  10  21  38  63  92 129 159 209 264 318 370
#     4  12  23  40  61  96 131 177 213 253 314 386
#     4  10  22  42  70  96 122 164 222 277 319 371
#     4  11  25  38  64  90 139 174 210 250 321 382
#     4  11  22  42  63  93 128 166 216 268 314 376
#
# _framework density 21.144348000000001
#
# number of rings (size 3 to 8) (size 9 to 14) (size 15 to 20)
#    0.000    1.200    2.000    4.800    5.600    0.400 
#    0.000    0.000    0.000   33.600    0.000    0.000 
#    0.000    0.000    0.000    0.000    0.000    0.000 
#
# Total GULP energy -111749.003050 kJ/mol
# GULP energy per Si atom -5587.450153 kJ/mol
# Density = 2.109622 g / cm^3
# Si number density = 21.144348 Si / 1000 Ang^3
#
#
#
# Elastic Constant Matrix: (Units=GPa)
#
#
# Indices 1 2 3 4 5 6 
#
# 1 105.9829 50.9984 16.0863 0.0022 -8.7326 -0.0007
# 2 50.9984 105.7187 34.6134 0.0047 21.2889 -0.0008
# 3 16.0863 34.6134 67.7854 0.0082 9.8884 -0.0033
# 4 0.0022 0.0047 0.0082 15.1480 -0.0020 -0.6241
# 5 -8.7326 21.2889 9.8884 -0.0020 38.0167 0.0003
# 6 -0.0007 -0.0008 -0.0033 -0.6241 0.0003 21.9993
#
#
#
# Elastic Compliance Matrix: (Units=1/GPa)
#
#
# Indices 1 2 3 4 5 6 
#
# 1 0.014153 -0.008352 -0.000260 0.000002 0.007996 0.000000
# 2 -0.008352 0.017300 -0.005362 -0.000003 -0.010212 0.000000
# 3 -0.000260 -0.005362 0.017798 -0.000008 -0.001686 0.000002
# 4 0.000002 -0.000003 -0.000008 0.066093 0.000007 0.001875
# 5 0.007996 -0.010212 -0.001686 0.000007 0.034298 -0.000001
# 6 0.000000 0.000000 0.000002 0.001875 -0.000001 0.045509
#
#
# Mechanical properties :
#
#
# Convention : Reuss Voigt Hill
#
# Bulk Modulus (GPa) = 46.94382 53.65369 50.29875
# Shear Modulus (GPa) = 21.72010 26.88537 24.30274
#
# Velocity S-wave (km/s) = 3.20852 3.56970 3.39392
# Velocity P-wave (km/s) = 5.99799 6.51309 6.26084
#
# Compressibility (1/GPa) = 0.02130206
#
# Stress axis : x y z
#
# Youngs Moduli (GPa) = 70.65699 57.80272 56.18501
#
# Poissons Ratio (x) = 0.48279 0.01462
# Poissons Ratio (y) = 0.59015 0.30128
# Poissons Ratio (z) = 0.01838 0.30995
#
# Static dielectric constant tensor:
#      x y z
#    x 1.791860 0.000000 -0.028810 
#    y 0.000000 1.759610 0.000000 
#    z -0.028810 0.000000 1.788690 
# 
# From -- ./inp_files/259334.got.cif
#   From: 2010.05.17/outbox.cif.g08.bks.cpg/sg12_130_cif.got.tgz:259334.got - 2010.06.03 13:09:07.
