data_PCOD9209574
_publ_section_title
;
Structure prediction by ZEFSAII (Michael W. Deem and Ramdas Pophale) SiO2 
 PCOD9209574
Probable space group: C 2/M
;
_chemical_formula_sum "Si O2"
_cell_formula_units_Z 40
_cell_length_a 19.915255
_cell_length_b 8.161956
_cell_length_c 25.772220
_cell_angle_alpha 90.000000
_cell_angle_beta 27.498534
_cell_angle_gamma 90.000000
_cell_volume 1934.266026
_symmetry_space_group_name_H-M "C 2/M"
_symmetry_group_IT_number 12
_symmetry_cell_setting 'monoclinic'
loop_
_space_group_symop_operation_xyz
x,y,z
-x,y,-z
-x,-y,-z
x,-y,z
1/2+x,1/2+y,z
1/2-x,1/2+y,-z
1/2-x,1/2-y,-z
1/2+x,1/2-y,z
loop_
_atom_site_type_symbol
_atom_site_label
_atom_site_fract_x
_atom_site_fract_y
_atom_site_fract_z
Si Si1 0.669704 0.803349 0.895139
Si Si2 0.673347 0.697897 0.716469
Si Si3 0.202794 0.301961 0.475126
Si Si4 0.858343 0.304520 0.970440
Si Si5 0.885657 0.306346 0.658665
O O1 0.772446 0.719844 0.782891
O O2 0.693556 0.000000 0.875231
O O3 0.500000 0.773554 0.000000
O O4 0.694304 0.745318 0.937079
O O5 0.678128 0.500000 0.713705
O O6 0.691814 0.751252 0.644191
O O7 0.521269 0.748629 0.845738
O O8 0.806953 0.758937 0.660764
O O9 0.200410 0.500000 0.477021
O O10 0.250000 0.250000 0.500000
O O11 0.042051 0.240577 0.569038
O O12 0.860400 0.500000 0.971873
O O13 0.750000 0.250000 0.000000
O O14 0.907287 0.500000 0.634820
#
# Coordination Sequence:
#
# PCOD9209574 Si02
#       5
#     8   8   8   8   8
#     4  10  21  39  60  86 120 154 190 239 294 345
#     4  10  21  40  63  86 117 156 198 242 292 346
#     4  10  23  41  60  87 119 153 194 244 297 347
#     4  11  24  40  60  87 122 158 195 241 293 349
#     4  10  21  38  63  89 115 153 199 243 286 345
#
# _framework density 20.679679
#
# number of rings (size 3 to 8) (size 9 to 14) (size 15 to 20)
#    0.000    1.800    2.000    1.200    2.800    6.000 
#    0.000    0.000    0.000    3.600    0.000    0.000 
#    0.000    0.000    0.000    0.000    0.000    0.000 
#
# Total GULP energy -111726.967579 kJ/mol
# GULP energy per Si atom -5586.348379 kJ/mol
# Density = 2.063261 g / cm^3
# Si number density = 20.679679 Si / 1000 Ang^3
#
#
#
# Elastic Constant Matrix: (Units=GPa)
#
#
# Indices 1 2 3 4 5 6 
#
# 1 153.1704 11.9089 18.7773 0.0004 17.5512 0.0000
# 2 11.9089 12.5500 1.9182 0.0005 0.3291 -0.0003
# 3 18.7773 1.9182 47.9483 0.0017 10.6666 -0.0001
# 4 0.0004 0.0005 0.0017 14.6766 -0.0003 0.6891
# 5 17.5512 0.3291 10.6666 -0.0003 40.4741 0.0000
# 6 0.0000 -0.0003 -0.0001 0.6891 0.0000 27.6251
#
#
#
# Elastic Compliance Matrix: (Units=1/GPa)
#
#
# Indices 1 2 3 4 5 6 
#
# 1 0.007629 -0.006845 -0.002114 0.000000 -0.002695 0.000000
# 2 -0.006845 0.086316 -0.001356 -0.000002 0.002624 0.000001
# 3 -0.002114 -0.001356 0.022873 -0.000003 -0.005100 0.000000
# 4 0.000000 -0.000002 -0.000003 0.068215 0.000001 -0.001701
# 5 -0.002695 0.002624 -0.005100 0.000001 0.027199 0.000000
# 6 0.000000 0.000001 0.000000 -0.001701 0.000000 0.036241
#
#
# Mechanical properties :
#
#
# Convention : Reuss Voigt Hill
#
# Bulk Modulus (GPa) = 10.39656 30.98641 20.69148
# Shear Modulus (GPa) = 16.60214 28.62612 22.61413
#
# Velocity S-wave (km/s) = 2.83649 3.72461 3.31046
# Velocity P-wave (km/s) = 3.97063 5.78908 4.96384
#
# Compressibility (1/GPa) = 0.09618571
#
# Stress axis : x y z
#
# Youngs Moduli (GPa) = 131.07995 11.58539 43.72055
#
# Poissons Ratio (x) = 0.07931 0.09243
# Poissons Ratio (y) = 0.89730 0.05929
# Poissons Ratio (z) = 0.27712 0.01571
#
# Static dielectric constant tensor:
#      x y z
#    x 1.735780 0.000000 0.006180 
#    y 0.000000 1.739280 0.000000 
#    z 0.006180 0.000000 1.708940 
# 
# From -- ./inp_files/151632.got.cif
#   From: 2010.05.17/outbox.cif.g08.bks.cpg/sg12_76_cif.got.tgz:151632.got - 2010.06.03 13:09:07.
