data_PCOD9209690
_publ_section_title
;
Structure prediction by ZEFSAII (Michael W. Deem and Ramdas Pophale) SiO2 
 PCOD9209690
Probable space group: C 2/M
;
_chemical_formula_sum "Si O2"
_cell_formula_units_Z 60
_cell_length_a 14.533695
_cell_length_b 9.343748
_cell_length_c 24.437439
_cell_angle_alpha 90.000000
_cell_angle_beta 113.610515
_cell_angle_gamma 90.000000
_cell_volume 3040.783059
_symmetry_space_group_name_H-M "C 2/M"
_symmetry_group_IT_number 12
_symmetry_cell_setting 'monoclinic'
loop_
_space_group_symop_operation_xyz
x,y,z
-x,y,-z
-x,-y,-z
x,-y,z
1/2+x,1/2+y,z
1/2-x,1/2+y,-z
1/2-x,1/2-y,-z
1/2+x,1/2-y,z
loop_
_atom_site_type_symbol
_atom_site_label
_atom_site_fract_x
_atom_site_fract_y
_atom_site_fract_z
Si Si1 0.602431 0.830620 0.492656
Si Si2 0.319827 0.669515 0.594321
Si Si3 0.320285 0.236926 0.082455
Si Si4 0.132165 0.831957 0.186261
Si Si5 0.480881 0.163314 0.933288
Si Si6 0.642316 0.833484 0.791241
Si Si7 0.712880 0.500000 0.006369
Si Si8 0.575565 0.170500 0.282880
O O1 0.500000 0.795439 0.500000
O O2 0.621152 0.737004 0.443173
O O3 0.701367 0.810078 0.553671
O O4 0.598774 0.000000 0.476969
O O5 0.338505 0.500000 0.603233
O O6 0.355626 0.750885 0.656797
O O7 0.411764 0.161192 0.071703
O O8 0.351809 0.259053 0.152237
O O9 0.229372 0.126091 0.056459
O O10 0.296782 0.377270 0.043449
O O11 0.087332 0.764462 0.120078
O O12 0.252670 0.820479 0.214276
O O13 0.092710 0.739019 0.227412
O O14 0.104729 0.000000 0.183869
O O15 0.441335 0.000000 0.926588
O O16 0.500000 0.213119 0.000000
O O17 0.542655 0.803665 0.733102
O O18 0.632363 0.000000 0.807279
O O19 0.593733 0.000000 0.286611
#
# Coordination Sequence:
#
# PCOD9209690 Si02
#       8
#     8   8   8   8   8   8   4   8
#     4   9  19  38  65  98 134 176 214 252 301 362
#     4  10  21  38  63  96 134 167 211 263 304 351
#     4  11  21  40  56  83 113 150 189 249 309 382
#     4  11  25  41  61  88 115 150 205 261 309 368
#     4  11  24  38  57  84 117 150 190 250 317 383
#     4  10  22  41  63  81 113 157 200 248 305 371
#     4  10  24  32  60  82 108 140 192 240 310 374
#     4  11  23  44  66  86 122 172 212 251 308 375
#
# _framework density 19.731759
#
# number of rings (size 3 to 8) (size 9 to 14) (size 15 to 20)
#    0.000    1.600    2.667    1.200    4.667    2.133 
#    2.400    5.333    0.000    0.000    0.000    0.000 
#    0.000    0.000    0.000    0.000    0.000    0.000 
#
# Total GULP energy -167068.089727 kJ/mol
# GULP energy per Si atom -5568.936324 kJ/mol
# Density = 1.968685 g / cm^3
# Si number density = 19.731759 Si / 1000 Ang^3
#
#
#
# Elastic Constant Matrix: (Units=GPa)
#
#
# Indices 1 2 3 4 5 6 
#
# 1 91.4714 43.5662 31.3716 0.0000 0.1488 0.0000
# 2 43.5662 119.3624 68.1321 0.0000 10.4459 0.0000
# 3 31.3716 68.1321 96.9671 0.0000 9.2429 0.0000
# 4 0.0000 0.0000 0.0000 38.9751 0.0000 1.8046
# 5 0.1488 10.4459 9.2429 0.0000 13.0386 0.0000
# 6 0.0000 0.0000 0.0000 1.8046 0.0000 14.4261
#
#
#
# Elastic Compliance Matrix: (Units=1/GPa)
#
#
# Indices 1 2 3 4 5 6 
#
# 1 0.013609 -0.004351 -0.001784 0.000000 0.004595 0.000000
# 2 -0.004351 0.015635 -0.008997 0.000000 -0.006099 0.000000
# 3 -0.001784 -0.008997 0.017719 0.000000 -0.005333 0.000000
# 4 0.000000 0.000000 0.000000 0.025807 0.000000 -0.003228
# 5 0.004595 -0.006099 -0.005333 0.000000 0.085309 0.000000
# 6 0.000000 0.000000 0.000000 -0.003228 0.000000 0.069723
#
#
# Mechanical properties :
#
#
# Convention : Reuss Voigt Hill
#
# Bulk Modulus (GPa) = 59.87775 65.99343 62.93559
# Shear Modulus (GPa) = 18.96582 24.27001 21.61791
#
# Velocity S-wave (km/s) = 3.10366 3.51094 3.31356
# Velocity P-wave (km/s) = 6.57688 7.06778 6.82674
#
# Compressibility (1/GPa) = 0.01670069
#
# Stress axis : x y z
#
# Youngs Moduli (GPa) = 73.48065 63.95928 56.43533
#
# Poissons Ratio (x) = 0.27830 0.10066
# Poissons Ratio (y) = 0.31973 0.50772
# Poissons Ratio (z) = 0.13106 0.57541
#
# Static dielectric constant tensor:
#      x y z
#    x 1.742780 0.000000 0.030940 
#    y 0.000000 1.667880 0.000000 
#    z 0.030940 0.000000 1.672700 
# 
# From -- ./inp_files/338979.got.cif
#   From: 2010.05.17/outbox.cif.g08.bks.cpg/sg12_170_cif.got.tgz:338979.got - 2010.06.03 13:09:07.
