data_PCOD9209669
_publ_section_title
;
Structure prediction by ZEFSAII (Michael W. Deem and Ramdas Pophale) SiO2 
 PCOD9209669
Probable space group: C 2/M
;
_chemical_formula_sum "Si O2"
_cell_formula_units_Z 40
_cell_length_a 19.667495
_cell_length_b 8.646711
_cell_length_c 31.787876
_cell_angle_alpha 90.000000
_cell_angle_beta 159.240657
_cell_angle_gamma 90.000000
_cell_volume 1916.057535
_symmetry_space_group_name_H-M "C 2/M"
_symmetry_group_IT_number 12
_symmetry_cell_setting 'monoclinic'
loop_
_space_group_symop_operation_xyz
x,y,z
-x,y,-z
-x,-y,-z
x,-y,z
1/2+x,1/2+y,z
1/2-x,1/2+y,-z
1/2-x,1/2-y,-z
1/2+x,1/2-y,z
loop_
_atom_site_type_symbol
_atom_site_label
_atom_site_fract_x
_atom_site_fract_y
_atom_site_fract_z
Si Si1 0.315369 0.679568 0.864308
Si Si2 0.093588 0.317863 0.877396
Si Si3 0.763212 0.182009 0.738857
Si Si4 0.497627 0.320164 0.733963
Si Si5 0.157457 0.816739 0.489434
O O1 0.251326 0.500000 0.832281
O O2 0.356710 0.702193 0.839205
O O3 0.146874 0.789080 0.782687
O O4 0.500000 0.702806 0.000000
O O5 0.123963 0.500000 0.890392
O O6 0.097456 0.238135 0.834212
O O7 0.885900 0.279220 0.776959
O O8 0.250000 0.250000 0.000000
O O9 0.544862 0.236625 0.617706
O O10 0.771137 0.000000 0.732601
O O11 0.449596 0.500000 0.709166
O O12 0.308275 0.223591 0.613396
O O13 0.250000 0.750000 0.500000
O O14 0.133016 0.000000 0.470997
#
# Coordination Sequence:
#
# PCOD9209669 Si02
#       5
#     8   8   8   8   8
#     4  10  21  38  63  94 129 169 216 270 331 392
#     4  12  26  46  69  97 136 177 222 273 331 395
#     4  11  23  41  67  98 134 174 220 273 334 394
#     4  12  25  42  67  97 131 173 223 273 331 394
#     4  12  24  42  67  98 135 174 221 275 332 391
#
# _framework density 20.876199
#
# number of rings (size 3 to 8) (size 9 to 14) (size 15 to 20)
#    0.000    0.600    2.000    7.200    0.000    3.600 
#    0.000    4.000    0.000    0.000    0.000    0.000 
#    0.000    0.000    0.000    0.000    0.000    0.000 
#
# Total GULP energy -111992.941686 kJ/mol
# GULP energy per Si atom -5599.647084 kJ/mol
# Density = 2.082868 g / cm^3
# Si number density = 20.876199 Si / 1000 Ang^3
#
#
#
# Elastic Constant Matrix: (Units=GPa)
#
#
# Indices 1 2 3 4 5 6 
#
# 1 43.0519 -1.1424 -11.9470 -0.0033 3.9744 -0.0002
# 2 -1.1424 69.7413 -1.3571 -0.0075 -4.2122 0.0006
# 3 -11.9470 -1.3571 58.5356 -0.0122 -9.2360 0.0011
# 4 -0.0033 -0.0075 -0.0122 34.5852 0.0043 3.3220
# 5 3.9744 -4.2122 -9.2360 0.0043 31.9918 0.0006
# 6 -0.0002 0.0006 0.0011 3.3220 0.0006 36.6920
#
#
#
# Elastic Compliance Matrix: (Units=1/GPa)
#
#
# Indices 1 2 3 4 5 6 
#
# 1 0.024720 0.000400 0.004797 0.000004 -0.001634 0.000000
# 2 0.000400 0.014485 0.000744 0.000003 0.002072 -0.000001
# 3 0.004797 0.000744 0.018860 0.000007 0.004947 -0.000001
# 4 0.000004 0.000003 0.000007 0.029168 -0.000002 -0.002641
# 5 -0.001634 0.002072 0.004947 -0.000002 0.033162 -0.000001
# 6 0.000000 -0.000001 -0.000001 -0.002641 -0.000001 0.027493
#
#
# Mechanical properties :
#
#
# Convention : Reuss Voigt Hill
#
# Bulk Modulus (GPa) = 14.29643 15.82619 15.06131
# Shear Modulus (GPa) = 31.38288 33.03883 32.21086
#
# Velocity S-wave (km/s) = 3.88143 3.98252 3.93230
# Velocity P-wave (km/s) = 5.19138 5.36141 5.27708
#
# Compressibility (1/GPa) = 0.06994752
#
# Stress axis : x y z
#
# Youngs Moduli (GPa) = 40.45252 69.03739 53.02087
#
# Poissons Ratio (x) = -0.02759 -0.25434
# Poissons Ratio (y) = -0.01617 -0.03947
# Poissons Ratio (z) = -0.19405 -0.05139
#
# Static dielectric constant tensor:
#      x y z
#    x 1.728750 0.000000 -0.006360 
#    y 0.000000 1.698160 0.000000 
#    z -0.006360 0.000000 1.747530 
# 
# From -- ./inp_files/237081.got.cif
#   From: 2010.05.17/outbox.cif.g08.bks.cpg/sg12_119_cif.got.tgz:237081.got - 2010.06.03 13:09:07.
