data_PCOD9209410
_publ_section_title
;
Structure prediction by ZEFSAII (Michael W. Deem and Ramdas Pophale) SiO2 
 PCOD9209410
Probable space group: C 2/M
;
_chemical_formula_sum "Si O2"
_cell_formula_units_Z 56
_cell_length_a 13.842754
_cell_length_b 22.229205
_cell_length_c 8.763129
_cell_angle_alpha 90.000000
_cell_angle_beta 87.511262
_cell_angle_gamma 90.000000
_cell_volume 2693.988929
_symmetry_space_group_name_H-M "C 2/M"
_symmetry_group_IT_number 12
_symmetry_cell_setting 'monoclinic'
loop_
_space_group_symop_operation_xyz
x,y,z
-x,y,-z
-x,-y,-z
x,-y,z
1/2+x,1/2+y,z
1/2-x,1/2+y,-z
1/2-x,1/2-y,-z
1/2+x,1/2-y,z
loop_
_atom_site_type_symbol
_atom_site_label
_atom_site_fract_x
_atom_site_fract_y
_atom_site_fract_z
Si Si1 0.883883 0.131882 0.995707
Si Si2 0.246038 0.396784 0.481267
Si Si3 0.912309 0.665408 0.915162
Si Si4 0.445929 0.069050 0.661101
Si Si5 0.107171 0.000000 0.924423
Si Si6 0.232142 0.792201 0.748450
Si Si7 0.722106 0.154633 0.793484
Si Si8 0.605100 0.500000 0.562390
O O1 0.838092 0.174581 0.127140
O O2 0.848932 0.063245 0.027579
O O3 0.833751 0.149860 0.840359
O O4 0.000000 0.134040 0.000000
O O5 0.167430 0.426803 0.375623
O O6 0.269917 0.332127 0.404187
O O7 0.203418 0.387636 0.652022
O O8 0.336683 0.440479 0.487636
O O9 0.956839 0.614135 0.802275
O O10 0.840237 0.703839 0.814060
O O11 0.842415 0.641064 0.053883
O O12 0.000000 0.696908 0.000000
O O13 0.500000 0.087229 0.500000
O O14 0.472459 0.000000 0.694122
O O15 0.099863 0.000000 0.744400
O O16 0.000000 0.000000 0.000000
O O17 0.203247 0.723041 0.742686
O O18 0.500000 0.500000 0.500000
#
# Coordination Sequence:
#
# PCOD9209410 Si02
#       8
#     8   8   8   8   4   8   8   4
#     4  10  21  38  62  89 124 161 204 255 317 364
#     4  11  23  41  62  89 123 164 200 254 308 362
#     4  10  21  39  61  88 118 153 200 252 297 355
#     4  10  21  40  63  86 119 159 197 243 309 364
#     4  10  22  40  64  89 124 162 205 254 310 368
#     4  10  22  41  61  86 121 166 204 251 303 366
#     4  11  24  38  60  92 122 159 212 251 300 368
#     4  12  26  42  65  93 127 164 207 251 310 377
#
# _framework density 20.787018
#
# number of rings (size 3 to 8) (size 9 to 14) (size 15 to 20)
#    0.000    1.571    2.143    3.000    4.000    2.571 
#    1.286    0.000    0.000    5.143    0.000    0.000 
#    0.000    0.000    0.000    0.000    0.000    0.000 
#
# Total GULP energy -156341.669608 kJ/mol
# GULP energy per Si atom -5583.631057 kJ/mol
# Density = 2.073971 g / cm^3
# Si number density = 20.787018 Si / 1000 Ang^3
#
#
#
# Elastic Constant Matrix: (Units=GPa)
#
#
# Indices 1 2 3 4 5 6 
#
# 1 84.2826 13.8371 -2.7373 0.0000 7.0698 0.0000
# 2 13.8371 99.2552 29.8826 0.0000 -6.9937 0.0000
# 3 -2.7373 29.8826 80.0306 0.0000 -17.6117 0.0000
# 4 0.0000 0.0000 0.0000 16.7789 0.0000 -6.3724
# 5 7.0698 -6.9937 -17.6117 0.0000 26.6738 0.0000
# 6 0.0000 0.0000 0.0000 -6.3724 0.0000 18.8053
#
#
#
# Elastic Compliance Matrix: (Units=1/GPa)
#
#
# Indices 1 2 3 4 5 6 
#
# 1 0.012530 -0.002130 0.000433 0.000000 -0.003594 0.000000
# 2 -0.002130 0.011714 -0.004267 0.000000 0.000819 0.000000
# 3 0.000433 -0.004267 0.016183 0.000000 0.009452 0.000000
# 4 0.000000 0.000000 0.000000 0.068402 0.000000 0.023179
# 5 -0.003594 0.000819 0.009452 0.000000 0.044898 0.000000
# 6 0.000000 0.000000 0.000000 0.023179 0.000000 0.061031
#
#
# Mechanical properties :
#
#
# Convention : Reuss Voigt Hill
#
# Bulk Modulus (GPa) = 35.08798 38.39259 36.74028
# Shear Modulus (GPa) = 21.16983 27.29068 24.23025
#
# Velocity S-wave (km/s) = 3.19472 3.62729 3.41786
# Velocity P-wave (km/s) = 5.52492 6.00438 5.76963
#
# Compressibility (1/GPa) = 0.02849979
#
# Stress axis : x y z
#
# Youngs Moduli (GPa) = 79.80766 85.36573 61.79284
#
# Poissons Ratio (x) = 0.18187 -0.02677
# Poissons Ratio (y) = 0.17003 0.26365
# Poissons Ratio (z) = -0.03458 0.36423
#
# Static dielectric constant tensor:
#      x y z
#    x 1.761370 0.000000 -0.006650 
#    y 0.000000 1.748510 0.000000 
#    z -0.006650 0.000000 1.723880 
# 
# From -- ./inp_files/64119.got.cif
#   From: 2010.05.17/outbox.cif.g08.bks.cpg/sg12_33_cif.got.tgz:64119.got - 2010.06.03 13:09:07.
