data_PCOD9209013
_publ_section_title
;
Structure prediction by ZEFSAII (Michael W. Deem and Ramdas Pophale) SiO2 
 PCOD9209013
Probable space group: C 2/M
;
_chemical_formula_sum "Si O2"
_cell_formula_units_Z 58
_cell_length_a 8.458513
_cell_length_b 26.743274
_cell_length_c 20.597298
_cell_angle_alpha 90.000000
_cell_angle_beta 138.639024
_cell_angle_gamma 90.000000
_cell_volume 3078.856278
_symmetry_space_group_name_H-M "C 2/M"
_symmetry_group_IT_number 12
_symmetry_cell_setting 'monoclinic'
loop_
_space_group_symop_operation_xyz
x,y,z
-x,y,-z
-x,-y,-z
x,-y,z
1/2+x,1/2+y,z
1/2-x,1/2+y,-z
1/2-x,1/2-y,-z
1/2+x,1/2-y,z
loop_
_atom_site_type_symbol
_atom_site_label
_atom_site_fract_x
_atom_site_fract_y
_atom_site_fract_z
Si Si1 0.114618 0.690712 0.914278
Si Si2 0.714879 0.828121 0.673035
Si Si3 0.677138 0.441203 0.639794
Si Si4 0.989794 0.224257 0.425412
Si Si5 0.634837 0.916623 0.436723
Si Si6 0.656584 0.357556 0.728487
Si Si7 0.417892 0.302336 0.876050
Si Si8 0.000000 0.500000 0.500000
O O1 0.236350 0.693278 0.880391
O O2 0.879805 0.657994 0.840426
O O3 0.006686 0.745137 0.897458
O O4 0.327792 0.672679 0.026960
O O5 0.683518 0.772791 0.633018
O O6 0.478164 0.861719 0.592631
O O7 0.792947 0.820137 0.771688
O O8 0.919343 0.858026 0.698171
O O9 0.650089 0.500000 0.642628
O O10 0.413624 0.420427 0.541003
O O11 0.860056 0.432251 0.637337
O O12 0.734501 0.408944 0.719690
O O13 0.250000 0.250000 0.500000
O O14 0.000000 0.200597 0.500000
O O15 0.901772 0.184400 0.345129
O O16 0.509438 0.955976 0.445851
#
# Coordination Sequence:
#
# PCOD9209013 Si02
#       8
#     8   8   8   8   8   8   8   2
#     4  10  21  38  61  89 120 166 199 254 302 371
#     4  12  25  39  59  93 121 161 204 251 305 375
#     4  11  23  43  60  87 116 164 208 257 299 359
#     4  12  26  39  51  79 126 165 199 236 291 360
#     4  11  23  38  61  84 119 156 204 252 302 350
#     4  12  25  39  62  87 121 164 209 248 312 359
#     4  10  21  38  60  89 126 156 207 248 308 365
#     4  12  20  38  60  84 116 158 200 260 294 350
#
# _framework density 18.838165
#
# number of rings (size 3 to 8) (size 9 to 14) (size 15 to 20)
#    0.000    0.828    4.138    3.724    6.759    1.655 
#    0.000    0.000    0.000    0.000    1.793    2.897 
#    0.000    0.000    0.000    0.000    0.000    0.000 
#
# Total GULP energy -161677.235318 kJ/mol
# GULP energy per Si atom -5575.077080 kJ/mol
# Density = 1.879529 g / cm^3
# Si number density = 18.838165 Si / 1000 Ang^3
#
#
#
# Elastic Constant Matrix: (Units=GPa)
#
#
# Indices 1 2 3 4 5 6 
#
# 1 54.0451 13.4260 -0.6176 0.0000 3.4256 0.0000
# 2 13.4260 79.3808 9.1949 0.0000 3.6401 0.0000
# 3 -0.6176 9.1949 37.2915 0.0000 -0.9548 0.0000
# 4 0.0000 0.0000 0.0000 11.7125 -0.0001 -5.9432
# 5 3.4256 3.6401 -0.9548 -0.0001 23.7580 0.0000
# 6 0.0000 0.0000 0.0000 -5.9432 0.0000 26.4537
#
#
#
# Elastic Compliance Matrix: (Units=1/GPa)
#
#
# Indices 1 2 3 4 5 6 
#
# 1 0.019483 -0.003317 0.001083 0.000000 -0.002257 0.000000
# 2 -0.003317 0.013640 -0.003463 0.000000 -0.001751 0.000000
# 3 0.001083 -0.003463 0.027726 0.000000 0.001489 0.000000
# 4 0.000000 0.000000 0.000000 0.096365 0.000000 0.021650
# 5 -0.002257 -0.001751 0.001489 0.000000 0.042745 0.000000
# 6 0.000000 0.000000 0.000000 0.021650 0.000000 0.042666
#
#
# Mechanical properties :
#
#
# Convention : Reuss Voigt Hill
#
# Bulk Modulus (GPa) = 20.22097 23.85823 22.03960
# Shear Modulus (GPa) = 18.48414 22.29910 20.39162
#
# Velocity S-wave (km/s) = 3.13582 3.44426 3.29365
# Velocity P-wave (km/s) = 4.88554 5.33943 5.11752
#
# Compressibility (1/GPa) = 0.04945360
#
# Stress axis : x y z
#
# Youngs Moduli (GPa) = 51.32796 73.31411 36.06769
#
# Poissons Ratio (x) = 0.24319 -0.03905
# Poissons Ratio (y) = 0.17026 0.12490
# Poissons Ratio (z) = -0.05557 0.25388
#
# Static dielectric constant tensor:
#      x y z
#    x 1.705070 0.000000 -0.009750 
#    y 0.000000 1.664100 0.000000 
#    z -0.009750 0.000000 1.691060 
# 
# From -- ./inp_files/302461.got.cif
#   From: 2010.05.17/outbox.cif.g08.bks.cpg/sg12_152_cif.got.tgz:302461.got - 2010.06.03 13:09:07.
