data_PCOD9209958
_publ_section_title
;
Structure prediction by ZEFSAII (Michael W. Deem and Ramdas Pophale) SiO2 
 PCOD9209958
Probable space group: C 2/M
;
_chemical_formula_sum "Si O2"
_cell_formula_units_Z 54
_cell_length_a 20.254797
_cell_length_b 13.176841
_cell_length_c 7.055821
_cell_angle_alpha 90.000000
_cell_angle_beta 81.908446
_cell_angle_gamma 90.000000
_cell_volume 1864.410045
_symmetry_space_group_name_H-M "C 2/M"
_symmetry_group_IT_number 12
_symmetry_cell_setting 'monoclinic'
loop_
_space_group_symop_operation_xyz
x,y,z
-x,y,-z
-x,-y,-z
x,-y,z
1/2+x,1/2+y,z
1/2-x,1/2+y,-z
1/2-x,1/2-y,-z
1/2+x,1/2-y,z
loop_
_atom_site_type_symbol
_atom_site_label
_atom_site_fract_x
_atom_site_fract_y
_atom_site_fract_z
Si Si1 0.231650 0.620722 0.059879
Si Si2 0.000000 0.500000 0.000000
Si Si3 0.728673 0.624265 0.386394
Si Si4 0.500000 0.227209 0.500000
Si Si5 0.088933 0.111472 0.340158
Si Si6 0.131913 0.612590 0.562794
Si Si7 0.875351 0.887078 0.106297
Si Si8 0.403431 0.832463 0.010182
O O1 0.220734 0.500000 0.059722
O O2 0.253467 0.654503 0.838207
O O3 0.296330 0.632128 0.168336
O O4 0.158688 0.670487 0.110701
O O5 0.040127 0.406454 0.095465
O O6 0.730443 0.500000 0.391332
O O7 0.650091 0.646613 0.450414
O O8 0.793236 0.657505 0.481642
O O9 0.470027 0.308882 0.659574
O O10 0.564897 0.164807 0.522706
O O11 0.119025 0.098862 0.121553
O O12 0.067623 0.000000 0.411269
O O13 0.134806 0.500000 0.479157
O O14 0.119561 0.604963 0.794815
O O15 0.894729 0.000000 0.176755
O O16 0.913514 0.779113 0.101217
#
# Coordination Sequence:
#
# PCOD9209958 Si02
#       8
#     8   2   8   4   8   8   8   8
#     4   8  13  29  53  83 109 139 181 224 266 317
#     4  12  24  32  54  82 116 152 184 214 262 346
#     4   7  13  30  57  76  99 138 180 222 260 317
#     4  12  24  34  56  80 106 144 176 234 280 322
#     4   9  19  37  56  81 109 140 181 220 269 326
#     4  10  21  39  56  78 108 143 186 227 272 323
#     4   9  19  34  59  85 112 141 182 229 271 323
#     4  11  20  35  55  82 114 150 183 217 273 331
#
# _framework density 28.963588000000001
#
# number of rings (size 3 to 8) (size 9 to 14) (size 15 to 20)
#    0.000    2.667    1.481    3.556    2.074    0.593 
#    0.000    1.852    0.000    0.000    0.000    5.185 
#    0.000    0.000    0.000    0.000    0.000    0.000 
#
# Total GULP energy -150580.375225 kJ/mol
# GULP energy per Si atom -5577.050934 kJ/mol
# Density = 2.889767 g / cm^3
# Si number density = 28.963588 Si / 1000 Ang^3
#
#
#
# Elastic Constant Matrix: (Units=GPa)
#
#
# Indices 1 2 3 4 5 6 
#
# 1 205.1907 86.3829 31.6327 0.0000 6.4771 0.0000
# 2 86.3829 234.7172 -3.9223 0.0000 14.3770 0.0000
# 3 31.6327 -3.9223 66.1518 0.0000 -4.2564 0.0000
# 4 0.0000 0.0000 0.0000 -183.3629 0.0000 -440.7582
# 5 6.4771 14.3770 -4.2564 0.0000 37.6176 0.0000
# 6 0.0000 0.0000 0.0000 -440.7582 0.0000 -945.5604
#
#
#
# Elastic Compliance Matrix: (Units=1/GPa)
#
#
# Indices 1 2 3 4 5 6 
#
# 1 0.006387 -0.002370 -0.003231 0.000000 -0.000559 0.000000
# 2 -0.002370 0.005244 0.001352 0.000000 -0.001443 0.000000
# 3 -0.003231 0.001352 0.016867 0.000000 0.001948 0.000000
# 4 0.000000 0.000000 0.000000 0.045270 0.000000 -0.021102
# 5 -0.000559 -0.001443 0.001948 0.000000 0.027452 0.000000
# 6 0.000000 0.000000 0.000000 -0.021102 0.000000 0.008779
#
#
# Mechanical properties :
#
#
# Convention : Reuss Voigt Hill
#
# Bulk Modulus (GPa) = 50.00286 81.58293 65.79290
# Shear Modulus (GPa) = 39.94761 -192.13005 -76.09122
#
# Velocity S-wave (km/s) = 3.71784 -8.15347 -5.13112
# Velocity P-wave (km/s) = 5.97756 7.77240 3.51276
#
# Compressibility (1/GPa) = 0.01999886
#
# Stress axis : x y z
#
# Youngs Moduli (GPa) = 156.56464 190.70165 59.28694
#
# Poissons Ratio (x) = 0.45204 0.19154
# Poissons Ratio (y) = 0.37112 -0.08013
# Poissons Ratio (z) = 0.50582 -0.25774
#
# Static dielectric constant tensor:
#      x y z
#    x 2.377400 0.000000 -0.096020 
#    y 0.000000 2.273540 0.000000 
#    z -0.096020 0.000000 2.338600 
# 
# From -- ./inp_files/164900.got.cif
#   From: 2010.05.17/outbox.cif.g08.bks.cpg/sg12_83_cif.got.tgz:164900.got - 2010.06.03 13:09:07.
