data_PCOD9209671
_publ_section_title
;
Structure prediction by ZEFSAII (Michael W. Deem and Ramdas Pophale) SiO2 
 PCOD9209671
Probable space group: C 2/M
;
_chemical_formula_sum "Si O2"
_cell_formula_units_Z 52
_cell_length_a 10.221940
_cell_length_b 21.782349
_cell_length_c 12.458804
_cell_angle_alpha 90.000000
_cell_angle_beta 115.266179
_cell_angle_gamma 90.000000
_cell_volume 2508.670180
_symmetry_space_group_name_H-M "C 2/M"
_symmetry_group_IT_number 12
_symmetry_cell_setting 'monoclinic'
loop_
_space_group_symop_operation_xyz
x,y,z
-x,y,-z
-x,-y,-z
x,-y,z
1/2+x,1/2+y,z
1/2-x,1/2+y,-z
1/2-x,1/2-y,-z
1/2+x,1/2-y,z
loop_
_atom_site_type_symbol
_atom_site_label
_atom_site_fract_x
_atom_site_fract_y
_atom_site_fract_z
Si Si1 0.000000 0.290605 0.500000
Si Si2 0.817346 0.791316 0.278181
Si Si3 0.339903 0.427415 0.891834
Si Si4 0.325849 0.706307 0.938552
Si Si5 0.776313 0.632164 0.556251
Si Si6 0.545831 0.500000 0.681898
Si Si7 0.542503 0.378428 0.285232
Si Si8 0.256158 0.500000 0.457928
O O1 0.902728 0.248984 0.392452
O O2 0.894758 0.328282 0.538897
O O3 0.712873 0.744089 0.182939
O O4 0.751251 0.843618 0.333292
O O5 0.935539 0.820962 0.239014
O O6 0.285848 0.500000 0.872957
O O7 0.272256 0.365623 0.924685
O O8 0.355563 0.399373 0.776436
O O9 0.500000 0.432207 0.000000
O O10 0.500000 0.703644 0.000000
O O11 0.250000 0.750000 0.000000
O O12 0.632108 0.631373 0.428488
O O13 0.829504 0.562303 0.574362
O O14 0.566306 0.436508 0.747438
O O15 0.373468 0.500000 0.594860
O O16 0.639600 0.500000 0.608672
#
# Coordination Sequence:
#
# PCOD9209671 Si02
#       8
#     4   8   8   8   8   4   8   4
#     4  12  26  35  56  91 132 172 206 258 324 404
#     4  12  23  39  66  90 131 166 216 265 329 394
#     4  10  21  38  63  95 126 162 218 278 327 375
#     4  11  26  46  70  98 132 177 223 276 330 392
#     4  11  23  38  58  92 128 171 212 263 327 392
#     4   9  16  30  57  90 122 156 205 269 319 370
#     4  11  19  37  62  98 126 162 213 273 331 378
#     4   9  18  35  56  82 124 165 209 254 316 390
#
# _framework density 20.728113
#
# number of rings (size 3 to 8) (size 9 to 14) (size 15 to 20)
#    0.000    1.231    3.846    3.231    4.308    0.308 
#    0.000    0.000    1.692    0.462    0.000    0.000 
#    0.000    0.000    0.000    0.000    0.000    0.000 
#
# Total GULP energy -144805.327099 kJ/mol
# GULP energy per Si atom -5569.435658 kJ/mol
# Density = 2.068094 g / cm^3
# Si number density = 20.728113 Si / 1000 Ang^3
#
#
#
# Elastic Constant Matrix: (Units=GPa)
#
#
# Indices 1 2 3 4 5 6 
#
# 1 61.2370 72.1409 10.8601 0.0000 3.3307 0.0000
# 2 72.1409 246.0278 38.5880 0.0000 20.5230 0.0000
# 3 10.8601 38.5880 71.9753 0.0000 5.1139 0.0000
# 4 0.0000 0.0000 0.0000 27.8306 0.0000 -1.2304
# 5 3.3307 20.5230 5.1139 0.0000 37.4840 0.0000
# 6 0.0000 0.0000 0.0000 -1.2304 0.0000 100.5086
#
#
#
# Elastic Compliance Matrix: (Units=1/GPa)
#
#
# Indices 1 2 3 4 5 6 
#
# 1 0.025075 -0.007528 0.000119 0.000000 0.001877 0.000000
# 2 -0.007528 0.006872 -0.002351 0.000000 -0.002773 0.000000
# 3 0.000119 -0.002351 0.015193 0.000000 -0.000796 0.000000
# 4 0.000000 0.000000 0.000000 0.035951 0.000000 0.000440
# 5 0.001877 -0.002773 -0.000796 0.000000 0.028138 0.000000
# 6 0.000000 0.000000 0.000000 0.000440 0.000000 0.009955
#
#
# Mechanical properties :
#
#
# Convention : Reuss Voigt Hill
#
# Bulk Modulus (GPa) = 36.20633 69.15756 52.68195
# Shear Modulus (GPa) = 33.35318 50.34139 41.84729
#
# Velocity S-wave (km/s) = 4.01568 4.93348 4.49805
# Velocity P-wave (km/s) = 6.24549 8.11720 7.24207
#
# Compressibility (1/GPa) = 0.02761948
#
# Stress axis : x y z
#
# Youngs Moduli (GPa) = 39.88038 145.51765 65.82017
#
# Poissons Ratio (x) = 1.09543 -0.00783
# Poissons Ratio (y) = 0.30021 0.15477
# Poissons Ratio (z) = -0.00475 0.34217
#
# Static dielectric constant tensor:
#      x y z
#    x 1.717880 0.000000 -0.029700 
#    y 0.000000 1.942630 0.000000 
#    z -0.029700 0.000000 1.829430 
# 
# From -- ./inp_files/133379.got.cif
#   From: 2010.05.17/outbox.cif.g08.bks.cpg/sg12_67_cif.got.tgz:133379.got - 2010.06.03 13:09:07.
