data_PCOD9209027
_publ_section_title
;
Structure prediction by ZEFSAII (Michael W. Deem and Ramdas Pophale) SiO2 
 PCOD9209027
Probable space group: C 2/M
;
_chemical_formula_sum "Si O2"
_cell_formula_units_Z 56
_cell_length_a 13.873568
_cell_length_b 22.132935
_cell_length_c 13.713590
_cell_angle_alpha 90.000000
_cell_angle_beta 34.609928
_cell_angle_gamma 90.000000
_cell_volume 2391.752564
_symmetry_space_group_name_H-M "C 2/M"
_symmetry_group_IT_number 12
_symmetry_cell_setting 'monoclinic'
loop_
_space_group_symop_operation_xyz
x,y,z
-x,y,-z
-x,-y,-z
x,-y,z
1/2+x,1/2+y,z
1/2-x,1/2+y,-z
1/2-x,1/2-y,-z
1/2+x,1/2-y,z
loop_
_atom_site_type_symbol
_atom_site_label
_atom_site_fract_x
_atom_site_fract_y
_atom_site_fract_z
Si Si1 0.875409 0.926784 0.512119
Si Si2 0.058793 0.928077 0.772730
Si Si3 0.575731 0.768864 0.093703
Si Si4 0.016502 0.685821 0.343863
Si Si5 0.996160 0.398349 0.109935
Si Si6 0.710783 0.315146 0.739548
Si Si7 0.672859 0.065871 0.152073
O O1 0.928245 0.911340 0.354902
O O2 0.695236 0.897558 0.689973
O O3 0.000000 0.911628 0.500000
O O4 0.857127 0.000000 0.527760
O O5 0.175323 0.885436 0.743409
O O6 0.094570 0.000000 0.750156
O O7 0.869711 0.917658 0.973240
O O8 0.473052 0.788414 0.276020
O O9 0.582353 0.831904 0.030649
O O10 0.462209 0.719001 0.137303
O O11 0.750000 0.750000 0.000000
O O12 0.200421 0.704756 0.233730
O O13 0.054231 0.614386 0.303398
O O14 0.862143 0.701449 0.540576
O O15 0.103715 0.434167 0.099374
O O16 0.000000 0.426030 0.000000
O O17 0.659844 0.000000 0.207844
#
# Coordination Sequence:
#
# PCOD9209027 Si02
#       7
#     8   8   8   8   8   8   8
#     4  10  21  38  60  90 130 169 206 256 317 380
#     4  10  21  38  63  93 124 164 210 258 315 376
#     4  11  25  42  64  88 124 165 213 267 318 375
#     4  10  24  42  63  94 121 166 212 258 319 378
#     4  11  23  38  59  93 122 164 215 258 315 378
#     4  11  23  43  66  89 128 164 210 263 318 380
#     4  10  21  39  62  92 129 164 206 260 313 376
#
# _framework density 23.413792999999998
#
# number of rings (size 3 to 8) (size 9 to 14) (size 15 to 20)
#    0.000    1.571    0.000    5.143    2.000    6.286 
#    2.571    2.857    0.000    0.000    0.000    0.000 
#    0.000    0.000    0.000    0.000    0.000    0.000 
#
# Total GULP energy -156327.387043 kJ/mol
# GULP energy per Si atom -5583.120966 kJ/mol
# Density = 2.336050 g / cm^3
# Si number density = 23.413793 Si / 1000 Ang^3
#
#
#
# Elastic Constant Matrix: (Units=GPa)
#
#
# Indices 1 2 3 4 5 6 
#
# 1 103.8222 10.7865 8.3552 0.0150 -10.8001 0.0258
# 2 10.7865 61.7854 4.3285 0.0210 -12.0416 0.0563
# 3 8.3552 4.3285 72.3324 0.0397 -9.9813 -0.0207
# 4 0.0150 0.0210 0.0397 2.4564 -0.0276 15.3090
# 5 -10.8001 -12.0416 -9.9813 -0.0276 40.4202 -0.0266
# 6 0.0258 0.0563 -0.0207 15.3090 -0.0266 131.4809
#
#
#
# Elastic Compliance Matrix: (Units=1/GPa)
#
#
# Indices 1 2 3 4 5 6 
#
# 1 0.010049 -0.001288 -0.000793 -0.000026 0.002105 0.000002
# 2 -0.001288 0.017356 -0.000232 -0.000162 0.004769 0.000013
# 3 -0.000793 -0.000232 0.014382 -0.000760 0.003270 0.000092
# 4 -0.000026 -0.000162 -0.000760 1.483912 0.000657 -0.172780
# 5 0.002105 0.004769 0.003270 0.000657 0.027531 -0.000073
# 6 0.000002 0.000013 0.000092 -0.172780 -0.000073 0.027723
#
#
# Mechanical properties :
#
#
# Convention : Reuss Voigt Hill
#
# Bulk Modulus (GPa) = 26.91049 31.65337 29.28193
# Shear Modulus (GPa) = 3.12898 49.16949 26.14924
#
# Velocity S-wave (km/s) = 1.15727 4.58757 3.34553
# Velocity P-wave (km/s) = 3.64748 6.45055 5.23993
#
# Compressibility (1/GPa) = 0.03716023
#
# Stress axis : x y z
#
# Youngs Moduli (GPa) = 99.51696 57.61797 69.53021
#
# Poissons Ratio (x) = 0.07424 0.05514
# Poissons Ratio (y) = 0.12822 0.01610
# Poissons Ratio (z) = 0.07893 0.01335
#
# Static dielectric constant tensor:
#      x y z
#    x 1.914280 0.000000 0.034920 
#    y 0.000000 1.914990 0.000010 
#    z 0.034920 0.000010 1.895690 
# 
# From -- ./inp_files/218692.got.cif
#   From: 2010.05.17/outbox.cif.g08.bks.cpg/sg12_110_cif.got.tgz:218692.got - 2010.06.03 13:09:07.
