data_PCOD9209375
_publ_section_title
;
Structure prediction by ZEFSAII (Michael W. Deem and Ramdas Pophale) SiO2 
 PCOD9209375
Probable space group: C 2/M
;
_chemical_formula_sum "Si O2"
_cell_formula_units_Z 48
_cell_length_a 23.325220
_cell_length_b 8.950752
_cell_length_c 12.374005
_cell_angle_alpha 90.000000
_cell_angle_beta 69.505817
_cell_angle_gamma 90.000000
_cell_volume 2419.912532
_symmetry_space_group_name_H-M "C 2/M"
_symmetry_group_IT_number 12
_symmetry_cell_setting 'monoclinic'
loop_
_space_group_symop_operation_xyz
x,y,z
-x,y,-z
-x,-y,-z
x,-y,z
1/2+x,1/2+y,z
1/2-x,1/2+y,-z
1/2-x,1/2-y,-z
1/2+x,1/2-y,z
loop_
_atom_site_type_symbol
_atom_site_label
_atom_site_fract_x
_atom_site_fract_y
_atom_site_fract_z
Si Si1 0.258588 0.674550 0.610767
Si Si2 0.816652 0.821762 0.961079
Si Si3 0.903072 0.825530 0.523892
Si Si4 0.446644 0.177571 0.275069
Si Si5 0.847606 0.822017 0.184991
Si Si6 0.570074 0.319524 0.254158
O O1 0.241095 0.500000 0.617198
O O2 0.250000 0.750000 0.500000
O O3 0.330171 0.682501 0.591381
O O4 0.214982 0.757869 0.723305
O O5 0.864587 0.772676 0.837919
O O6 0.808967 0.000000 0.955590
O O7 0.750000 0.750000 0.000000
O O8 0.846589 0.791776 0.058176
O O9 0.919989 0.729149 0.408953
O O10 0.934225 0.781345 0.616030
O O11 0.918294 0.000000 0.490608
O O12 0.403126 0.246335 0.212219
O O13 0.514629 0.245076 0.227036
O O14 0.447414 0.000000 0.266990
O O15 0.849992 0.000000 0.200931
O O16 0.566208 0.500000 0.248363
#
# Coordination Sequence:
#
# PCOD9209375 Si02
#       6
#     8   8   8   8   8   8
#     4  11  21  35  59  91 123 158 200 247 301 357
#     4  10  23  43  68  94 121 158 201 251 304 363
#     4  10  21  38  62  88 121 162 201 247 304 367
#     4  12  25  39  59  89 123 160 204 256 308 358
#     4  11  23  40  62  90 125 163 204 249 303 364
#     4  10  22  42  64  87 119 162 205 246 303 367
#
# _framework density 19.835426999999999
#
# number of rings (size 3 to 8) (size 9 to 14) (size 15 to 20)
#    0.000    1.333    1.667    4.000    0.000    7.333 
#    0.000    3.333    0.000    0.000    0.000    0.000 
#    0.000    0.000    0.000    0.000    0.000    0.000 
#
# Total GULP energy -134235.989298 kJ/mol
# GULP energy per Si atom -5593.166221 kJ/mol
# Density = 1.979028 g / cm^3
# Si number density = 19.835427 Si / 1000 Ang^3
#
#
#
# Elastic Constant Matrix: (Units=GPa)
#
#
# Indices 1 2 3 4 5 6 
#
# 1 116.5050 45.3517 33.4005 0.0000 -1.5558 0.0000
# 2 45.3517 70.9078 41.6857 0.0000 13.7276 0.0000
# 3 33.4005 41.6857 80.2756 0.0000 -1.5745 0.0000
# 4 0.0000 0.0000 0.0000 21.3134 0.0000 -7.2801
# 5 -1.5558 13.7276 -1.5745 0.0000 23.5185 0.0000
# 6 0.0000 0.0000 0.0000 -7.2801 0.0000 31.8166
#
#
#
# Elastic Compliance Matrix: (Units=1/GPa)
#
#
# Indices 1 2 3 4 5 6 
#
# 1 0.012150 -0.008622 -0.000464 0.000000 0.005805 0.000000
# 2 -0.008622 0.030961 -0.012873 0.000000 -0.019504 0.000000
# 3 -0.000464 -0.012873 0.019507 0.000000 0.008789 0.000000
# 4 0.000000 0.000000 0.000000 0.050897 0.000000 0.011646
# 5 0.005805 -0.019504 0.008789 0.000000 0.054876 0.000000
# 6 0.000000 0.000000 0.000000 0.011646 0.000000 0.034095
#
#
# Mechanical properties :
#
#
# Convention : Reuss Voigt Hill
#
# Bulk Modulus (GPa) = 53.47462 56.50714 54.99088
# Shear Modulus (GPa) = 19.79118 25.14640 22.46879
#
# Velocity S-wave (km/s) = 3.16218 3.56441 3.36930
# Velocity P-wave (km/s) = 6.35218 6.74462 6.55134
#
# Compressibility (1/GPa) = 0.01870046
#
# Stress axis : x y z
#
# Youngs Moduli (GPa) = 82.30274 32.29872 51.26336
#
# Poissons Ratio (x) = 0.27849 0.02380
# Poissons Ratio (y) = 0.70963 0.65989
# Poissons Ratio (z) = 0.03820 0.41577
#
# Static dielectric constant tensor:
#      x y z
#    x 1.698680 0.000000 -0.007540 
#    y 0.000000 1.673960 0.000000 
#    z -0.007540 0.000000 1.692310 
# 
# From -- ./inp_files/172905.got.cif
#   From: 2010.05.17/outbox.cif.g08.bks.cpg/sg12_87_cif.got.tgz:172905.got - 2010.06.03 13:09:07.
