data_PCOD9209362
_publ_section_title
;
Structure prediction by ZEFSAII (Michael W. Deem and Ramdas Pophale) SiO2 
 PCOD9209362
Probable space group: C 2/M
;
_chemical_formula_sum "Si O2"
_cell_formula_units_Z 40
_cell_length_a 5.040438
_cell_length_b 30.099605
_cell_length_c 11.075442
_cell_angle_alpha 90.000000
_cell_angle_beta 98.734040
_cell_angle_gamma 90.000000
_cell_volume 1660.827654
_symmetry_space_group_name_H-M "C 2/M"
_symmetry_group_IT_number 12
_symmetry_cell_setting 'monoclinic'
loop_
_space_group_symop_operation_xyz
x,y,z
-x,y,-z
-x,-y,-z
x,-y,z
1/2+x,1/2+y,z
1/2-x,1/2+y,-z
1/2-x,1/2-y,-z
1/2+x,1/2-y,z
loop_
_atom_site_type_symbol
_atom_site_label
_atom_site_fract_x
_atom_site_fract_y
_atom_site_fract_z
Si Si1 0.000000 0.582716 0.500000
Si Si2 0.895775 0.720252 0.235989
Si Si3 0.602543 0.607893 0.828173
Si Si4 0.500000 0.833044 0.000000
Si Si5 0.194951 0.839365 0.603624
Si Si6 0.405278 0.051040 0.231497
O O1 0.781993 0.616507 0.538102
O O2 0.899605 0.555377 0.377401
O O3 0.101591 0.761855 0.244059
O O4 0.039144 0.687027 0.339449
O O5 0.906979 0.696579 0.106504
O O6 0.557276 0.642691 0.715802
O O7 0.329352 0.582379 0.835580
O O8 0.815354 0.571255 0.795525
O O9 0.756655 0.636250 0.938557
O O10 0.000000 0.813364 0.500000
O O11 0.372944 0.000000 0.194075
#
# Coordination Sequence:
#
# PCOD9209362 Si02
#       6
#     4   8   8   4   8   8
#     4  10  21  38  62  90 126 176 206 238 302 378
#     4  11  26  42  64  95 122 158 205 261 313 353
#     4  10  23  40  63  93 119 169 210 248 307 366
#     4  10  24  46  71  84 124 166 214 252 301 380
#     4  10  21  38  62  87 127 163 206 248 301 377
#     4  11  22  39  62  95 129 158 207 259 305 358
#
# _framework density 24.084377
#
# number of rings (size 3 to 8) (size 9 to 14) (size 15 to 20)
#    0.000    1.600    2.000    1.500    2.800    8.000 
#    0.000    6.000    0.000    0.000    0.000    0.000 
#    0.000    0.000    0.000    0.000    0.000    0.000 
#
# Total GULP energy -112104.068399 kJ/mol
# GULP energy per Si atom -5605.203420 kJ/mol
# Density = 2.402956 g / cm^3
# Si number density = 24.084377 Si / 1000 Ang^3
#
#
#
# Elastic Constant Matrix: (Units=GPa)
#
#
# Indices 1 2 3 4 5 6 
#
# 1 59.4531 15.6152 22.1871 0.0000 2.7226 0.0000
# 2 15.6152 109.1383 37.5804 0.0000 3.3312 0.0000
# 3 22.1871 37.5804 110.1256 0.0000 25.5996 0.0000
# 4 0.0000 0.0000 0.0000 32.4184 0.0000 3.2876
# 5 2.7226 3.3312 25.5996 0.0000 26.8172 0.0000
# 6 0.0000 0.0000 0.0000 3.2876 0.0000 27.6975
#
#
#
# Elastic Compliance Matrix: (Units=1/GPa)
#
#
# Indices 1 2 3 4 5 6 
#
# 1 0.018477 -0.001443 -0.003645 0.000000 0.001782 0.000000
# 2 -0.001443 0.010649 -0.003945 0.000000 0.002590 0.000000
# 3 -0.003645 -0.003945 0.014087 0.000000 -0.012587 0.000000
# 4 0.000000 0.000000 0.000000 0.031223 0.000000 -0.003706
# 5 0.001782 0.002590 -0.012587 0.000000 0.048803 0.000000
# 6 0.000000 0.000000 0.000000 -0.003706 0.000000 0.036544
#
#
# Mechanical properties :
#
#
# Convention : Reuss Voigt Hill
#
# Bulk Modulus (GPa) = 39.76518 47.72027 43.74273
# Shear Modulus (GPa) = 26.84841 30.94224 28.89533
#
# Velocity S-wave (km/s) = 3.34243 3.58822 3.46750
# Velocity P-wave (km/s) = 5.60735 6.08473 5.85091
#
# Compressibility (1/GPa) = 0.02514763
#
# Stress axis : x y z
#
# Youngs Moduli (GPa) = 54.11992 93.90941 70.98677
#
# Poissons Ratio (x) = 0.13553 0.25871
# Poissons Ratio (y) = 0.07810 0.28005
# Poissons Ratio (z) = 0.19724 0.37048
#
# Static dielectric constant tensor:
#      x y z
#    x 1.910670 0.000000 -0.008990 
#    y 0.000000 1.878510 0.000000 
#    z -0.008990 0.000000 1.965550 
# 
# From -- ./inp_files/116184.got.cif
#   From: 2010.05.17/outbox.cif.g08.bks.cpg/sg12_59_cif.got.tgz:116184.got - 2010.06.03 13:09:07.
