data_PCOD9209554
_publ_section_title
;
Structure prediction by ZEFSAII (Michael W. Deem and Ramdas Pophale) SiO2 
 PCOD9209554
Probable space group: C 2/M
;
_chemical_formula_sum "Si O2"
_cell_formula_units_Z 36
_cell_length_a 14.138258
_cell_length_b 23.297149
_cell_length_c 13.760029
_cell_angle_alpha 90.000000
_cell_angle_beta 160.432137
_cell_angle_gamma 90.000000
_cell_volume 1517.969892
_symmetry_space_group_name_H-M "C 2/M"
_symmetry_group_IT_number 12
_symmetry_cell_setting 'monoclinic'
loop_
_space_group_symop_operation_xyz
x,y,z
-x,y,-z
-x,-y,-z
x,-y,z
1/2+x,1/2+y,z
1/2-x,1/2+y,-z
1/2-x,1/2-y,-z
1/2+x,1/2-y,z
loop_
_atom_site_type_symbol
_atom_site_label
_atom_site_fract_x
_atom_site_fract_y
_atom_site_fract_z
Si Si1 0.551016 0.565697 0.200255
Si Si2 0.000000 0.154527 0.000000
Si Si3 0.607403 0.228452 0.763250
Si Si4 0.782642 0.843022 0.217519
Si Si5 0.992570 0.384009 0.740887
O O1 0.578135 0.500000 0.198040
O O2 0.663779 0.609957 0.228420
O O3 0.716487 0.577990 0.460809
O O4 0.228731 0.584286 0.904764
O O5 0.191060 0.195098 0.117416
O O6 0.532775 0.288010 0.639501
O O7 0.750000 0.250000 0.000000
O O8 0.089163 0.321579 0.383940
O O9 0.000000 0.875196 0.500000
O O10 0.500000 0.823675 0.000000
O O11 0.644889 0.874454 0.991222
#
# Coordination Sequence:
#
# PCOD9209554 Si02
#       5
#     8   4   8   8   8
#     4  11  23  41  65  89 124 167 213 267 321 367
#     4  10  21  38  62  96 130 164 215 256 308 388
#     4   9  20  36  58  91 130 170 203 249 312 380
#     4  11  22  37  63  91 127 167 210 255 315 383
#     4  10  23  40  61  91 127 165 211 264 317 376
#
# _framework density 23.715886999999999
#
# number of rings (size 3 to 8) (size 9 to 14) (size 15 to 20)
#    0.000    1.778    1.111    2.333    3.111    2.667 
#    0.000   14.444    0.000   13.333    0.000    0.000 
#    0.000    0.000    0.000    0.000    0.000    0.000 
#
# Total GULP energy -100426.449814 kJ/mol
# GULP energy per Si atom -5579.247212 kJ/mol
# Density = 2.366191 g / cm^3
# Si number density = 23.715887 Si / 1000 Ang^3
#
#
#
# Elastic Constant Matrix: (Units=GPa)
#
#
# Indices 1 2 3 4 5 6 
#
# 1 105.2005 31.8500 21.5202 -0.0025 -12.5040 -0.0031
# 2 31.8500 90.4536 17.5320 0.0006 -13.6714 -0.0002
# 3 21.5202 17.5320 103.6965 0.0148 -17.7357 -0.0083
# 4 -0.0025 0.0006 0.0148 23.8123 0.0019 -5.6631
# 5 -12.5040 -13.6714 -17.7357 0.0019 47.6350 -0.0035
# 6 -0.0031 -0.0002 -0.0083 -5.6631 -0.0035 12.5244
#
#
#
# Elastic Compliance Matrix: (Units=1/GPa)
#
#
# Indices 1 2 3 4 5 6 
#
# 1 0.010993 -0.003378 -0.001477 0.000003 0.001366 0.000003
# 2 -0.003378 0.012812 -0.001055 0.000000 0.002397 -0.000001
# 3 -0.001477 -0.001055 0.010691 -0.000006 0.003290 0.000005
# 4 0.000003 0.000000 -0.000006 0.047055 -0.000002 0.021277
# 5 0.001366 0.002397 0.003290 -0.000002 0.023265 0.000008
# 6 0.000003 -0.000001 0.000005 0.021277 0.000008 0.089464
#
#
# Mechanical properties :
#
#
# Convention : Reuss Voigt Hill
#
# Bulk Modulus (GPa) = 44.09858 49.01724 46.55791
# Shear Modulus (GPa) = 23.40190 32.02424 27.71307
#
# Velocity S-wave (km/s) = 3.14468 3.67867 3.42211
# Velocity P-wave (km/s) = 5.64095 6.22550 5.94042
#
# Compressibility (1/GPa) = 0.02267646
#
# Stress axis : x y z
#
# Youngs Moduli (GPa) = 90.96849 78.05378 93.53612
#
# Poissons Ratio (x) = 0.26367 0.13811
# Poissons Ratio (y) = 0.30729 0.09868
# Poissons Ratio (z) = 0.13432 0.08235
#
# Static dielectric constant tensor:
#      x y z
#    x 2.013110 0.000000 0.006770 
#    y 0.000000 1.901210 0.000000 
#    z 0.006770 0.000000 1.933930 
# 
# From -- ./inp_files/218619.got.cif
#   From: 2010.05.17/outbox.cif.g08.bks.cpg/sg12_110_cif.got.tgz:218619.got - 2010.06.03 13:09:07.
