data_PCOD9209254
_publ_section_title
;
Structure prediction by ZEFSAII (Michael W. Deem and Ramdas Pophale) SiO2 
 PCOD9209254
Probable space group: C 2/M
;
_chemical_formula_sum "Si O2"
_cell_formula_units_Z 60
_cell_length_a 23.120337
_cell_length_b 9.587286
_cell_length_c 12.013765
_cell_angle_alpha 90.000000
_cell_angle_beta 99.988783
_cell_angle_gamma 90.000000
_cell_volume 2622.620297
_symmetry_space_group_name_H-M "C 2/M"
_symmetry_group_IT_number 12
_symmetry_cell_setting 'monoclinic'
loop_
_space_group_symop_operation_xyz
x,y,z
-x,y,-z
-x,-y,-z
x,-y,z
1/2+x,1/2+y,z
1/2-x,1/2+y,-z
1/2-x,1/2-y,-z
1/2+x,1/2-y,z
loop_
_atom_site_type_symbol
_atom_site_label
_atom_site_fract_x
_atom_site_fract_y
_atom_site_fract_z
Si Si1 0.916203 0.337709 0.710810
Si Si2 0.607441 0.339019 0.505641
Si Si3 0.449769 0.160505 0.330469
Si Si4 0.272664 0.000000 0.024370
Si Si5 0.741949 0.776482 0.143672
Si Si6 0.434939 0.660126 0.932493
Si Si7 0.239564 0.160074 0.605538
Si Si8 0.376033 0.347838 0.148704
O O1 0.898299 0.500000 0.707608
O O2 0.884397 0.246735 0.605517
O O3 0.914430 0.262356 0.828943
O O4 0.984607 0.333352 0.694509
O O5 0.591350 0.500000 0.478596
O O6 0.561620 0.257212 0.567162
O O7 0.668688 0.337992 0.593560
O O8 0.406601 0.221047 0.221942
O O9 0.435783 0.000000 0.353755
O O10 0.247601 0.877820 0.099815
O O11 0.296323 0.877245 0.945809
O O12 0.731535 0.785105 0.271492
O O13 0.806700 0.845372 0.144788
O O14 0.438605 0.500000 0.890790
O O15 0.500000 0.697411 0.000000
O O16 0.392953 0.659427 0.025293
O O17 0.250000 0.250000 0.500000
O O18 0.257212 0.000000 0.593629
O O19 0.398778 0.500000 0.197276
#
# Coordination Sequence:
#
# PCOD9209254 Si02
#       8
#     8   8   8   4   8   8   8   8
#     4  11  24  42  59  92 136 171 210 267 316 377
#     4  11  24  43  66  93 123 169 219 263 317 375
#     4  11  23  37  64  94 128 165 210 263 316 373
#     4  10  24  42  72  98 128 166 206 276 332 384
#     4  11  22  46  67  99 131 163 217 269 329 396
#     4  10  21  38  61  90 125 168 212 253 312 376
#     4  11  25  45  69  97 132 172 216 270 329 395
#     4  11  21  38  65  93 125 165 210 260 308 377
#
# _framework density 22.877880999999999
#
# number of rings (size 3 to 8) (size 9 to 14) (size 15 to 20)
#    0.000    1.200    4.000    1.600    1.867    5.067 
#    4.800    0.000    0.000    0.000    0.000    0.000 
#    0.000    0.000    0.000    0.000    0.000    0.000 
#
# Total GULP energy -167406.599978 kJ/mol
# GULP energy per Si atom -5580.219999 kJ/mol
# Density = 2.282581 g / cm^3
# Si number density = 22.877881 Si / 1000 Ang^3
#
#
#
# Elastic Constant Matrix: (Units=GPa)
#
#
# Indices 1 2 3 4 5 6 
#
# 1 57.5527 5.4000 -3.3863 0.0000 -2.5897 0.0000
# 2 5.4000 208.2712 84.3419 0.0000 -6.3289 0.0000
# 3 -3.3863 84.3419 145.5523 0.0000 -23.5192 0.0000
# 4 0.0000 0.0000 0.0000 61.2755 0.0000 11.1512
# 5 -2.5897 -6.3289 -23.5192 0.0000 34.1107 0.0000
# 6 0.0000 0.0000 0.0000 11.1512 0.0000 32.7950
#
#
#
# Elastic Compliance Matrix: (Units=1/GPa)
#
#
# Indices 1 2 3 4 5 6 
#
# 1 0.017627 -0.000908 0.001266 0.000000 0.002043 0.000000
# 2 -0.000908 0.006390 -0.003988 0.000000 -0.001633 0.000000
# 3 0.001266 -0.003988 0.010248 0.000000 0.006422 0.000000
# 4 0.000000 0.000000 0.000000 0.017396 0.000000 -0.005915
# 5 0.002043 -0.001633 0.006422 0.000000 0.033597 0.000000
# 6 0.000000 0.000000 0.000000 -0.005915 0.000000 0.032504
#
#
# Mechanical properties :
#
#
# Convention : Reuss Voigt Hill
#
# Bulk Modulus (GPa) = 37.02764 64.89861 50.96312
# Shear Modulus (GPa) = 37.30686 47.30428 42.30557
#
# Velocity S-wave (km/s) = 4.04257 4.55211 4.30489
# Velocity P-wave (km/s) = 6.16521 7.48719 6.85813
#
# Compressibility (1/GPa) = 0.02700685
#
# Stress axis : x y z
#
# Youngs Moduli (GPa) = 56.73128 156.48732 97.57563
#
# Poissons Ratio (x) = 0.14204 -0.12355
# Poissons Ratio (y) = 0.05149 0.38912
# Poissons Ratio (z) = -0.07183 0.62406
#
# Static dielectric constant tensor:
#      x y z
#    x 1.927040 0.000000 0.040420 
#    y 0.000000 1.803920 0.000000 
#    z 0.040420 0.000000 1.877190 
# 
# From -- ./inp_files/186777.got.cif
#   From: 2010.05.17/outbox.cif.g08.bks.cpg/sg12_94_cif.got.tgz:186777.got - 2010.06.03 13:09:07.
