data_PCOD9209346
_publ_section_title
;
Structure prediction by ZEFSAII (Michael W. Deem and Ramdas Pophale) SiO2 
 PCOD9209346
Probable space group: C 2/M
;
_chemical_formula_sum "Si O2"
_cell_formula_units_Z 56
_cell_length_a 25.196729
_cell_length_b 22.433999
_cell_length_c 8.651389
_cell_angle_alpha 90.000000
_cell_angle_beta 33.295156
_cell_angle_gamma 90.000000
_cell_volume 2684.548129
_symmetry_space_group_name_H-M "C 2/M"
_symmetry_group_IT_number 12
_symmetry_cell_setting 'monoclinic'
loop_
_space_group_symop_operation_xyz
x,y,z
-x,y,-z
-x,-y,-z
x,-y,z
1/2+x,1/2+y,z
1/2-x,1/2+y,-z
1/2-x,1/2-y,-z
1/2+x,1/2-y,z
loop_
_atom_site_type_symbol
_atom_site_label
_atom_site_fract_x
_atom_site_fract_y
_atom_site_fract_z
Si Si1 0.610526 0.761195 0.015311
Si Si2 0.240336 0.068270 0.374068
Si Si3 0.780002 0.849650 0.155255
Si Si4 0.576920 0.571036 0.028798
Si Si5 0.454872 0.685687 0.278114
Si Si6 0.250187 0.171932 0.124767
Si Si7 0.891201 0.369529 0.219052
O O1 0.679214 0.703170 0.834506
O O2 0.652276 0.795503 0.061904
O O3 0.612354 0.808331 0.871526
O O4 0.506320 0.730611 0.271780
O O5 0.144593 0.081540 0.711516
O O6 0.251754 0.106279 0.192618
O O7 0.332271 0.083760 0.257518
O O8 0.235847 0.000000 0.346907
O O9 0.852962 0.904987 0.005236
O O10 0.673258 0.863989 0.471533
O O11 0.775432 0.828461 0.991241
O O12 0.554700 0.500000 0.091461
O O13 0.487581 0.617598 0.240510
O O14 0.341765 0.698312 0.559236
O O15 0.500000 0.697379 0.000000
O O16 0.000000 0.384183 0.000000
#
# Coordination Sequence:
#
# PCOD9209346 Si02
#       7
#     8   8   8   8   8   8   8
#     4  10  23  38  57  81 118 154 194 235 280 346
#     4   9  19  38  61  85 116 153 193 238 288 343
#     4  10  22  39  57  84 120 154 189 241 298 336
#     4   9  19  37  59  85 117 152 196 238 278 347
#     4  11  22  36  60  88 113 158 198 234 283 347
#     4  11  23  39  57  86 123 153 190 240 296 340
#     4  10  21  38  62  86 110 153 202 239 282 344
#
# _framework density 20.860120999999999
#
# number of rings (size 3 to 8) (size 9 to 14) (size 15 to 20)
#    0.000    2.000    1.429    1.286    6.000    4.000 
#    2.571    2.857    0.000    0.857    0.000    0.000 
#    0.000    0.000    0.000    0.000    0.000    0.000 
#
# Total GULP energy -156330.114042 kJ/mol
# GULP energy per Si atom -5583.218359 kJ/mol
# Density = 2.081264 g / cm^3
# Si number density = 20.860121 Si / 1000 Ang^3
#
#
#
# Elastic Constant Matrix: (Units=GPa)
#
#
# Indices 1 2 3 4 5 6 
#
# 1 78.6074 19.7145 17.5438 0.0000 -2.8382 0.0000
# 2 19.7145 84.2228 -15.3107 0.0000 0.6112 0.0000
# 3 17.5438 -15.3107 19.6344 0.0000 -4.4827 0.0000
# 4 0.0000 0.0000 0.0000 10.3131 0.0000 -1.3247
# 5 -2.8382 0.6112 -4.4827 0.0000 25.5214 0.0000
# 6 0.0000 0.0000 0.0000 -1.3247 0.0000 14.2753
#
#
#
# Elastic Compliance Matrix: (Units=1/GPa)
#
#
# Indices 1 2 3 4 5 6 
#
# 1 0.021165 -0.009865 -0.027100 0.000000 -0.002170 0.000000
# 2 -0.009865 0.018498 0.023843 0.000000 0.002648 0.000000
# 3 -0.027100 0.023843 0.096802 0.000000 0.013418 0.000000
# 4 0.000000 0.000000 0.000000 0.098133 0.000000 0.009106
# 5 -0.002170 0.002648 0.013418 0.000000 0.041235 0.000000
# 6 0.000000 0.000000 0.000000 0.009106 0.000000 0.070896
#
#
# Mechanical properties :
#
#
# Convention : Reuss Voigt Hill
#
# Bulk Modulus (GPa) = 9.07261 25.15109 17.11185
# Shear Modulus (GPa) = 12.20368 20.72309 16.46339
#
# Velocity S-wave (km/s) = 2.42135 3.15529 2.81237
# Velocity P-wave (km/s) = 3.48941 5.03564 4.33207
#
# Compressibility (1/GPa) = 0.11022187
#
# Stress axis : x y z
#
# Youngs Moduli (GPa) = 47.24682 54.06086 10.33041
#
# Poissons Ratio (x) = 0.53331 0.27995
# Poissons Ratio (y) = 0.46609 -0.24631
# Poissons Ratio (z) = 1.28038 -1.28900
#
# Static dielectric constant tensor:
#      x y z
#    x 1.762930 0.000000 -0.005780 
#    y 0.000000 1.762110 0.000000 
#    z -0.005780 0.000000 1.728400 
# 
# From -- ./inp_files/99620.got.cif
#   From: 2010.05.17/outbox.cif.g08.bks.cpg/sg12_50_cif.got.tgz:99620.got - 2010.06.03 13:09:07.
