data_PCOD9209402
_publ_section_title
;
Structure prediction by ZEFSAII (Michael W. Deem and Ramdas Pophale) SiO2 
 PCOD9209402
Probable space group: C 2/M
;
_chemical_formula_sum "Si O2"
_cell_formula_units_Z 44
_cell_length_a 9.351115
_cell_length_b 12.908744
_cell_length_c 16.140085
_cell_angle_alpha 90.000000
_cell_angle_beta 104.637015
_cell_angle_gamma 90.000000
_cell_volume 1885.058710
_symmetry_space_group_name_H-M "C 2/M"
_symmetry_group_IT_number 12
_symmetry_cell_setting 'monoclinic'
loop_
_space_group_symop_operation_xyz
x,y,z
-x,y,-z
-x,-y,-z
x,-y,z
1/2+x,1/2+y,z
1/2-x,1/2+y,-z
1/2-x,1/2-y,-z
1/2+x,1/2-y,z
loop_
_atom_site_type_symbol
_atom_site_label
_atom_site_fract_x
_atom_site_fract_y
_atom_site_fract_z
Si Si1 0.541068 0.118195 0.910866
Si Si2 0.802492 0.306164 0.617438
Si Si3 0.571218 0.379573 0.259235
Si Si4 0.500000 0.238470 0.500000
Si Si5 0.861946 0.120871 0.926141
Si Si6 0.739863 0.884417 0.218429
O O1 0.700809 0.167567 0.921204
O O2 0.397592 0.167352 0.847443
O O3 0.550181 0.000000 0.876614
O O4 0.500000 0.109263 0.000000
O O5 0.833549 0.195407 0.668030
O O6 0.639592 0.303404 0.553949
O O7 0.804771 0.385797 0.692521
O O8 0.926324 0.322333 0.565766
O O9 0.573900 0.500000 0.289096
O O10 0.614720 0.382198 0.169052
O O11 0.402583 0.337586 0.238051
O O12 0.850628 0.000000 0.953385
O O13 0.000000 0.163636 0.000000
O O14 0.757827 0.000000 0.184826
#
# Coordination Sequence:
#
# PCOD9209402 Si02
#       6
#     8   8   8   4   8   8
#     4   9  17  30  52  84 122 160 198 239 284 337
#     4  11  22  44  63  90 116 156 189 250 298 363
#     4  10  21  38  62  89 120 159 199 238 290 352
#     4  10  24  42  66  84 120 152 192 240 316 358
#     4   9  17  30  52  84 122 160 198 239 284 337
#     4  10  21  38  62  89 120 159 199 238 290 352
#
# _framework density 23.341448
#
# number of rings (size 3 to 8) (size 9 to 14) (size 15 to 20)
#    0.000    2.182    1.818    1.091    2.545    4.364 
#    0.000    6.364    0.000    4.364    0.000    0.000 
#    0.000    0.000    0.000    0.000    0.000    0.000 
#
# Total GULP energy -122890.133563 kJ/mol
# GULP energy per Si atom -5585.915162 kJ/mol
# Density = 2.328832 g / cm^3
# Si number density = 23.341448 Si / 1000 Ang^3
#
#
#
# Elastic Constant Matrix: (Units=GPa)
#
#
# Indices 1 2 3 4 5 6 
#
# 1 163.9656 8.0306 62.7098 0.0000 1.5679 0.0000
# 2 8.0306 89.4111 -4.3434 0.0000 19.2726 0.0000
# 3 62.7098 -4.3434 113.7004 0.0000 1.6194 0.0000
# 4 0.0000 0.0000 0.0000 22.6519 0.0000 2.2182
# 5 1.5679 19.2726 1.6194 0.0000 53.1103 0.0000
# 6 0.0000 0.0000 0.0000 2.2182 0.0000 22.8257
#
#
#
# Elastic Compliance Matrix: (Units=1/GPa)
#
#
# Indices 1 2 3 4 5 6 
#
# 1 0.007806 -0.000967 -0.004346 0.000000 0.000253 0.000000
# 2 -0.000967 0.012285 0.001066 0.000000 -0.004462 0.000000
# 3 -0.004346 0.001066 0.011241 0.000000 -0.000601 0.000000
# 4 0.000000 0.000000 0.000000 0.044571 0.000000 -0.004331
# 5 0.000253 -0.004462 -0.000601 0.000000 0.020459 0.000000
# 6 0.000000 0.000000 0.000000 -0.004331 0.000000 0.044231
#
#
# Mechanical properties :
#
#
# Convention : Reuss Voigt Hill
#
# Bulk Modulus (GPa) = 43.78520 55.54123 49.66322
# Shear Modulus (GPa) = 31.90856 39.76293 35.83575
#
# Velocity S-wave (km/s) = 3.70135 4.13187 3.92252
# Velocity P-wave (km/s) = 6.08818 6.82714 6.46822
#
# Compressibility (1/GPa) = 0.02283877
#
# Stress axis : x y z
#
# Youngs Moduli (GPa) = 128.10961 81.40244 88.95898
#
# Poissons Ratio (x) = 0.07869 0.38659
# Poissons Ratio (y) = 0.12384 -0.09483
# Poissons Ratio (z) = 0.55673 -0.08677
#
# Static dielectric constant tensor:
#      x y z
#    x 1.897180 0.000000 0.020600 
#    y 0.000000 1.927730 0.000000 
#    z 0.020600 0.000000 1.861900 
# 
# From -- ./inp_files/195567.got.cif
#   From: 2010.05.17/outbox.cif.g08.bks.cpg/sg12_98_cif.got.tgz:195567.got - 2010.06.03 13:09:07.
