data_PCOD9209439
_publ_section_title
;
Structure prediction by ZEFSAII (Michael W. Deem and Ramdas Pophale) SiO2 
 PCOD9209439
Probable space group: C 2/M
;
_chemical_formula_sum "Si O2"
_cell_formula_units_Z 32
_cell_length_a 12.044994
_cell_length_b 13.195255
_cell_length_c 7.487590
_cell_angle_alpha 90.000000
_cell_angle_beta 81.666661
_cell_angle_gamma 90.000000
_cell_volume 1177.488319
_symmetry_space_group_name_H-M "C 2/M"
_symmetry_group_IT_number 12
_symmetry_cell_setting 'monoclinic'
loop_
_space_group_symop_operation_xyz
x,y,z
-x,y,-z
-x,-y,-z
x,-y,z
1/2+x,1/2+y,z
1/2-x,1/2+y,-z
1/2-x,1/2-y,-z
1/2+x,1/2-y,z
loop_
_atom_site_type_symbol
_atom_site_label
_atom_site_fract_x
_atom_site_fract_y
_atom_site_fract_z
Si Si1 0.171796 0.833945 0.810107
Si Si2 0.945390 0.107099 0.707281
Si Si3 0.903403 0.337846 0.667275
Si Si4 0.652817 0.112285 0.941206
O O1 0.054347 0.885596 0.806834
O O2 0.273152 0.864039 0.650493
O O3 0.227792 0.869054 0.982334
O O4 0.144806 0.713398 0.823710
O O5 0.000000 0.102207 0.500000
O O6 0.892845 0.218286 0.709615
O O7 0.885358 0.000000 0.745448
O O8 0.924965 0.383477 0.860112
O O9 0.000000 0.359014 0.500000
O O10 0.645487 0.000000 0.864992
#
# Coordination Sequence:
#
# PCOD9209439 Si02
#       4
#     8   8   8   8
#     4   9  20  39  61  91 126 166 203 258 312 366
#     4  10  21  38  62  90 123 165 210 258 311 370
#     4   9  20  37  59  94 128 157 205 260 311 370
#     4   9  19  39  62  88 125 170 207 247 317 377
#
# _framework density 27.176493000000001
#
# number of rings (size 3 to 8) (size 9 to 14) (size 15 to 20)
#    1.500    1.250    0.000    0.750    0.000    6.500 
#    0.000    3.750    0.000    2.250    0.000    0.000 
#    0.000    0.000    0.000    0.000    0.000    0.000 
#
# Total GULP energy -89276.940958 kJ/mol
# GULP energy per Si atom -5579.808810 kJ/mol
# Density = 2.711464 g / cm^3
# Si number density = 27.176493 Si / 1000 Ang^3
#
#
#
# Elastic Constant Matrix: (Units=GPa)
#
#
# Indices 1 2 3 4 5 6 
#
# 1 62.3772 -20.9506 39.1395 0.0000 -30.5740 0.0000
# 2 -20.9506 180.6507 5.5487 0.0000 -8.1891 0.0000
# 3 39.1395 5.5487 94.3787 0.0000 -43.8493 0.0000
# 4 0.0000 0.0000 0.0000 34.5660 0.0000 -1.2541
# 5 -30.5740 -8.1891 -43.8493 0.0000 54.2359 0.0000
# 6 0.0000 0.0000 0.0000 -1.2541 0.0000 11.8898
#
#
#
# Elastic Compliance Matrix: (Units=1/GPa)
#
#
# Indices 1 2 3 4 5 6 
#
# 1 0.026286 0.003708 -0.006365 0.000000 0.010231 0.000000
# 2 0.003708 0.006097 -0.000796 0.000000 0.002367 0.000000
# 3 -0.006365 -0.000796 0.018513 0.000000 0.011259 0.000000
# 4 0.000000 0.000000 0.000000 0.029041 0.000000 0.003063
# 5 0.010231 0.002367 0.011259 0.000000 0.033666 0.000000
# 6 0.000000 0.000000 0.000000 0.003063 0.000000 0.084428
#
#
# Mechanical properties :
#
#
# Convention : Reuss Voigt Hill
#
# Bulk Modulus (GPa) = 22.73318 42.76465 32.74891
# Shear Modulus (GPa) = 22.76836 41.04962 31.90899
#
# Velocity S-wave (km/s) = 2.89761 3.89071 3.43029
# Velocity P-wave (km/s) = 4.42471 5.99613 5.26933
#
# Compressibility (1/GPa) = 0.04398856
#
# Stress axis : x y z
#
# Youngs Moduli (GPa) = 38.04357 164.00711 54.01492
#
# Poissons Ratio (x) = -0.60810 0.34382
# Poissons Ratio (y) = -0.14106 0.04302
# Poissons Ratio (z) = 0.24216 0.13062
#
# Static dielectric constant tensor:
#      x y z
#    x 2.237510 0.000000 -0.089660 
#    y 0.000000 2.058510 0.000000 
#    z -0.089660 0.000000 2.113220 
# 
# From -- ./inp_files/57888.got.cif
#   From: 2010.05.17/outbox.cif.g08.bks.cpg/sg12_29_cif.got.tgz:57888.got - 2010.06.03 13:09:07.
