data_PCOD9209531
_publ_section_title
;
Structure prediction by ZEFSAII (Michael W. Deem and Ramdas Pophale) SiO2 
 PCOD9209531
Probable space group: C 2/M
;
_chemical_formula_sum "Si O2"
_cell_formula_units_Z 64
_cell_length_a 31.185854
_cell_length_b 8.417064
_cell_length_c 19.154733
_cell_angle_alpha 90.000000
_cell_angle_beta 141.153894
_cell_angle_gamma 90.000000
_cell_volume 3153.709672
_symmetry_space_group_name_H-M "C 2/M"
_symmetry_group_IT_number 12
_symmetry_cell_setting 'monoclinic'
loop_
_space_group_symop_operation_xyz
x,y,z
-x,y,-z
-x,-y,-z
x,-y,z
1/2+x,1/2+y,z
1/2-x,1/2+y,-z
1/2-x,1/2-y,-z
1/2+x,1/2-y,z
loop_
_atom_site_type_symbol
_atom_site_label
_atom_site_fract_x
_atom_site_fract_y
_atom_site_fract_z
Si Si1 0.564580 0.690739 0.630625
Si Si2 0.403851 0.812449 0.777647
Si Si3 0.828519 0.185613 0.819212
Si Si4 0.315762 0.683647 0.546423
Si Si5 0.942481 0.308589 0.065830
Si Si6 0.313437 0.319574 0.301217
Si Si7 0.382298 0.824398 0.506687
Si Si8 0.035388 0.684467 0.746655
O O1 0.500000 0.749844 0.500000
O O2 0.565504 0.500000 0.623332
O O3 0.639677 0.750641 0.701110
O O4 0.557210 0.730345 0.702946
O O5 0.359800 0.774771 0.790982
O O6 0.375481 0.708962 0.678041
O O7 0.485255 0.781301 0.882358
O O8 0.395446 0.000000 0.750431
O O9 0.753876 0.236871 0.753166
O O10 0.826670 0.000000 0.799913
O O11 0.882107 0.222890 0.948678
O O12 0.310136 0.500000 0.518654
O O13 0.250000 0.750000 0.500000
O O14 0.326138 0.794890 0.493385
O O15 0.931603 0.500000 0.050756
O O16 0.945858 0.258488 0.151778
O O17 0.294034 0.500000 0.260316
O O18 0.370091 0.309407 0.434400
O O19 0.453440 0.811873 0.636473
O O20 0.377592 0.000000 0.468673
O O21 0.057114 0.500000 0.769397
#
# Coordination Sequence:
#
# PCOD9209531 Si02
#       8
#     8   8   8   8   8   8   8   8
#     4  10  21  38  62  94 126 157 201 250 304 367
#     4  11  22  41  65  89 121 161 207 253 304 364
#     4  12  26  42  61  91 124 160 209 259 305 359
#     4  12  24  37  55  83 122 164 204 250 303 362
#     4  10  22  43  66  90 121 163 208 251 303 364
#     4  11  23  41  63  89 124 166 204 250 309 369
#     4  11  21  37  59  88 123 159 199 246 301 365
#     4  10  21  38  63  93 123 156 198 246 301 363
#
# _framework density 20.293561
#
# number of rings (size 3 to 8) (size 9 to 14) (size 15 to 20)
#    0.000    1.125    2.500    4.500    0.000    4.750 
#    0.000    0.625    0.000    0.000    0.000    0.000 
#    0.000    0.000    0.000    0.000    0.000    0.000 
#
# Total GULP energy -178569.241707 kJ/mol
# GULP energy per Si atom -5580.288803 kJ/mol
# Density = 2.024737 g / cm^3
# Si number density = 20.293561 Si / 1000 Ang^3
#
#
#
# Elastic Constant Matrix: (Units=GPa)
#
#
# Indices 1 2 3 4 5 6 
#
# 1 127.5415 11.7628 10.3059 0.0000 -2.6141 0.0000
# 2 11.7628 46.3601 10.5746 0.0000 6.4187 0.0000
# 3 10.3059 10.5746 40.8041 0.0000 4.6608 0.0000
# 4 0.0000 0.0000 0.0000 29.7306 0.0000 -1.5113
# 5 -2.6141 6.4187 4.6608 0.0000 24.1693 0.0000
# 6 0.0000 0.0000 0.0000 -1.5113 0.0000 25.5433
#
#
#
# Elastic Compliance Matrix: (Units=1/GPa)
#
#
# Indices 1 2 3 4 5 6 
#
# 1 0.008196 -0.001916 -0.001772 0.000000 0.001737 0.000000
# 2 -0.001916 0.023993 -0.005095 0.000000 -0.005597 0.000000
# 3 -0.001772 -0.005095 0.026731 0.000000 -0.003993 0.000000
# 4 0.000000 0.000000 0.000000 0.033737 0.000000 0.001996
# 5 0.001737 -0.005597 -0.003993 0.000000 0.043819 0.000000
# 6 0.000000 0.000000 0.000000 0.001996 0.000000 0.039267
#
#
# Mechanical properties :
#
#
# Convention : Reuss Voigt Hill
#
# Bulk Modulus (GPa) = 24.18059 31.11025 27.64542
# Shear Modulus (GPa) = 24.14357 28.02615 26.08486
#
# Velocity S-wave (km/s) = 3.45297 3.72026 3.58910
# Velocity P-wave (km/s) = 5.27623 5.81525 5.55229
#
# Compressibility (1/GPa) = 0.04135548
#
# Stress axis : x y z
#
# Youngs Moduli (GPa) = 122.00975 41.67817 37.40921
#
# Poissons Ratio (x) = 0.07985 0.06629
# Poissons Ratio (y) = 0.23376 0.19059
# Poissons Ratio (z) = 0.21620 0.21234
#
# Static dielectric constant tensor:
#      x y z
#    x 1.749540 0.000000 -0.006430 
#    y 0.000000 1.706700 0.000000 
#    z -0.006430 0.000000 1.733730 
# 
# From -- ./inp_files/295671.got.cif
#   From: 2010.05.17/outbox.cif.g08.bks.cpg/sg12_148_cif.got.tgz:295671.got - 2010.06.03 13:09:07.
