data_PCOD9209552
_publ_section_title
;
Structure prediction by ZEFSAII (Michael W. Deem and Ramdas Pophale) SiO2 
 PCOD9209552
Probable space group: C 2/M
;
_chemical_formula_sum "Si O2"
_cell_formula_units_Z 48
_cell_length_a 12.191236
_cell_length_b 18.173261
_cell_length_c 11.721280
_cell_angle_alpha 90.000000
_cell_angle_beta 111.822666
_cell_angle_gamma 90.000000
_cell_volume 2410.805452
_symmetry_space_group_name_H-M "C 2/M"
_symmetry_group_IT_number 12
_symmetry_cell_setting 'monoclinic'
loop_
_space_group_symop_operation_xyz
x,y,z
-x,y,-z
-x,-y,-z
x,-y,z
1/2+x,1/2+y,z
1/2-x,1/2+y,-z
1/2-x,1/2-y,-z
1/2+x,1/2-y,z
loop_
_atom_site_type_symbol
_atom_site_label
_atom_site_fract_x
_atom_site_fract_y
_atom_site_fract_z
Si Si1 0.098813 0.327362 0.738619
Si Si2 0.993239 0.912155 0.364188
Si Si3 0.667118 0.193381 0.395712
Si Si4 0.383681 0.916904 0.032204
Si Si5 0.241955 0.413377 0.600334
Si Si6 0.723992 0.319285 0.810633
O O1 0.171962 0.365383 0.665483
O O2 0.172918 0.260455 0.820152
O O3 0.973278 0.295578 0.646923
O O4 0.081480 0.387439 0.830137
O O5 0.117859 0.897729 0.349992
O O6 0.000000 0.889669 0.500000
O O7 0.886508 0.870119 0.265505
O O8 0.973598 0.000000 0.354664
O O9 0.750000 0.250000 0.500000
O O10 0.694660 0.113482 0.459684
O O11 0.700859 0.193118 0.276221
O O12 0.295920 0.860736 0.935754
O O13 0.334479 0.000000 0.020018
O O14 0.500000 0.919022 0.000000
O O15 0.223992 0.500000 0.611245
#
# Coordination Sequence:
#
# PCOD9209552 Si02
#       6
#     8   8   8   8   8   8
#     4  12  26  43  67  96 137 175 221 279 336 394
#     4  10  21  38  62  95 133 173 218 269 329 400
#     4  12  24  41  64 101 137 174 216 273 335 400
#     4  11  25  47  69  95 130 176 231 279 327 393
#     4  11  24  40  63  98 138 177 219 271 337 400
#     4  12  24  41  71  95 132 172 227 273 333 396
#
# _framework density 19.910357999999999
#
# number of rings (size 3 to 8) (size 9 to 14) (size 15 to 20)
#    0.000    0.667    5.000    3.000    0.000    2.667 
#    0.000    0.833    0.000    3.000    0.000    0.000 
#    0.000    0.000    0.000    0.000    0.000    0.000 
#
# Total GULP energy -134187.860522 kJ/mol
# GULP energy per Si atom -5591.160855 kJ/mol
# Density = 1.986504 g / cm^3
# Si number density = 19.910358 Si / 1000 Ang^3
#
#
#
# Elastic Constant Matrix: (Units=GPa)
#
#
# Indices 1 2 3 4 5 6 
#
# 1 108.7722 49.6257 26.5746 0.0000 1.3699 0.0000
# 2 49.6257 89.9277 26.7466 0.0000 11.3326 0.0000
# 3 26.5746 26.7466 63.5748 0.0000 1.4703 0.0000
# 4 0.0000 0.0000 0.0000 33.1157 0.0000 3.1581
# 5 1.3699 11.3326 1.4703 0.0000 31.3593 0.0000
# 6 0.0000 0.0000 0.0000 3.1581 0.0000 21.3060
#
#
#
# Elastic Compliance Matrix: (Units=1/GPa)
#
#
# Indices 1 2 3 4 5 6 
#
# 1 0.012787 -0.006510 -0.002651 0.000000 0.001918 0.000000
# 2 -0.006510 0.016645 -0.004154 0.000000 -0.005536 0.000000
# 3 -0.002651 -0.004154 0.018568 0.000000 0.000746 0.000000
# 4 0.000000 0.000000 0.000000 0.030630 0.000000 -0.004540
# 5 0.001918 -0.005536 0.000746 0.000000 0.033770 0.000000
# 6 0.000000 0.000000 0.000000 -0.004540 0.000000 0.047608
#
#
# Mechanical properties :
#
#
# Convention : Reuss Voigt Hill
#
# Bulk Modulus (GPa) = 46.79054 52.01872 49.40463
# Shear Modulus (GPa) = 25.80498 27.77804 26.79151
#
# Velocity S-wave (km/s) = 3.60399 3.73923 3.67223
# Velocity P-wave (km/s) = 6.39296 6.69519 6.54582
#
# Compressibility (1/GPa) = 0.02137184
#
# Stress axis : x y z
#
# Youngs Moduli (GPa) = 78.20505 60.07646 53.85674
#
# Poissons Ratio (x) = 0.39108 0.14276
# Poissons Ratio (y) = 0.50909 0.22371
# Poissons Ratio (z) = 0.20729 0.24955
#
# Static dielectric constant tensor:
#      x y z
#    x 1.714810 0.000000 0.000940 
#    y 0.000000 1.716380 0.000000 
#    z 0.000940 0.000000 1.673840 
# 
# From -- ./inp_files/131738.got.cif
#   From: 2010.05.17/outbox.cif.g08.bks.cpg/sg12_66_cif.got.tgz:131738.got - 2010.06.03 13:09:07.
