data_PCOD9209695
_publ_section_title
;
Structure prediction by ZEFSAII (Michael W. Deem and Ramdas Pophale) SiO2 
 PCOD9209695
Probable space group: C 2/M
;
_chemical_formula_sum "Si O2"
_cell_formula_units_Z 60
_cell_length_a 24.852385
_cell_length_b 24.267018
_cell_length_c 13.591179
_cell_angle_alpha 90.000000
_cell_angle_beta 159.869964
_cell_angle_gamma 90.000000
_cell_volume 2820.926996
_symmetry_space_group_name_H-M "C 2/M"
_symmetry_group_IT_number 12
_symmetry_cell_setting 'monoclinic'
loop_
_space_group_symop_operation_xyz
x,y,z
-x,y,-z
-x,-y,-z
x,-y,z
1/2+x,1/2+y,z
1/2-x,1/2+y,-z
1/2-x,1/2-y,-z
1/2+x,1/2-y,z
loop_
_atom_site_type_symbol
_atom_site_label
_atom_site_fract_x
_atom_site_fract_y
_atom_site_fract_z
Si Si1 0.299488 0.936451 0.714138
Si Si2 0.547139 0.939137 0.808213
Si Si3 0.313595 0.196195 0.161645
Si Si4 0.659128 0.262270 0.245278
Si Si5 0.216643 0.650515 0.679823
Si Si6 0.668964 0.413459 0.840986
Si Si7 0.934698 0.061761 0.115239
Si Si8 0.500000 0.843576 0.000000
O O1 0.361402 0.888775 0.747073
O O2 0.119765 0.928304 0.435465
O O3 0.317401 0.000000 0.708942
O O4 0.396650 0.931195 0.982866
O O5 0.436827 0.888167 0.587463
O O6 0.470028 0.000000 0.668030
O O7 0.699829 0.941872 0.000594
O O8 0.500000 0.196989 0.500000
O O9 0.253492 0.182356 0.166997
O O10 0.250000 0.250000 0.000000
O O11 0.242778 0.146998 0.976088
O O12 0.750000 0.250000 0.500000
O O13 0.771882 0.300591 0.377285
O O14 0.590569 0.202981 0.088290
O O15 0.500000 0.293832 0.000000
O O16 0.354841 0.606428 0.909265
O O17 0.500000 0.415466 0.500000
O O18 0.641684 0.433849 0.906319
O O19 0.910039 0.000000 0.036849
#
# Coordination Sequence:
#
# PCOD9209695 Si02
#       8
#     8   8   8   8   8   8   8   4
#     4  10  21  38  63  97 132 169 214 271 327 388
#     4  11  22  38  65  94 131 177 220 265 322 388
#     4  11  24  42  60  93 130 175 222 262 323 393
#     4  10  25  44  68  96 121 160 218 278 328 388
#     4  11  24  43  65  92 135 172 216 275 333 387
#     4  11  21  39  63  95 136 177 219 271 309 386
#     4  10  22  38  63  97 133 174 216 261 325 392
#     4  10  23  40  68  90 123 160 218 262 332 392
#
# _framework density 21.269604000000001
#
# number of rings (size 3 to 8) (size 9 to 14) (size 15 to 20)
#    0.400    1.067    2.667    2.200    1.867    2.667 
#    2.400    2.000    0.000    0.800    0.000    0.000 
#    0.000    0.000    0.000    0.000    0.000    0.000 
#
# Total GULP energy -167068.017517 kJ/mol
# GULP energy per Si atom -5568.933917 kJ/mol
# Density = 2.122119 g / cm^3
# Si number density = 21.269604 Si / 1000 Ang^3
#
#
#
# Elastic Constant Matrix: (Units=GPa)
#
#
# Indices 1 2 3 4 5 6 
#
# 1 50.0700 49.0978 22.3927 0.0000 10.2961 0.0000
# 2 49.0978 173.6131 46.6985 0.0000 8.1915 0.0000
# 3 22.3927 46.6985 88.7112 0.0000 11.9144 0.0000
# 4 0.0000 0.0000 0.0000 11.4791 0.0000 7.3044
# 5 10.2961 8.1915 11.9144 0.0000 32.6408 0.0000
# 6 0.0000 0.0000 0.0000 7.3044 0.0000 22.8808
#
#
#
# Elastic Compliance Matrix: (Units=1/GPa)
#
#
# Indices 1 2 3 4 5 6 
#
# 1 0.029777 -0.007371 -0.002759 0.000000 -0.006536 0.000000
# 2 -0.007371 0.008540 -0.002796 0.000000 0.001203 0.000000
# 3 -0.002759 -0.002796 0.013912 0.000000 -0.003506 0.000000
# 4 0.000000 0.000000 0.000000 0.109323 0.000000 -0.034900
# 5 -0.006536 0.001203 -0.003506 0.000000 0.033676 0.000000
# 6 0.000000 0.000000 0.000000 -0.034900 0.000000 0.054846
#
#
# Mechanical properties :
#
#
# Convention : Reuss Voigt Hill
#
# Bulk Modulus (GPa) = 37.91097 60.97470 49.44283
# Shear Modulus (GPa) = 17.56118 26.34714 21.95416
#
# Velocity S-wave (km/s) = 2.87652 3.52337 3.21625
# Velocity P-wave (km/s) = 5.37543 6.72918 6.09004
#
# Compressibility (1/GPa) = 0.02637759
#
# Stress axis : x y z
#
# Youngs Moduli (GPa) = 33.58252 117.09881 71.88120
#
# Poissons Ratio (x) = 0.86309 0.19829
# Poissons Ratio (y) = 0.24752 0.20101
# Poissons Ratio (z) = 0.09264 0.32746
#
# Static dielectric constant tensor:
#      x y z
#    x 1.842100 0.000000 0.033090 
#    y 0.000000 1.685170 0.000000 
#    z 0.033090 0.000000 1.768900 
# 
# From -- ./inp_files/247455.got.cif
#   From: 2010.05.17/outbox.cif.g08.bks.cpg/sg12_124_cif.got.tgz:247455.got - 2010.06.03 13:09:07.
