data_PCOD9209333
_publ_section_title
;
Structure prediction by ZEFSAII (Michael W. Deem and Ramdas Pophale) SiO2 
 PCOD9209333
Probable space group: C 2/M
;
_chemical_formula_sum "Si O2"
_cell_formula_units_Z 44
_cell_length_a 9.824525
_cell_length_b 19.171428
_cell_length_c 9.885455
_cell_angle_alpha 90.000000
_cell_angle_beta 72.886506
_cell_angle_gamma 90.000000
_cell_volume 1779.487990
_symmetry_space_group_name_H-M "C 2/M"
_symmetry_group_IT_number 12
_symmetry_cell_setting 'monoclinic'
loop_
_space_group_symop_operation_xyz
x,y,z
-x,y,-z
-x,-y,-z
x,-y,z
1/2+x,1/2+y,z
1/2-x,1/2+y,-z
1/2-x,1/2-y,-z
1/2+x,1/2-y,z
loop_
_atom_site_type_symbol
_atom_site_label
_atom_site_fract_x
_atom_site_fract_y
_atom_site_fract_z
Si Si1 0.201653 0.355123 0.528873
Si Si2 0.412806 0.209500 0.693982
Si Si3 0.663850 0.000000 0.403116
Si Si4 0.553688 0.500000 0.141005
Si Si5 0.137983 0.347381 0.023522
Si Si6 0.893908 0.859943 0.736206
Si Si7 0.153952 0.500000 0.088391
O O1 0.182260 0.298464 0.413129
O O2 0.218076 0.428324 0.448503
O O3 0.318222 0.361130 0.612072
O O4 0.045663 0.343597 0.643008
O O5 0.319547 0.189386 0.850194
O O6 0.475114 0.286473 0.702081
O O7 0.500000 0.000000 0.500000
O O8 0.693786 0.000000 0.234656
O O9 0.526213 0.429492 0.235071
O O10 0.500000 0.500000 0.000000
O O11 0.721859 0.500000 0.059903
O O12 0.086397 0.424871 0.084037
O O13 0.266699 0.350369 0.882079
O O14 0.000000 0.311212 0.000000
#
# Coordination Sequence:
#
# PCOD9209333 Si02
#       7
#     8   8   4   4   8   8   4
#     4  11  22  40  64  99 136 168 214 268 331 394
#     4  11  22  39  59  97 135 172 206 261 333 392
#     4  12  19  36  69  94 134 167 203 268 334 385
#     4  10  25  50  70  93 125 177 232 280 327 387
#     4  11  20  37  61  95 131 164 214 264 327 386
#     4  11  24  42  67  92 128 173 224 272 320 391
#     4  10  21  38  61  99 128 164 208 268 322 389
#
# _framework density 24.726212
#
# number of rings (size 3 to 8) (size 9 to 14) (size 15 to 20)
#    0.000    1.091    5.455    1.909    0.000    0.727 
#    6.545    1.818    0.000    3.273    0.000    0.000 
#    0.000    0.000    0.000    0.000    0.000    0.000 
#
# Total GULP energy -122842.936144 kJ/mol
# GULP energy per Si atom -5583.769825 kJ/mol
# Density = 2.466993 g / cm^3
# Si number density = 24.726212 Si / 1000 Ang^3
#
#
#
# Elastic Constant Matrix: (Units=GPa)
#
#
# Indices 1 2 3 4 5 6 
#
# 1 60.0631 18.0074 25.2798 0.0000 0.1006 0.0000
# 2 18.0074 173.1972 62.8363 0.0000 22.6561 0.0000
# 3 25.2798 62.8363 127.7078 0.0000 11.9520 0.0000
# 4 0.0000 0.0000 0.0000 -252.4899 0.0000 185.3971
# 5 0.1006 22.6561 11.9520 0.0000 41.1578 0.0000
# 6 0.0000 0.0000 0.0000 185.3971 0.0000 -118.2262
#
#
#
# Elastic Compliance Matrix: (Units=1/GPa)
#
#
# Indices 1 2 3 4 5 6 
#
# 1 0.018309 -0.000882 -0.003322 0.000000 0.001406 0.000000
# 2 -0.000882 0.007436 -0.003188 0.000000 -0.003165 0.000000
# 3 -0.003322 -0.003188 0.010168 0.000000 -0.001190 0.000000
# 4 0.000000 0.000000 0.000000 0.026150 0.000000 0.041007
# 5 0.001406 -0.003165 -0.001190 0.000000 0.026381 0.000000
# 6 0.000000 0.000000 0.000000 0.041007 0.000000 0.055847
#
#
# Mechanical properties :
#
#
# Convention : Reuss Voigt Hill
#
# Bulk Modulus (GPa) = 47.32754 63.69058 55.50906
# Shear Modulus (GPa) = 30.09906 -48.92204 -9.41149
#
# Velocity S-wave (km/s) = 3.49276 -4.45291 -1.95309
# Velocity P-wave (km/s) = 5.95382 0.78974 4.17279
#
# Compressibility (1/GPa) = 0.02112935
#
# Stress axis : x y z
#
# Youngs Moduli (GPa) = 54.61661 134.47790 98.34944
#
# Poissons Ratio (x) = 0.11866 0.32669
# Poissons Ratio (y) = 0.04819 0.31353
# Poissons Ratio (z) = 0.18142 0.42870
#
# Static dielectric constant tensor:
#      x y z
#    x 1.954280 0.000000 -0.019780 
#    y 0.000000 2.006660 0.000000 
#    z -0.019780 0.000000 1.820780 
# 
# From -- ./inp_files/49315.got.cif
#   From: 2010.05.17/outbox.cif.g08.bks.cpg/sg12_25_cif.got.tgz:49315.got - 2010.06.03 13:09:07.
