data_PCOD9209941
_publ_section_title
;
Structure prediction by ZEFSAII (Michael W. Deem and Ramdas Pophale) SiO2 
 PCOD9209941
Probable space group: C 2/M
;
_chemical_formula_sum "Si O2"
_cell_formula_units_Z 56
_cell_length_a 14.729093
_cell_length_b 22.820194
_cell_length_c 14.544583
_cell_angle_alpha 90.000000
_cell_angle_beta 31.129293
_cell_angle_gamma 90.000000
_cell_volume 2527.335063
_symmetry_space_group_name_H-M "C 2/M"
_symmetry_group_IT_number 12
_symmetry_cell_setting 'monoclinic'
loop_
_space_group_symop_operation_xyz
x,y,z
-x,y,-z
-x,-y,-z
x,-y,z
1/2+x,1/2+y,z
1/2-x,1/2+y,-z
1/2-x,1/2-y,-z
1/2+x,1/2-y,z
loop_
_atom_site_type_symbol
_atom_site_label
_atom_site_fract_x
_atom_site_fract_y
_atom_site_fract_z
Si Si1 0.017660 0.594262 0.583882
Si Si2 0.289146 0.933230 0.402576
Si Si3 0.507561 0.745087 0.784557
Si Si4 0.639287 0.432404 0.954469
Si Si5 0.441521 0.386054 0.786761
Si Si6 0.400157 0.773944 0.496777
Si Si7 0.931600 0.356625 0.955798
O O1 0.124879 0.563684 0.570571
O O2 0.112792 0.656022 0.482779
O O3 0.000000 0.565046 0.500000
O O4 0.820110 0.603110 0.791957
O O5 0.423086 0.893483 0.227548
O O6 0.103550 0.900866 0.579759
O O7 0.270205 0.000000 0.383788
O O8 0.463469 0.676779 0.818455
O O9 0.498791 0.763908 0.685821
O O10 0.707683 0.751410 0.647337
O O11 0.406920 0.791689 0.933829
O O12 0.682224 0.500000 0.894807
O O13 0.500000 0.411132 0.000000
O O14 0.564928 0.429795 0.121506
O O15 0.257659 0.386900 0.892303
O O16 0.500000 0.750796 0.500000
O O17 0.000000 0.352615 0.000000
#
# Coordination Sequence:
#
# PCOD9209941 Si02
#       7
#     8   8   8   8   8   8   8
#     4  11  21  40  66 101 142 184 226 282 346 422
#     4  12  25  47  74 102 141 187 233 295 357 412
#     4  11  22  45  67 102 142 181 230 284 350 419
#     4  11  24  40  64 102 146 187 234 288 350 426
#     4  12  25  46  73 105 143 181 235 291 354 426
#     4  10  21  38  69 103 138 178 227 281 345 420
#     4  12  29  50  72 104 138 187 245 296 350 417
#
# _framework density 22.157727000000001
#
# number of rings (size 3 to 8) (size 9 to 14) (size 15 to 20)
#    0.000    0.714    4.286    3.000    4.000    4.286 
#    0.000    0.714    0.000    0.000    0.000    0.000 
#    0.000    0.000    0.000    0.000    0.000    0.000 
#
# Total GULP energy -156574.165750 kJ/mol
# GULP energy per Si atom -5591.934491 kJ/mol
# Density = 2.210729 g / cm^3
# Si number density = 22.157727 Si / 1000 Ang^3
#
#
#
# Elastic Constant Matrix: (Units=GPa)
#
#
# Indices 1 2 3 4 5 6 
#
# 1 147.2458 13.7126 45.4269 -0.0628 -3.2402 0.0061
# 2 13.7126 92.8176 26.1621 -0.1816 -2.2385 0.0314
# 3 45.4269 26.1621 119.9438 -0.0916 -23.1719 0.0136
# 4 -0.0628 -0.1816 -0.0916 -91.7311 0.1005 17.1942
# 5 -3.2402 -2.2385 -23.1719 0.1005 35.0132 -0.0101
# 6 0.0061 0.0314 0.0136 17.1942 -0.0101 10.3128
#
#
#
# Elastic Compliance Matrix: (Units=1/GPa)
#
#
# Indices 1 2 3 4 5 6 
#
# 1 0.007757 -0.000294 -0.003140 -0.000002 -0.001379 0.000003
# 2 -0.000294 0.011525 -0.002597 -0.000021 -0.001009 0.000002
# 3 -0.003140 -0.002597 0.011472 0.000003 0.007135 -0.000003
# 4 -0.000002 -0.000021 0.000003 -0.008306 0.000028 0.013848
# 5 -0.001379 -0.001009 0.007135 0.000028 0.033091 -0.000020
# 6 0.000003 0.000002 -0.000003 0.013848 -0.000020 0.073879
#
#
# Mechanical properties :
#
#
# Convention : Reuss Voigt Hill
#
# Bulk Modulus (GPa) = 53.50405 58.95673 56.23039
# Shear Modulus (GPa) = 33.84990 9.03269 21.44130
#
# Velocity S-wave (km/s) = 3.91279 2.02124 3.11411
# Velocity P-wave (km/s) = 6.67927 5.66681 6.19376
#
# Compressibility (1/GPa) = 0.01869017
#
# Stress axis : x y z
#
# Youngs Moduli (GPa) = 128.91254 86.76779 87.17219
#
# Poissons Ratio (x) = 0.02553 0.27374
# Poissons Ratio (y) = 0.03792 0.22642
# Poissons Ratio (z) = 0.40481 0.22537
#
# Static dielectric constant tensor:
#      x y z
#    x 1.802880 0.000000 -0.006380 
#    y 0.000000 1.880950 -0.000010 
#    z -0.006380 -0.000010 1.829080 
# 
# From -- ./inp_files/218695.got.cif
#   From: 2010.05.17/outbox.cif.g08.bks.cpg/sg12_110_cif.got.tgz:218695.got - 2010.06.03 13:09:07.
