data_PCOD9209826
_publ_section_title
;
Structure prediction by ZEFSAII (Michael W. Deem and Ramdas Pophale) SiO2 
 PCOD9209826
Probable space group: C 2/M
;
_chemical_formula_sum "Si O2"
_cell_formula_units_Z 40
_cell_length_a 28.052601
_cell_length_b 17.815022
_cell_length_c 9.429424
_cell_angle_alpha 90.000000
_cell_angle_beta 153.570988
_cell_angle_gamma 90.000000
_cell_volume 2097.447995
_symmetry_space_group_name_H-M "C 2/M"
_symmetry_group_IT_number 12
_symmetry_cell_setting 'monoclinic'
loop_
_space_group_symop_operation_xyz
x,y,z
-x,y,-z
-x,-y,-z
x,-y,z
1/2+x,1/2+y,z
1/2-x,1/2+y,-z
1/2-x,1/2-y,-z
1/2+x,1/2-y,z
loop_
_atom_site_type_symbol
_atom_site_label
_atom_site_fract_x
_atom_site_fract_y
_atom_site_fract_z
Si Si1 0.763289 0.697342 0.299641
Si Si2 0.516340 0.222945 0.195507
Si Si3 0.787244 0.656889 0.675528
Si Si4 0.035917 0.000000 0.320807
Si Si5 0.679720 0.500000 0.423109
Si Si6 0.413232 0.344630 0.390074
O O1 0.883611 0.671374 0.583164
O O2 0.730856 0.668650 0.370570
O O3 0.753740 0.786609 0.310379
O O4 0.694802 0.671673 0.983899
O O5 0.560897 0.281381 0.426250
O O6 0.500000 0.263978 0.000000
O O7 0.410895 0.181018 0.972922
O O8 0.755826 0.572721 0.627932
O O9 0.070081 0.925946 0.497476
O O10 0.104932 0.000000 0.361591
O O11 0.908897 0.000000 0.941061
O O12 0.500000 0.335961 0.500000
#
# Coordination Sequence:
#
# PCOD9209826 Si02
#       6
#     8   8   8   4   4   8
#     4  10  21  38  65  91 128 165 214 264 305 376
#     4  10  22  38  64  92 124 167 217 257 307 374
#     4  10  21  41  63  94 123 170 213 257 316 373
#     4  11  27  38  61  97 130 169 205 257 335 374
#     4  11  24  42  64  89 135 169 206 263 317 388
#     4  12  22  39  62  95 130 164 209 265 317 375
#
# _framework density 19.070793999999999
#
# number of rings (size 3 to 8) (size 9 to 14) (size 15 to 20)
#    0.000    1.400    2.000    3.300    8.400    0.800 
#    0.000    5.500    0.000    3.600    0.000    0.000 
#    0.000    0.000    0.000    0.000    0.000    0.000 
#
# Total GULP energy -111421.773572 kJ/mol
# GULP energy per Si atom -5571.088679 kJ/mol
# Density = 1.902739 g / cm^3
# Si number density = 19.070794 Si / 1000 Ang^3
#
#
#
# Elastic Constant Matrix: (Units=GPa)
#
#
# Indices 1 2 3 4 5 6 
#
# 1 102.3375 104.7822 86.4397 0.0000 -3.6458 0.0000
# 2 104.7822 591.8822 309.1908 0.0000 -64.3833 0.0000
# 3 86.4397 309.1908 282.3313 0.0000 -44.2538 0.0000
# 4 0.0000 0.0000 0.0000 13.1113 0.0000 -12.3764
# 5 -3.6458 -64.3833 -44.2538 0.0000 49.1638 0.0000
# 6 0.0000 0.0000 0.0000 -12.3764 0.0000 14.6413
#
#
#
# Elastic Compliance Matrix: (Units=1/GPa)
#
#
# Indices 1 2 3 4 5 6 
#
# 1 0.013741 -0.000770 -0.003915 0.000000 -0.003513 0.000000
# 2 -0.000770 0.004087 -0.003971 0.000000 0.001721 0.000000
# 3 -0.003915 -0.003971 0.009580 0.000000 0.003133 0.000000
# 4 0.000000 0.000000 0.000000 0.377437 0.000000 0.319049
# 5 -0.003513 0.001721 0.003133 0.000000 0.025154 0.000000
# 6 0.000000 0.000000 0.000000 0.319049 0.000000 0.337993
#
#
# Mechanical properties :
#
#
# Convention : Reuss Voigt Hill
#
# Bulk Modulus (GPa) = 99.02710 219.70850 159.36780
# Shear Modulus (GPa) = 6.33980 47.12582 26.73281
#
# Velocity S-wave (km/s) = 1.82526 4.97641 3.74808
# Velocity P-wave (km/s) = 7.51538 12.18509 10.12317
#
# Compressibility (1/GPa) = 0.01009825
#
# Stress axis : x y z
#
# Youngs Moduli (GPa) = 72.77427 244.66604 104.38588
#
# Poissons Ratio (x) = 0.18834 0.40863
# Poissons Ratio (y) = 0.05602 0.41447
# Poissons Ratio (z) = 0.28488 0.97146
#
# Static dielectric constant tensor:
#      x y z
#    x 1.787830 0.000000 -0.269120 
#    y 0.000000 1.690600 0.000000 
#    z -0.269120 0.000000 2.436700 
# 
# From -- ./inp_files/60915.got.cif
#   From: 2010.05.17/outbox.cif.g08.bks.cpg/sg12_31_cif.got.tgz:60915.got - 2010.06.03 13:09:07.
