data_PCOD9209851
_publ_section_title
;
Structure prediction by ZEFSAII (Michael W. Deem and Ramdas Pophale) SiO2 
 PCOD9209851
Probable space group: C 2/M
;
_chemical_formula_sum "Si O2"
_cell_formula_units_Z 64
_cell_length_a 18.169783
_cell_length_b 17.573652
_cell_length_c 14.439737
_cell_angle_alpha 90.000000
_cell_angle_beta 38.012137
_cell_angle_gamma 90.000000
_cell_volume 2839.427274
_symmetry_space_group_name_H-M "C 2/M"
_symmetry_group_IT_number 12
_symmetry_cell_setting 'monoclinic'
loop_
_space_group_symop_operation_xyz
x,y,z
-x,y,-z
-x,-y,-z
x,-y,z
1/2+x,1/2+y,z
1/2-x,1/2+y,-z
1/2-x,1/2-y,-z
1/2+x,1/2-y,z
loop_
_atom_site_type_symbol
_atom_site_label
_atom_site_fract_x
_atom_site_fract_y
_atom_site_fract_z
Si Si1 0.319254 0.771727 0.836184
Si Si2 0.263453 0.353035 0.388327
Si Si3 0.801053 0.911796 0.653853
Si Si4 0.363622 0.088795 0.670652
Si Si5 0.479212 0.582448 0.858097
Si Si6 0.920667 0.752689 0.990136
Si Si7 0.370938 0.182486 0.297683
Si Si8 0.552017 0.627031 0.312544
O O1 0.345593 0.857310 0.778313
O O2 0.433057 0.717698 0.714028
O O3 0.250000 0.750000 0.000000
O O4 0.219114 0.741192 0.863070
O O5 0.211601 0.376922 0.340744
O O6 0.378317 0.405973 0.292325
O O7 0.313354 0.266704 0.343005
O O8 0.168882 0.354881 0.565957
O O9 0.688298 0.866775 0.725251
O O10 0.852762 0.899904 0.705933
O O11 0.918096 0.889926 0.477465
O O12 0.775546 0.000000 0.666952
O O13 0.500000 0.092900 0.500000
O O14 0.334082 0.000000 0.716436
O O15 0.452310 0.500000 0.926325
O O16 0.434158 0.657375 0.954972
O O17 0.426501 0.588994 0.807443
O O18 0.987477 0.699302 0.849053
O O19 0.000000 0.737989 0.000000
#
# Coordination Sequence:
#
# PCOD9209851 Si02
#       8
#     8   8   8   8   8   8   8   8
#     4  12  26  45  70  98 136 189 232 275 343 421
#     4  10  21  38  65  96 134 175 226 281 344 406
#     4  11  22  38  65 101 131 165 220 288 348 395
#     4  11  27  46  70 104 142 184 236 296 358 418
#     4  11  21  37  63  96 132 168 214 278 346 403
#     4  11  24  43  62  93 132 178 228 276 335 421
#     4  10  22  38  65  97 130 176 228 284 333 413
#     4  11  22  38  62  97 133 173 222 279 331 408
#
# _framework density 22.539756000000001
#
# number of rings (size 3 to 8) (size 9 to 14) (size 15 to 20)
#    0.000    1.125    2.500    4.875    5.250    1.250 
#    0.000    0.000    0.000    4.875    0.000    0.000 
#    0.000    0.000    0.000    0.000    0.000    0.000 
#
# Total GULP energy -178866.967344 kJ/mol
# GULP energy per Si atom -5589.592729 kJ/mol
# Density = 2.248845 g / cm^3
# Si number density = 22.539756 Si / 1000 Ang^3
#
#
#
# Elastic Constant Matrix: (Units=GPa)
#
#
# Indices 1 2 3 4 5 6 
#
# 1 70.1993 30.8309 6.5810 0.0000 12.7663 0.0000
# 2 30.8309 137.1201 34.1560 0.0000 2.5835 0.0000
# 3 6.5810 34.1560 52.3908 0.0000 0.5864 0.0000
# 4 0.0000 0.0000 0.0000 8.5495 0.0000 5.3561
# 5 12.7663 2.5835 0.5864 0.0000 34.2831 0.0000
# 6 0.0000 0.0000 0.0000 5.3561 0.0000 25.1643
#
#
#
# Elastic Compliance Matrix: (Units=1/GPa)
#
#
# Indices 1 2 3 4 5 6 
#
# 1 0.016977 -0.003807 0.000417 0.000000 -0.006042 0.000000
# 2 -0.003807 0.009571 -0.005771 0.000000 0.000795 0.000000
# 3 0.000417 -0.005771 0.022798 0.000000 -0.000110 0.000000
# 4 0.000000 0.000000 0.000000 0.134962 0.000000 -0.028726
# 5 -0.006042 0.000795 -0.000110 0.000000 0.031361 0.000000
# 6 0.000000 0.000000 0.000000 -0.028726 0.000000 0.045853
#
#
# Mechanical properties :
#
#
# Convention : Reuss Voigt Hill
#
# Bulk Modulus (GPa) = 32.23186 44.76065 38.49626
# Shear Modulus (GPa) = 17.23034 26.14220 21.68627
#
# Velocity S-wave (km/s) = 2.76785 3.40932 3.10519
# Velocity P-wave (km/s) = 4.95437 5.94975 5.47473
#
# Compressibility (1/GPa) = 0.03102520
#
# Stress axis : x y z
#
# Youngs Moduli (GPa) = 58.90328 104.47790 43.86288
#
# Poissons Ratio (x) = 0.39778 -0.01830
# Poissons Ratio (y) = 0.22426 0.25312
# Poissons Ratio (z) = -0.02458 0.60291
#
# Static dielectric constant tensor:
#      x y z
#    x 1.945700 0.000000 -0.004110 
#    y 0.000000 1.820100 0.000000 
#    z -0.004110 0.000000 1.914810 
# 
# From -- ./inp_files/226842.got.cif
#   From: 2010.05.17/outbox.cif.g08.bks.cpg/sg12_114_cif.got.tgz:226842.got - 2010.06.03 13:09:07.
