data_PCOD9209778
_publ_section_title
;
Structure prediction by ZEFSAII (Michael W. Deem and Ramdas Pophale) SiO2 
 PCOD9209778
Probable space group: C 2/M
;
_chemical_formula_sum "Si O2"
_cell_formula_units_Z 56
_cell_length_a 22.527963
_cell_length_b 19.316288
_cell_length_c 15.171648
_cell_angle_alpha 90.000000
_cell_angle_beta 155.664128
_cell_angle_gamma 90.000000
_cell_volume 2720.602220
_symmetry_space_group_name_H-M "C 2/M"
_symmetry_group_IT_number 12
_symmetry_cell_setting 'monoclinic'
loop_
_space_group_symop_operation_xyz
x,y,z
-x,y,-z
-x,-y,-z
x,-y,z
1/2+x,1/2+y,z
1/2-x,1/2+y,-z
1/2-x,1/2-y,-z
1/2+x,1/2-y,z
loop_
_atom_site_type_symbol
_atom_site_label
_atom_site_fract_x
_atom_site_fract_y
_atom_site_fract_z
Si Si1 0.623653 0.303214 0.504039
Si Si2 0.909506 0.578135 0.115364
Si Si3 0.898587 0.078695 0.216422
Si Si4 0.884099 0.172401 0.713860
Si Si5 0.135193 0.348856 0.522491
Si Si6 0.347759 0.419729 0.940054
Si Si7 0.062112 0.687890 0.995902
O O1 0.654842 0.319421 0.442392
O O2 0.559725 0.226140 0.426623
O O3 0.771085 0.298855 0.757682
O O4 0.518208 0.363284 0.394378
O O5 0.930838 0.500000 0.112290
O O6 0.743477 0.586601 0.917440
O O7 0.016363 0.593791 0.340548
O O8 0.950852 0.635680 0.101099
O O9 0.847882 0.085815 0.046116
O O10 0.955143 0.000000 0.304137
O O11 0.750359 0.160735 0.597862
O O12 0.995886 0.109506 0.875754
O O13 0.973095 0.241710 0.859267
O O14 0.227973 0.372677 0.731624
O O15 0.329879 0.500000 0.891144
O O16 0.000000 0.654280 0.000000
#
# Coordination Sequence:
#
# PCOD9209778 Si02
#       7
#     8   8   8   8   8   8   8
#     4  11  22  38  68  94 119 171 210 249 310 370
#     4  11  26  44  63  89 127 170 209 259 312 365
#     4   9  23  47  64  85 126 168 212 263 310 361
#     4  11  21  40  63  92 133 165 199 253 317 372
#     4  12  21  37  65  96 128 164 206 254 313 376
#     4  10  21  38  64  95 127 165 207 255 313 375
#     4  12  22  40  66  95 128 161 205 256 314 376
#
# _framework density 20.583677999999999
#
# number of rings (size 3 to 8) (size 9 to 14) (size 15 to 20)
#    0.000    1.143    4.286    2.143    0.000    4.286 
#    0.000    7.857    0.000    0.000    0.000    0.000 
#    0.000    0.000    0.000    0.000    0.000    0.000 
#
# Total GULP energy -156532.609611 kJ/mol
# GULP energy per Si atom -5590.450343 kJ/mol
# Density = 2.053683 g / cm^3
# Si number density = 20.583678 Si / 1000 Ang^3
#
#
#
# Elastic Constant Matrix: (Units=GPa)
#
#
# Indices 1 2 3 4 5 6 
#
# 1 20.8162 30.0334 -1.5109 0.0000 10.3395 0.0000
# 2 30.0334 112.3441 22.8449 0.0000 11.8335 0.0000
# 3 -1.5109 22.8449 69.5827 0.0000 -1.2448 0.0000
# 4 0.0000 0.0000 0.0000 -14.9604 0.0000 2.8488
# 5 10.3395 11.8335 -1.2448 0.0000 19.1302 0.0000
# 6 0.0000 0.0000 0.0000 2.8488 0.0000 19.7585
#
#
#
# Elastic Compliance Matrix: (Units=1/GPa)
#
#
# Indices 1 2 3 4 5 6 
#
# 1 0.107320 -0.026467 0.010287 0.000000 -0.040963 0.000000
# 2 -0.026467 0.016837 -0.006040 0.000000 0.003497 0.000000
# 3 0.010287 -0.006040 0.016564 0.000000 -0.000746 0.000000
# 4 0.000000 0.000000 0.000000 -0.065057 0.000000 0.009380
# 5 -0.040963 0.003497 -0.000746 0.000000 0.072201 0.000000
# 6 0.000000 0.000000 0.000000 0.009380 0.000000 0.049259
#
#
# Mechanical properties :
#
#
# Convention : Reuss Voigt Hill
#
# Bulk Modulus (GPa) = 10.38631 33.94199 22.16415
# Shear Modulus (GPa) = 18.27101 14.87735 16.57418
#
# Velocity S-wave (km/s) = 2.98257 2.69136 2.84070
# Velocity P-wave (km/s) = 4.11313 5.11698 4.64227
#
# Compressibility (1/GPa) = 0.09628056
#
# Stress axis : x y z
#
# Youngs Moduli (GPa) = 9.31795 59.39421 60.37053
#
# Poissons Ratio (x) = 1.57201 -0.62104
# Poissons Ratio (y) = 0.24662 0.36463
# Poissons Ratio (z) = -0.09585 0.35873
#
# Static dielectric constant tensor:
#      x y z
#    x 1.743450 0.000000 -0.029330 
#    y 0.000000 1.716310 0.000000 
#    z -0.029330 0.000000 1.752720 
# 
# From -- ./inp_files/293915.got.cif
#   From: 2010.05.17/outbox.cif.g08.bks.cpg/sg12_147_cif.got.tgz:293915.got - 2010.06.03 13:09:07.
