data_PCOD9209019
_publ_section_title
;
Structure prediction by ZEFSAII (Michael W. Deem and Ramdas Pophale) SiO2 
 PCOD9209019
Probable space group: C 2/M
;
_chemical_formula_sum "Si O2"
_cell_formula_units_Z 44
_cell_length_a 11.147215
_cell_length_b 24.670900
_cell_length_c 12.261426
_cell_angle_alpha 90.000000
_cell_angle_beta 38.587112
_cell_angle_gamma 90.000000
_cell_volume 2103.152348
_symmetry_space_group_name_H-M "C 2/M"
_symmetry_group_IT_number 12
_symmetry_cell_setting 'monoclinic'
loop_
_space_group_symop_operation_xyz
x,y,z
-x,y,-z
-x,-y,-z
x,-y,z
1/2+x,1/2+y,z
1/2-x,1/2+y,-z
1/2-x,1/2-y,-z
1/2+x,1/2-y,z
loop_
_atom_site_type_symbol
_atom_site_label
_atom_site_fract_x
_atom_site_fract_y
_atom_site_fract_z
Si Si1 0.388700 0.689976 0.194528
Si Si2 0.450877 0.622889 0.724799
Si Si3 0.310688 0.000000 0.314084
Si Si4 0.500000 0.121753 0.500000
Si Si5 0.440404 0.500000 0.723886
Si Si6 0.856505 0.314262 0.202018
Si Si7 0.610038 0.104505 0.654046
O O1 0.524378 0.665199 0.193360
O O2 0.192372 0.656049 0.342360
O O3 0.320837 0.752089 0.258958
O O4 0.500000 0.685097 0.000000
O O5 0.403739 0.560730 0.797747
O O6 0.314028 0.648778 0.729033
O O7 0.662677 0.616001 0.522214
O O8 0.428588 0.054363 0.240149
O O9 0.188105 0.000000 0.293041
O O10 0.161294 0.000000 0.522660
O O11 0.531449 0.091346 0.590999
O O12 0.956535 0.342520 0.234860
O O13 0.000000 0.311650 0.000000
#
# Coordination Sequence:
#
# PCOD9209019 Si02
#       7
#     8   8   4   4   4   8   8
#     4  10  25  41  61  89 126 166 202 250 305 368
#     4  10  21  39  63  89 118 161 201 257 303 358
#     4   9  16  33  60  86 117 151 197 258 301 352
#     4  10  24  39  62  88 122 165 202 248 300 376
#     4   9  16  34  61  90 112 151 208 250 302 355
#     4  11  24  36  60  90 122 160 198 256 303 359
#     4  10  21  38  60  90 119 157 205 248 304 364
#
# _framework density 20.920974999999999
#
# number of rings (size 3 to 8) (size 9 to 14) (size 15 to 20)
#    0.000    2.000    1.818    0.545    7.636    3.273 
#    0.000    3.182    0.000    0.000    0.000    0.000 
#    0.000    0.000    0.000    0.000    0.000    0.000 
#
# Total GULP energy -122545.673460 kJ/mol
# GULP energy per Si atom -5570.257885 kJ/mol
# Density = 2.087336 g / cm^3
# Si number density = 20.920975 Si / 1000 Ang^3
#
#
#
# Elastic Constant Matrix: (Units=GPa)
#
#
# Indices 1 2 3 4 5 6 
#
# 1 91.9250 25.1628 -0.6447 0.0000 11.7284 0.0000
# 2 25.1628 103.9287 -1.7175 0.0000 8.0005 0.0000
# 3 -0.6447 -1.7175 22.4481 0.0000 4.3679 0.0000
# 4 0.0000 0.0000 0.0000 -78.0487 0.0000 -73.1583
# 5 11.7284 8.0005 4.3679 0.0000 24.7157 0.0000
# 6 0.0000 0.0000 0.0000 -73.1583 0.0000 -38.3597
#
#
#
# Elastic Compliance Matrix: (Units=1/GPa)
#
#
# Indices 1 2 3 4 5 6 
#
# 1 0.012246 -0.002546 0.001167 0.000000 -0.005193 0.000000
# 2 -0.002546 0.010441 0.001189 0.000000 -0.002382 0.000000
# 3 0.001167 0.001189 0.046452 0.000000 -0.009148 0.000000
# 4 0.000000 0.000000 0.000000 0.016266 0.000000 -0.031023
# 5 -0.005193 -0.002382 -0.009148 0.000000 0.045312 0.000000
# 6 0.000000 0.000000 0.000000 -0.031023 0.000000 0.033097
#
#
# Mechanical properties :
#
#
# Convention : Reuss Voigt Hill
#
# Bulk Modulus (GPa) = 14.54317 29.32254 21.93286
# Shear Modulus (GPa) = 26.72180 -5.30511 10.70835
#
# Velocity S-wave (km/s) = 3.57777 -1.59414 2.26486
# Velocity P-wave (km/s) = 4.90243 3.26464 4.16484
#
# Compressibility (1/GPa) = 0.06876080
#
# Stress axis : x y z
#
# Youngs Moduli (GPa) = 81.65859 95.77257 21.52774
#
# Poissons Ratio (x) = 0.24383 -0.02513
# Poissons Ratio (y) = 0.20789 -0.02560
# Poissons Ratio (z) = -0.09533 -0.11390
#
# Static dielectric constant tensor:
#      x y z
#    x 1.778280 0.000000 -0.006950 
#    y 0.000000 1.801940 0.000000 
#    z -0.006950 0.000000 1.767280 
# 
# From -- ./inp_files/50565.got.cif
#   From: 2010.05.17/outbox.cif.g08.bks.cpg/sg12_26_cif.got.tgz:50565.got - 2010.06.03 13:09:07.
