data_PCOD9209018
_publ_section_title
;
Structure prediction by ZEFSAII (Michael W. Deem and Ramdas Pophale) SiO2 
 PCOD9209018
Probable space group: C 2/M
;
_chemical_formula_sum "Si O2"
_cell_formula_units_Z 36
_cell_length_a 15.804142
_cell_length_b 10.911153
_cell_length_c 26.265246
_cell_angle_alpha 90.000000
_cell_angle_beta 159.064701
_cell_angle_gamma 90.000000
_cell_volume 1618.349962
_symmetry_space_group_name_H-M "C 2/M"
_symmetry_group_IT_number 12
_symmetry_cell_setting 'monoclinic'
loop_
_space_group_symop_operation_xyz
x,y,z
-x,y,-z
-x,-y,-z
x,-y,z
1/2+x,1/2+y,z
1/2-x,1/2+y,-z
1/2-x,1/2-y,-z
1/2+x,1/2-y,z
loop_
_atom_site_type_symbol
_atom_site_label
_atom_site_fract_x
_atom_site_fract_y
_atom_site_fract_z
Si Si1 0.397061 0.000000 0.643751
Si Si2 0.196399 0.500000 0.297642
Si Si3 0.476842 0.854328 0.427737
Si Si4 0.520347 0.260278 0.836422
Si Si5 0.010473 0.225949 0.297503
Si Si6 0.056548 0.000000 0.672589
O O1 0.229232 0.000000 0.600693
O O2 0.539757 0.870983 0.722922
O O3 0.220606 0.000000 0.497403
O O4 0.047218 0.621862 0.212443
O O5 0.322616 0.500000 0.314193
O O6 0.500000 0.817183 0.500000
O O7 0.207438 0.819893 0.263337
O O8 0.703979 0.786322 0.532439
O O9 0.505912 0.000000 0.441149
O O10 0.541914 0.313502 0.790879
O O11 0.750000 0.250000 0.000000
O O12 0.892514 0.124068 0.267222
#
# Coordination Sequence:
#
# PCOD9209018 Si02
#       6
#     4   4   8   8   8   4
#     4  10  21  38  60  89 134 165 201 255 333 392
#     4  10  23  41  59  91 127 171 211 261 331 396
#     4   9  17  32  56  88 122 158 208 267 312 367
#     4  10  22  38  62  87 128 175 217 257 321 387
#     4  10  21  38  62  96 127 166 215 269 318 385
#     4  12  21  37  68  96 127 162 217 272 329 370
#
# _framework density 22.244879000000001
#
# number of rings (size 3 to 8) (size 9 to 14) (size 15 to 20)
#    0.000    2.000    1.111    2.333    3.111    3.556 
#    0.000    2.222    0.000    0.000    0.000    7.778 
#    0.000    0.000    0.000    0.000    0.000    0.000 
#
# Total GULP energy -100346.702820 kJ/mol
# GULP energy per Si atom -5574.816823 kJ/mol
# Density = 2.219425 g / cm^3
# Si number density = 22.244879 Si / 1000 Ang^3
#
#
#
# Elastic Constant Matrix: (Units=GPa)
#
#
# Indices 1 2 3 4 5 6 
#
# 1 114.2468 39.5025 42.5254 0.0011 -28.4114 0.0008
# 2 39.5025 121.1082 2.4510 0.0056 -12.2474 0.0008
# 3 42.5254 2.4510 98.9727 0.0311 -15.7013 -0.0006
# 4 0.0011 0.0056 0.0311 46.2958 0.0002 -21.6261
# 5 -28.4114 -12.2474 -15.7013 0.0002 20.8723 -0.0004
# 6 0.0008 0.0008 -0.0006 -21.6261 -0.0004 42.3168
#
#
#
# Elastic Compliance Matrix: (Units=1/GPa)
#
#
# Indices 1 2 3 4 5 6 
#
# 1 0.015347 -0.003312 -0.003982 0.000003 0.015952 0.000002
# 2 -0.003312 0.009533 0.001543 -0.000003 0.002247 -0.000002
# 3 -0.003982 0.001543 0.012559 -0.000011 0.004934 -0.000005
# 4 0.000003 -0.000003 -0.000011 0.028374 -0.000005 0.014501
# 5 0.015952 0.002247 0.004934 -0.000005 0.074654 -0.000002
# 6 0.000002 -0.000002 -0.000005 0.014501 -0.000002 0.031042
#
#
# Mechanical properties :
#
#
# Convention : Reuss Voigt Hill
#
# Bulk Modulus (GPa) = 38.55178 55.92061 47.23619
# Shear Modulus (GPa) = 26.08843 38.55357 32.32100
#
# Velocity S-wave (km/s) = 3.42831 4.16762 3.81591
# Velocity P-wave (km/s) = 5.74798 6.95356 6.37931
#
# Compressibility (1/GPa) = 0.02593914
#
# Stress axis : x y z
#
# Youngs Moduli (GPa) = 65.15830 104.89485 79.62432
#
# Poissons Ratio (x) = 0.34742 0.31703
# Poissons Ratio (y) = 0.21581 -0.12289
# Poissons Ratio (z) = 0.25943 -0.16190
#
# Static dielectric constant tensor:
#      x y z
#    x 2.044560 0.000000 -0.128580 
#    y 0.000000 1.799250 0.000000 
#    z -0.128580 0.000000 1.920260 
# 
# From -- ./inp_files/363736.got.cif
#   From: 2010.05.17/outbox.cif.g08.bks.cpg/sg12_182_cif.got.tgz:363736.got - 2010.06.03 13:09:07.
