data_PCOD9209835
_publ_section_title
;
Structure prediction by ZEFSAII (Michael W. Deem and Ramdas Pophale) SiO2 
 PCOD9209835
Probable space group: C 2/M
;
_chemical_formula_sum "Si O2"
_cell_formula_units_Z 48
_cell_length_a 18.848178
_cell_length_b 13.373923
_cell_length_c 18.203112
_cell_angle_alpha 90.000000
_cell_angle_beta 148.166133
_cell_angle_gamma 90.000000
_cell_volume 2420.258606
_symmetry_space_group_name_H-M "C 2/M"
_symmetry_group_IT_number 12
_symmetry_cell_setting 'monoclinic'
loop_
_space_group_symop_operation_xyz
x,y,z
-x,y,-z
-x,-y,-z
x,-y,z
1/2+x,1/2+y,z
1/2-x,1/2+y,-z
1/2-x,1/2-y,-z
1/2+x,1/2-y,z
loop_
_atom_site_type_symbol
_atom_site_label
_atom_site_fract_x
_atom_site_fract_y
_atom_site_fract_z
Si Si1 0.657942 0.614421 0.155311
Si Si2 0.711464 0.119492 0.414811
Si Si3 0.536461 0.301728 0.450417
Si Si4 0.692776 0.883412 0.565402
Si Si5 0.714946 0.256899 0.851942
Si Si6 0.599722 0.120846 0.880272
O O1 0.700813 0.500000 0.174896
O O2 0.695216 0.630363 0.273430
O O3 0.731336 0.696582 0.170901
O O4 0.500000 0.621008 0.000000
O O5 0.824383 0.156602 0.458523
O O6 0.738877 0.147157 0.524200
O O7 0.558470 0.147851 0.260787
O O8 0.715801 0.000000 0.416120
O O9 0.500000 0.335454 0.500000
O O10 0.564870 0.182598 0.474758
O O11 0.414385 0.319913 0.287646
O O12 0.656781 0.000000 0.530861
O O13 0.668682 0.174549 0.871042
O O14 0.826039 0.329059 0.985185
O O15 0.613130 0.000000 0.889996
#
# Coordination Sequence:
#
# PCOD9209835 Si02
#       6
#     8   8   8   8   8   8
#     4  10  22  38  60  94 133 165 201 257 325 384
#     4  10  23  43  67  90 123 169 216 259 306 372
#     4  12  24  39  63  97 128 163 205 263 316 374
#     4  10  21  38  65  94 122 161 205 257 316 372
#     4  11  23  37  64  95 128 163 205 265 317 376
#     4  10  23  42  63  90 124 169 214 258 311 371
#
# _framework density 19.832592000000002
#
# number of rings (size 3 to 8) (size 9 to 14) (size 15 to 20)
#    0.000    1.500    3.333    1.000    2.333    3.333 
#    0.000    1.667    0.000    2.500    0.000    0.000 
#    0.000    0.000    0.000    0.000    0.000    0.000 
#
# Total GULP energy -134061.649497 kJ/mol
# GULP energy per Si atom -5585.902062 kJ/mol
# Density = 1.978745 g / cm^3
# Si number density = 19.832592 Si / 1000 Ang^3
#
#
#
# Elastic Constant Matrix: (Units=GPa)
#
#
# Indices 1 2 3 4 5 6 
#
# 1 118.4537 42.3715 61.2908 0.0000 -1.6995 0.0000
# 2 42.3715 55.5349 51.0371 0.0000 -0.5618 0.0000
# 3 61.2908 51.0371 151.4905 0.0001 -12.4529 0.0000
# 4 0.0000 0.0000 0.0001 30.7237 0.0000 -3.2261
# 5 -1.6995 -0.5618 -12.4529 0.0000 26.7721 0.0000
# 6 0.0000 0.0000 0.0000 -3.2261 0.0000 21.1184
#
#
#
# Elastic Compliance Matrix: (Units=1/GPa)
#
#
# Indices 1 2 3 4 5 6 
#
# 1 0.012302 -0.006911 -0.002700 0.000000 -0.000620 0.000000
# 2 -0.006911 0.030318 -0.007696 0.000000 -0.003382 0.000000
# 3 -0.002700 -0.007696 0.010667 0.000000 0.004629 0.000000
# 4 0.000000 0.000000 0.000000 0.033079 0.000000 0.005053
# 5 -0.000620 -0.003382 0.004629 0.000000 0.039395 0.000000
# 6 0.000000 0.000000 0.000000 0.005053 0.000000 0.048124
#
#
# Mechanical properties :
#
#
# Convention : Reuss Voigt Hill
#
# Bulk Modulus (GPa) = 53.55373 70.54198 62.04786
# Shear Modulus (GPa) = 23.28565 27.10816 25.19691
#
# Velocity S-wave (km/s) = 3.43025 3.70110 3.56825
# Velocity P-wave (km/s) = 6.53837 7.34235 6.95199
#
# Compressibility (1/GPa) = 0.01867284
#
# Stress axis : x y z
#
# Youngs Moduli (GPa) = 81.28443 32.98317 93.74977
#
# Poissons Ratio (x) = 0.22796 0.25311
# Poissons Ratio (y) = 0.56180 0.72150
# Poissons Ratio (z) = 0.21946 0.25384
#
# Static dielectric constant tensor:
#      x y z
#    x 1.673020 0.000000 -0.017860 
#    y 0.000000 1.726480 0.000000 
#    z -0.017860 0.000000 1.704410 
# 
# From -- ./inp_files/104967.got.cif
#   From: 2010.05.17/outbox.cif.g08.bks.cpg/sg12_53_cif.got.tgz:104967.got - 2010.06.03 13:09:07.
