data_PCOD9209023
_publ_section_title
;
Structure prediction by ZEFSAII (Michael W. Deem and Ramdas Pophale) SiO2 
 PCOD9209023
Probable space group: C 2/M
;
_chemical_formula_sum "Si O2"
_cell_formula_units_Z 64
_cell_length_a 17.460859
_cell_length_b 13.500460
_cell_length_c 17.063735
_cell_angle_alpha 90.000000
_cell_angle_beta 139.315426
_cell_angle_gamma 90.000000
_cell_volume 2622.197685
_symmetry_space_group_name_H-M "C 2/M"
_symmetry_group_IT_number 12
_symmetry_cell_setting 'monoclinic'
loop_
_space_group_symop_operation_xyz
x,y,z
-x,y,-z
-x,-y,-z
x,-y,z
1/2+x,1/2+y,z
1/2-x,1/2+y,-z
1/2-x,1/2-y,-z
1/2+x,1/2-y,z
loop_
_atom_site_type_symbol
_atom_site_label
_atom_site_fract_x
_atom_site_fract_y
_atom_site_fract_z
Si Si1 0.624569 0.384896 0.004238
Si Si2 0.131175 0.315037 0.091316
Si Si3 0.205396 0.759197 0.662279
Si Si4 0.849272 0.881690 0.513589
Si Si5 0.159930 0.618094 0.943686
Si Si6 0.075444 0.616488 0.316164
Si Si7 0.059188 0.391328 0.630571
Si Si8 0.612656 0.615386 0.281382
O O1 0.633180 0.500000 0.036459
O O2 0.506515 0.377159 0.860676
O O3 0.620809 0.303780 0.069387
O O4 0.735668 0.357265 0.035243
O O5 0.207040 0.335276 0.226928
O O6 0.184109 0.355028 0.051878
O O7 0.000000 0.355136 0.000000
O O8 0.118086 0.815880 0.535977
O O9 0.144677 0.700077 0.685970
O O10 0.284562 0.679474 0.677433
O O11 0.710424 0.854589 0.413407
O O12 0.905912 0.857006 0.641536
O O13 0.862952 0.000000 0.511239
O O14 0.152405 0.500000 0.932765
O O15 0.031833 0.660026 0.818502
O O16 0.078362 0.500000 0.299582
O O17 0.033427 0.625297 0.372920
O O18 0.114733 0.500000 0.690205
O O19 0.000000 0.397990 0.500000
O O20 0.650417 0.500000 0.311406
#
# Coordination Sequence:
#
# PCOD9209023 Si02
#       8
#     8   8   8   8   8   8   8   8
#     4  10  22  41  63  88 121 162 205 248 301 366
#     4  12  24  39  58  91 129 157 197 253 309 363
#     4  12  23  38  59  94 125 158 198 249 310 364
#     4  10  22  41  65  91 120 161 210 251 296 359
#     4  10  22  41  63  87 117 163 212 249 296 356
#     4   9  18  36  62  87 115 155 204 257 302 351
#     4  10  21  38  60  90 125 153 191 251 315 364
#     4  10  21  39  63  89 121 159 203 252 301 364
#
# _framework density 24.407008999999999
#
# number of rings (size 3 to 8) (size 9 to 14) (size 15 to 20)
#    0.000    1.625    1.250    3.375    0.000    5.000 
#    2.250    0.000    0.000    0.375    0.000    0.000 
#    0.000    0.000    0.000    0.000    0.000    0.000 
#
# Total GULP energy -179112.846899 kJ/mol
# GULP energy per Si atom -5597.276466 kJ/mol
# Density = 2.435146 g / cm^3
# Si number density = 24.407009 Si / 1000 Ang^3
#
#
#
# Elastic Constant Matrix: (Units=GPa)
#
#
# Indices 1 2 3 4 5 6 
#
# 1 64.8584 9.5342 -0.8139 0.0000 -2.4383 0.0000
# 2 9.5342 46.6199 -2.0746 0.0000 3.9484 0.0000
# 3 -0.8139 -2.0746 100.4057 0.0000 -15.0328 0.0000
# 4 0.0000 0.0000 0.0000 21.1880 0.0000 -6.4461
# 5 -2.4383 3.9484 -15.0328 0.0000 36.3510 0.0000
# 6 0.0000 0.0000 0.0000 -6.4461 0.0000 21.8143
#
#
#
# Elastic Compliance Matrix: (Units=1/GPa)
#
#
# Indices 1 2 3 4 5 6 
#
# 1 0.015978 -0.003387 0.000293 0.000000 0.001561 0.000000
# 2 -0.003387 0.022368 0.000039 0.000000 -0.002641 0.000000
# 3 0.000293 0.000039 0.010623 0.000000 0.004408 0.000000
# 4 0.000000 0.000000 0.000000 0.051859 0.000000 0.015324
# 5 0.001561 -0.002641 0.004408 0.000000 0.029724 0.000000
# 6 0.000000 0.000000 0.000000 0.015324 0.000000 0.050370
#
#
# Mechanical properties :
#
#
# Convention : Reuss Voigt Hill
#
# Bulk Modulus (GPa) = 23.33132 25.01948 24.17540
# Shear Modulus (GPa) = 24.83642 29.55322 27.19482
#
# Velocity S-wave (km/s) = 3.19344 3.48350 3.34162
# Velocity P-wave (km/s) = 4.81429 5.14324 4.98148
#
# Compressibility (1/GPa) = 0.04286085
#
# Stress axis : x y z
#
# Youngs Moduli (GPa) = 62.58438 44.70654 94.13698
#
# Poissons Ratio (x) = 0.15142 -0.02761
# Poissons Ratio (y) = 0.21197 -0.00371
# Poissons Ratio (z) = -0.01835 -0.00176
#
# Static dielectric constant tensor:
#      x y z
#    x 1.941750 0.000000 0.029780 
#    y 0.000000 1.991740 0.000000 
#    z 0.029780 0.000000 1.945420 
# 
# From -- ./inp_files/278194.got.cif
#   From: 2010.05.17/outbox.cif.g08.bks.cpg/sg12_140_cif.got.tgz:278194.got - 2010.06.03 13:09:07.
