data_PCOD9209791
_publ_section_title
;
Structure prediction by ZEFSAII (Michael W. Deem and Ramdas Pophale) SiO2 
 PCOD9209791
Probable space group: C 2/M
;
_chemical_formula_sum "Si O2"
_cell_formula_units_Z 48
_cell_length_a 26.421409
_cell_length_b 18.085386
_cell_length_c 11.422269
_cell_angle_alpha 90.000000
_cell_angle_beta 155.034977
_cell_angle_gamma 90.000000
_cell_volume 2303.644144
_symmetry_space_group_name_H-M "C 2/M"
_symmetry_group_IT_number 12
_symmetry_cell_setting 'monoclinic'
loop_
_space_group_symop_operation_xyz
x,y,z
-x,y,-z
-x,-y,-z
x,-y,z
1/2+x,1/2+y,z
1/2-x,1/2+y,-z
1/2-x,1/2-y,-z
1/2+x,1/2-y,z
loop_
_atom_site_type_symbol
_atom_site_label
_atom_site_fract_x
_atom_site_fract_y
_atom_site_fract_z
Si Si1 0.957674 0.086146 0.536142
Si Si2 0.687905 0.793558 0.724277
Si Si3 0.746242 0.221242 0.362322
Si Si4 0.571886 0.411617 0.272273
Si Si5 0.681929 0.084646 0.893787
Si Si6 0.423293 0.209571 0.188872
O O1 0.942550 0.262390 0.513080
O O2 0.000000 0.117972 0.500000
O O3 0.995140 0.110863 0.745792
O O4 0.996270 0.000000 0.613536
O O5 0.691817 0.781957 0.593084
O O6 0.693104 0.873409 0.793466
O O7 0.686707 0.589776 0.770740
O O8 0.811329 0.751630 0.015224
O O9 0.750000 0.250000 0.500000
O O10 0.816085 0.143727 0.498650
O O11 0.616315 0.211034 0.029630
O O12 0.600176 0.500000 0.341572
O O13 0.500000 0.402039 0.000000
O O14 0.590741 0.128281 0.786151
O O15 0.651109 0.000000 0.814561
#
# Coordination Sequence:
#
# PCOD9209791 Si02
#       6
#     8   8   8   8   8   8
#     4   9  18  34  57  91 132 170 211 266 329 385
#     4  10  24  41  63  96 129 170 219 267 328 388
#     4  10  24  40  65  91 129 173 219 265 324 393
#     4  10  21  38  64  97 131 172 221 274 331 392
#     4  11  22  39  64  95 132 171 216 269 331 398
#     4  10  23  41  65  93 127 172 217 265 323 395
#
# _framework density 20.836552000000001
#
# number of rings (size 3 to 8) (size 9 to 14) (size 15 to 20)
#    1.000    1.000    1.667    1.000    2.333    5.333 
#    0.000    2.500    0.000    0.000    0.000    3.500 
#    0.000    0.000    0.000    0.000    0.000    0.000 
#
# Total GULP energy -133754.613552 kJ/mol
# GULP energy per Si atom -5573.108898 kJ/mol
# Density = 2.078913 g / cm^3
# Si number density = 20.836552 Si / 1000 Ang^3
#
#
#
# Elastic Constant Matrix: (Units=GPa)
#
#
# Indices 1 2 3 4 5 6 
#
# 1 136.6970 46.6522 69.2878 0.0000 -33.2300 0.0000
# 2 46.6522 105.1233 40.9505 0.0000 -18.9878 0.0000
# 3 69.2878 40.9505 131.5988 0.0000 -15.7102 0.0000
# 4 0.0000 0.0000 0.0000 29.0442 0.0000 -5.3557
# 5 -33.2300 -18.9878 -15.7102 0.0000 45.2663 0.0000
# 6 0.0000 0.0000 0.0000 -5.3557 0.0000 13.7903
#
#
#
# Elastic Compliance Matrix: (Units=1/GPa)
#
#
# Indices 1 2 3 4 5 6 
#
# 1 0.012110 -0.002342 -0.004906 0.000000 0.006205 0.000000
# 2 -0.002342 0.011843 -0.002153 0.000000 0.002501 0.000000
# 3 -0.004906 -0.002153 0.010760 0.000000 -0.000771 0.000000
# 4 0.000000 0.000000 0.000000 0.037086 0.000000 0.014403
# 5 0.006205 0.002501 -0.000771 0.000000 0.027428 0.000000
# 6 0.000000 0.000000 0.000000 0.014403 0.000000 0.078108
#
#
# Mechanical properties :
#
#
# Convention : Reuss Voigt Hill
#
# Bulk Modulus (GPa) = 62.85872 76.35557 69.60714
# Shear Modulus (GPa) = 24.82097 32.05540 28.43818
#
# Velocity S-wave (km/s) = 3.45515 3.92653 3.69836
# Velocity P-wave (km/s) = 6.79341 7.56845 7.19138
#
# Compressibility (1/GPa) = 0.01590869
#
# Stress axis : x y z
#
# Youngs Moduli (GPa) = 82.57595 84.44051 92.93471
#
# Poissons Ratio (x) = 0.19778 0.45598
# Poissons Ratio (y) = 0.19341 0.20013
# Poissons Ratio (z) = 0.40516 0.18183
#
# Static dielectric constant tensor:
#      x y z
#    x 1.770700 0.000000 0.008370 
#    y 0.000000 1.785730 0.000000 
#    z 0.008370 0.000000 1.793380 
# 
# From -- ./inp_files/189517.got.cif
#   From: 2010.05.17/outbox.cif.g08.bks.cpg/sg12_95_cif.got.tgz:189517.got - 2010.06.03 13:09:07.
