data_PCOD9209897
_publ_section_title
;
Structure prediction by ZEFSAII (Michael W. Deem and Ramdas Pophale) SiO2 
 PCOD9209897
Probable space group: C 2/M
;
_chemical_formula_sum "Si O2"
_cell_formula_units_Z 64
_cell_length_a 12.317718
_cell_length_b 27.687180
_cell_length_c 18.410255
_cell_angle_alpha 90.000000
_cell_angle_beta 152.769213
_cell_angle_gamma 90.000000
_cell_volume 2872.974752
_symmetry_space_group_name_H-M "C 2/M"
_symmetry_group_IT_number 12
_symmetry_cell_setting 'monoclinic'
loop_
_space_group_symop_operation_xyz
x,y,z
-x,y,-z
-x,-y,-z
x,-y,z
1/2+x,1/2+y,z
1/2-x,1/2+y,-z
1/2-x,1/2-y,-z
1/2+x,1/2-y,z
loop_
_atom_site_type_symbol
_atom_site_label
_atom_site_fract_x
_atom_site_fract_y
_atom_site_fract_z
Si Si1 0.340177 0.611230 0.523638
Si Si2 0.051023 0.218674 0.446830
Si Si3 0.157100 0.316922 0.022178
Si Si4 0.220108 0.084103 0.852263
Si Si5 0.402053 0.446422 0.064728
Si Si6 0.029960 0.365677 0.801937
Si Si7 0.587439 0.767925 0.764627
Si Si8 0.046329 0.443805 0.613441
O O1 0.415097 0.667353 0.572649
O O2 0.565039 0.581190 0.686872
O O3 0.216593 0.610673 0.370680
O O4 0.125660 0.592555 0.446848
O O5 0.308560 0.243446 0.604817
O O6 0.000000 0.209409 0.500000
O O7 0.866362 0.250547 0.290603
O O8 0.325515 0.362478 0.140193
O O9 0.280240 0.265209 0.098463
O O10 0.014141 0.334483 0.866692
O O11 0.000000 0.315998 0.000000
O O12 0.136016 0.052375 0.870151
O O13 0.500000 0.078039 0.000000
O O14 0.349902 0.500000 0.005010
O O15 0.674572 0.434478 0.209057
O O16 0.222252 0.407067 0.926834
O O17 0.112938 0.324571 0.794230
O O18 0.997341 0.500000 0.605167
O O19 0.000000 0.439838 0.500000
#
# Coordination Sequence:
#
# PCOD9209897 Si02
#       8
#     8   8   8   8   8   8   8   8
#     4  11  22  41  68 101 135 176 240 293 350 430
#     4  10  23  41  65  95 137 185 230 296 366 411
#     4  10  21  40  64  90 130 187 227 278 354 420
#     4  10  21  38  66  99 133 181 239 284 343 425
#     4  10  22  44  68  97 142 187 231 292 367 424
#     4  10  24  41  62 101 140 173 236 293 348 424
#     4  10  21  41  63  96 129 181 243 281 348 434
#     4  10  21  41  73 103 135 183 234 296 363 429
#
# _framework density 22.276561999999998
#
# number of rings (size 3 to 8) (size 9 to 14) (size 15 to 20)
#    0.000    1.875    2.500    0.375    3.500    3.250 
#    4.500   11.875    0.000    1.125    0.000    0.000 
#    0.000    0.000    0.000    0.000    0.000    0.000 
#
# Total GULP energy -178468.869282 kJ/mol
# GULP energy per Si atom -5577.152165 kJ/mol
# Density = 2.222586 g / cm^3
# Si number density = 22.276562 Si / 1000 Ang^3
#
#
#
# Elastic Constant Matrix: (Units=GPa)
#
#
# Indices 1 2 3 4 5 6 
#
# 1 87.4185 41.0878 44.6593 0.0017 -8.9533 0.0012
# 2 41.0878 97.0046 54.2246 0.0010 -6.3788 0.0003
# 3 44.6593 54.2246 158.0730 0.0037 -19.7685 0.0026
# 4 0.0017 0.0010 0.0037 23.2354 0.0022 -8.8820
# 5 -8.9533 -6.3788 -19.7685 0.0022 33.2077 0.0014
# 6 0.0012 0.0003 0.0026 -8.8820 0.0014 22.3419
#
#
#
# Elastic Compliance Matrix: (Units=1/GPa)
#
#
# Indices 1 2 3 4 5 6 
#
# 1 0.015167 -0.004994 -0.002356 -0.000001 0.001727 -0.000001
# 2 -0.004994 0.014399 -0.003621 0.000001 -0.000736 0.000001
# 3 -0.002356 -0.003621 0.008716 -0.000002 0.003858 -0.000002
# 4 -0.000001 0.000001 -0.000002 0.050750 -0.000006 0.020176
# 5 0.001727 -0.000736 0.003858 -0.000006 0.032735 -0.000005
# 6 -0.000001 0.000001 -0.000002 0.020176 -0.000005 0.052780
#
#
# Mechanical properties :
#
#
# Convention : Reuss Voigt Hill
#
# Bulk Modulus (GPa) = 61.19185 69.15993 65.17589
# Shear Modulus (GPa) = 24.76045 29.25864 27.00954
#
# Velocity S-wave (km/s) = 3.33754 3.62805 3.48582
# Velocity P-wave (km/s) = 6.51007 6.97595 6.74703
#
# Compressibility (1/GPa) = 0.01634205
#
# Stress axis : x y z
#
# Youngs Moduli (GPa) = 65.93361 69.44701 114.72703
#
# Poissons Ratio (x) = 0.34679 0.27029
# Poissons Ratio (y) = 0.32924 0.41540
# Poissons Ratio (z) = 0.15534 0.25145
#
# Static dielectric constant tensor:
#      x y z
#    x 1.907180 0.000000 -0.035490 
#    y 0.000000 1.856870 0.000000 
#    z -0.035490 0.000000 1.883740 
# 
# From -- ./inp_files/266300.got.cif
#   From: 2010.05.17/outbox.cif.g08.bks.cpg/sg12_134_cif.got.tgz:266300.got - 2010.06.03 13:09:07.
