data_PCOD9209340
_publ_section_title
;
Structure prediction by ZEFSAII (Michael W. Deem and Ramdas Pophale) SiO2 
 PCOD9209340
Probable space group: C 2/M
;
_chemical_formula_sum "Si O2"
_cell_formula_units_Z 56
_cell_length_a 19.457663
_cell_length_b 28.420354
_cell_length_c 8.784106
_cell_angle_alpha 90.000000
_cell_angle_beta 38.819904
_cell_angle_gamma 90.000000
_cell_volume 3045.077413
_symmetry_space_group_name_H-M "C 2/M"
_symmetry_group_IT_number 12
_symmetry_cell_setting 'monoclinic'
loop_
_space_group_symop_operation_xyz
x,y,z
-x,y,-z
-x,-y,-z
x,-y,z
1/2+x,1/2+y,z
1/2-x,1/2+y,-z
1/2-x,1/2-y,-z
1/2+x,1/2-y,z
loop_
_atom_site_type_symbol
_atom_site_label
_atom_site_fract_x
_atom_site_fract_y
_atom_site_fract_z
Si Si1 0.440995 0.795421 0.446187
Si Si2 0.111805 0.554125 0.408234
Si Si3 0.510235 0.297392 0.802469
Si Si4 0.218932 0.556183 0.916449
Si Si5 0.510932 0.114116 0.159999
Si Si6 0.281413 0.699492 0.017062
Si Si7 0.110283 0.869506 0.407154
O O1 0.500000 0.779540 0.500000
O O2 0.432384 0.750930 0.350915
O O3 0.512317 0.836285 0.245563
O O4 0.322883 0.814645 0.701308
O O5 0.121307 0.500000 0.439653
O O6 0.000000 0.558376 0.500000
O O7 0.091820 0.586558 0.587363
O O8 0.204841 0.564629 0.123433
O O9 0.576731 0.340626 0.614592
O O10 0.500000 0.300066 0.000000
O O11 0.390140 0.296668 0.931785
O O12 0.213771 0.500000 0.901925
O O13 0.328153 0.581688 0.672490
O O14 0.117085 0.582423 0.012360
O O15 0.500000 0.121377 0.000000
O O16 0.250000 0.750000 0.000000
O O17 0.309916 0.663646 0.832119
O O18 0.000000 0.876263 0.500000
#
# Coordination Sequence:
#
# PCOD9209340 Si02
#       7
#     8   8   8   8   8   8   8
#     4  12  21  36  59  83 117 157 201 236 286 354
#     4   8  15  31  51  74 103 140 183 227 277 333
#     4  11  24  38  56  87 121 155 191 244 292 350
#     4  10  21  38  62  85 110 151 200 247 295 340
#     4  11  22  32  51  87 124 155 187 233 294 356
#     4  11  20  38  61  83 111 159 200 230 288 348
#     4  10  21  40  60  82 113 150 196 246 290 343
#
# _framework density 18.390338
#
# number of rings (size 3 to 8) (size 9 to 14) (size 15 to 20)
#    0.000    1.571    2.857    5.143    0.000    3.143 
#    0.000    0.000    0.000    0.429    0.000    0.000 
#    0.000    0.000    0.000    0.000    0.000    0.000 
#
# Total GULP energy -156313.800057 kJ/mol
# GULP energy per Si atom -5582.635716 kJ/mol
# Density = 1.834848 g / cm^3
# Si number density = 18.390338 Si / 1000 Ang^3
#
#
#
# Elastic Constant Matrix: (Units=GPa)
#
#
# Indices 1 2 3 4 5 6 
#
# 1 53.1871 27.8982 43.1992 0.0000 23.5515 0.0000
# 2 27.8982 99.5309 52.2290 0.0000 9.3916 0.0000
# 3 43.1992 52.2290 110.6631 0.0000 9.3499 0.0000
# 4 0.0000 0.0000 0.0000 36.7134 0.0000 -7.0288
# 5 23.5515 9.3916 9.3499 0.0000 33.9711 0.0000
# 6 0.0000 0.0000 0.0000 -7.0288 0.0000 11.2988
#
#
#
# Elastic Compliance Matrix: (Units=1/GPa)
#
#
# Indices 1 2 3 4 5 6 
#
# 1 0.041475 -0.002531 -0.012926 0.000000 -0.024497 0.000000
# 2 -0.002531 0.013644 -0.005407 0.000000 -0.000529 0.000000
# 3 -0.012926 -0.005407 0.016126 0.000000 0.006018 0.000000
# 4 0.000000 0.000000 0.000000 0.030921 0.000000 0.019235
# 5 -0.024497 -0.000529 0.006018 0.000000 0.044910 0.000000
# 6 0.000000 0.000000 0.000000 0.019235 0.000000 0.100471
#
#
# Mechanical properties :
#
#
# Convention : Reuss Voigt Hill
#
# Bulk Modulus (GPa) = 33.87886 56.67042 45.27464
# Shear Modulus (GPa) = 16.71612 25.73364 21.22488
#
# Velocity S-wave (km/s) = 3.01817 3.74478 3.40094
# Velocity P-wave (km/s) = 5.53244 7.04131 6.33198
#
# Compressibility (1/GPa) = 0.02951693
#
# Stress axis : x y z
#
# Youngs Moduli (GPa) = 24.11084 73.29453 62.01274
#
# Poissons Ratio (x) = 0.18549 0.80160
# Poissons Ratio (y) = 0.06102 0.33528
# Poissons Ratio (z) = 0.31167 0.39628
#
# Static dielectric constant tensor:
#      x y z
#    x 1.609840 0.000000 -0.013990 
#    y 0.000000 1.647120 0.000000 
#    z -0.013990 0.000000 1.667040 
# 
# From -- ./inp_files/80013.got.cif
#   From: 2010.05.17/outbox.cif.g08.bks.cpg/sg12_41_cif.got.tgz:80013.got - 2010.06.03 13:09:07.
