data_PCOD9209827
_publ_section_title
;
Structure prediction by ZEFSAII (Michael W. Deem and Ramdas Pophale) SiO2 
 PCOD9209827
Probable space group: C 2/M
;
_chemical_formula_sum "Si O2"
_cell_formula_units_Z 52
_cell_length_a 16.130447
_cell_length_b 19.038229
_cell_length_c 12.182190
_cell_angle_alpha 90.000000
_cell_angle_beta 133.711843
_cell_angle_gamma 90.000000
_cell_volume 2704.151861
_symmetry_space_group_name_H-M "C 2/M"
_symmetry_group_IT_number 12
_symmetry_cell_setting 'monoclinic'
loop_
_space_group_symop_operation_xyz
x,y,z
-x,y,-z
-x,-y,-z
x,-y,z
1/2+x,1/2+y,z
1/2-x,1/2+y,-z
1/2-x,1/2-y,-z
1/2+x,1/2-y,z
loop_
_atom_site_type_symbol
_atom_site_label
_atom_site_fract_x
_atom_site_fract_y
_atom_site_fract_z
Si Si1 0.730144 0.887053 0.142128
Si Si2 0.634436 0.276798 0.618882
Si Si3 0.135927 0.000000 0.872720
Si Si4 0.738988 0.883721 0.397227
Si Si5 0.622622 0.500000 0.350745
Si Si6 0.194612 0.000000 0.180032
Si Si7 0.521903 0.085775 0.810572
Si Si8 0.383587 0.884236 0.339026
O O1 0.792372 0.812206 0.215482
O O2 0.739997 0.916853 0.274928
O O3 0.799392 0.933591 0.119601
O O4 0.598909 0.889137 0.983387
O O5 0.500000 0.298624 0.500000
O O6 0.696600 0.309948 0.568513
O O7 0.636605 0.193543 0.633159
O O8 0.004339 0.000000 0.717067
O O9 0.145889 0.000000 0.012957
O O10 0.605736 0.882607 0.307480
O O11 0.808180 0.932406 0.543253
O O12 0.613856 0.500000 0.211298
O O13 0.276859 0.067107 0.265962
O O14 0.589479 0.112493 0.765387
O O15 0.516141 0.000000 0.804407
O O16 0.500000 0.912666 0.500000
#
# Coordination Sequence:
#
# PCOD9209827 Si02
#       8
#     8   8   4   8   4   4   8   8
#     4  10  21  38  65  91 133 164 208 262 326 377
#     4   9  22  41  60  92 128 173 210 258 318 386
#     4  12  22  40  61  96 126 176 210 263 307 394
#     4  10  23  38  63  99 129 159 216 263 322 380
#     4  12  24  38  66  90 128 174 205 266 319 382
#     4  12  24  44  61  95 125 166 224 266 315 381
#     4  12  21  38  63 104 126 163 214 275 321 360
#     4  11  22  41  67  89 127 171 219 262 318 381
#
# _framework density 19.229690000000002
#
# number of rings (size 3 to 8) (size 9 to 14) (size 15 to 20)
#    0.923    0.308    3.846    3.231    0.000    1.846 
#    0.000    8.462    3.385    0.000    0.000    0.000 
#    0.000    0.000    0.000    0.000    0.000    0.000 
#
# Total GULP energy -144986.192766 kJ/mol
# GULP energy per Si atom -5576.392029 kJ/mol
# Density = 1.918592 g / cm^3
# Si number density = 19.229690 Si / 1000 Ang^3
#
#
#
# Elastic Constant Matrix: (Units=GPa)
#
#
# Indices 1 2 3 4 5 6 
#
# 1 84.3463 26.8383 3.4711 0.0000 12.4380 0.0000
# 2 26.8383 82.8705 1.5416 0.0000 14.8602 0.0000
# 3 3.4711 1.5416 40.2500 0.0000 4.4258 0.0000
# 4 0.0000 0.0000 0.0000 22.9662 0.0000 1.1783
# 5 12.4380 14.8602 4.4258 0.0000 49.0388 0.0000
# 6 0.0000 0.0000 0.0000 1.1783 0.0000 17.8340
#
#
#
# Elastic Compliance Matrix: (Units=1/GPa)
#
#
# Indices 1 2 3 4 5 6 
#
# 1 0.013465 -0.003962 -0.000774 0.000000 -0.002145 0.000000
# 2 -0.003962 0.013926 0.000163 0.000000 -0.003230 0.000000
# 3 -0.000774 0.000163 0.025139 0.000000 -0.002122 0.000000
# 4 0.000000 0.000000 0.000000 0.043690 0.000000 -0.002887
# 5 -0.002145 -0.003230 -0.002122 0.000000 0.022106 0.000000
# 6 0.000000 0.000000 0.000000 -0.002887 0.000000 0.056263
#
#
# Mechanical properties :
#
#
# Convention : Reuss Voigt Hill
#
# Bulk Modulus (GPa) = 23.04910 30.12986 26.58948
# Shear Modulus (GPa) = 25.22772 29.67552 27.45162
#
# Velocity S-wave (km/s) = 3.62597 3.93264 3.78241
# Velocity P-wave (km/s) = 5.43529 6.02688 5.73871
#
# Compressibility (1/GPa) = 0.04338565
#
# Stress axis : x y z
#
# Youngs Moduli (GPa) = 74.26910 71.80723 39.77961
#
# Poissons Ratio (x) = 0.28447 0.03077
# Poissons Ratio (y) = 0.29423 -0.00650
# Poissons Ratio (z) = 0.05745 -0.01173
#
# Static dielectric constant tensor:
#      x y z
#    x 1.678610 0.000000 -0.032450 
#    y 0.000000 1.810360 0.000000 
#    z -0.032450 0.000000 1.692450 
# 
# From -- ./inp_files/147752.got.cif
#   From: 2010.05.17/outbox.cif.g08.bks.cpg/sg12_74_cif.got.tgz:147752.got - 2010.06.03 13:09:07.
