data_PCOD9209868
_publ_section_title
;
Structure prediction by ZEFSAII (Michael W. Deem and Ramdas Pophale) SiO2 
 PCOD9209868
Probable space group: C 2/M
;
_chemical_formula_sum "Si O2"
_cell_formula_units_Z 52
_cell_length_a 15.125197
_cell_length_b 10.487160
_cell_length_c 20.780509
_cell_angle_alpha 90.000000
_cell_angle_beta 120.726792
_cell_angle_gamma 90.000000
_cell_volume 2833.468009
_symmetry_space_group_name_H-M "C 2/M"
_symmetry_group_IT_number 12
_symmetry_cell_setting 'monoclinic'
loop_
_space_group_symop_operation_xyz
x,y,z
-x,y,-z
-x,-y,-z
x,-y,z
1/2+x,1/2+y,z
1/2-x,1/2+y,-z
1/2-x,1/2-y,-z
1/2+x,1/2-y,z
loop_
_atom_site_type_symbol
_atom_site_label
_atom_site_fract_x
_atom_site_fract_y
_atom_site_fract_z
Si Si1 0.607027 0.500000 0.922214
Si Si2 0.700703 0.646768 0.735170
Si Si3 0.729608 0.000000 0.902557
Si Si4 0.374422 0.733556 0.731663
Si Si5 0.689460 0.352219 0.433163
Si Si6 0.628849 0.500000 0.170552
Si Si7 0.115938 0.245687 0.833673
Si Si8 0.971314 0.852832 0.421470
O O1 0.487821 0.500000 0.899695
O O2 0.622485 0.625513 0.884056
O O3 0.685795 0.500000 0.010048
O O4 0.670889 0.500000 0.735886
O O5 0.811069 0.654917 0.742758
O O6 0.684564 0.716164 0.796468
O O7 0.620394 0.704806 0.653853
O O8 0.659147 0.874508 0.880310
O O9 0.789655 0.000000 0.856525
O O10 0.322759 0.695319 0.644710
O O11 0.361866 0.619536 0.778212
O O12 0.495933 0.757939 0.768906
O O13 0.728630 0.500000 0.450660
O O14 0.750000 0.250000 0.500000
O O15 0.573705 0.356340 0.417672
O O16 0.000000 0.790792 0.500000
O O17 0.938417 0.000000 0.423715
#
# Coordination Sequence:
#
# PCOD9209868 Si02
#       8
#     4   8   4   8   8   4   8   8
#     4  10  23  42  67  90 123 169 208 242 305 388
#     4  11  21  37  63  88 122 164 211 254 296 372
#     4  12  23  42  63  99 129 152 200 269 316 357
#     4  11  22  39  62  91 124 164 209 253 309 366
#     4  11  22  37  60  87 124 163 208 258 308 356
#     4  10  21  38  66  87 116 169 211 245 298 379
#     4  11  23  40  66  93 124 166 204 250 312 369
#     4   9  18  33  55  83 114 157 208 249 293 357
#
# _framework density 18.352069
#
# number of rings (size 3 to 8) (size 9 to 14) (size 15 to 20)
#    0.000    1.385    4.615    1.615    1.077    1.846 
#    0.000    0.000    1.692    2.308    0.000    0.000 
#    0.000    0.000    0.000    0.000    0.000    0.000 
#
# Total GULP energy -145007.441516 kJ/mol
# GULP energy per Si atom -5577.209289 kJ/mol
# Density = 1.831030 g / cm^3
# Si number density = 18.352069 Si / 1000 Ang^3
#
#
#
# Elastic Constant Matrix: (Units=GPa)
#
#
# Indices 1 2 3 4 5 6 
#
# 1 74.8754 21.6516 15.4268 0.0000 -3.9843 0.0000
# 2 21.6516 88.0545 43.6813 0.0000 12.0882 0.0000
# 3 15.4268 43.6813 107.7991 0.0000 4.1124 0.0000
# 4 0.0000 0.0000 0.0000 10.2207 0.0000 3.2889
# 5 -3.9843 12.0882 4.1124 0.0000 19.4977 0.0000
# 6 0.0000 0.0000 0.0000 3.2889 0.0000 23.3493
#
#
#
# Elastic Compliance Matrix: (Units=1/GPa)
#
#
# Indices 1 2 3 4 5 6 
#
# 1 0.015002 -0.004140 -0.000690 0.000000 0.005778 0.000000
# 2 -0.004140 0.016589 -0.005751 0.000000 -0.009918 0.000000
# 3 -0.000690 -0.005751 0.011669 0.000000 0.000964 0.000000
# 4 0.000000 0.000000 0.000000 0.102486 0.000000 -0.014436
# 5 0.005778 -0.009918 0.000964 0.000000 0.058415 0.000000
# 6 0.000000 0.000000 0.000000 -0.014436 0.000000 0.044861
#
#
# Mechanical properties :
#
#
# Convention : Reuss Voigt Hill
#
# Bulk Modulus (GPa) = 45.25221 48.02761 46.63991
# Shear Modulus (GPa) = 18.01477 23.27815 20.64646
#
# Velocity S-wave (km/s) = 3.13648 3.56535 3.35777
# Velocity P-wave (km/s) = 6.15045 6.57084 6.36412
#
# Compressibility (1/GPa) = 0.02209837
#
# Stress axis : x y z
#
# Youngs Moduli (GPa) = 66.65678 60.28039 85.69747
#
# Poissons Ratio (x) = 0.24955 0.05912
# Poissons Ratio (y) = 0.27595 0.49287
# Poissons Ratio (z) = 0.04598 0.34669
#
# Static dielectric constant tensor:
#      x y z
#    x 1.624790 0.000000 0.002570 
#    y 0.000000 1.667380 0.000000 
#    z 0.002570 0.000000 1.642120 
# 
# From -- ./inp_files/310060.got.cif
#   From: 2010.05.17/outbox.cif.g08.bks.cpg/sg12_156_cif.got.tgz:310060.got - 2010.06.03 13:09:07.
