data_PCOD9209228
_publ_section_title
;
Structure prediction by ZEFSAII (Michael W. Deem and Ramdas Pophale) SiO2 
 PCOD9209228
Probable space group: C 2/M
;
_chemical_formula_sum "Si O2"
_cell_formula_units_Z 56
_cell_length_a 18.076783
_cell_length_b 24.634839
_cell_length_c 8.260120
_cell_angle_alpha 90.000000
_cell_angle_beta 42.690969
_cell_angle_gamma 90.000000
_cell_volume 2494.106498
_symmetry_space_group_name_H-M "C 2/M"
_symmetry_group_IT_number 12
_symmetry_cell_setting 'monoclinic'
loop_
_space_group_symop_operation_xyz
x,y,z
-x,y,-z
-x,-y,-z
x,-y,z
1/2+x,1/2+y,z
1/2-x,1/2+y,-z
1/2-x,1/2-y,-z
1/2+x,1/2-y,z
loop_
_atom_site_type_symbol
_atom_site_label
_atom_site_fract_x
_atom_site_fract_y
_atom_site_fract_z
Si Si1 0.185602 0.898062 0.386704
Si Si2 0.163933 0.500000 0.899417
Si Si3 0.292250 0.722907 0.764091
Si Si4 0.229952 0.601623 0.376806
Si Si5 0.080480 0.757401 0.017443
Si Si6 0.054110 0.313646 0.565494
Si Si7 0.585353 0.000000 0.646615
Si Si8 0.956185 0.121629 0.884007
O O1 0.258123 0.947469 0.200262
O O2 0.201527 0.841502 0.265106
O O3 0.228783 0.893903 0.503571
O O4 0.053560 0.904003 0.620987
O O5 0.121026 0.500000 0.780686
O O6 0.044692 0.500000 0.175825
O O7 0.403163 0.753854 0.550546
O O8 0.250000 0.750000 0.000000
O O9 0.204601 0.745525 0.775742
O O10 0.156757 0.653958 0.461686
O O11 0.146807 0.552678 0.483817
O O12 0.336323 0.595775 0.092189
O O13 0.042810 0.701238 0.159461
O O14 0.068201 0.815628 0.124998
O O15 0.000000 0.763510 0.000000
O O16 0.000000 0.342126 0.500000
O O17 0.000000 0.120910 0.000000
#
# Coordination Sequence:
#
# PCOD9209228 Si02
#       8
#     8   4   8   8   8   8   4   8
#     4  10  21  38  62  92 125 165 214 264 311 374
#     4   9  20  37  59  91 127 163 207 260 317 372
#     4  12  24  38  58  90 128 168 204 259 325 383
#     4  10  21  38  61  89 125 167 215 262 314 374
#     4  11  22  36  57  88 122 162 209 258 317 385
#     4  12  24  38  57  88 127 166 209 257 321 388
#     4   9  20  37  58  89 126 163 208 267 313 364
#     4   9  18  33  58  90 121 157 203 259 312 369
#
# _framework density 22.452929000000001
#
# number of rings (size 3 to 8) (size 9 to 14) (size 15 to 20)
#    0.000    1.571    4.286    0.857    2.000    1.714 
#    0.000    3.214    0.000    0.857    0.000    1.500 
#    0.000    0.000    0.000    0.000    0.000    0.000 
#
# Total GULP energy -156109.723903 kJ/mol
# GULP energy per Si atom -5575.347282 kJ/mol
# Density = 2.240183 g / cm^3
# Si number density = 22.452929 Si / 1000 Ang^3
#
#
#
# Elastic Constant Matrix: (Units=GPa)
#
#
# Indices 1 2 3 4 5 6 
#
# 1 55.5189 28.3850 35.5138 0.0000 -24.9041 0.0000
# 2 28.3850 141.5790 70.5203 0.0000 -22.7441 0.0000
# 3 35.5138 70.5203 132.3310 0.0000 -43.6387 0.0000
# 4 0.0000 0.0000 0.0000 28.7363 0.0000 -8.8494
# 5 -24.9041 -22.7441 -43.6387 0.0000 33.3295 0.0000
# 6 0.0000 0.0000 0.0000 -8.8494 0.0000 17.3357
#
#
#
# Elastic Compliance Matrix: (Units=1/GPa)
#
#
# Indices 1 2 3 4 5 6 
#
# 1 0.027877 -0.002631 0.000348 0.000000 0.019490 0.000000
# 2 -0.002631 0.009865 -0.005243 0.000000 -0.002099 0.000000
# 3 0.000348 -0.005243 0.016126 0.000000 0.017796 0.000000
# 4 0.000000 0.000000 0.000000 0.041290 0.000000 0.021077
# 5 0.019490 -0.002099 0.017796 0.000000 0.066435 0.000000
# 6 0.000000 0.000000 0.000000 0.021077 0.000000 0.068444
#
#
# Mechanical properties :
#
#
# Convention : Reuss Voigt Hill
#
# Bulk Modulus (GPa) = 25.76293 66.47413 46.11853
# Shear Modulus (GPa) = 19.37760 28.88096 24.12928
#
# Velocity S-wave (km/s) = 2.94093 3.59038 3.28176
# Velocity P-wave (km/s) = 4.79908 6.84529 5.91140
#
# Compressibility (1/GPa) = 0.03881546
#
# Stress axis : x y z
#
# Youngs Moduli (GPa) = 35.87148 101.36613 62.01047
#
# Poissons Ratio (x) = 0.26674 -0.02159
# Poissons Ratio (y) = 0.09440 0.32514
# Poissons Ratio (z) = -0.01249 0.53150
#
# Static dielectric constant tensor:
#      x y z
#    x 1.861990 0.000000 0.050600 
#    y 0.000000 1.852970 0.000000 
#    z 0.050600 0.000000 1.875960 
# 
# From -- ./inp_files/80047.got.cif
#   From: 2010.05.17/outbox.cif.g08.bks.cpg/sg12_41_cif.got.tgz:80047.got - 2010.06.03 13:09:07.
