data_PCOD9209568
_publ_section_title
;
Structure prediction by ZEFSAII (Michael W. Deem and Ramdas Pophale) SiO2 
 PCOD9209568
Probable space group: C 2/M
;
_chemical_formula_sum "Si O2"
_cell_formula_units_Z 56
_cell_length_a 15.738307
_cell_length_b 23.366283
_cell_length_c 9.132750
_cell_angle_alpha 90.000000
_cell_angle_beta 116.646665
_cell_angle_gamma 90.000000
_cell_volume 3001.817920
_symmetry_space_group_name_H-M "C 2/M"
_symmetry_group_IT_number 12
_symmetry_cell_setting 'monoclinic'
loop_
_space_group_symop_operation_xyz
x,y,z
-x,y,-z
-x,-y,-z
x,-y,z
1/2+x,1/2+y,z
1/2-x,1/2+y,-z
1/2-x,1/2-y,-z
1/2+x,1/2-y,z
loop_
_atom_site_type_symbol
_atom_site_label
_atom_site_fract_x
_atom_site_fract_y
_atom_site_fract_z
Si Si1 0.108166 0.632680 0.072464
Si Si2 0.102647 0.931693 0.634825
Si Si3 0.742852 0.837043 0.746048
Si Si4 0.236645 0.931758 0.998644
Si Si5 0.405861 0.263459 0.020393
Si Si6 0.236043 0.848685 0.581746
Si Si7 0.102777 0.240652 0.650440
O O1 0.105238 0.694856 0.993863
O O2 0.159355 0.645575 0.267106
O O3 0.176338 0.590460 0.035203
O O4 0.000000 0.611992 0.000000
O O5 0.179067 0.905017 0.584855
O O6 0.000000 0.910290 0.500000
O O7 0.102039 0.000000 0.625072
O O8 0.141568 0.918015 0.828545
O O9 0.755336 0.895440 0.846573
O O10 0.817056 0.793184 0.875796
O O11 0.762806 0.842448 0.590067
O O12 0.641809 0.805436 0.682720
O O13 0.240364 0.000000 0.023701
O O14 0.500000 0.277886 0.000000
O O15 0.406434 0.280736 0.190208
O O16 0.178276 0.797421 0.617263
O O17 0.000000 0.237333 0.500000
#
# Coordination Sequence:
#
# PCOD9209568 Si02
#       7
#     8   8   8   8   8   8   8
#     4  10  21  38  63  88 120 158 200 251 297 360
#     4   9  19  39  64  87 116 156 203 248 294 352
#     4  12  24  38  58  88 125 158 196 251 296 362
#     4  10  22  41  63  88 119 161 206 250 299 350
#     4  11  22  38  61  89 121 156 195 246 302 358
#     4  11  23  37  60  90 124 158 202 240 304 359
#     4  12  24  38  59  85 121 160 197 245 302 362
#
# _framework density 18.655362
#
# number of rings (size 3 to 8) (size 9 to 14) (size 15 to 20)
#    0.000    1.286    2.857    3.857    4.000    2.000 
#    0.000    0.000    0.000    6.000    0.000    0.000 
#    0.000    0.000    0.000    0.000    0.000    0.000 
#
# Total GULP energy -156344.702355 kJ/mol
# GULP energy per Si atom -5583.739370 kJ/mol
# Density = 1.861290 g / cm^3
# Si number density = 18.655362 Si / 1000 Ang^3
#
#
#
# Elastic Constant Matrix: (Units=GPa)
#
#
# Indices 1 2 3 4 5 6 
#
# 1 80.5767 35.2589 85.3280 0.0000 2.8341 0.0000
# 2 35.2589 70.3128 35.8429 0.0000 -4.3286 0.0000
# 3 85.3280 35.8429 177.5830 0.0000 -11.1208 0.0000
# 4 0.0000 0.0000 0.0000 33.3501 0.0000 5.0845
# 5 2.8341 -4.3286 -11.1208 0.0000 48.0993 0.0000
# 6 0.0000 0.0000 0.0000 5.0845 0.0000 19.0719
#
#
#
# Elastic Compliance Matrix: (Units=1/GPa)
#
#
# Indices 1 2 3 4 5 6 
#
# 1 0.030494 -0.008906 -0.013209 0.000000 -0.005652 0.000000
# 2 -0.008906 0.018477 0.000697 0.000000 0.002349 0.000000
# 3 -0.013209 0.000697 0.012065 0.000000 0.003630 0.000000
# 4 0.000000 0.000000 0.000000 0.031255 0.000000 -0.008333
# 5 -0.005652 0.002349 0.003630 0.000000 0.022174 0.000000
# 6 0.000000 0.000000 0.000000 -0.008333 0.000000 0.054655
#
#
# Mechanical properties :
#
#
# Convention : Reuss Voigt Hill
#
# Bulk Modulus (GPa) = 54.94350 71.25912 63.10131
# Shear Modulus (GPa) = 22.93346 31.57378 27.25362
#
# Velocity S-wave (km/s) = 3.50997 4.11844 3.82632
# Velocity P-wave (km/s) = 6.77808 7.80359 7.30884
#
# Compressibility (1/GPa) = 0.01820051
#
# Stress axis : x y z
#
# Youngs Moduli (GPa) = 32.79344 54.11994 82.88770
#
# Poissons Ratio (x) = 0.48200 1.09483
# Poissons Ratio (y) = 0.29206 -0.05777
# Poissons Ratio (z) = 0.43315 -0.03772
#
# Static dielectric constant tensor:
#      x y z
#    x 1.647450 0.000000 0.013330 
#    y 0.000000 1.653920 0.000000 
#    z 0.013330 0.000000 1.658410 
# 
# From -- ./inp_files/65773.got.cif
#   From: 2010.05.17/outbox.cif.g08.bks.cpg/sg12_33_cif.got.tgz:65773.got - 2010.06.03 13:09:07.
