data_PCOD9209705
_publ_section_title
;
Structure prediction by ZEFSAII (Michael W. Deem and Ramdas Pophale) SiO2 
 PCOD9209705
Probable space group: C 2/M
;
_chemical_formula_sum "Si O2"
_cell_formula_units_Z 28
_cell_length_a 8.208627
_cell_length_b 14.885294
_cell_length_c 11.520826
_cell_angle_alpha 90.000000
_cell_angle_beta 130.423357
_cell_angle_gamma 90.000000
_cell_volume 1071.649024
_symmetry_space_group_name_H-M "C 2/M"
_symmetry_group_IT_number 12
_symmetry_cell_setting 'monoclinic'
loop_
_space_group_symop_operation_xyz
x,y,z
-x,y,-z
-x,-y,-z
x,-y,z
1/2+x,1/2+y,z
1/2-x,1/2+y,-z
1/2-x,1/2-y,-z
1/2+x,1/2-y,z
loop_
_atom_site_type_symbol
_atom_site_label
_atom_site_fract_x
_atom_site_fract_y
_atom_site_fract_z
Si Si1 0.260660 0.341799 0.931412
Si Si2 0.710861 0.102104 0.672634
Si Si3 0.589762 0.389943 0.670113
Si Si4 0.000000 0.377869 0.000000
O O1 0.147107 0.341724 0.756065
O O2 0.165704 0.410335 0.979804
O O3 0.500000 0.358610 0.000000
O O4 0.250000 0.250000 0.000000
O O5 0.500000 0.098731 0.500000
O O6 0.908123 0.131010 0.682579
O O7 0.758870 0.000000 0.735268
O O8 0.500000 0.365449 0.500000
O O9 0.621040 0.500000 0.682728
O O10 0.815586 0.347812 0.818390
#
# Coordination Sequence:
#
# PCOD9209705 Si02
#       4
#     8   8   8   4
#     4  12  25  45  68  98 139 186 235 284 346 420
#     4  10  22  43  71 104 142 180 231 296 351 412
#     4  10  21  38  64 102 142 179 226 285 354 423
#     4  12  23  40  68  94 135 186 234 286 338 420
#
# _framework density 26.127956000000001
#
# number of rings (size 3 to 8) (size 9 to 14) (size 15 to 20)
#    0.000    1.143    4.286    2.143    0.000    5.143 
#    0.000    2.857    0.000    0.000    0.000    0.000 
#    0.000    0.000    0.000    0.000    0.000    0.000 
#
# Total GULP energy -77993.164300 kJ/mol
# GULP energy per Si atom -5570.940307 kJ/mol
# Density = 2.606849 g / cm^3
# Si number density = 26.127956 Si / 1000 Ang^3
#
#
#
# Elastic Constant Matrix: (Units=GPa)
#
#
# Indices 1 2 3 4 5 6 
#
# 1 253.3140 42.7838 78.7910 0.0000 -26.4985 0.0000
# 2 42.7838 111.9384 40.3502 0.0000 -20.0308 0.0000
# 3 78.7910 40.3502 218.0540 0.0000 -24.8334 0.0000
# 4 0.0000 0.0000 0.0000 17.7721 0.0000 0.5892
# 5 -26.4985 -20.0308 -24.8334 0.0000 69.2669 0.0000
# 6 0.0000 0.0000 0.0000 0.5892 0.0000 -19.3873
#
#
#
# Elastic Compliance Matrix: (Units=1/GPa)
#
#
# Indices 1 2 3 4 5 6 
#
# 1 0.004663 -0.001115 -0.001368 0.000000 0.000971 0.000000
# 2 -0.001115 0.010179 -0.001245 0.000000 0.002071 0.000000
# 3 -0.001368 -0.001245 0.005432 0.000000 0.001064 0.000000
# 4 0.000000 0.000000 0.000000 0.056211 0.000000 0.001708
# 5 0.000971 0.002071 0.001064 0.000000 0.015789 0.000000
# 6 0.000000 0.000000 0.000000 0.001708 0.000000 -0.051528
#
#
# Mechanical properties :
#
#
# Convention : Reuss Voigt Hill
#
# Bulk Modulus (GPa) = 78.01710 100.79514 89.40612
# Shear Modulus (GPa) = 95.28441 41.62245 68.45343
#
# Velocity S-wave (km/s) = 6.04546 3.99560 5.12408
# Velocity P-wave (km/s) = 8.86874 7.74259 8.32473
#
# Compressibility (1/GPa) = 0.01281770
#
# Stress axis : x y z
#
# Youngs Moduli (GPa) = 214.44857 98.24119 184.09955
#
# Poissons Ratio (x) = 0.10958 0.25184
# Poissons Ratio (y) = 0.23920 0.22915
# Poissons Ratio (z) = 0.29336 0.12228
#
# Static dielectric constant tensor:
#      x y z
#    x 2.022450 0.000000 -0.017540 
#    y 0.000000 2.305880 0.000000 
#    z -0.017540 0.000000 2.180300 
# 
# From -- ./inp_files/120562.got.cif
#   From: 2010.05.17/outbox.cif.g08.bks.cpg/sg12_61_cif.got.tgz:120562.got - 2010.06.03 13:09:07.
