data_PCOD9209930
_publ_section_title
;
Structure prediction by ZEFSAII (Michael W. Deem and Ramdas Pophale) SiO2 
 PCOD9209930
Probable space group: C 2/M
;
_chemical_formula_sum "Si O2"
_cell_formula_units_Z 28
_cell_length_a 17.933339
_cell_length_b 7.681617
_cell_length_c 18.255910
_cell_angle_alpha 90.000000
_cell_angle_beta 142.538224
_cell_angle_gamma 90.000000
_cell_volume 1529.630637
_symmetry_space_group_name_H-M "C 2/M"
_symmetry_group_IT_number 12
_symmetry_cell_setting 'monoclinic'
loop_
_space_group_symop_operation_xyz
x,y,z
-x,y,-z
-x,-y,-z
x,-y,z
1/2+x,1/2+y,z
1/2-x,1/2+y,-z
1/2-x,1/2-y,-z
1/2+x,1/2-y,z
loop_
_atom_site_type_symbol
_atom_site_label
_atom_site_fract_x
_atom_site_fract_y
_atom_site_fract_z
Si Si1 0.459263 0.196030 0.669226
Si Si2 0.123693 0.000000 0.292600
Si Si3 0.918487 0.000000 0.007331
Si Si4 0.738770 0.297865 0.905831
Si Si5 0.104612 0.500000 0.519355
O O1 0.386379 0.332957 0.661629
O O2 0.599350 0.258535 0.775160
O O3 0.455502 0.000000 0.699387
O O4 0.414419 0.163206 0.551230
O O5 0.251865 0.000000 0.348392
O O6 0.006540 0.000000 0.147493
O O7 0.832305 0.831250 0.940112
O O8 0.000000 0.000000 0.000000
O O9 0.766678 0.500000 0.916527
O O10 0.750000 0.250000 0.000000
O O11 0.000000 0.500000 0.500000
#
# Coordination Sequence:
#
# PCOD9209930 Si02
#       5
#     8   4   4   8   4
#     4  10  21  38  68  87 122 161 213 250 304 371
#     4  12  22  42  65  94 118 169 219 245 303 384
#     4  12  27  38  63  97 139 163 199 269 321 364
#     4  12  20  39  67  96 122 165 213 252 313 385
#     4  10  25  42  65  91 126 162 203 266 324 348
#
# _framework density 18.305071999999999
#
# number of rings (size 3 to 8) (size 9 to 14) (size 15 to 20)
#    0.857    0.000    7.143    0.857    4.000    0.571 
#    0.000    0.714    0.000    0.000    0.000    0.000 
#    0.000    0.000    0.000    0.000    0.000    0.000 
#
# Total GULP energy -78087.662085 kJ/mol
# GULP energy per Si atom -5577.690149 kJ/mol
# Density = 1.826341 g / cm^3
# Si number density = 18.305072 Si / 1000 Ang^3
#
#
#
# Elastic Constant Matrix: (Units=GPa)
#
#
# Indices 1 2 3 4 5 6 
#
# 1 118.5560 56.9124 14.0757 0.0000 30.9158 0.0000
# 2 56.9124 171.2571 17.0031 0.0000 18.7081 0.0000
# 3 14.0757 17.0031 72.5329 0.0000 25.0671 0.0000
# 4 0.0000 0.0000 0.0000 19.6829 0.0000 3.2123
# 5 30.9158 18.7081 25.0671 0.0000 33.9663 0.0000
# 6 0.0000 0.0000 0.0000 3.2123 0.0000 20.5431
#
#
#
# Elastic Compliance Matrix: (Units=1/GPa)
#
#
# Indices 1 2 3 4 5 6 
#
# 1 0.012682 -0.003187 0.002240 0.000000 -0.011441 0.000000
# 2 -0.003187 0.007021 -0.000931 0.000000 -0.000279 0.000000
# 3 0.002240 -0.000931 0.018925 0.000000 -0.015492 0.000000
# 4 0.000000 0.000000 0.000000 0.052136 0.000000 -0.008152
# 5 -0.011441 -0.000279 -0.015492 0.000000 0.051442 0.000000
# 6 0.000000 0.000000 0.000000 -0.008152 0.000000 0.049953
#
#
# Mechanical properties :
#
#
# Convention : Reuss Voigt Hill
#
# Bulk Modulus (GPa) = 28.67634 59.81425 44.24530
# Shear Modulus (GPa) = 24.09185 33.12877 28.61031
#
# Velocity S-wave (km/s) = 3.63179 4.25881 3.95773
# Velocity P-wave (km/s) = 5.76943 7.54523 6.71628
#
# Compressibility (1/GPa) = 0.03487195
#
# Stress axis : x y z
#
# Youngs Moduli (GPa) = 78.84960 142.42416 52.84151
#
# Poissons Ratio (x) = 0.45393 -0.11837
# Poissons Ratio (y) = 0.25131 0.04919
# Poissons Ratio (z) = -0.17662 0.13258
#
# Static dielectric constant tensor:
#      x y z
#    x 1.601580 0.000000 0.004580 
#    y 0.000000 1.591140 0.000000 
#    z 0.004580 0.000000 1.678530 
# 
# From -- ./inp_files/267476.got.cif
#   From: 2010.05.17/outbox.cif.g08.bks.cpg/sg12_134_cif.got.tgz:267476.got - 2010.06.03 13:09:07.
