data_PCOD9209241
_publ_section_title
;
Structure prediction by ZEFSAII (Michael W. Deem and Ramdas Pophale) SiO2 
 PCOD9209241
Probable space group: C 2/M
;
_chemical_formula_sum "Si O2"
_cell_formula_units_Z 48
_cell_length_a 22.353919
_cell_length_b 8.704802
_cell_length_c 12.622860
_cell_angle_alpha 90.000000
_cell_angle_beta 71.907298
_cell_angle_gamma 90.000000
_cell_volume 2334.789445
_symmetry_space_group_name_H-M "C 2/M"
_symmetry_group_IT_number 12
_symmetry_cell_setting 'monoclinic'
loop_
_space_group_symop_operation_xyz
x,y,z
-x,y,-z
-x,-y,-z
x,-y,z
1/2+x,1/2+y,z
1/2-x,1/2+y,-z
1/2-x,1/2-y,-z
1/2+x,1/2-y,z
loop_
_atom_site_type_symbol
_atom_site_label
_atom_site_fract_x
_atom_site_fract_y
_atom_site_fract_z
Si Si1 0.630834 0.685757 0.324473
Si Si2 0.675333 0.819213 0.751385
Si Si3 0.526534 0.181815 0.871640
Si Si4 0.503593 0.682665 0.665922
Si Si5 0.766917 0.317972 0.876475
Si Si6 0.853171 0.814203 0.452676
O O1 0.631527 0.500000 0.318263
O O2 0.557971 0.737548 0.362190
O O3 0.667663 0.753448 0.205227
O O4 0.663775 0.728047 0.417664
O O5 0.601770 0.797541 0.822125
O O6 0.716442 0.732808 0.815674
O O7 0.682231 0.759600 0.627077
O O8 0.690421 0.000000 0.746933
O O9 0.495634 0.274979 0.793158
O O10 0.513734 0.000000 0.863834
O O11 0.500000 0.227961 0.000000
O O12 0.505747 0.500000 0.649576
O O13 0.573413 0.737306 0.597932
O O14 0.769559 0.500000 0.882873
O O15 0.750000 0.250000 0.000000
O O16 0.850090 0.000000 0.444337
#
# Coordination Sequence:
#
# PCOD9209241 Si02
#       6
#     8   8   8   8   8   8
#     4  10  21  38  61  90 122 159 200 241 291 349
#     4  10  21  39  61  86 119 155 196 246 294 346
#     4   9  19  34  54  82 115 153 192 237 295 348
#     4   9  18  33  56  89 122 154 193 238 288 343
#     4  12  27  45  63  84 115 155 200 247 297 350
#     4   9  18  36  62  91 124 158 194 240 293 348
#
# _framework density 20.558599999999998
#
# number of rings (size 3 to 8) (size 9 to 14) (size 15 to 20)
#    0.000    2.167    0.000    2.500    2.333    5.000 
#    0.000    0.000    0.000    5.000    0.000    0.000 
#    0.000    0.000    0.000    0.000    0.000    0.000 
#
# Total GULP energy -134045.129747 kJ/mol
# GULP energy per Si atom -5585.213739 kJ/mol
# Density = 2.051181 g / cm^3
# Si number density = 20.558600 Si / 1000 Ang^3
#
#
#
# Elastic Constant Matrix: (Units=GPa)
#
#
# Indices 1 2 3 4 5 6 
#
# 1 73.7905 17.3811 23.0408 0.0000 16.5492 0.0000
# 2 17.3811 36.9874 20.8765 0.0000 2.0726 0.0000
# 3 23.0408 20.8765 115.8112 0.0000 11.0496 0.0000
# 4 0.0000 0.0000 0.0000 29.7828 0.0000 2.1319
# 5 16.5492 2.0726 11.0496 0.0000 24.2706 0.0000
# 6 0.0000 0.0000 0.0000 2.1319 0.0000 23.8956
#
#
#
# Elastic Compliance Matrix: (Units=1/GPa)
#
#
# Indices 1 2 3 4 5 6 
#
# 1 0.018146 -0.007197 -0.001245 0.000000 -0.011192 0.000000
# 2 -0.007197 0.032954 -0.004922 0.000000 0.004334 0.000000
# 3 -0.001245 -0.004922 0.010087 0.000000 -0.003323 0.000000
# 4 0.000000 0.000000 0.000000 0.033792 0.000000 -0.003015
# 5 -0.011192 0.004334 -0.003323 0.000000 0.049976 0.000000
# 6 0.000000 0.000000 0.000000 -0.003015 0.000000 0.042118
#
#
# Mechanical properties :
#
#
# Convention : Reuss Voigt Hill
#
# Bulk Modulus (GPa) = 29.02102 38.79844 33.90973
# Shear Modulus (GPa) = 22.19400 26.60918 24.40159
#
# Velocity S-wave (km/s) = 3.28921 3.60155 3.44892
# Velocity P-wave (km/s) = 5.34529 6.01731 5.69123
#
# Compressibility (1/GPa) = 0.03445779
#
# Stress axis : x y z
#
# Youngs Moduli (GPa) = 55.10896 30.34578 99.14030
#
# Poissons Ratio (x) = 0.21841 0.12342
# Poissons Ratio (y) = 0.39663 0.48796
# Poissons Ratio (z) = 0.06861 0.14936
#
# Static dielectric constant tensor:
#      x y z
#    x 1.765880 0.000000 -0.021870 
#    y 0.000000 1.694640 0.000000 
#    z -0.021870 0.000000 1.726960 
# 
# From -- ./inp_files/172410.got.cif
#   From: 2010.05.17/outbox.cif.g08.bks.cpg/sg12_87_cif.got.tgz:172410.got - 2010.06.03 13:09:07.
