data_PCOD9209200
_publ_section_title
;
Structure prediction by ZEFSAII (Michael W. Deem and Ramdas Pophale) SiO2 
 PCOD9209200
Probable space group: C 2/M
;
_chemical_formula_sum "Si O2"
_cell_formula_units_Z 56
_cell_length_a 16.574619
_cell_length_b 17.374354
_cell_length_c 21.860991
_cell_angle_alpha 90.000000
_cell_angle_beta 155.786058
_cell_angle_gamma 90.000000
_cell_volume 2582.019136
_symmetry_space_group_name_H-M "C 2/M"
_symmetry_group_IT_number 12
_symmetry_cell_setting 'monoclinic'
loop_
_space_group_symop_operation_xyz
x,y,z
-x,y,-z
-x,-y,-z
x,-y,z
1/2+x,1/2+y,z
1/2-x,1/2+y,-z
1/2-x,1/2-y,-z
1/2+x,1/2-y,z
loop_
_atom_site_type_symbol
_atom_site_label
_atom_site_fract_x
_atom_site_fract_y
_atom_site_fract_z
Si Si1 0.077535 0.864438 0.120130
Si Si2 0.242645 0.706953 0.379045
Si Si3 0.161849 0.911647 0.801393
Si Si4 0.010680 0.585605 0.572091
Si Si5 0.203890 0.201325 0.721988
Si Si6 0.105487 0.179731 0.884615
Si Si7 0.804485 0.588303 0.550751
O O1 0.259546 0.918840 0.258871
O O2 0.171933 0.778563 0.181924
O O3 0.933508 0.864746 0.078751
O O4 0.000000 0.883117 0.000000
O O5 0.468921 0.718745 0.556604
O O6 0.246469 0.674449 0.312504
O O7 0.156342 0.645025 0.366389
O O8 0.102766 0.781636 0.279898
O O9 0.246163 0.859523 0.804706
O O10 0.183494 0.871168 0.882352
O O11 0.927363 0.913234 0.624610
O O12 0.231768 0.000000 0.849770
O O13 0.919333 0.500000 0.501374
O O14 0.000000 0.628828 0.500000
O O15 0.914118 0.617340 0.566092
O O16 0.250000 0.250000 0.000000
O O17 0.866497 0.500000 0.606002
#
# Coordination Sequence:
#
# PCOD9209200 Si02
#       7
#     8   8   8   8   8   8   8
#     4  11  24  38  61  88 122 161 199 254 307 364
#     4   9  20  36  60  88 118 158 200 254 304 359
#     4  10  21  38  61  89 119 160 201 247 306 367
#     4  10  22  38  59  87 122 161 204 249 297 365
#     4   9  20  37  60  91 119 152 205 252 305 360
#     4  11  24  39  59  87 121 158 203 252 306 361
#     4   9  19  34  58  89 119 153 198 250 303 354
#
# _framework density 21.688452999999999
#
# number of rings (size 3 to 8) (size 9 to 14) (size 15 to 20)
#    0.000    2.143    0.000    1.714   10.000    3.714 
#    0.000    3.571    0.000    8.143    0.000    0.000 
#    0.000    0.000    0.000    0.000    0.000    0.000 
#
# Total GULP energy -156417.498137 kJ/mol
# GULP energy per Si atom -5586.339219 kJ/mol
# Density = 2.163909 g / cm^3
# Si number density = 21.688453 Si / 1000 Ang^3
#
#
#
# Elastic Constant Matrix: (Units=GPa)
#
#
# Indices 1 2 3 4 5 6 
#
# 1 157.0475 64.9982 9.1196 0.0089 -25.8736 -0.0008
# 2 64.9982 93.8694 -1.5205 -0.0468 -20.2356 0.0057
# 3 9.1196 -1.5205 49.5066 -0.0500 -21.3140 0.0043
# 4 0.0089 -0.0468 -0.0500 24.7896 -0.0130 -2.8826
# 5 -25.8736 -20.2356 -21.3140 -0.0130 32.7658 0.0076
# 6 -0.0008 0.0057 0.0043 -2.8826 0.0076 18.4633
#
#
#
# Elastic Compliance Matrix: (Units=1/GPa)
#
#
# Indices 1 2 3 4 5 6 
#
# 1 0.009342 -0.005685 -0.000321 -0.000013 0.003656 -0.000001
# 2 -0.005685 0.016736 0.005665 0.000050 0.009532 -0.000003
# 3 -0.000321 0.005665 0.030321 0.000083 0.022969 -0.000005
# 4 -0.000013 0.000050 0.000083 0.041086 0.000090 0.006414
# 5 0.003656 0.009532 0.022969 0.000090 0.054235 -0.000016
# 6 -0.000001 -0.000003 -0.000005 0.006414 -0.000016 0.055163
#
#
# Mechanical properties :
#
#
# Convention : Reuss Voigt Hill
#
# Bulk Modulus (GPa) = 17.94815 49.51314 33.73064
# Shear Modulus (GPa) = 22.11040 30.39215 26.25128
#
# Velocity S-wave (km/s) = 3.19635 3.74746 3.48283
# Velocity P-wave (km/s) = 4.68141 6.45007 5.63556
#
# Compressibility (1/GPa) = 0.05571606
#
# Stress axis : x y z
#
# Youngs Moduli (GPa) = 107.04801 59.74997 32.98017
#
# Poissons Ratio (x) = 0.33970 0.01059
# Poissons Ratio (y) = 0.60861 -0.18683
# Poissons Ratio (z) = 0.03439 -0.33849
#
# Static dielectric constant tensor:
#      x y z
#    x 1.797870 -0.000010 -0.000800 
#    y -0.000010 1.833140 0.000000 
#    z -0.000800 0.000000 1.830160 
# 
# From -- ./inp_files/311742.got.cif
#   From: 2010.05.17/outbox.cif.g08.bks.cpg/sg12_156_cif.got.tgz:311742.got - 2010.06.03 13:09:07.
