data_PCOD9209035
_publ_section_title
;
Structure prediction by ZEFSAII (Michael W. Deem and Ramdas Pophale) SiO2 
 PCOD9209035
Probable space group: C 2/M
;
_chemical_formula_sum "Si O2"
_cell_formula_units_Z 40
_cell_length_a 13.297503
_cell_length_b 14.118059
_cell_length_c 17.722981
_cell_angle_alpha 90.000000
_cell_angle_beta 32.853839
_cell_angle_gamma 90.000000
_cell_volume 1805.011039
_symmetry_space_group_name_H-M "C 2/M"
_symmetry_group_IT_number 12
_symmetry_cell_setting 'monoclinic'
loop_
_space_group_symop_operation_xyz
x,y,z
-x,y,-z
-x,-y,-z
x,-y,z
1/2+x,1/2+y,z
1/2-x,1/2+y,-z
1/2-x,1/2-y,-z
1/2+x,1/2-y,z
loop_
_atom_site_type_symbol
_atom_site_label
_atom_site_fract_x
_atom_site_fract_y
_atom_site_fract_z
Si Si1 0.718967 0.890183 0.938764
Si Si2 0.477772 0.888052 0.236777
Si Si3 0.833830 0.752930 0.530649
Si Si4 0.790493 0.726181 0.782272
Si Si5 0.880147 0.110642 0.235062
O O1 0.716047 0.817860 0.871914
O O2 0.918124 0.878377 0.854868
O O3 0.703305 0.000000 0.924799
O O4 0.568942 0.870456 0.097913
O O5 0.275007 0.841565 0.365676
O O6 0.605440 0.837917 0.220056
O O7 0.473136 0.000000 0.253589
O O8 0.750000 0.750000 0.500000
O O9 0.764677 0.658463 0.616104
O O10 0.051902 0.756127 0.378273
O O11 0.641500 0.665672 0.829963
O O12 0.842793 0.000000 0.247799
#
# Coordination Sequence:
#
# PCOD9209035 Si02
#       5
#     8   8   8   8   8
#     4  10  22  42  66  92 129 171 211 258 321 379
#     4  10  21  39  63  92 127 172 213 258 317 380
#     4  10  21  38  60  92 124 172 208 254 317 383
#     4  11  22  39  64  96 128 167 212 266 319 375
#     4  11  23  40  67  99 128 162 212 269 319 377
#
# _framework density 22.160529
#
# number of rings (size 3 to 8) (size 9 to 14) (size 15 to 20)
#    0.000    1.600    4.000    1.800    0.000    6.400 
#    0.000    4.000    0.000    4.800    0.000    0.000 
#    0.000    0.000    0.000    0.000    0.000    0.000 
#
# Total GULP energy -111955.284021 kJ/mol
# GULP energy per Si atom -5597.764201 kJ/mol
# Density = 2.211009 g / cm^3
# Si number density = 22.160529 Si / 1000 Ang^3
#
#
#
# Elastic Constant Matrix: (Units=GPa)
#
#
# Indices 1 2 3 4 5 6 
#
# 1 109.4177 72.9566 29.7532 -0.0007 7.9701 0.0001
# 2 72.9566 180.0744 92.4049 -0.0001 28.9114 -0.0004
# 3 29.7532 92.4049 144.9490 -0.0003 14.2745 0.0005
# 4 -0.0007 -0.0001 -0.0003 31.8744 0.0009 -0.0558
# 5 7.9701 28.9114 14.2745 0.0009 21.5852 -0.0005
# 6 0.0001 -0.0004 0.0005 -0.0558 -0.0005 22.0595
#
#
#
# Elastic Compliance Matrix: (Units=1/GPa)
#
#
# Indices 1 2 3 4 5 6 
#
# 1 0.012754 -0.006149 0.001021 0.000000 0.002852 0.000000
# 2 -0.006149 0.012796 -0.005809 0.000000 -0.011027 0.000000
# 3 0.001021 -0.005809 0.010337 0.000000 0.000568 0.000000
# 4 0.000000 0.000000 0.000000 0.031373 -0.000002 0.000079
# 5 0.002852 -0.011027 0.000568 -0.000002 0.059669 0.000001
# 6 0.000000 0.000000 0.000000 0.000079 0.000001 0.045332
#
#
# Mechanical properties :
#
#
# Convention : Reuss Voigt Hill
#
# Bulk Modulus (GPa) = 71.36510 91.63007 81.49759
# Shear Modulus (GPa) = 25.15013 31.05890 28.10451
#
# Velocity S-wave (km/s) = 3.37249 3.74778 3.56508
# Velocity P-wave (km/s) = 6.88756 7.75667 7.33500
#
# Compressibility (1/GPa) = 0.01401245
#
# Stress axis : x y z
#
# Youngs Moduli (GPa) = 78.40738 78.14969 96.74148
#
# Poissons Ratio (x) = 0.48055 -0.09880
# Poissons Ratio (y) = 0.48213 0.56200
# Poissons Ratio (z) = -0.08008 0.45400
#
# Static dielectric constant tensor:
#      x y z
#    x 1.862020 0.000000 -0.021060 
#    y 0.000000 1.773320 0.000000 
#    z -0.021060 0.000000 1.824780 
# 
# From -- ./inp_files/96075.got.cif
#   From: 2010.05.17/outbox.cif.g08.bks.cpg/sg12_49_cif.got.tgz:96075.got - 2010.06.03 13:09:07.
