data_PCOD9209072
_publ_section_title
;
Structure prediction by ZEFSAII (Michael W. Deem and Ramdas Pophale) SiO2 
 PCOD9209072
Probable space group: C 2/M
;
_chemical_formula_sum "Si O2"
_cell_formula_units_Z 44
_cell_length_a 26.422319
_cell_length_b 9.717011
_cell_length_c 10.769203
_cell_angle_alpha 90.000000
_cell_angle_beta 124.941264
_cell_angle_gamma 90.000000
_cell_volume 2266.538545
_symmetry_space_group_name_H-M "C 2/M"
_symmetry_group_IT_number 12
_symmetry_cell_setting 'monoclinic'
loop_
_space_group_symop_operation_xyz
x,y,z
-x,y,-z
-x,-y,-z
x,-y,z
1/2+x,1/2+y,z
1/2-x,1/2+y,-z
1/2-x,1/2-y,-z
1/2+x,1/2-y,z
loop_
_atom_site_type_symbol
_atom_site_label
_atom_site_fract_x
_atom_site_fract_y
_atom_site_fract_z
Si Si1 0.871283 0.846111 0.411235
Si Si2 0.425420 0.340845 0.755467
Si Si3 0.000000 0.748086 0.500000
Si Si4 0.231717 0.338323 0.853896
Si Si5 0.864341 0.841836 0.935165
Si Si6 0.464615 0.156692 0.182981
O O1 0.882345 0.825600 0.573768
O O2 0.939251 0.835063 0.446943
O O3 0.827317 0.731474 0.292078
O O4 0.846267 0.000000 0.353970
O O5 0.447606 0.500000 0.787224
O O6 0.388314 0.316903 0.829546
O O7 0.483239 0.240430 0.819254
O O8 0.984595 0.663268 0.354790
O O9 0.221546 0.500000 0.867983
O O10 0.291220 0.328338 0.847503
O O11 0.250000 0.250000 0.000000
O O12 0.880234 0.000000 0.991455
O O13 0.900867 0.737546 0.074427
O O14 0.459919 0.000000 0.134661
#
# Coordination Sequence:
#
# PCOD9209072 Si02
#       6
#     8   8   4   8   8   8
#     4  10  21  38  61  86 112 145 189 234 277 332
#     4   9  20  39  60  82 112 151 189 227 278 339
#     4  10  22  38  58  82 116 154 186 224 282 342
#     4  11  24  40  59  84 115 150 189 232 279 333
#     4  10  22  40  59  80 112 154 191 225 276 341
#     4  11  22  35  56  87 117 146 187 238 284 326
#
# _framework density 19.412860999999999
#
# number of rings (size 3 to 8) (size 9 to 14) (size 15 to 20)
#    0.000    1.818    0.000    3.273    0.000   13.818 
#    0.000    0.000    0.000    0.000    0.000    0.000 
#    0.000    0.000    0.000    0.000    0.000    0.000 
#
# Total GULP energy -122933.999919 kJ/mol
# GULP energy per Si atom -5587.909087 kJ/mol
# Density = 1.936868 g / cm^3
# Si number density = 19.412861 Si / 1000 Ang^3
#
#
#
# Elastic Constant Matrix: (Units=GPa)
#
#
# Indices 1 2 3 4 5 6 
#
# 1 82.1329 44.2200 39.6961 0.0000 2.3874 0.0000
# 2 44.2200 130.9176 62.0959 0.0000 12.3015 0.0000
# 3 39.6961 62.0959 83.5755 0.0000 11.3753 0.0000
# 4 0.0000 0.0000 0.0000 16.9591 0.0000 -8.6817
# 5 2.3874 12.3015 11.3753 0.0000 27.4797 0.0000
# 6 0.0000 0.0000 0.0000 -8.6817 0.0000 -1.8673
#
#
#
# Elastic Compliance Matrix: (Units=1/GPa)
#
#
# Indices 1 2 3 4 5 6 
#
# 1 0.016613 -0.002994 -0.005990 0.000000 0.002376 0.000000
# 2 -0.002994 0.012415 -0.007504 0.000000 -0.002191 0.000000
# 3 -0.005990 -0.007504 0.021043 0.000000 -0.004831 0.000000
# 4 0.000000 0.000000 0.000000 0.017445 0.000000 -0.081107
# 5 0.002376 -0.002191 -0.004831 0.000000 0.039165 0.000000
# 6 0.000000 0.000000 0.000000 -0.081107 0.000000 -0.158437
#
#
# Mechanical properties :
#
#
# Convention : Reuss Voigt Hill
#
# Bulk Modulus (GPa) = 58.49304 65.40556 61.94930
# Shear Modulus (GPa) = -382.17192 18.55523 -181.80834
#
# Velocity S-wave (km/s) = -14.04609 3.09499 -9.68798
# Velocity P-wave (km/s) = 15.25977 6.82180 9.65203
#
# Compressibility (1/GPa) = 0.01709605
#
# Stress axis : x y z
#
# Youngs Moduli (GPa) = 60.19350 80.55045 47.52130
#
# Poissons Ratio (x) = 0.24113 0.28465
# Poissons Ratio (y) = 0.18019 0.35659
# Poissons Ratio (z) = 0.36056 0.60444
#
# Static dielectric constant tensor:
#      x y z
#    x 1.674270 0.000000 -0.013980 
#    y 0.000000 1.667070 0.000000 
#    z -0.013980 0.000000 1.670860 
# 
# From -- ./inp_files/163285.got.cif
#   From: 2010.05.17/outbox.cif.g08.bks.cpg/sg12_82_cif.got.tgz:163285.got - 2010.06.03 13:09:07.
