data_PCOD9209642
_publ_section_title
;
Structure prediction by ZEFSAII (Michael W. Deem and Ramdas Pophale) SiO2 
 PCOD9209642
Probable space group: C 2/M
;
_chemical_formula_sum "Si O2"
_cell_formula_units_Z 42
_cell_length_a 4.779258
_cell_length_b 20.290249
_cell_length_c 16.962656
_cell_angle_alpha 90.000000
_cell_angle_beta 89.344771
_cell_angle_gamma 90.000000
_cell_volume 1644.800798
_symmetry_space_group_name_H-M "C 2/M"
_symmetry_group_IT_number 12
_symmetry_cell_setting 'monoclinic'
loop_
_space_group_symop_operation_xyz
x,y,z
-x,y,-z
-x,-y,-z
x,-y,z
1/2+x,1/2+y,z
1/2-x,1/2+y,-z
1/2-x,1/2-y,-z
1/2+x,1/2-y,z
loop_
_atom_site_type_symbol
_atom_site_label
_atom_site_fract_x
_atom_site_fract_y
_atom_site_fract_z
Si Si1 0.229177 0.868783 0.053526
Si Si2 0.000000 0.000000 0.500000
Si Si3 0.649543 0.500000 0.137889
Si Si4 0.476156 0.069878 0.597816
Si Si5 0.261790 0.295373 0.610039
Si Si6 0.683246 0.288968 0.205943
Si Si7 0.849171 0.500000 0.750403
O O1 0.099049 0.936699 0.085056
O O2 0.292187 0.832000 0.134312
O O3 0.500000 0.879820 0.000000
O O4 0.000000 0.832651 0.000000
O O5 0.189836 0.942647 0.552153
O O6 0.462508 0.500000 0.216876
O O7 0.961328 0.500000 0.172699
O O8 0.631481 0.137056 0.579870
O O9 0.409830 0.060524 0.690698
O O10 0.657559 0.000000 0.578866
O O11 0.568721 0.268117 0.591036
O O12 0.258822 0.308230 0.704648
O O13 0.352910 0.279425 0.197860
#
# Coordination Sequence:
#
# PCOD9209642 Si02
#       7
#     8   2   4   8   8   8   4
#     4  12  25  38  57  80 113 153 194 245 307 376
#     4   6  16  36  68  88 144 166 214 238 308 356
#     4  12  22  41  56  86 114 149 194 261 304 352
#     4   8  18  39  63  98 128 171 207 252 303 371
#     4  10  21  38  63  93 125 160 207 263 310 355
#     4  10  22  39  58  81 112 149 194 250 302 356
#     4   9  22  34  66  82 112 155 208 251 300 360
#
# _framework density 25.535008000000001
#
# number of rings (size 3 to 8) (size 9 to 14) (size 15 to 20)
#    1.143    0.762    0.000    4.000    0.000    8.381 
#    0.000    0.952    0.000   19.429    0.000    0.000 
#    0.000    0.000    0.000    0.000    0.000    0.000 
#
# Total GULP energy -117243.960389 kJ/mol
# GULP energy per Si atom -5583.045733 kJ/mol
# Density = 2.547689 g / cm^3
# Si number density = 25.535008 Si / 1000 Ang^3
#
#
#
# Elastic Constant Matrix: (Units=GPa)
#
#
# Indices 1 2 3 4 5 6 
#
# 1 79.2484 29.8197 4.5553 0.0000 16.3160 0.0000
# 2 29.8197 76.9863 17.6259 0.0000 21.3471 0.0000
# 3 4.5553 17.6259 124.6614 0.0000 7.2449 0.0000
# 4 0.0000 0.0000 0.0000 44.1681 0.0000 8.0244
# 5 16.3160 21.3471 7.2449 0.0000 47.7131 0.0000
# 6 0.0000 0.0000 0.0000 8.0244 0.0000 18.6235
#
#
#
# Elastic Compliance Matrix: (Units=1/GPa)
#
#
# Indices 1 2 3 4 5 6 
#
# 1 0.015132 -0.005126 0.000342 0.000000 -0.002933 0.000000
# 2 -0.005126 0.016943 -0.001886 0.000000 -0.005541 0.000000
# 3 0.000342 -0.001886 0.008307 0.000000 -0.000534 0.000000
# 4 0.000000 0.000000 0.000000 0.024564 0.000000 -0.010584
# 5 -0.002933 -0.005541 -0.000534 0.000000 0.024522 0.000000
# 6 0.000000 0.000000 0.000000 -0.010584 0.000000 0.058256
#
#
# Mechanical properties :
#
#
# Convention : Reuss Voigt Hill
#
# Bulk Modulus (GPa) = 36.98008 42.76644 39.87326
# Shear Modulus (GPa) = 29.39844 37.36063 33.37953
#
# Velocity S-wave (km/s) = 3.39676 3.82922 3.61945
# Velocity P-wave (km/s) = 5.46786 6.02786 5.75468
#
# Compressibility (1/GPa) = 0.02704158
#
# Stress axis : x y z
#
# Youngs Moduli (GPa) = 66.08691 59.02078 120.38072
#
# Poissons Ratio (x) = 0.30255 -0.04121
# Poissons Ratio (y) = 0.33877 0.22707
# Poissons Ratio (z) = -0.02262 0.11133
#
# Static dielectric constant tensor:
#      x y z
#    x 1.303970 0.000000 0.098700 
#    y 0.000000 2.056420 0.000000 
#    z 0.098700 0.000000 2.014330 
# 
# From -- ./inp_files/252960.got.cif
#   From: 2010.05.17/outbox.cif.g08.bks.cpg/sg12_127_cif.got.tgz:252960.got - 2010.06.03 13:09:07.
