data_PCOD9209169
_publ_section_title
;
Structure prediction by ZEFSAII (Michael W. Deem and Ramdas Pophale) SiO2 
 PCOD9209169
Probable space group: C 2/M
;
_chemical_formula_sum "Si O2"
_cell_formula_units_Z 40
_cell_length_a 14.007426
_cell_length_b 18.098528
_cell_length_c 12.284942
_cell_angle_alpha 90.000000
_cell_angle_beta 143.103811
_cell_angle_gamma 90.000000
_cell_volume 1869.784426
_symmetry_space_group_name_H-M "C 2/M"
_symmetry_group_IT_number 12
_symmetry_cell_setting 'monoclinic'
loop_
_space_group_symop_operation_xyz
x,y,z
-x,y,-z
-x,-y,-z
x,-y,z
1/2+x,1/2+y,z
1/2-x,1/2+y,-z
1/2-x,1/2-y,-z
1/2+x,1/2-y,z
loop_
_atom_site_type_symbol
_atom_site_label
_atom_site_fract_x
_atom_site_fract_y
_atom_site_fract_z
Si Si1 0.178473 0.587164 0.639289
Si Si2 0.882685 0.339649 0.028384
Si Si3 0.781563 0.411229 0.728156
Si Si4 0.663279 0.332540 0.024937
Si Si5 0.396471 0.586858 0.642217
O O1 0.183637 0.500000 0.670714
O O2 0.235445 0.594924 0.567179
O O3 0.000000 0.613921 0.500000
O O4 0.302885 0.627898 0.830836
O O5 0.768456 0.382762 0.839390
O O6 0.820629 0.343822 0.094484
O O7 0.873882 0.253286 0.991416
O O8 0.055655 0.374381 0.167577
O O9 0.797421 0.500000 0.741761
O O10 0.642953 0.391182 0.517185
O O11 0.526568 0.367447 0.825766
O O12 0.440024 0.500000 0.683435
#
# Coordination Sequence:
#
# PCOD9209169 Si02
#       5
#     8   8   8   8   8
#     4  10  21  38  61  88 119 161 204 242 294 362
#     4  10  23  40  58  88 119 162 201 244 306 360
#     4  10  22  42  65  88 115 162 216 249 295 360
#     4  11  23  39  57  91 127 154 198 247 311 364
#     4  10  22  38  62  92 119 155 200 253 302 348
#
# _framework density 21.392841000000001
#
# number of rings (size 3 to 8) (size 9 to 14) (size 15 to 20)
#    0.000    1.800    0.000    3.600    5.600    8.000 
#    7.200    2.000    0.000    0.000    0.000    0.000 
#    0.000    0.000    0.000    0.000    0.000    0.000 
#
# Total GULP energy -111787.510721 kJ/mol
# GULP energy per Si atom -5589.375536 kJ/mol
# Density = 2.134415 g / cm^3
# Si number density = 21.392841 Si / 1000 Ang^3
#
#
#
# Elastic Constant Matrix: (Units=GPa)
#
#
# Indices 1 2 3 4 5 6 
#
# 1 42.3421 13.6048 -5.0994 0.0000 -8.5416 0.0000
# 2 13.6048 64.5633 43.2828 0.0000 -9.7328 0.0000
# 3 -5.0994 43.2828 112.3745 0.0000 -15.2043 0.0000
# 4 0.0000 0.0000 0.0000 225.2272 0.0000 -223.4613
# 5 -8.5416 -9.7328 -15.2043 0.0000 35.8248 0.0000
# 6 0.0000 0.0000 0.0000 -223.4613 0.0000 124.2645
#
#
#
# Elastic Compliance Matrix: (Units=1/GPa)
#
#
# Indices 1 2 3 4 5 6 
#
# 1 0.028449 -0.008700 0.005559 0.000000 0.006779 0.000000
# 2 -0.008700 0.023736 -0.009490 0.000000 0.000347 0.000000
# 3 0.005559 -0.009490 0.013407 0.000000 0.004437 0.000000
# 4 0.000000 0.000000 0.000000 -0.005662 0.000000 -0.010182
# 5 0.006779 0.000347 0.004437 0.000000 0.031507 0.000000
# 6 0.000000 0.000000 0.000000 -0.010182 0.000000 -0.010262
#
#
# Mechanical properties :
#
#
# Convention : Reuss Voigt Hill
#
# Bulk Modulus (GPa) = 24.79513 35.87294 30.33403
# Shear Modulus (GPa) = 41.70805 88.22941 64.96873
#
# Velocity S-wave (km/s) = 4.42025 6.42900 5.51682
# Velocity P-wave (km/s) = 6.13734 8.48024 7.40208
#
# Compressibility (1/GPa) = 0.04033051
#
# Stress axis : x y z
#
# Youngs Moduli (GPa) = 35.15012 42.12947 74.58943
#
# Poissons Ratio (x) = 0.36651 -0.41464
# Poissons Ratio (y) = 0.30579 0.70788
# Poissons Ratio (z) = -0.19540 0.39982
#
# Static dielectric constant tensor:
#      x y z
#    x 1.819450 0.000000 0.023700 
#    y 0.000000 1.712740 0.000000 
#    z 0.023700 0.000000 1.755250 
# 
# From -- ./inp_files/60812.got.cif
#   From: 2010.05.17/outbox.cif.g08.bks.cpg/sg12_31_cif.got.tgz:60812.got - 2010.06.03 13:09:07.
