data_PCOD9209360
_publ_section_title
;
Structure prediction by ZEFSAII (Michael W. Deem and Ramdas Pophale) SiO2 
 PCOD9209360
Probable space group: C 2/M
;
_chemical_formula_sum "Si O2"
_cell_formula_units_Z 48
_cell_length_a 28.971098
_cell_length_b 15.885412
_cell_length_c 5.020136
_cell_angle_alpha 90.000000
_cell_angle_beta 81.337920
_cell_angle_gamma 90.000000
_cell_volume 2284.003653
_symmetry_space_group_name_H-M "C 2/M"
_symmetry_group_IT_number 12
_symmetry_cell_setting 'monoclinic'
loop_
_space_group_symop_operation_xyz
x,y,z
-x,y,-z
-x,-y,-z
x,-y,z
1/2+x,1/2+y,z
1/2-x,1/2+y,-z
1/2-x,1/2-y,-z
1/2+x,1/2-y,z
loop_
_atom_site_type_symbol
_atom_site_label
_atom_site_fract_x
_atom_site_fract_y
_atom_site_fract_z
Si Si1 0.606175 0.245219 0.369909
Si Si2 0.691913 0.167570 0.626353
Si Si3 0.531758 0.844678 0.714827
Si Si4 0.218771 0.846572 0.776586
Si Si5 0.111636 0.410006 0.973873
Si Si6 0.336797 0.596844 0.686219
O O1 0.650335 0.211436 0.498148
O O2 0.559169 0.237421 0.582121
O O3 0.601474 0.175020 0.145627
O O4 0.621958 0.338062 0.274550
O O5 0.730712 0.134315 0.390402
O O6 0.713479 0.244692 0.778088
O O7 0.664484 0.100084 0.824510
O O8 0.500000 0.877166 0.500000
O O9 0.426187 0.905317 0.230826
O O10 0.500000 0.830176 0.000000
O O11 0.181892 0.883686 0.594328
O O12 0.205532 0.882578 0.073779
O O13 0.106209 0.500000 0.118385
O O14 0.350098 0.500000 0.698277
#
# Coordination Sequence:
#
# PCOD9209360 Si02
#       6
#     8   8   8   8   8   8
#     4  10  22  41  64  90 125 160 202 250 312 359
#     4   9  21  37  59  85 126 168 207 255 300 348
#     4  11  23  44  66  90 116 159 198 247 306 372
#     4  10  21  38  62  87 122 166 215 253 298 344
#     4  11  23  39  61  92 126 163 201 245 304 365
#     4  11  23  39  62  92 124 163 209 254 301 355
#
# _framework density 21.015729
#
# number of rings (size 3 to 8) (size 9 to 14) (size 15 to 20)
#    0.000    1.667    3.333    0.500    2.333    6.667 
#    0.000    0.000    0.000    1.000    0.000    0.000 
#    0.000    0.000    0.000    0.000    0.000    0.000 
#
# Total GULP energy -134026.312305 kJ/mol
# GULP energy per Si atom -5584.429679 kJ/mol
# Density = 2.096790 g / cm^3
# Si number density = 21.015729 Si / 1000 Ang^3
#
#
#
# Elastic Constant Matrix: (Units=GPa)
#
#
# Indices 1 2 3 4 5 6 
#
# 1 72.4673 23.8809 24.3302 0.0000 -8.5695 0.0000
# 2 23.8809 142.5226 39.1917 0.0000 -11.0351 0.0000
# 3 24.3302 39.1917 95.2132 0.0000 -15.8825 0.0000
# 4 0.0000 0.0000 0.0000 14.2444 0.0000 3.8550
# 5 -8.5695 -11.0351 -15.8825 0.0000 43.4843 0.0000
# 6 0.0000 0.0000 0.0000 3.8550 0.0000 3.7619
#
#
#
# Elastic Compliance Matrix: (Units=1/GPa)
#
#
# Indices 1 2 3 4 5 6 
#
# 1 0.015544 -0.001651 -0.003037 0.000000 0.001535 0.000000
# 2 -0.001651 0.008118 -0.002801 0.000000 0.000712 0.000000
# 3 -0.003037 -0.002801 0.013006 0.000000 0.003441 0.000000
# 4 0.000000 0.000000 0.000000 0.097145 0.000000 -0.099551
# 5 0.001535 0.000712 0.003441 0.000000 0.024737 0.000000
# 6 0.000000 0.000000 0.000000 -0.099551 0.000000 0.367843
#
#
# Mechanical properties :
#
#
# Convention : Reuss Voigt Hill
#
# Bulk Modulus (GPa) = 46.10067 53.88986 49.99526
# Shear Modulus (GPa) = 9.11411 27.15147 18.13279
#
# Velocity S-wave (km/s) = 2.08476 3.59828 2.94057
# Velocity P-wave (km/s) = 5.27056 6.55453 5.94730
#
# Compressibility (1/GPa) = 0.02169166
#
# Stress axis : x y z
#
# Youngs Moduli (GPa) = 64.33210 123.17679 76.88945
#
# Poissons Ratio (x) = 0.20333 0.23348
# Poissons Ratio (y) = 0.10619 0.21538
# Poissons Ratio (z) = 0.19535 0.34504
#
# Static dielectric constant tensor:
#      x y z
#    x 1.788240 0.000000 0.014020 
#    y 0.000000 1.782260 0.000000 
#    z 0.014020 0.000000 1.822320 
# 
# From -- ./inp_files/31202.got.cif
#   From: 2010.05.17/outbox.cif.g08.bks.cpg/sg12_16_cif.got.tgz:31202.got - 2010.06.03 13:09:07.
