data_PCOD9209040
_publ_section_title
;
Structure prediction by ZEFSAII (Michael W. Deem and Ramdas Pophale) SiO2 
 PCOD9209040
Probable space group: C 2/M
;
_chemical_formula_sum "Si O2"
_cell_formula_units_Z 56
_cell_length_a 17.564360
_cell_length_b 26.962797
_cell_length_c 7.678512
_cell_angle_alpha 90.000000
_cell_angle_beta 47.778761
_cell_angle_gamma 90.000000
_cell_volume 2692.972864
_symmetry_space_group_name_H-M "C 2/M"
_symmetry_group_IT_number 12
_symmetry_cell_setting 'monoclinic'
loop_
_space_group_symop_operation_xyz
x,y,z
-x,y,-z
-x,-y,-z
x,-y,z
1/2+x,1/2+y,z
1/2-x,1/2+y,-z
1/2-x,1/2-y,-z
1/2+x,1/2-y,z
loop_
_atom_site_type_symbol
_atom_site_label
_atom_site_fract_x
_atom_site_fract_y
_atom_site_fract_z
Si Si1 0.315567 0.608259 0.943926
Si Si2 0.178223 0.106590 0.471598
Si Si3 0.334282 0.188914 0.230697
Si Si4 0.896859 0.000000 0.925366
Si Si5 0.604269 0.161501 0.246651
Si Si6 0.505522 0.328860 0.178537
Si Si7 0.869437 0.000000 0.380405
Si Si8 0.867685 0.253092 0.527283
O O1 0.339508 0.615730 0.704446
O O2 0.345329 0.551554 0.942542
O O3 0.386329 0.647885 0.936661
O O4 0.196875 0.623466 0.143516
O O5 0.273077 0.139671 0.385561
O O6 0.073781 0.125265 0.720121
O O7 0.191609 0.049032 0.478840
O O8 0.243147 0.226417 0.311408
O O9 0.380470 0.213680 0.332472
O O10 0.396409 0.173493 0.960385
O O11 0.019149 0.000000 0.695708
O O12 0.888503 0.000000 0.146160
O O13 0.500000 0.143567 0.500000
O O14 0.372723 0.212712 0.687760
O O15 0.453746 0.289640 0.387050
O O16 0.500000 0.303185 0.000000
#
# Coordination Sequence:
#
# PCOD9209040 Si02
#       8
#     8   8   8   4   8   8   4   8
#     4  11  24  42  63  94 128 172 207 267 325 386
#     4  10  21  38  60  93 136 163 203 257 320 392
#     4   9  22  42  61  95 122 178 215 264 321 384
#     4  11  23  37  66  96 131 160 204 252 335 396
#     4  11  26  42  63  88 127 169 231 272 310 373
#     4  11  23  36  59  94 129 165 209 255 320 391
#     4  11  21  35  63 104 128 157 197 253 329 415
#     4  10  23  39  65  88 130 172 216 268 325 379
#
# _framework density 20.794862999999999
#
# number of rings (size 3 to 8) (size 9 to 14) (size 15 to 20)
#    0.000    1.571    1.429    2.143   10.000    4.000 
#    0.000    0.357    0.000    0.000    0.000    2.000 
#    0.000    0.000    0.000    0.000    0.000    0.000 
#
# Total GULP energy -156496.075555 kJ/mol
# GULP energy per Si atom -5589.145556 kJ/mol
# Density = 2.074753 g / cm^3
# Si number density = 20.794863 Si / 1000 Ang^3
#
#
#
# Elastic Constant Matrix: (Units=GPa)
#
#
# Indices 1 2 3 4 5 6 
#
# 1 44.6665 24.8018 28.7278 0.0000 -3.7986 0.0000
# 2 24.8018 115.1469 20.6799 0.0000 -13.3916 0.0000
# 3 28.7278 20.6799 102.5321 0.0000 -8.0160 0.0000
# 4 0.0000 0.0000 0.0000 18.2058 0.0000 13.2070
# 5 -3.7986 -13.3916 -8.0160 0.0000 29.4465 0.0000
# 6 0.0000 0.0000 0.0000 13.2070 0.0000 2.6724
#
#
#
# Elastic Compliance Matrix: (Units=1/GPa)
#
#
# Indices 1 2 3 4 5 6 
#
# 1 0.029981 -0.005189 -0.007393 0.000000 -0.000505 0.000000
# 2 -0.005189 0.010317 -0.000319 0.000000 0.003936 0.000000
# 3 -0.007393 -0.000319 0.012060 0.000000 0.002184 0.000000
# 4 0.000000 0.000000 0.000000 -0.021248 0.000000 0.105008
# 5 -0.000505 0.003936 0.002184 0.000000 0.036279 0.000000
# 6 0.000000 0.000000 0.000000 0.105008 0.000000 -0.144753
#
#
# Mechanical properties :
#
#
# Convention : Reuss Voigt Hill
#
# Bulk Modulus (GPa) = 37.65679 45.64048 41.64864
# Shear Modulus (GPa) = -117.07015 22.60735 -47.23140
#
# Velocity S-wave (km/s) = -7.51131 3.30079 -4.77099
# Velocity P-wave (km/s) = 7.55503 6.04339 3.20592
#
# Compressibility (1/GPa) = 0.02655563
#
# Stress axis : x y z
#
# Youngs Moduli (GPa) = 33.35412 96.92501 82.92102
#
# Poissons Ratio (x) = 0.50291 0.61305
# Poissons Ratio (y) = 0.17306 0.02649
# Poissons Ratio (z) = 0.24659 0.03096
#
# Static dielectric constant tensor:
#      x y z
#    x 1.767860 0.000000 0.001180 
#    y 0.000000 1.754330 0.000000 
#    z 0.001180 0.000000 1.791780 
# 
# From -- ./inp_files/80037.got.cif
#   From: 2010.05.17/outbox.cif.g08.bks.cpg/sg12_41_cif.got.tgz:80037.got - 2010.06.03 13:09:07.
