data_PCOD9209518
_publ_section_title
;
Structure prediction by ZEFSAII (Michael W. Deem and Ramdas Pophale) SiO2 
 PCOD9209518
Probable space group: C 2/M
;
_chemical_formula_sum "Si O2"
_cell_formula_units_Z 40
_cell_length_a 11.802034
_cell_length_b 14.613225
_cell_length_c 11.734375
_cell_angle_alpha 90.000000
_cell_angle_beta 75.254668
_cell_angle_gamma 90.000000
_cell_volume 1957.128382
_symmetry_space_group_name_H-M "C 2/M"
_symmetry_group_IT_number 12
_symmetry_cell_setting 'monoclinic'
loop_
_space_group_symop_operation_xyz
x,y,z
-x,y,-z
-x,-y,-z
x,-y,z
1/2+x,1/2+y,z
1/2-x,1/2+y,-z
1/2-x,1/2-y,-z
1/2+x,1/2-y,z
loop_
_atom_site_type_symbol
_atom_site_label
_atom_site_fract_x
_atom_site_fract_y
_atom_site_fract_z
Si Si1 0.636185 0.606900 0.450000
Si Si2 0.274377 0.397450 0.317433
Si Si3 0.129475 0.696527 0.000666
Si Si4 0.539301 0.896285 0.252622
Si Si5 0.821116 0.299135 0.254738
O O1 0.500000 0.628782 0.500000
O O2 0.645246 0.500000 0.411837
O O3 0.697315 0.614898 0.557341
O O4 0.701605 0.671323 0.344376
O O5 0.315562 0.500000 0.273223
O O6 0.137230 0.393539 0.324342
O O7 0.327362 0.310177 0.239086
O O8 0.163281 0.651889 0.870983
O O9 0.250000 0.750000 0.000000
O O10 0.100041 0.635536 0.118462
O O11 0.000000 0.740024 0.000000
O O12 0.429703 0.831549 0.302666
O O13 0.497043 0.000000 0.252110
#
# Coordination Sequence:
#
# PCOD9209518 Si02
#       5
#     8   8   8   8   8
#     4  10  23  40  60  90 126 161 206 258 311 369
#     4  10  22  40  60  87 125 161 201 257 307 362
#     4  10  21  38  62  93 128 163 207 258 313 371
#     4  10  22  40  65  95 124 158 209 261 309 364
#     4  11  22  38  67  88 123 164 210 248 314 371
#
# _framework density 20.438106000000001
#
# number of rings (size 3 to 8) (size 9 to 14) (size 15 to 20)
#    0.000    1.800    2.000    1.200    2.800    5.200 
#    0.000    3.000    0.000   10.800    0.000    0.000 
#    0.000    0.000    0.000    0.000    0.000    0.000 
#
# Total GULP energy -111447.985399 kJ/mol
# GULP energy per Si atom -5572.399270 kJ/mol
# Density = 2.039159 g / cm^3
# Si number density = 20.438106 Si / 1000 Ang^3
#
#
#
# Elastic Constant Matrix: (Units=GPa)
#
#
# Indices 1 2 3 4 5 6 
#
# 1 137.2029 45.6146 40.1071 0.0000 7.9295 0.0000
# 2 45.6146 81.4332 11.9875 0.0000 -16.0062 0.0000
# 3 40.1071 11.9875 69.3299 0.0000 -8.3499 0.0000
# 4 0.0000 0.0000 0.0000 10.9628 0.0000 -2.7693
# 5 7.9295 -16.0062 -8.3499 0.0000 28.8947 0.0000
# 6 0.0000 0.0000 0.0000 -2.7693 0.0000 31.8532
#
#
#
# Elastic Compliance Matrix: (Units=1/GPa)
#
#
# Indices 1 2 3 4 5 6 
#
# 1 0.012577 -0.007947 -0.007094 0.000000 -0.009904 0.000000
# 2 -0.007947 0.018958 0.002950 0.000000 0.013535 0.000000
# 3 -0.007094 0.002950 0.019114 0.000000 0.009104 0.000000
# 4 0.000000 0.000000 0.000000 0.093266 0.000000 0.008109
# 5 -0.009904 0.013535 0.009104 0.000000 0.047455 0.000000
# 6 0.000000 0.000000 0.000000 0.008109 0.000000 0.032099
#
#
# Mechanical properties :
#
#
# Convention : Reuss Voigt Hill
#
# Bulk Modulus (GPa) = 37.78559 53.70938 45.74749
# Shear Modulus (GPa) = 19.49518 27.02593 23.26056
#
# Velocity S-wave (km/s) = 3.09182 3.64033 3.37723
# Velocity P-wave (km/s) = 5.59229 6.63366 6.13511
#
# Compressibility (1/GPa) = 0.02646511
#
# Stress axis : x y z
#
# Youngs Moduli (GPa) = 79.51157 52.74885 52.31688
#
# Poissons Ratio (x) = 0.41920 0.37115
# Poissons Ratio (y) = 0.63189 -0.15431
# Poissons Ratio (z) = 0.56408 -0.15559
#
# Static dielectric constant tensor:
#      x y z
#    x 1.763490 0.000000 0.028220 
#    y 0.000000 1.759050 0.000000 
#    z 0.028220 0.000000 1.723380 
# 
# From -- ./inp_files/129572.got.cif
#   From: 2010.05.17/outbox.cif.g08.bks.cpg/sg12_65_cif.got.tgz:129572.got - 2010.06.03 13:09:07.
