data_PCOD9209058
_publ_section_title
;
Structure prediction by ZEFSAII (Michael W. Deem and Ramdas Pophale) SiO2 
 PCOD9209058
Probable space group: C 2/M
;
_chemical_formula_sum "Si O2"
_cell_formula_units_Z 48
_cell_length_a 11.719637
_cell_length_b 22.714282
_cell_length_c 12.709494
_cell_angle_alpha 90.000000
_cell_angle_beta 144.836307
_cell_angle_gamma 90.000000
_cell_volume 1948.495323
_symmetry_space_group_name_H-M "C 2/M"
_symmetry_group_IT_number 12
_symmetry_cell_setting 'monoclinic'
loop_
_space_group_symop_operation_xyz
x,y,z
-x,y,-z
-x,-y,-z
x,-y,z
1/2+x,1/2+y,z
1/2-x,1/2+y,-z
1/2-x,1/2-y,-z
1/2+x,1/2-y,z
loop_
_atom_site_type_symbol
_atom_site_label
_atom_site_fract_x
_atom_site_fract_y
_atom_site_fract_z
Si Si1 0.237636 0.433829 0.872032
Si Si2 0.914628 0.066098 0.687908
Si Si3 0.484196 0.864961 0.818818
Si Si4 0.275164 0.841225 0.324537
Si Si5 0.043878 0.759521 0.286205
Si Si6 0.177208 0.858980 0.755020
O O1 0.236651 0.500000 0.825338
O O2 0.256742 0.381934 0.801335
O O3 0.037154 0.419709 0.785173
O O4 0.418531 0.431405 0.092473
O O5 0.022720 0.089697 0.665529
O O6 0.750447 0.112570 0.598911
O O7 0.844093 0.000000 0.626274
O O8 0.540921 0.804070 0.803990
O O9 0.267773 0.857050 0.706941
O O10 0.638885 0.871279 0.029755
O O11 0.500000 0.817506 0.500000
O O12 0.106507 0.793493 0.225569
O O13 0.250000 0.750000 0.500000
O O14 0.912865 0.798989 0.265052
#
# Coordination Sequence:
#
# PCOD9209058 Si02
#       6
#     8   8   8   8   8   8
#     4  10  21  38  61  90 121 152 191 240 298 354
#     4   9  19  38  61  85 118 155 192 239 292 351
#     4  10  21  38  61  84 119 151 196 240 292 351
#     4  11  23  37  56  87 116 154 197 241 294 343
#     4  11  24  39  59  80 117 158 199 244 293 348
#     4   9  21  39  57  88 113 152 199 239 289 349
#
# _framework density 24.634391999999998
#
# number of rings (size 3 to 8) (size 9 to 14) (size 15 to 20)
#    0.000    2.000    0.000    2.500    4.667    3.333 
#    6.000    3.333    0.000    0.000    0.000    7.000 
#    0.000    0.000    0.000    0.000    0.000    0.000 
#
# Total GULP energy -134246.137463 kJ/mol
# GULP energy per Si atom -5593.589061 kJ/mol
# Density = 2.457832 g / cm^3
# Si number density = 24.634392 Si / 1000 Ang^3
#
#
#
# Elastic Constant Matrix: (Units=GPa)
#
#
# Indices 1 2 3 4 5 6 
#
# 1 135.1926 31.7181 8.5427 0.0000 31.5267 0.0000
# 2 31.7181 92.2958 -4.1760 0.0000 0.4686 0.0000
# 3 8.5427 -4.1760 59.9882 0.0000 -12.1678 0.0000
# 4 0.0000 0.0000 0.0000 19.1977 0.0000 -7.4517
# 5 31.5267 0.4686 -12.1678 0.0000 28.9766 0.0000
# 6 0.0000 0.0000 0.0000 -7.4517 0.0000 23.2507
#
#
#
# Elastic Compliance Matrix: (Units=1/GPa)
#
#
# Indices 1 2 3 4 5 6 
#
# 1 0.012413 -0.004424 -0.005247 0.000000 -0.015637 0.000000
# 2 -0.004424 0.012446 0.002658 0.000000 0.005728 0.000000
# 3 -0.005247 0.002658 0.020497 0.000000 0.014273 0.000000
# 4 0.000000 0.000000 0.000000 0.059490 0.000000 0.019066
# 5 -0.015637 0.005728 0.014273 0.000000 0.057425 0.000000
# 6 0.000000 0.000000 0.000000 0.019066 0.000000 0.049120
#
#
# Mechanical properties :
#
#
# Convention : Reuss Voigt Hill
#
# Bulk Modulus (GPa) = 31.91769 39.96070 35.93919
# Shear Modulus (GPa) = 21.19887 31.04444 26.12166
#
# Velocity S-wave (km/s) = 2.93668 3.55379 3.25987
# Velocity P-wave (km/s) = 4.94808 5.75291 5.36560
#
# Compressibility (1/GPa) = 0.03133059
#
# Stress axis : x y z
#
# Youngs Moduli (GPa) = 80.56144 80.34586 48.78658
#
# Poissons Ratio (x) = 0.35543 0.25600
# Poissons Ratio (y) = 0.35639 -0.12969
# Poissons Ratio (z) = 0.42274 -0.21358
#
# Static dielectric constant tensor:
#      x y z
#    x 2.037780 0.000000 0.005070 
#    y 0.000000 1.910470 0.000000 
#    z 0.005070 0.000000 1.979260 
# 
# From -- ./inp_files/50580.got.cif
#   From: 2010.05.17/outbox.cif.g08.bks.cpg/sg12_26_cif.got.tgz:50580.got - 2010.06.03 13:09:07.
