data_PCOD9209373
_publ_section_title
;
Structure prediction by ZEFSAII (Michael W. Deem and Ramdas Pophale) SiO2 
 PCOD9209373
Probable space group: C 2/M
;
_chemical_formula_sum "Si O2"
_cell_formula_units_Z 52
_cell_length_a 16.324654
_cell_length_b 18.404765
_cell_length_c 8.499754
_cell_angle_alpha 90.000000
_cell_angle_beta 97.009508
_cell_angle_gamma 90.000000
_cell_volume 2534.676119
_symmetry_space_group_name_H-M "C 2/M"
_symmetry_group_IT_number 12
_symmetry_cell_setting 'monoclinic'
loop_
_space_group_symop_operation_xyz
x,y,z
-x,y,-z
-x,-y,-z
x,-y,z
1/2+x,1/2+y,z
1/2-x,1/2+y,-z
1/2-x,1/2-y,-z
1/2+x,1/2-y,z
loop_
_atom_site_type_symbol
_atom_site_label
_atom_site_fract_x
_atom_site_fract_y
_atom_site_fract_z
Si Si1 0.289361 0.793230 0.200730
Si Si2 0.023715 0.726849 0.831773
Si Si3 0.576755 0.917645 0.220597
Si Si4 0.142950 0.080078 0.607105
Si Si5 0.187529 0.419912 0.550500
Si Si6 0.000000 0.192202 0.500000
Si Si7 0.243278 0.641731 0.126880
O O1 0.378040 0.769339 0.155686
O O2 0.308913 0.849645 0.341099
O O3 0.241501 0.718391 0.223811
O O4 0.245030 0.835766 0.049815
O O5 0.991176 0.643883 0.818481
O O6 0.991304 0.763639 0.662247
O O7 0.000000 0.756403 0.000000
O O8 0.614718 0.913991 0.405606
O O9 0.656687 0.898732 0.132186
O O10 0.548503 0.000000 0.185895
O O11 0.225254 0.080000 0.520191
O O12 0.079782 0.141443 0.541062
O O13 0.181038 0.096457 0.787156
O O14 0.105169 0.000000 0.591706
O O15 0.179104 0.500000 0.626682
#
# Coordination Sequence:
#
# PCOD9209373 Si02
#       7
#     8   8   8   8   8   4   8
#     4  11  22  38  61  95 125 165 213 267 326 381
#     4  12  25  43  63 100 133 166 218 265 320 392
#     4  10  22  40  61  88 127 170 208 259 321 385
#     4  10  22  42  64  92 125 166 218 268 327 390
#     4   9  21  38  61  91 125 164 213 267 319 387
#     4  12  25  42  71  92 128 178 210 272 333 382
#     4  10  21  38  62  88 120 164 211 264 316 383
#
# _framework density 20.515442
#
# number of rings (size 3 to 8) (size 9 to 14) (size 15 to 20)
#    0.000    1.538    3.077    2.538    2.154    3.385 
#    0.000    1.923    0.000    0.923    0.000    0.000 
#    0.000    0.000    0.000    0.000    0.000    0.000 
#
# Total GULP energy -145169.284753 kJ/mol
# GULP energy per Si atom -5583.434029 kJ/mol
# Density = 2.046875 g / cm^3
# Si number density = 20.515442 Si / 1000 Ang^3
#
#
#
# Elastic Constant Matrix: (Units=GPa)
#
#
# Indices 1 2 3 4 5 6 
#
# 1 48.7559 9.2817 10.2004 0.0000 10.0618 0.0000
# 2 9.2817 96.6968 46.4128 0.0000 -7.3718 0.0000
# 3 10.2004 46.4128 91.9767 0.0000 1.6641 0.0000
# 4 0.0000 0.0000 0.0000 18.6288 0.0000 7.1164
# 5 10.0618 -7.3718 1.6641 0.0000 17.5982 0.0000
# 6 0.0000 0.0000 0.0000 7.1164 0.0000 15.1827
#
#
#
# Elastic Compliance Matrix: (Units=1/GPa)
#
#
# Indices 1 2 3 4 5 6 
#
# 1 0.024409 -0.003076 -0.000880 0.000000 -0.015161 0.000000
# 2 -0.003076 0.014789 -0.007278 0.000000 0.008642 0.000000
# 3 -0.000880 -0.007278 0.014714 0.000000 -0.003937 0.000000
# 4 0.000000 0.000000 0.000000 0.065388 0.000000 -0.030649
# 5 -0.015161 0.008642 -0.003937 0.000000 0.069485 0.000000
# 6 0.000000 0.000000 0.000000 -0.030649 0.000000 0.080230
#
#
# Mechanical properties :
#
#
# Convention : Reuss Voigt Hill
#
# Bulk Modulus (GPa) = 31.80400 41.02437 36.41418
# Shear Modulus (GPa) = 16.55819 21.71757 19.13788
#
# Velocity S-wave (km/s) = 2.84405 3.25714 3.05758
# Velocity P-wave (km/s) = 5.13039 5.84684 5.50029
#
# Compressibility (1/GPa) = 0.03144259
#
# Stress axis : x y z
#
# Youngs Moduli (GPa) = 40.96853 67.61780 67.96369
#
# Poissons Ratio (x) = 0.20801 0.05984
# Poissons Ratio (y) = 0.12603 0.49464
# Poissons Ratio (z) = 0.03607 0.49212
#
# Static dielectric constant tensor:
#      x y z
#    x 1.696280 0.000000 -0.006550 
#    y 0.000000 1.760080 0.000000 
#    z -0.006550 0.000000 1.781150 
# 
# From -- ./inp_files/75312.got.cif
#   From: 2010.05.17/outbox.cif.g08.bks.cpg/sg12_38_cif.got.tgz:75312.got - 2010.06.03 13:09:07.
