data_PCOD9209153
_publ_section_title
;
Structure prediction by ZEFSAII (Michael W. Deem and Ramdas Pophale) SiO2 
 PCOD9209153
Probable space group: C 2/M
;
_chemical_formula_sum "Si O2"
_cell_formula_units_Z 56
_cell_length_a 16.633450
_cell_length_b 14.351038
_cell_length_c 25.746919
_cell_angle_alpha 90.000000
_cell_angle_beta 25.934298
_cell_angle_gamma 90.000000
_cell_volume 2687.882715
_symmetry_space_group_name_H-M "C 2/M"
_symmetry_group_IT_number 12
_symmetry_cell_setting 'monoclinic'
loop_
_space_group_symop_operation_xyz
x,y,z
-x,y,-z
-x,-y,-z
x,-y,z
1/2+x,1/2+y,z
1/2-x,1/2+y,-z
1/2-x,1/2-y,-z
1/2+x,1/2-y,z
loop_
_atom_site_type_symbol
_atom_site_label
_atom_site_fract_x
_atom_site_fract_y
_atom_site_fract_z
Si Si1 0.543764 0.396577 0.259836
Si Si2 0.864742 0.771724 0.626251
Si Si3 0.537584 0.774864 0.629460
Si Si4 0.635724 0.890756 0.177187
Si Si5 0.051667 0.393456 0.827219
Si Si6 0.132464 0.291590 0.972247
Si Si7 0.775786 0.599544 0.631227
O O1 0.592613 0.500000 0.247918
O O2 0.555484 0.319952 0.296805
O O3 0.687983 0.357904 0.134381
O O4 0.336670 0.398304 0.357187
O O5 0.764486 0.864959 0.700814
O O6 0.718709 0.695414 0.690898
O O7 0.000000 0.792114 0.500000
O O8 0.960925 0.714686 0.616492
O O9 0.750000 0.750000 0.500000
O O10 0.483481 0.851862 0.704111
O O11 0.525097 0.886092 0.187043
O O12 0.799519 0.815306 0.074296
O O13 0.685676 0.000000 0.156546
O O14 0.022558 0.500000 0.861720
O O15 0.964425 0.319889 0.918014
O O16 0.000000 0.312772 0.000000
O O17 0.723448 0.500000 0.686376
O O18 0.000000 0.599967 0.500000
#
# Coordination Sequence:
#
# PCOD9209153 Si02
#       7
#     8   8   8   8   8   8   8
#     4  10  21  38  61  88 118 155 203 256 308 365
#     4  11  22  38  60  86 121 160 204 258 309 369
#     4  11  22  37  59  87 122 163 202 248 308 371
#     4  10  23  42  62  88 123 161 203 253 311 372
#     4  11  23  40  63  89 121 162 205 254 310 368
#     4  11  23  41  64  90 122 161 208 259 308 366
#     4   9  18  35  59  85 113 148 194 248 302 358
#
# _framework density 20.834240999999999
#
# number of rings (size 3 to 8) (size 9 to 14) (size 15 to 20)
#    0.000    1.571    0.000    6.857    0.000    4.571 
#    0.000    2.143    0.000    0.000    0.000    0.000 
#    0.000    0.000    0.000    0.000    0.000    0.000 
#
# Total GULP energy -155988.233614 kJ/mol
# GULP energy per Si atom -5571.008343 kJ/mol
# Density = 2.078682 g / cm^3
# Si number density = 20.834241 Si / 1000 Ang^3
#
#
#
# Elastic Constant Matrix: (Units=GPa)
#
#
# Indices 1 2 3 4 5 6 
#
# 1 88.6264 15.9390 25.1843 -0.0002 12.7319 -0.0018
# 2 15.9390 135.2295 36.4241 0.0000 12.6947 0.0014
# 3 25.1843 36.4241 97.5391 -0.0021 23.6865 -0.0043
# 4 -0.0002 0.0000 -0.0021 18.7890 -0.0004 -6.6569
# 5 12.7319 12.6947 23.6865 -0.0004 33.0993 0.0022
# 6 -0.0018 0.0014 -0.0043 -6.6569 0.0022 13.0159
#
#
#
# Elastic Compliance Matrix: (Units=1/GPa)
#
#
# Indices 1 2 3 4 5 6 
#
# 1 0.012459 -0.000577 -0.002289 0.000000 -0.002933 0.000002
# 2 -0.000577 0.008285 -0.002696 -0.000001 -0.001027 -0.000002
# 3 -0.002289 -0.002696 0.013780 0.000004 -0.007947 0.000008
# 4 0.000000 -0.000001 0.000004 0.065001 -0.000004 0.033244
# 5 -0.002933 -0.001027 -0.007947 -0.000004 0.037421 -0.000011
# 6 0.000002 -0.000002 0.000008 0.033244 -0.000011 0.093832
#
#
# Mechanical properties :
#
#
# Convention : Reuss Voigt Hill
#
# Bulk Modulus (GPa) = 42.73351 52.94331 47.83841
# Shear Modulus (GPa) = 20.02396 29.23734 24.63065
#
# Velocity S-wave (km/s) = 3.10354 3.75017 3.44207
# Velocity P-wave (km/s) = 5.77913 6.64970 6.22964
#
# Compressibility (1/GPa) = 0.02340084
#
# Stress axis : x y z
#
# Youngs Moduli (GPa) = 80.26393 120.69590 72.56977
#
# Poissons Ratio (x) = 0.06958 0.16613
# Poissons Ratio (y) = 0.04627 0.19563
# Poissons Ratio (z) = 0.18375 0.32537
#
# Static dielectric constant tensor:
#      x y z
#    x 1.661570 0.000000 -0.035910 
#    y 0.000000 1.783620 0.000000 
#    z -0.035910 0.000000 1.781820 
# 
# From -- ./inp_files/340322.got.cif
#   From: 2010.05.17/outbox.cif.g08.bks.cpg/sg12_171_cif.got.tgz:340322.got - 2010.06.03 13:09:07.
