data_PCOD9209389
_publ_section_title
;
Structure prediction by ZEFSAII (Michael W. Deem and Ramdas Pophale) SiO2 
 PCOD9209389
Probable space group: C 2/M
;
_chemical_formula_sum "Si O2"
_cell_formula_units_Z 56
_cell_length_a 18.966614
_cell_length_b 8.808498
_cell_length_c 18.711104
_cell_angle_alpha 90.000000
_cell_angle_beta 74.963278
_cell_angle_gamma 90.000000
_cell_volume 3018.979596
_symmetry_space_group_name_H-M "C 2/M"
_symmetry_group_IT_number 12
_symmetry_cell_setting 'monoclinic'
loop_
_space_group_symop_operation_xyz
x,y,z
-x,y,-z
-x,-y,-z
x,-y,z
1/2+x,1/2+y,z
1/2-x,1/2+y,-z
1/2-x,1/2-y,-z
1/2+x,1/2-y,z
loop_
_atom_site_type_symbol
_atom_site_label
_atom_site_fract_x
_atom_site_fract_y
_atom_site_fract_z
Si Si1 0.437843 0.817532 0.573862
Si Si2 0.847621 0.681338 0.296487
Si Si3 0.051916 0.179660 0.127282
Si Si4 0.826743 0.319880 0.003288
Si Si5 0.115707 0.819046 0.864891
Si Si6 0.773920 0.317756 0.569543
Si Si7 0.001076 0.818881 0.298761
O O1 0.500000 0.776661 0.500000
O O2 0.357772 0.778686 0.565524
O O3 0.455837 0.737213 0.643614
O O4 0.440767 0.000000 0.583417
O O5 0.844444 0.500000 0.298516
O O6 0.851414 0.742386 0.214527
O O7 0.779733 0.751458 0.356445
O O8 0.922657 0.737386 0.313922
O O9 0.043594 0.214257 0.213618
O O10 0.971682 0.206724 0.115131
O O11 0.068312 0.000000 0.114948
O O12 0.112534 0.275009 0.071058
O O13 0.820990 0.500000 0.011278
O O14 0.851316 0.248769 0.072085
O O15 0.750000 0.250000 0.000000
O O16 0.127308 0.000000 0.858433
O O17 0.767795 0.500000 0.569050
O O18 0.750000 0.250000 0.500000
O O19 0.988993 0.000000 0.304007
#
# Coordination Sequence:
#
# PCOD9209389 Si02
#       7
#     8   8   8   8   8   8   8
#     4  10  22  39  59  85 117 152 191 239 292 345
#     4  11  22  38  61  88 120 155 194 239 287 345
#     4   9  20  39  61  86 117 151 189 237 291 347
#     4  12  25  39  58  85 118 156 197 241 291 346
#     4  10  21  40  64  88 117 152 192 240 292 346
#     4  11  23  39  60  87 120 156 196 242 293 348
#     4  10  21  38  62  89 117 151 192 239 290 345
#
# _framework density 18.549313999999999
#
# number of rings (size 3 to 8) (size 9 to 14) (size 15 to 20)
#    0.000    1.571    0.000    6.000    0.000    8.857 
#    0.000    2.857    0.000    0.000    0.000    0.000 
#    0.000    0.000    0.000    0.000    0.000    0.000 
#
# Total GULP energy -156569.962799 kJ/mol
# GULP energy per Si atom -5591.784386 kJ/mol
# Density = 1.850710 g / cm^3
# Si number density = 18.549314 Si / 1000 Ang^3
#
#
#
# Elastic Constant Matrix: (Units=GPa)
#
#
# Indices 1 2 3 4 5 6 
#
# 1 147.3486 91.9731 115.5531 0.0000 7.7350 0.0000
# 2 91.9731 112.0962 79.6223 0.0000 0.5057 0.0000
# 3 115.5531 79.6223 127.0361 0.0000 4.1188 0.0000
# 4 0.0000 0.0000 0.0000 37.4368 0.0000 3.2013
# 5 7.7350 0.5057 4.1188 0.0000 36.3419 0.0000
# 6 0.0000 0.0000 0.0000 3.2013 0.0000 31.3056
#
#
#
# Elastic Compliance Matrix: (Units=1/GPa)
#
#
# Indices 1 2 3 4 5 6 
#
# 1 0.028169 -0.008975 -0.019880 0.000000 -0.003617 0.000000
# 2 -0.008975 0.018970 -0.003793 0.000000 0.002076 0.000000
# 3 -0.019880 -0.003793 0.028298 0.000000 0.001077 0.000000
# 4 0.000000 0.000000 0.000000 0.026947 0.000000 -0.002756
# 5 -0.003617 0.002076 0.001077 0.000000 0.028135 0.000000
# 6 0.000000 0.000000 0.000000 -0.002756 0.000000 0.032225
#
#
# Mechanical properties :
#
#
# Convention : Reuss Voigt Hill
#
# Bulk Modulus (GPa) = 98.62513 106.75311 102.68912
# Shear Modulus (GPa) = 21.60570 27.63903 24.62236
#
# Velocity S-wave (km/s) = 3.41658 3.86428 3.64730
# Velocity P-wave (km/s) = 8.29750 8.80830 8.55671
#
# Compressibility (1/GPa) = 0.01013940
#
# Stress axis : x y z
#
# Youngs Moduli (GPa) = 35.50016 52.71579 35.33862
#
# Poissons Ratio (x) = 0.47311 0.70254
# Poissons Ratio (y) = 0.31861 0.13405
# Poissons Ratio (z) = 0.70575 0.19997
#
# Static dielectric constant tensor:
#      x y z
#    x 1.611560 0.000000 -0.001610 
#    y 0.000000 1.620130 0.000000 
#    z -0.001610 0.000000 1.616780 
# 
# From -- ./inp_files/275017.got.cif
#   From: 2010.05.17/outbox.cif.g08.bks.cpg/sg12_138_cif.got.tgz:275017.got - 2010.06.03 13:09:07.
