data_PCOD9209383
_publ_section_title
;
Structure prediction by ZEFSAII (Michael W. Deem and Ramdas Pophale) SiO2 
 PCOD9209383
Probable space group: C 2/M
;
_chemical_formula_sum "Si O2"
_cell_formula_units_Z 32
_cell_length_a 26.806884
_cell_length_b 11.772198
_cell_length_c 5.299751
_cell_angle_alpha 90.000000
_cell_angle_beta 121.732638
_cell_angle_gamma 90.000000
_cell_volume 1422.458553
_symmetry_space_group_name_H-M "C 2/M"
_symmetry_group_IT_number 12
_symmetry_cell_setting 'monoclinic'
loop_
_space_group_symop_operation_xyz
x,y,z
-x,y,-z
-x,-y,-z
x,-y,z
1/2+x,1/2+y,z
1/2-x,1/2+y,-z
1/2-x,1/2-y,-z
1/2+x,1/2-y,z
loop_
_atom_site_type_symbol
_atom_site_label
_atom_site_fract_x
_atom_site_fract_y
_atom_site_fract_z
Si Si1 0.433559 0.163708 0.764615
Si Si2 0.619872 0.627896 0.587709
Si Si3 0.242311 0.126612 0.615643
Si Si4 0.367746 0.838702 0.093758
O O1 0.425804 0.299347 0.698937
O O2 0.407706 0.120335 0.431412
O O3 0.500000 0.134095 0.000000
O O4 0.392957 0.129840 0.890259
O O5 0.602370 0.500000 0.586924
O O6 0.682333 0.631968 0.611970
O O7 0.628419 0.701912 0.862996
O O8 0.250000 0.250000 0.500000
O O9 0.241796 0.000000 0.481329
O O10 0.300838 0.125008 0.942169
#
# Coordination Sequence:
#
# PCOD9209383 Si02
#       4
#     8   8   8   8
#     4  10  21  38  62  88 130 173 224 268 320 382
#     4   9  21  35  60  93 131 167 216 269 328 389
#     4  11  21  41  68 102 135 171 215 272 333 397
#     4  10  21  39  60  89 129 168 217 261 331 379
#
# _framework density 22.496261000000001
#
# number of rings (size 3 to 8) (size 9 to 14) (size 15 to 20)
#    1.500    0.500    2.500    1.500    0.000    2.500 
#    0.000    8.750    0.000    4.500    0.000    0.000 
#    0.000    0.000    0.000    0.000    0.000    0.000 
#
# Total GULP energy -89153.300215 kJ/mol
# GULP energy per Si atom -5572.081263 kJ/mol
# Density = 2.244506 g / cm^3
# Si number density = 22.496261 Si / 1000 Ang^3
#
#
#
# Elastic Constant Matrix: (Units=GPa)
#
#
# Indices 1 2 3 4 5 6 
#
# 1 29.0174 -1.8538 5.3288 0.0000 16.3273 0.0000
# 2 -1.8538 209.8011 9.6751 0.0000 -4.3321 0.0000
# 3 5.3288 9.6751 73.2709 0.0000 18.6133 0.0000
# 4 0.0000 0.0000 0.0000 522.5688 0.0000 -292.1777
# 5 16.3273 -4.3321 18.6133 0.0000 46.0605 0.0000
# 6 0.0000 0.0000 0.0000 -292.1777 0.0000 140.9905
#
#
#
# Elastic Compliance Matrix: (Units=1/GPa)
#
#
# Indices 1 2 3 4 5 6 
#
# 1 0.043094 0.000020 0.000828 0.000000 -0.015609 0.000000
# 2 0.000020 0.004821 -0.000837 0.000000 0.000785 0.000000
# 3 0.000828 -0.000837 0.015371 0.000000 -0.006584 0.000000
# 4 0.000000 0.000000 0.000000 -0.012060 0.000000 -0.024993
# 5 -0.015609 0.000785 -0.006584 0.000000 0.029978 0.000000
# 6 0.000000 0.000000 0.000000 -0.024993 0.000000 -0.044700
#
#
# Mechanical properties :
#
#
# Convention : Reuss Voigt Hill
#
# Bulk Modulus (GPa) = 15.79573 37.59886 26.69729
# Shear Modulus (GPa) = 86.82944 161.85324 124.34134
#
# Velocity S-wave (km/s) = 6.21941 8.49134 7.44258
# Velocity P-wave (km/s) = 7.65581 10.62482 9.26009
#
# Compressibility (1/GPa) = 0.06330823
#
# Stress axis : x y z
#
# Youngs Moduli (GPa) = 23.20522 207.40776 65.05834
#
# Poissons Ratio (x) = -0.00421 -0.05389
# Poissons Ratio (y) = -0.00047 0.05448
# Poissons Ratio (z) = -0.01922 0.17370
#
# Static dielectric constant tensor:
#      x y z
#    x 1.751370 0.000000 -0.009670 
#    y 0.000000 1.916010 0.000000 
#    z -0.009670 0.000000 1.828450 
# 
# From -- ./inp_files/23491.got.cif
#   From: 2010.05.17/outbox.cif.g08.bks.cpg/sg12_12_cif.got.tgz:23491.got - 2010.06.03 13:09:07.
