data_PCOD9209592
_publ_section_title
;
Structure prediction by ZEFSAII (Michael W. Deem and Ramdas Pophale) SiO2 
 PCOD9209592
Probable space group: C 2/M
;
_chemical_formula_sum "Si O2"
_cell_formula_units_Z 40
_cell_length_a 12.915492
_cell_length_b 18.597614
_cell_length_c 8.672314
_cell_angle_alpha 90.000000
_cell_angle_beta 53.282481
_cell_angle_gamma 90.000000
_cell_volume 1669.771431
_symmetry_space_group_name_H-M "C 2/M"
_symmetry_group_IT_number 12
_symmetry_cell_setting 'monoclinic'
loop_
_space_group_symop_operation_xyz
x,y,z
-x,y,-z
-x,-y,-z
x,-y,z
1/2+x,1/2+y,z
1/2-x,1/2+y,-z
1/2-x,1/2-y,-z
1/2+x,1/2-y,z
loop_
_atom_site_type_symbol
_atom_site_label
_atom_site_fract_x
_atom_site_fract_y
_atom_site_fract_z
Si Si1 0.312826 0.377176 0.061396
Si Si2 0.920492 0.085176 0.302680
Si Si3 0.530065 0.888278 0.294430
Si Si4 0.298920 0.916391 0.267664
Si Si5 0.615182 0.221723 0.008457
O O1 0.356917 0.395157 0.195103
O O2 0.177614 0.415789 0.150100
O O3 0.294839 0.291305 0.066908
O O4 0.430249 0.392395 0.840616
O O5 0.828022 0.108021 0.524161
O O6 0.921326 0.000000 0.310793
O O7 0.500000 0.895430 0.500000
O O8 0.420011 0.919219 0.280668
O O9 0.541385 0.805747 0.226642
O O10 0.330874 0.851293 0.121271
O O11 0.283641 0.000000 0.225926
O O12 0.500000 0.247922 0.000000
#
# Coordination Sequence:
#
# PCOD9209592 Si02
#       5
#     8   8   8   8   8
#     4  11  20  38  61  92 126 159 209 254 309 363
#     4  10  21  38  63  90 122 163 205 251 308 371
#     4  11  23  38  60  95 124 158 204 260 310 360
#     4  10  23  43  64  91 125 167 210 250 311 373
#     4  10  22  39  63  91 126 167 203 255 310 370
#
# _framework density 23.955375
#
# number of rings (size 3 to 8) (size 9 to 14) (size 15 to 20)
#    0.000    1.600    4.000    1.800    0.000    8.000 
#    0.000    1.000    0.000    2.400    0.000    0.000 
#    0.000    0.000    0.000    0.000    0.000    0.000 
#
# Total GULP energy -111638.044373 kJ/mol
# GULP energy per Si atom -5581.902219 kJ/mol
# Density = 2.390085 g / cm^3
# Si number density = 23.955375 Si / 1000 Ang^3
#
#
#
# Elastic Constant Matrix: (Units=GPa)
#
#
# Indices 1 2 3 4 5 6 
#
# 1 36.9531 15.2186 53.7717 0.0000 -19.9598 0.0000
# 2 15.2186 86.9049 53.1161 0.0000 1.6839 0.0000
# 3 53.7717 53.1161 145.3540 0.0000 -19.1542 0.0000
# 4 0.0000 0.0000 0.0000 -47.4289 0.0000 77.3252
# 5 -19.9598 1.6839 -19.1542 0.0000 33.0438 0.0000
# 6 0.0000 0.0000 0.0000 77.3252 0.0000 -53.4121
#
#
#
# Elastic Compliance Matrix: (Units=1/GPa)
#
#
# Indices 1 2 3 4 5 6 
#
# 1 0.086048 0.001016 -0.027459 0.000000 0.036008 0.000000
# 2 0.001016 0.015391 -0.006521 0.000000 -0.003950 0.000000
# 3 -0.027459 -0.006521 0.018708 0.000000 -0.005410 0.000000
# 4 0.000000 0.000000 0.000000 0.015500 0.000000 0.022440
# 5 0.036008 -0.003950 -0.005410 0.000000 0.049079 0.000000
# 6 0.000000 0.000000 0.000000 0.022440 0.000000 0.013764
#
#
# Mechanical properties :
#
#
# Convention : Reuss Voigt Hill
#
# Bulk Modulus (GPa) = 18.44321 57.04718 37.74520
# Shear Modulus (GPa) = 17.69984 -3.75240 6.97372
#
# Velocity S-wave (km/s) = 2.72116 -1.25292 1.70805
# Velocity P-wave (km/s) = 4.19388 4.66611 4.43628
#
# Compressibility (1/GPa) = 0.05422051
#
# Stress axis : x y z
#
# Youngs Moduli (GPa) = 11.62143 64.97371 53.45396
#
# Poissons Ratio (x) = -0.06604 1.46778
# Poissons Ratio (y) = -0.01181 0.34856
# Poissons Ratio (z) = 0.31911 0.42368
#
# Static dielectric constant tensor:
#      x y z
#    x 0.794570 0.000000 -0.137920 
#    y 0.000000 1.870950 0.000000 
#    z -0.137920 0.000000 1.934490 
# 
# From -- ./inp_files/63175.got.cif
#   From: 2010.05.17/outbox.cif.g08.bks.cpg/sg12_32_cif.got.tgz:63175.got - 2010.06.03 13:09:07.
