data_PCOD9209336
_publ_section_title
;
Structure prediction by ZEFSAII (Michael W. Deem and Ramdas Pophale) SiO2 
 PCOD9209336
Probable space group: C 2/M
;
_chemical_formula_sum "Si O2"
_cell_formula_units_Z 64
_cell_length_a 15.537265
_cell_length_b 24.800863
_cell_length_c 13.539503
_cell_angle_alpha 90.000000
_cell_angle_beta 147.165949
_cell_angle_gamma 90.000000
_cell_volume 2828.848843
_symmetry_space_group_name_H-M "C 2/M"
_symmetry_group_IT_number 12
_symmetry_cell_setting 'monoclinic'
loop_
_space_group_symop_operation_xyz
x,y,z
-x,y,-z
-x,-y,-z
x,-y,z
1/2+x,1/2+y,z
1/2-x,1/2+y,-z
1/2-x,1/2-y,-z
1/2+x,1/2-y,z
loop_
_atom_site_type_symbol
_atom_site_label
_atom_site_fract_x
_atom_site_fract_y
_atom_site_fract_z
Si Si1 0.154828 0.828819 0.260699
Si Si2 0.929718 0.941324 0.320100
Si Si3 0.632524 0.062432 0.905985
Si Si4 0.144381 0.355464 0.350462
Si Si5 0.181719 0.706301 0.202383
Si Si6 0.908485 0.726805 0.198094
Si Si7 0.287493 0.358743 0.892839
Si Si8 0.041046 0.824469 0.652859
O O1 0.252444 0.846865 0.451184
O O2 0.194688 0.767595 0.259982
O O3 0.200178 0.868235 0.212345
O O4 0.963446 0.835613 0.089311
O O5 0.984988 0.884000 0.332068
O O6 0.000000 0.940777 0.500000
O O7 0.980037 0.000000 0.327393
O O8 0.741843 0.937491 0.111537
O O9 0.460641 0.090254 0.753565
O O10 0.730295 0.095124 0.914608
O O11 0.615402 0.000000 0.861194
O O12 0.227927 0.339193 0.328752
O O13 0.012016 0.309157 0.227961
O O14 0.273481 0.690701 0.189618
O O15 0.000000 0.700171 0.000000
O O16 0.847163 0.686943 0.223870
O O17 0.016865 0.775766 0.337458
O O18 0.750000 0.750000 0.000000
O O19 0.000000 0.816605 0.500000
#
# Coordination Sequence:
#
# PCOD9209336 Si02
#       8
#     8   8   8   8   8   8   8   8
#     4  11  21  39  57  89 126 161 200 254 319 385
#     4   9  19  36  58  84 116 155 201 253 300 354
#     4  10  22  43  65  89 121 162 215 263 308 369
#     4  11  25  37  61  90 125 167 207 259 323 371
#     4  12  21  37  57  89 128 162 195 252 312 375
#     4  11  20  34  54  83 115 158 203 247 301 372
#     4  10  21  38  62  83 120 162 201 256 314 369
#     4  11  21  33  55  85 117 153 201 246 296 367
#
# _framework density 22.624043
#
# number of rings (size 3 to 8) (size 9 to 14) (size 15 to 20)
#    0.000    1.375    2.500    4.875    0.000    4.500 
#    0.000    3.750    0.000    2.250    0.000    0.000 
#    0.000    0.000    0.000    0.000    0.000    0.000 
#
# Total GULP energy -178378.817595 kJ/mol
# GULP energy per Si atom -5574.338050 kJ/mol
# Density = 2.257255 g / cm^3
# Si number density = 22.624043 Si / 1000 Ang^3
#
#
#
# Elastic Constant Matrix: (Units=GPa)
#
#
# Indices 1 2 3 4 5 6 
#
# 1 92.8920 21.0569 18.5979 0.0000 -14.4101 0.0000
# 2 21.0569 165.7307 22.7219 0.0000 -9.2115 0.0000
# 3 18.5979 22.7219 125.3246 0.0000 -28.3946 0.0000
# 4 0.0000 0.0000 0.0000 36.6783 0.0000 1.0755
# 5 -14.4101 -9.2115 -28.3946 0.0000 31.2069 0.0000
# 6 0.0000 0.0000 0.0000 1.0755 0.0000 14.3026
#
#
#
# Elastic Compliance Matrix: (Units=1/GPa)
#
#
# Indices 1 2 3 4 5 6 
#
# 1 0.011856 -0.001180 -0.000484 0.000000 0.004686 0.000000
# 2 -0.001180 0.006331 -0.000847 0.000000 0.000553 0.000000
# 3 -0.000484 -0.000847 0.010200 0.000000 0.008807 0.000000
# 4 0.000000 0.000000 0.000000 0.027324 0.000000 -0.002055
# 5 0.004686 0.000553 0.008807 0.000000 0.042385 0.000000
# 6 0.000000 0.000000 0.000000 -0.002055 0.000000 0.070072
#
#
# Mechanical properties :
#
#
# Convention : Reuss Voigt Hill
#
# Bulk Modulus (GPa) = 42.79803 56.52229 49.66016
# Shear Modulus (GPa) = 27.62755 37.87560 32.75157
#
# Velocity S-wave (km/s) = 3.49830 4.09605 3.80892
# Velocity P-wave (km/s) = 5.93933 6.88533 6.42975
#
# Compressibility (1/GPa) = 0.02336556
#
# Stress axis : x y z
#
# Youngs Moduli (GPa) = 84.34234 157.96091 98.03717
#
# Poissons Ratio (x) = 0.18633 0.04743
# Poissons Ratio (y) = 0.09949 0.08308
# Poissons Ratio (z) = 0.04081 0.13387
#
# Static dielectric constant tensor:
#      x y z
#    x 2.068980 0.000000 0.118340 
#    y 0.000000 1.861820 0.000000 
#    z 0.118340 0.000000 2.068790 
# 
# From -- ./inp_files/228202.got.cif
#   From: 2010.05.17/outbox.cif.g08.bks.cpg/sg12_115_cif.got.tgz:228202.got - 2010.06.03 13:09:07.
