data_PCOD9209820
_publ_section_title
;
Structure prediction by ZEFSAII (Michael W. Deem and Ramdas Pophale) SiO2 
 PCOD9209820
Probable space group: C 2/M
;
_chemical_formula_sum "Si O2"
_cell_formula_units_Z 52
_cell_length_a 20.567230
_cell_length_b 17.444020
_cell_length_c 14.708272
_cell_angle_alpha 90.000000
_cell_angle_beta 32.249580
_cell_angle_gamma 90.000000
_cell_volume 2815.831240
_symmetry_space_group_name_H-M "C 2/M"
_symmetry_group_IT_number 12
_symmetry_cell_setting 'monoclinic'
loop_
_space_group_symop_operation_xyz
x,y,z
-x,y,-z
-x,-y,-z
x,-y,z
1/2+x,1/2+y,z
1/2-x,1/2+y,-z
1/2-x,1/2-y,-z
1/2+x,1/2-y,z
loop_
_atom_site_type_symbol
_atom_site_label
_atom_site_fract_x
_atom_site_fract_y
_atom_site_fract_z
Si Si1 0.207846 0.130229 0.051487
Si Si2 0.500000 0.194284 0.000000
Si Si3 0.088485 0.276895 0.096324
Si Si4 0.254041 0.822499 0.372835
Si Si5 0.663394 0.000000 0.215792
Si Si6 0.528294 0.412692 0.564417
Si Si7 0.662907 0.163320 0.521740
Si Si8 0.872808 0.500000 0.531321
O O1 0.146767 0.199943 0.067991
O O2 0.095358 0.089295 0.232736
O O3 0.303830 0.161419 0.013246
O O4 0.277658 0.074030 0.900981
O O5 0.458355 0.232686 0.952515
O O6 0.623549 0.151902 0.823496
O O7 0.973056 0.305494 0.293109
O O8 0.134840 0.865299 0.482896
O O9 0.271934 0.839111 0.457818
O O10 0.231986 0.731050 0.385570
O O11 0.519245 0.000000 0.367178
O O12 0.680783 0.000000 0.303547
O O13 0.500000 0.377792 0.500000
O O14 0.569636 0.500000 0.503245
O O15 0.661546 0.079737 0.478015
#
# Coordination Sequence:
#
# PCOD9209820 Si02
#       8
#     8   4   8   8   4   8   8   4
#     4  11  21  40  62  93 124 167 202 254 316 374
#     4  10  22  40  63  89 118 152 212 264 304 373
#     4  10  21  38  65  90 120 163 209 257 309 368
#     4  10  22  41  62  91 118 165 203 266 310 377
#     4  11  24  40  62  91 137 162 209 255 313 377
#     4  11  23  39  61  91 124 160 206 258 317 377
#     4  10  21  41  64  88 125 162 214 250 316 371
#     4  11  24  42  61  95 126 175 206 261 308 373
#
# _framework density 18.467016999999998
#
# number of rings (size 3 to 8) (size 9 to 14) (size 15 to 20)
#    0.000    1.538    3.846    0.923    3.231    0.000 
#    2.769    0.385    0.000    1.846    0.000    0.000 
#    0.000    0.000    0.000    0.000    0.000    0.000 
#
# Total GULP energy -144950.434425 kJ/mol
# GULP energy per Si atom -5575.016709 kJ/mol
# Density = 1.842499 g / cm^3
# Si number density = 18.467017 Si / 1000 Ang^3
#
#
#
# Elastic Constant Matrix: (Units=GPa)
#
#
# Indices 1 2 3 4 5 6 
#
# 1 112.2470 55.2328 38.1697 0.0000 -13.2133 0.0000
# 2 55.2328 104.5484 27.4781 0.0000 -2.5627 0.0000
# 3 38.1697 27.4781 97.5412 0.0000 -5.3431 0.0000
# 4 0.0000 0.0000 0.0000 -39.7382 0.0000 9.7226
# 5 -13.2133 -2.5627 -5.3431 0.0000 30.0834 0.0000
# 6 0.0000 0.0000 0.0000 9.7226 0.0000 15.2654
#
#
#
# Elastic Compliance Matrix: (Units=1/GPa)
#
#
# Indices 1 2 3 4 5 6 
#
# 1 0.013685 -0.006234 -0.003331 0.000000 0.004888 0.000000
# 2 -0.006234 0.013174 -0.001373 0.000000 -0.001860 0.000000
# 3 -0.003331 -0.001373 0.011972 0.000000 0.000546 0.000000
# 4 0.000000 0.000000 0.000000 -0.021772 0.000000 0.013867
# 5 0.004888 -0.001860 0.000546 0.000000 0.035326 0.000000
# 6 0.000000 0.000000 0.000000 0.013867 0.000000 0.056676
#
#
# Mechanical properties :
#
#
# Convention : Reuss Voigt Hill
#
# Bulk Modulus (GPa) = 58.98544 61.78865 60.38704
# Shear Modulus (GPa) = 36.60587 14.01920 25.31253
#
# Velocity S-wave (km/s) = 4.45705 2.75825 3.70630
# Velocity P-wave (km/s) = 7.64836 6.60874 7.14748
#
# Compressibility (1/GPa) = 0.01695334
#
# Stress axis : x y z
#
# Youngs Moduli (GPa) = 73.07417 75.90760 83.52520
#
# Poissons Ratio (x) = 0.47323 0.27823
# Poissons Ratio (y) = 0.45557 0.11472
# Poissons Ratio (z) = 0.24342 0.10426
#
# Static dielectric constant tensor:
#      x y z
#    x 1.637300 0.000000 -0.002670 
#    y 0.000000 1.629770 0.000000 
#    z -0.002670 0.000000 1.640620 
# 
# From -- ./inp_files/234455.got.cif
#   From: 2010.05.17/outbox.cif.g08.bks.cpg/sg12_118_cif.got.tgz:234455.got - 2010.06.03 13:09:07.
