data_PCOD9209553
_publ_section_title
;
Structure prediction by ZEFSAII (Michael W. Deem and Ramdas Pophale) SiO2 
 PCOD9209553
Probable space group: C 2/M
;
_chemical_formula_sum "Si O2"
_cell_formula_units_Z 56
_cell_length_a 8.566372
_cell_length_b 22.316274
_cell_length_c 14.707385
_cell_angle_alpha 90.000000
_cell_angle_beta 92.643552
_cell_angle_gamma 90.000000
_cell_volume 2808.611397
_symmetry_space_group_name_H-M "C 2/M"
_symmetry_group_IT_number 12
_symmetry_cell_setting 'monoclinic'
loop_
_space_group_symop_operation_xyz
x,y,z
-x,y,-z
-x,-y,-z
x,-y,z
1/2+x,1/2+y,z
1/2-x,1/2+y,-z
1/2-x,1/2-y,-z
1/2+x,1/2-y,z
loop_
_atom_site_type_symbol
_atom_site_label
_atom_site_fract_x
_atom_site_fract_y
_atom_site_fract_z
Si Si1 0.303805 0.133776 0.054253
Si Si2 0.135924 0.321991 0.131406
Si Si3 0.367457 0.801123 0.384210
Si Si4 0.039486 0.000000 0.838508
Si Si5 0.770421 0.327744 0.573052
Si Si6 0.139900 0.883873 0.732665
Si Si7 0.855689 0.188731 0.790118
Si Si8 0.243265 0.000000 0.027795
O O1 0.460244 0.162161 0.099450
O O2 0.172427 0.145322 0.125260
O O3 0.267402 0.167481 0.959015
O O4 0.328598 0.063570 0.037321
O O5 0.205966 0.367203 0.206323
O O6 0.143473 0.255596 0.170738
O O7 0.330458 0.732253 0.410494
O O8 0.290004 0.837477 0.466108
O O9 0.552563 0.813244 0.387986
O O10 0.281196 0.815576 0.288214
O O11 0.066882 0.943076 0.774145
O O12 0.160301 0.000000 0.926804
O O13 0.877828 0.000000 0.890360
O O14 0.691546 0.380243 0.629274
O O15 0.016856 0.830435 0.748290
#
# Coordination Sequence:
#
# PCOD9209553 Si02
#       8
#     8   8   8   4   8   8   8   4
#     4  11  24  41  61  85 124 169 216 259 309 370
#     4  11  24  38  57  94 126 165 202 260 323 375
#     4  10  21  38  63  93 132 162 202 249 314 387
#     4  11  24  43  64  90 119 169 225 265 307 365
#     4  10  21  38  62  96 126 165 202 254 313 375
#     4  12  23  39  66  91 127 166 212 262 313 373
#     4  12  23  38  61  92 133 165 202 255 321 384
#     4  11  22  46  65  81 119 171 231 265 300 365
#
# _framework density 19.938679
#
# number of rings (size 3 to 8) (size 9 to 14) (size 15 to 20)
#    0.000    1.000    4.286    3.000    0.000    5.143 
#    0.000    0.000    0.000    4.286    0.000    0.000 
#    0.000    0.000    0.000    0.000    0.000    0.000 
#
# Total GULP energy -156475.069819 kJ/mol
# GULP energy per Si atom -5588.395351 kJ/mol
# Density = 1.989330 g / cm^3
# Si number density = 19.938679 Si / 1000 Ang^3
#
#
#
# Elastic Constant Matrix: (Units=GPa)
#
#
# Indices 1 2 3 4 5 6 
#
# 1 49.2855 19.5195 33.3223 0.0000 -17.7097 0.0000
# 2 19.5195 96.1856 54.1335 0.0000 -10.2779 0.0000
# 3 33.3223 54.1335 127.8052 0.0000 -21.5457 0.0000
# 4 0.0000 0.0000 0.0000 27.2545 0.0000 -10.1121
# 5 -17.7097 -10.2779 -21.5457 0.0000 35.8162 0.0000
# 6 0.0000 0.0000 0.0000 -10.1121 0.0000 25.3413
#
#
#
# Elastic Compliance Matrix: (Units=1/GPa)
#
#
# Indices 1 2 3 4 5 6 
#
# 1 0.027998 -0.001902 -0.004733 0.000000 0.010451 0.000000
# 2 -0.001902 0.013787 -0.005381 0.000000 -0.000221 0.000000
# 3 -0.004733 -0.005381 0.011888 0.000000 0.003267 0.000000
# 4 0.000000 0.000000 0.000000 0.043067 0.000000 0.017186
# 5 0.010451 -0.000221 0.003267 0.000000 0.034990 0.000000
# 6 0.000000 0.000000 0.000000 0.017186 0.000000 0.046319
#
#
# Mechanical properties :
#
#
# Convention : Reuss Voigt Hill
#
# Bulk Modulus (GPa) = 33.73438 54.13633 43.93535
# Shear Modulus (GPa) = 23.58903 28.76913 26.17908
#
# Velocity S-wave (km/s) = 3.44332 3.80265 3.62744
# Velocity P-wave (km/s) = 5.72402 6.81840 6.29504
#
# Compressibility (1/GPa) = 0.02964335
#
# Stress axis : x y z
#
# Youngs Moduli (GPa) = 35.71645 72.52961 84.11523
#
# Poissons Ratio (x) = 0.13792 0.39808
# Poissons Ratio (y) = 0.06792 0.45265
# Poissons Ratio (z) = 0.16903 0.39030
#
# Static dielectric constant tensor:
#      x y z
#    x 1.728710 0.000000 -0.032630 
#    y 0.000000 1.675880 0.000000 
#    z -0.032630 0.000000 1.747190 
# 
# From -- ./inp_files/197588.got.cif
#   From: 2010.05.17/outbox.cif.g08.bks.cpg/sg12_99_cif.got.tgz:197588.got - 2010.06.03 13:09:07.
