data_PCOD9209056
_publ_section_title
;
Structure prediction by ZEFSAII (Michael W. Deem and Ramdas Pophale) SiO2 
 PCOD9209056
Probable space group: C 2/M
;
_chemical_formula_sum "Si O2"
_cell_formula_units_Z 36
_cell_length_a 9.404508
_cell_length_b 15.691149
_cell_length_c 11.064649
_cell_angle_alpha 90.000000
_cell_angle_beta 113.797751
_cell_angle_gamma 90.000000
_cell_volume 1493.956447
_symmetry_space_group_name_H-M "C 2/M"
_symmetry_group_IT_number 12
_symmetry_cell_setting 'monoclinic'
loop_
_space_group_symop_operation_xyz
x,y,z
-x,y,-z
-x,-y,-z
x,-y,z
1/2+x,1/2+y,z
1/2-x,1/2+y,-z
1/2-x,1/2-y,-z
1/2+x,1/2-y,z
loop_
_atom_site_type_symbol
_atom_site_label
_atom_site_fract_x
_atom_site_fract_y
_atom_site_fract_z
Si Si1 0.500000 0.366408 0.000000
Si Si2 0.025568 0.402795 0.691093
Si Si3 0.748954 0.848498 0.544980
Si Si4 0.919230 0.093807 0.237760
Si Si5 0.213934 0.267805 0.850523
O O1 0.424007 0.411698 0.090634
O O2 0.625944 0.314739 0.123071
O O3 0.071670 0.500000 0.731411
O O4 0.136429 0.364626 0.622125
O O5 0.070307 0.333483 0.804555
O O6 0.848031 0.398489 0.589972
O O7 0.750000 0.750000 0.500000
O O8 0.915515 0.886128 0.639460
O O9 0.822114 0.179984 0.228763
O O10 0.865497 0.000000 0.259814
O O11 0.250000 0.250000 0.000000
#
# Coordination Sequence:
#
# PCOD9209056 Si02
#       5
#     4   8   8   8   8
#     4  10  21  38  61  84 118 154 199 246 293 348
#     4  11  22  39  63  92 118 154 201 244 290 353
#     4  11  21  36  61  91 121 151 191 248 298 347
#     4  11  21  37  61  89 117 152 198 245 294 351
#     4  10  22  37  58  91 121 153 194 246 298 345
#
# _framework density 24.097089
#
# number of rings (size 3 to 8) (size 9 to 14) (size 15 to 20)
#    0.000    1.333    4.444    3.000    0.000    3.556 
#    0.000    0.556    0.000   12.000    0.000    0.000 
#    0.000    0.000    0.000    0.000    0.000    0.000 
#
# Total GULP energy -100281.224291 kJ/mol
# GULP energy per Si atom -5571.179127 kJ/mol
# Density = 2.404224 g / cm^3
# Si number density = 24.097089 Si / 1000 Ang^3
#
#
#
# Elastic Constant Matrix: (Units=GPa)
#
#
# Indices 1 2 3 4 5 6 
#
# 1 25.9952 21.1069 18.5753 0.0000 9.7929 0.0000
# 2 21.1069 213.3736 55.7041 0.0000 21.6781 0.0000
# 3 18.5753 55.7041 142.2033 0.0000 36.4345 0.0000
# 4 0.0000 0.0000 0.0000 14.5466 0.0000 -7.5281
# 5 9.7929 21.6781 36.4345 0.0000 40.9592 0.0000
# 6 0.0000 0.0000 0.0000 -7.5281 0.0000 18.1266
#
#
#
# Elastic Compliance Matrix: (Units=1/GPa)
#
#
# Indices 1 2 3 4 5 6 
#
# 1 0.045611 -0.003040 -0.003089 0.000000 -0.006548 0.000000
# 2 -0.003040 0.005471 -0.001542 0.000000 -0.000797 0.000000
# 3 -0.003089 -0.001542 0.009897 0.000000 -0.007249 0.000000
# 4 0.000000 0.000000 0.000000 0.087565 0.000000 0.036366
# 5 -0.006548 -0.000797 -0.007249 0.000000 0.032850 0.000000
# 6 0.000000 0.000000 0.000000 0.036366 0.000000 0.070271
#
#
# Mechanical properties :
#
#
# Convention : Reuss Voigt Hill
#
# Bulk Modulus (GPa) = 21.91213 63.59387 42.75300
# Shear Modulus (GPa) = 17.71668 33.80554 25.76111
#
# Velocity S-wave (km/s) = 2.71444 3.74958 3.27319
# Velocity P-wave (km/s) = 4.35169 6.72263 5.66264
#
# Compressibility (1/GPa) = 0.04563682
#
# Stress axis : x y z
#
# Youngs Moduli (GPa) = 21.92436 182.78835 101.04112
#
# Poissons Ratio (x) = 0.55569 0.31216
# Poissons Ratio (y) = 0.06665 0.15577
# Poissons Ratio (z) = 0.06773 0.28180
#
# Static dielectric constant tensor:
#      x y z
#    x 2.398550 0.000000 -0.293080 
#    y 0.000000 2.783220 0.000000 
#    z -0.293080 0.000000 2.303520 
# 
# From -- ./inp_files/204026.got.cif
#   From: 2010.05.17/outbox.cif.g08.bks.cpg/sg12_103_cif.got.tgz:204026.got - 2010.06.03 13:09:07.
