data_PCOD9209490
_publ_section_title
;
Structure prediction by ZEFSAII (Michael W. Deem and Ramdas Pophale) SiO2 
 PCOD9209490
Probable space group: C 2/M
;
_chemical_formula_sum "Si O2"
_cell_formula_units_Z 64
_cell_length_a 14.754150
_cell_length_b 19.835170
_cell_length_c 22.750999
_cell_angle_alpha 90.000000
_cell_angle_beta 152.311610
_cell_angle_gamma 90.000000
_cell_volume 3093.772222
_symmetry_space_group_name_H-M "C 2/M"
_symmetry_group_IT_number 12
_symmetry_cell_setting 'monoclinic'
loop_
_space_group_symop_operation_xyz
x,y,z
-x,y,-z
-x,-y,-z
x,-y,z
1/2+x,1/2+y,z
1/2-x,1/2+y,-z
1/2-x,1/2-y,-z
1/2+x,1/2-y,z
loop_
_atom_site_type_symbol
_atom_site_label
_atom_site_fract_x
_atom_site_fract_y
_atom_site_fract_z
Si Si1 0.544327 0.290962 0.644655
Si Si2 0.193950 0.180672 0.245321
Si Si3 0.169889 0.074157 0.662528
Si Si4 0.039584 0.378397 0.260911
Si Si5 0.946533 0.427274 0.036540
Si Si6 0.796330 0.922496 0.847250
Si Si7 0.754435 0.170372 0.006285
Si Si8 0.688640 0.729253 0.376684
O O1 0.749806 0.251743 0.754136
O O2 0.548384 0.360169 0.610630
O O3 0.463737 0.302921 0.664162
O O4 0.395084 0.238580 0.527840
O O5 0.276844 0.123071 0.249978
O O6 0.219763 0.195009 0.330511
O O7 0.972615 0.155655 0.114910
O O8 0.274290 0.083698 0.659391
O O9 0.350105 0.076435 0.811914
O O10 0.078810 0.000000 0.614623
O O11 0.892860 0.417275 0.219098
O O12 0.109269 0.305478 0.323493
O O13 0.899086 0.360368 0.126172
O O14 0.854567 0.500000 0.000705
O O15 0.000000 0.428148 0.000000
O O16 0.806605 0.364696 0.968676
O O17 0.831118 0.000000 0.849801
O O18 0.000000 0.901288 0.000000
O O19 0.750000 0.250000 0.000000
#
# Coordination Sequence:
#
# PCOD9209490 Si02
#       8
#     8   8   8   8   8   8   8   8
#     4  11  24  43  65  91 128 171 214 271 327 378
#     4  12  22  39  65  92 126 167 214 256 316 388
#     4  10  21  38  62  92 125 164 211 264 323 384
#     4  11  20  39  61  91 127 161 211 261 317 381
#     4   9  20  37  57  84 126 169 200 247 318 384
#     4  11  24  41  63  95 136 174 209 257 322 391
#     4  11  21  34  55  96 125 156 203 258 309 378
#     4  11  24  41  67  92 123 165 219 271 322 373
#
# _framework density 20.686720999999999
#
# number of rings (size 3 to 8) (size 9 to 14) (size 15 to 20)
#    0.000    1.250    5.000    1.500    1.750    1.000 
#    2.250    2.500    0.000    1.500    0.000    0.000 
#    0.000    0.000    0.000    0.000    0.000    0.000 
#
# Total GULP energy -178263.721594 kJ/mol
# GULP energy per Si atom -5570.741300 kJ/mol
# Density = 2.063964 g / cm^3
# Si number density = 20.686721 Si / 1000 Ang^3
#
#
#
# Elastic Constant Matrix: (Units=GPa)
#
#
# Indices 1 2 3 4 5 6 
#
# 1 127.4365 58.0017 14.4189 0.0012 -0.2910 -0.0001
# 2 58.0017 105.2458 19.4575 0.0090 -5.3788 0.0003
# 3 14.4189 19.4575 37.3746 0.0165 -7.4993 0.0007
# 4 0.0012 0.0090 0.0165 -1.2406 0.0016 3.1303
# 5 -0.2910 -5.3788 -7.4993 0.0016 20.5969 -0.0004
# 6 -0.0001 0.0003 0.0007 3.1303 -0.0004 30.9096
#
#
#
# Elastic Compliance Matrix: (Units=1/GPa)
#
#
# Indices 1 2 3 4 5 6 
#
# 1 0.010586 -0.005649 -0.001520 -0.000042 -0.001879 0.000004
# 2 -0.005649 0.013541 -0.004506 0.000028 0.001816 -0.000003
# 3 -0.001520 -0.004506 0.031769 0.000318 0.010369 -0.000033
# 4 -0.000042 0.000028 0.000318 -0.642006 0.000174 0.065019
# 5 -0.001879 0.001816 0.010369 0.000174 0.052774 -0.000017
# 6 0.000004 -0.000003 -0.000033 0.065019 -0.000017 0.025768
#
#
# Mechanical properties :
#
#
# Convention : Reuss Voigt Hill
#
# Bulk Modulus (GPa) = 30.72612 50.42369 40.57490
# Shear Modulus (GPa) = -10.56252 21.93176 5.68462
#
# Velocity S-wave (km/s) = -2.26209 3.25958 1.65949
# Velocity P-wave (km/s) = 2.83947 6.21243 4.82995
#
# Compressibility (1/GPa) = 0.03254560
#
# Stress axis : x y z
#
# Youngs Moduli (GPa) = 94.46608 73.85248 31.47760
#
# Poissons Ratio (x) = 0.41719 0.04785
# Poissons Ratio (y) = 0.53363 0.14183
# Poissons Ratio (z) = 0.14360 0.33275
#
# Static dielectric constant tensor:
#      x y z
#    x 1.758820 -0.000020 -0.046120 
#    y -0.000020 1.866050 -0.000010 
#    z -0.046120 -0.000010 1.734810 
# 
# From -- ./inp_files/340849.got.cif
#   From: 2010.05.17/outbox.cif.g08.bks.cpg/sg12_171_cif.got.tgz:340849.got - 2010.06.03 13:09:07.
