data_PCOD9209707
_publ_section_title
;
Structure prediction by ZEFSAII (Michael W. Deem and Ramdas Pophale) SiO2 
 PCOD9209707
Probable space group: C 2/M
;
_chemical_formula_sum "Si O2"
_cell_formula_units_Z 52
_cell_length_a 8.526992
_cell_length_b 11.498155
_cell_length_c 28.285945
_cell_angle_alpha 90.000000
_cell_angle_beta 126.148569
_cell_angle_gamma 90.000000
_cell_volume 2239.401342
_symmetry_space_group_name_H-M "C 2/M"
_symmetry_group_IT_number 12
_symmetry_cell_setting 'monoclinic'
loop_
_space_group_symop_operation_xyz
x,y,z
-x,y,-z
-x,-y,-z
x,-y,z
1/2+x,1/2+y,z
1/2-x,1/2+y,-z
1/2-x,1/2-y,-z
1/2+x,1/2-y,z
loop_
_atom_site_type_symbol
_atom_site_label
_atom_site_fract_x
_atom_site_fract_y
_atom_site_fract_z
Si Si1 0.835178 0.500000 0.657827
Si Si2 0.892784 0.284516 0.286036
Si Si3 0.435198 0.367377 0.103741
Si Si4 0.478435 0.631742 0.224083
Si Si5 0.700884 0.630672 0.065056
Si Si6 0.289475 0.367087 0.604280
Si Si7 0.985724 0.175614 0.442003
O O1 0.687363 0.598739 0.609829
O O2 0.982694 0.397919 0.702346
O O3 0.695537 0.325668 0.275375
O O4 0.840374 0.215024 0.229183
O O5 0.023154 0.197112 0.340330
O O6 0.352946 0.500000 0.078238
O O7 0.460668 0.365262 0.164668
O O8 0.630027 0.362155 0.106915
O O9 0.317984 0.247529 0.072269
O O10 0.448329 0.500000 0.234379
O O11 0.790702 0.500000 0.073628
O O12 0.500000 0.631801 0.000000
O O13 0.291209 0.500000 0.618500
O O14 0.087716 0.306458 0.580314
O O15 0.324229 0.353577 0.554130
O O16 0.000000 0.153774 0.500000
#
# Coordination Sequence:
#
# PCOD9209707 Si02
#       7
#     4   8   8   8   8   8   8
#     4  10  21  38  64  86 114 156 193 238 296 362
#     4  11  22  41  63  88 119 159 200 245 305 358
#     4  10  22  39  60  91 129 164 212 261 308 365
#     4  11  23  41  62  89 123 161 201 253 304 356
#     4  10  21  39  63  92 129 170 212 258 308 364
#     4  11  24  41  62  89 121 151 199 247 291 366
#     4  11  23  43  63  89 120 154 192 243 303 358
#
# _framework density 23.220490000000002
#
# number of rings (size 3 to 8) (size 9 to 14) (size 15 to 20)
#    0.000    1.385    1.538    4.385    0.000    1.231 
#    8.308    0.000    0.000    0.000    0.000    0.000 
#    0.000    0.000    0.000    0.000    0.000    0.000 
#
# Total GULP energy -144791.156884 kJ/mol
# GULP energy per Si atom -5568.890649 kJ/mol
# Density = 2.316764 g / cm^3
# Si number density = 23.220490 Si / 1000 Ang^3
#
#
#
# Elastic Constant Matrix: (Units=GPa)
#
#
# Indices 1 2 3 4 5 6 
#
# 1 24.5860 27.6327 0.0086 0.0000 -9.6058 0.0000
# 2 27.6327 223.1405 19.7255 0.0000 12.3723 0.0000
# 3 0.0086 19.7255 41.3393 0.0000 -15.0451 0.0000
# 4 0.0000 0.0000 0.0000 24.2255 0.0000 6.7873
# 5 -9.6058 12.3723 -15.0451 0.0000 29.9168 0.0000
# 6 0.0000 0.0000 0.0000 6.7873 0.0000 13.7239
#
#
#
# Elastic Compliance Matrix: (Units=1/GPa)
#
#
# Indices 1 2 3 4 5 6 
#
# 1 0.068875 -0.012277 0.019267 0.000000 0.036881 0.000000
# 2 -0.012277 0.007237 -0.007313 0.000000 -0.010612 0.000000
# 3 0.019267 -0.007313 0.037979 0.000000 0.028310 0.000000
# 4 0.000000 0.000000 0.000000 0.047918 0.000000 -0.023699
# 5 0.036881 -0.010612 0.028310 0.000000 0.063894 0.000000
# 6 0.000000 0.000000 0.000000 -0.023699 0.000000 0.084586
#
#
# Mechanical properties :
#
#
# Convention : Reuss Voigt Hill
#
# Bulk Modulus (GPa) = 8.81497 42.64440 25.72968
# Shear Modulus (GPa) = 14.32867 29.68649 22.00758
#
# Velocity S-wave (km/s) = 2.48678 3.57944 3.08192
# Velocity P-wave (km/s) = 3.47130 5.95718 4.87534
#
# Compressibility (1/GPa) = 0.11344336
#
# Stress axis : x y z
#
# Youngs Moduli (GPa) = 14.51902 138.18418 26.33057
#
# Poissons Ratio (x) = 1.69652 -0.50730
# Poissons Ratio (y) = 0.17825 0.19255
# Poissons Ratio (z) = -0.27973 1.01052
#
# Static dielectric constant tensor:
#      x y z
#    x 1.915630 0.000000 -0.058280 
#    y 0.000000 1.882640 0.000000 
#    z -0.058280 0.000000 1.932240 
# 
# From -- ./inp_files/372046.got.cif
#   From: 2010.05.17/outbox.cif.g08.bks.cpg/sg12_187_cif.got.tgz:372046.got - 2010.06.03 13:09:07.
