data_PCOD9209296
_publ_section_title
;
Structure prediction by ZEFSAII (Michael W. Deem and Ramdas Pophale) SiO2 
 PCOD9209296
Probable space group: C 2/M
;
_chemical_formula_sum "Si O2"
_cell_formula_units_Z 38
_cell_length_a 21.161173
_cell_length_b 9.785992
_cell_length_c 24.546969
_cell_angle_alpha 90.000000
_cell_angle_beta 163.713828
_cell_angle_gamma 90.000000
_cell_volume 1425.524784
_symmetry_space_group_name_H-M "C 2/M"
_symmetry_group_IT_number 12
_symmetry_cell_setting 'monoclinic'
loop_
_space_group_symop_operation_xyz
x,y,z
-x,y,-z
-x,-y,-z
x,-y,z
1/2+x,1/2+y,z
1/2-x,1/2+y,-z
1/2-x,1/2-y,-z
1/2+x,1/2-y,z
loop_
_atom_site_type_symbol
_atom_site_label
_atom_site_fract_x
_atom_site_fract_y
_atom_site_fract_z
Si Si1 0.271595 0.000000 0.418128
Si Si2 0.157626 0.197338 0.809988
Si Si3 0.500000 0.500000 0.000000
Si Si4 0.033416 0.500000 0.736113
Si Si5 0.792753 0.000000 0.051020
Si Si6 0.365731 0.220969 0.824253
Si Si7 0.591734 0.705753 0.495962
O O1 0.396485 0.130563 0.498933
O O2 0.305664 0.000000 0.512099
O O3 0.007286 0.000000 0.188067
O O4 0.151056 0.360437 0.813281
O O5 0.942066 0.159494 0.594348
O O6 0.173318 0.128296 0.881342
O O7 0.384087 0.161364 0.964412
O O8 0.400146 0.376180 0.875847
O O9 0.067303 0.500000 0.828800
O O10 0.304667 0.183913 0.710512
O O11 0.139230 0.167706 0.665293
#
# Coordination Sequence:
#
# PCOD9209296 Si02
#       7
#     4   8   2   4   4   8   8
#     4  10  22  38  59  94 126 167 215 262 323 387
#     4  11  23  42  64  96 131 172 221 270 325 393
#     4  12  18  32  64  94 134 158 202 282 312 382
#     4  10  23  40  66  90 124 172 225 273 318 380
#     4  12  26  42  64  92 136 176 216 271 331 386
#     4  11  21  35  62  96 132 161 213 265 335 383
#     4  10  21  38  61  92 128 170 210 271 320 384
#
# _framework density 26.656849000000001
#
# number of rings (size 3 to 8) (size 9 to 14) (size 15 to 20)
#    0.000    1.263    2.105    3.789    2.947    6.737 
#    0.000    2.105    0.000    2.526    0.000    0.000 
#    0.000    0.000    0.000    0.000    0.000    0.000 
#
# Total GULP energy -105784.093063 kJ/mol
# GULP energy per Si atom -5567.583845 kJ/mol
# Density = 2.659618 g / cm^3
# Si number density = 26.656849 Si / 1000 Ang^3
#
#
#
# Elastic Constant Matrix: (Units=GPa)
#
#
# Indices 1 2 3 4 5 6 
#
# 1 56.8921 1.7450 37.8903 0.0313 -19.7639 -0.0265
# 2 1.7450 111.5951 17.6476 0.0624 9.1182 -0.0010
# 3 37.8903 17.6476 164.9426 0.0741 -59.4011 0.0283
# 4 0.0313 0.0624 0.0741 0.8909 -0.0006 -17.8904
# 5 -19.7639 9.1182 -59.4011 -0.0006 64.3892 -0.0045
# 6 -0.0265 -0.0010 0.0283 -17.8904 -0.0045 120.2771
#
#
#
# Elastic Compliance Matrix: (Units=1/GPa)
#
#
# Indices 1 2 3 4 5 6 
#
# 1 0.021134 0.000022 -0.003777 0.000158 0.002999 0.000029
# 2 0.000022 0.009603 -0.002276 0.000240 -0.003453 0.000036
# 3 -0.003777 -0.002276 0.010291 0.000311 0.008657 0.000043
# 4 0.000158 0.000240 0.000311 -0.564905 0.000290 -0.084026
# 5 0.002999 -0.003453 0.008657 0.000290 0.024927 0.000043
# 6 0.000029 0.000036 0.000043 -0.084026 0.000043 -0.004184
#
#
# Mechanical properties :
#
#
# Convention : Reuss Voigt Hill
#
# Bulk Modulus (GPa) = 34.52420 49.77730 42.15075
# Shear Modulus (GPa) = -10.38601 55.52125 22.56762
#
# Velocity S-wave (km/s) = -1.97602 4.56874 2.91279
# Velocity P-wave (km/s) = 2.78806 6.82239 5.21144
#
# Compressibility (1/GPa) = 0.02896519
#
# Stress axis : x y z
#
# Youngs Moduli (GPa) = 47.31738 104.13922 97.16812
#
# Poissons Ratio (x) = -0.00226 0.36701
# Poissons Ratio (y) = -0.00102 0.22115
# Poissons Ratio (z) = 0.17872 0.23702
#
# Static dielectric constant tensor:
#      x y z
#    x 2.179990 0.000010 -0.058620 
#    y 0.000010 2.041350 -0.000060 
#    z -0.058620 -0.000060 2.032390 
# 
# From -- ./inp_files/347127.got.cif
#   From: 2010.05.17/outbox.cif.g08.bks.cpg/sg12_174_cif.got.tgz:347127.got - 2010.06.03 13:09:07.
