data_PCOD9209832
_publ_section_title
;
Structure prediction by ZEFSAII (Michael W. Deem and Ramdas Pophale) SiO2 
 PCOD9209832
Probable space group: C 2/M
;
_chemical_formula_sum "Si O2"
_cell_formula_units_Z 48
_cell_length_a 18.327422
_cell_length_b 12.638373
_cell_length_c 11.752149
_cell_angle_alpha 90.000000
_cell_angle_beta 62.697163
_cell_angle_gamma 90.000000
_cell_volume 2418.875239
_symmetry_space_group_name_H-M "C 2/M"
_symmetry_group_IT_number 12
_symmetry_cell_setting 'monoclinic'
loop_
_space_group_symop_operation_xyz
x,y,z
-x,y,-z
-x,-y,-z
x,-y,z
1/2+x,1/2+y,z
1/2-x,1/2+y,-z
1/2-x,1/2-y,-z
1/2+x,1/2-y,z
loop_
_atom_site_type_symbol
_atom_site_label
_atom_site_fract_x
_atom_site_fract_y
_atom_site_fract_z
Si Si1 0.811185 0.727160 0.560909
Si Si2 0.857005 0.500000 0.596597
Si Si3 0.896185 0.124799 0.889394
Si Si4 0.538934 0.768177 0.706247
Si Si5 0.737775 0.379176 0.198404
Si Si6 0.988775 0.500000 0.688316
Si Si7 0.407882 0.218201 0.086358
O O1 0.750000 0.750000 0.500000
O O2 0.806979 0.606092 0.606799
O O3 0.903222 0.741566 0.444712
O O4 0.792709 0.802874 0.679622
O O5 0.935092 0.500000 0.455181
O O6 0.901251 0.500000 0.687373
O O7 0.811613 0.141461 0.882173
O O8 0.966551 0.183353 0.765794
O O9 0.911537 0.000000 0.888747
O O10 0.897090 0.182012 0.010629
O O11 0.593924 0.752347 0.779629
O O12 0.501510 0.887226 0.740138
O O13 0.721761 0.500000 0.243425
O O14 0.834394 0.360792 0.113331
O O15 0.500000 0.176630 0.000000
#
# Coordination Sequence:
#
# PCOD9209832 Si02
#       7
#     8   4   8   8   8   4   8
#     4  11  22  38  62  95 131 161 205 250 313 373
#     4   9  20  36  58  88 127 172 197 248 301 363
#     4  10  23  44  63  88 124 166 210 251 305 377
#     4  10  21  38  65  93 124 162 201 256 307 369
#     4  11  24  41  65  90 126 162 202 261 314 370
#     4   9  18  36  61  88 126 157 207 252 303 363
#     4  10  22  41  64  90 116 161 208 258 308 359
#
# _framework density 19.843934000000001
#
# number of rings (size 3 to 8) (size 9 to 14) (size 15 to 20)
#    0.000    1.833    1.667    1.500    2.333    6.000 
#    6.000    1.667    0.000    0.000    0.000    0.000 
#    0.000    0.000    0.000    0.000    0.000    0.000 
#
# Total GULP energy -133976.017791 kJ/mol
# GULP energy per Si atom -5582.334075 kJ/mol
# Density = 1.979877 g / cm^3
# Si number density = 19.843934 Si / 1000 Ang^3
#
#
#
# Elastic Constant Matrix: (Units=GPa)
#
#
# Indices 1 2 3 4 5 6 
#
# 1 122.2146 66.1074 24.7585 0.0000 14.9805 0.0000
# 2 66.1074 135.4335 50.6306 0.0000 18.1053 0.0000
# 3 24.7585 50.6306 69.9483 0.0000 9.5217 0.0000
# 4 0.0000 0.0000 0.0000 34.2470 0.0000 -2.2694
# 5 14.9805 18.1053 9.5217 0.0000 21.6437 0.0000
# 6 0.0000 0.0000 0.0000 -2.2694 0.0000 4.7330
#
#
#
# Elastic Compliance Matrix: (Units=1/GPa)
#
#
# Indices 1 2 3 4 5 6 
#
# 1 0.011368 -0.005130 0.000187 0.000000 -0.003659 0.000000
# 2 -0.005130 0.013113 -0.007091 0.000000 -0.004300 0.000000
# 3 0.000187 -0.007091 0.019756 0.000000 -0.002889 0.000000
# 4 0.000000 0.000000 0.000000 0.030158 0.000000 0.014460
# 5 -0.003659 -0.004300 -0.002889 0.000000 0.053603 0.000000
# 6 0.000000 0.000000 0.000000 0.014460 0.000000 0.218215
#
#
# Mechanical properties :
#
#
# Convention : Reuss Voigt Hill
#
# Bulk Modulus (GPa) = 49.57683 67.84324 58.71003
# Shear Modulus (GPa) = 13.26252 24.53140 18.89696
#
# Velocity S-wave (km/s) = 2.58803 3.51980 3.08925
# Velocity P-wave (km/s) = 5.82822 7.12610 6.50959
#
# Compressibility (1/GPa) = 0.02017071
#
# Stress axis : x y z
#
# Youngs Moduli (GPa) = 87.96960 76.25953 50.61827
#
# Poissons Ratio (x) = 0.39118 -0.00949
# Poissons Ratio (y) = 0.45125 0.35892
# Poissons Ratio (z) = -0.01649 0.54074
#
# Static dielectric constant tensor:
#      x y z
#    x 1.712950 0.000000 -0.006320 
#    y 0.000000 1.662030 0.000000 
#    z -0.006320 0.000000 1.705620 
# 
# From -- ./inp_files/154227.got.cif
#   From: 2010.05.17/outbox.cif.g08.bks.cpg/sg12_78_cif.got.tgz:154227.got - 2010.06.03 13:09:07.
