data_PCOD9209713
_publ_section_title
;
Structure prediction by ZEFSAII (Michael W. Deem and Ramdas Pophale) SiO2 
 PCOD9209713
Probable space group: C 2/M
;
_chemical_formula_sum "Si O2"
_cell_formula_units_Z 52
_cell_length_a 23.062778
_cell_length_b 15.780570
_cell_length_c 19.999064
_cell_angle_alpha 90.000000
_cell_angle_beta 21.992897
_cell_angle_gamma 90.000000
_cell_volume 2725.750559
_symmetry_space_group_name_H-M "C 2/M"
_symmetry_group_IT_number 12
_symmetry_cell_setting 'monoclinic'
loop_
_space_group_symop_operation_xyz
x,y,z
-x,y,-z
-x,-y,-z
x,-y,z
1/2+x,1/2+y,z
1/2-x,1/2+y,-z
1/2-x,1/2-y,-z
1/2+x,1/2-y,z
loop_
_atom_site_type_symbol
_atom_site_label
_atom_site_fract_x
_atom_site_fract_y
_atom_site_fract_z
Si Si1 0.025157 0.279239 0.799550
Si Si2 0.150230 0.751546 0.387879
Si Si3 0.397796 0.000000 0.676708
Si Si4 0.337695 0.652793 0.080534
Si Si5 0.872453 0.400700 0.195440
Si Si6 0.947642 0.000000 0.130582
Si Si7 0.856574 0.500000 0.478793
Si Si8 0.146031 0.315502 0.536243
O O1 0.051887 0.361795 0.817721
O O2 0.019526 0.287314 0.725652
O O3 0.189540 0.230874 0.633088
O O4 0.881546 0.226990 0.982648
O O5 0.287882 0.699831 0.202606
O O6 0.227889 0.840377 0.328432
O O7 0.101710 0.699971 0.506483
O O8 0.000000 0.760168 0.500000
O O9 0.500000 0.000000 0.500000
O O10 0.298093 0.914637 0.783361
O O11 0.482308 0.000000 0.656986
O O12 0.483896 0.588713 0.917475
O O13 0.831559 0.500000 0.247098
O O14 0.000000 0.394122 0.000000
O O15 0.766314 0.000000 0.329831
O O16 0.000000 0.000000 0.000000
O O17 0.828964 0.413297 0.471280
#
# Coordination Sequence:
#
# PCOD9209713 Si02
#       8
#     8   8   4   8   8   4   4   8
#     4  10  21  39  60  91 118 156 204 262 308 356
#     4  11  22  39  61  88 124 163 198 252 309 371
#     4  11  23  37  55  91 131 159 191 238 303 368
#     4  11  21  37  59  86 120 162 199 245 296 372
#     4  10  21  38  64  89 112 149 208 265 305 347
#     4  11  21  29  57  87 117 146 197 246 295 362
#     4  12  20  36  54  86 119 161 190 245 306 361
#     4  10  22  36  60  90 122 153 206 253 312 362
#
# _framework density 19.077314999999999
#
# number of rings (size 3 to 8) (size 9 to 14) (size 15 to 20)
#    0.000    1.385    3.077    4.154    3.231    0.308 
#    0.000    3.077    1.692    0.000    0.000    0.000 
#    0.000    0.000    0.000    0.000    0.000    0.000 
#
# Total GULP energy -144820.520913 kJ/mol
# GULP energy per Si atom -5570.020035 kJ/mol
# Density = 1.903389 g / cm^3
# Si number density = 19.077315 Si / 1000 Ang^3
#
#
#
# Elastic Constant Matrix: (Units=GPa)
#
#
# Indices 1 2 3 4 5 6 
#
# 1 39.0631 16.3857 34.6019 -0.0020 17.4978 0.0022
# 2 16.3857 130.2777 38.4765 -0.0044 7.8082 0.0056
# 3 34.6019 38.4765 84.5413 -0.0017 31.5232 0.0052
# 4 -0.0020 -0.0044 -0.0017 13.2973 0.0005 -19.6311
# 5 17.4978 7.8082 31.5232 0.0005 34.7668 -0.0015
# 6 0.0022 0.0056 0.0052 -19.6311 -0.0015 -1.6726
#
#
#
# Elastic Compliance Matrix: (Units=1/GPa)
#
#
# Indices 1 2 3 4 5 6 
#
# 1 0.041755 -0.000732 -0.013570 0.000002 -0.008546 -0.000002
# 2 -0.000732 0.009029 -0.004821 0.000001 0.002712 -0.000001
# 3 -0.013570 -0.004821 0.025119 0.000005 -0.014863 0.000003
# 4 0.000002 0.000001 0.000005 0.004103 -0.000007 -0.048160
# 5 -0.008546 0.002712 -0.014863 -0.000007 0.045932 -0.000002
# 6 -0.000002 -0.000001 0.000003 -0.048160 -0.000002 -0.032622
#
#
# Mechanical properties :
#
#
# Convention : Reuss Voigt Hill
#
# Bulk Modulus (GPa) = 26.55520 48.09002 37.32261
# Shear Modulus (GPa) = 34.69453 20.23950 27.46702
#
# Velocity S-wave (km/s) = 4.26916 3.26071 3.79855
# Velocity P-wave (km/s) = 6.18474 6.28005 6.23258
#
# Compressibility (1/GPa) = 0.03765741
#
# Stress axis : x y z
#
# Youngs Moduli (GPa) = 23.94911 110.75097 39.81083
#
# Poissons Ratio (x) = 0.08103 0.54024
# Poissons Ratio (y) = 0.01752 0.19193
# Poissons Ratio (z) = 0.32499 0.53393
#
# Static dielectric constant tensor:
#      x y z
#    x 1.708010 0.000000 0.008640 
#    y 0.000000 1.647690 0.000010 
#    z 0.008640 0.000010 1.663420 
# 
# From -- ./inp_files/328310.got.cif
#   From: 2010.05.17/outbox.cif.g08.bks.cpg/sg12_165_cif.got.tgz:328310.got - 2010.06.03 13:09:07.
