data_PCOD9209729
_publ_section_title
;
Structure prediction by ZEFSAII (Michael W. Deem and Ramdas Pophale) SiO2 
 PCOD9209729
Probable space group: C 2/M
;
_chemical_formula_sum "Si O2"
_cell_formula_units_Z 28
_cell_length_a 16.553005
_cell_length_b 18.018705
_cell_length_c 4.996839
_cell_angle_alpha 90.000000
_cell_angle_beta 124.586668
_cell_angle_gamma 90.000000
_cell_volume 1226.979380
_symmetry_space_group_name_H-M "C 2/M"
_symmetry_group_IT_number 12
_symmetry_cell_setting 'monoclinic'
loop_
_space_group_symop_operation_xyz
x,y,z
-x,y,-z
-x,-y,-z
x,-y,z
1/2+x,1/2+y,z
1/2-x,1/2+y,-z
1/2-x,1/2-y,-z
1/2+x,1/2-y,z
loop_
_atom_site_type_symbol
_atom_site_label
_atom_site_fract_x
_atom_site_fract_y
_atom_site_fract_z
Si Si1 0.909212 0.334201 0.174178
Si Si2 0.500000 0.692701 0.500000
Si Si3 0.280465 0.831775 0.450317
Si Si4 0.395388 0.582888 0.654662
O O1 0.952559 0.251209 0.205199
O O2 0.823780 0.328113 0.235025
O O3 0.000000 0.373154 0.500000
O O4 0.135182 0.360775 0.186260
O O5 0.415574 0.641827 0.460329
O O6 0.250000 0.750000 0.500000
O O7 0.189184 0.886366 0.315247
O O8 0.373166 0.500000 0.514529
O O9 0.500000 0.580558 0.000000
#
# Coordination Sequence:
#
# PCOD9209729 Si02
#       4
#     8   4   8   8
#     4  10  23  37  66  94 121 154 212 266 312 354
#     4  10  21  38  64  90 127 162 200 264 319 362
#     4  12  21  39  64  92 124 166 209 261 306 371
#     4  11  25  40  60  91 134 171 204 253 318 389
#
# _framework density 22.820267000000001
#
# number of rings (size 3 to 8) (size 9 to 14) (size 15 to 20)
#    0.857    0.286    2.857    3.857    4.000    0.000 
#    0.000    0.000    0.000    5.143    0.000    0.000 
#    0.000    0.000    0.000    0.000    0.000    0.000 
#
# Total GULP energy -78244.212638 kJ/mol
# GULP energy per Si atom -5588.872331 kJ/mol
# Density = 2.276833 g / cm^3
# Si number density = 22.820267 Si / 1000 Ang^3
#
#
#
# Elastic Constant Matrix: (Units=GPa)
#
#
# Indices 1 2 3 4 5 6 
#
# 1 126.6165 38.5054 9.0602 0.0000 -3.9819 0.0000
# 2 38.5054 55.5378 8.4244 0.0000 12.4255 0.0000
# 3 9.0602 8.4244 100.2711 0.0000 8.2201 0.0000
# 4 0.0000 0.0000 0.0000 4.3175 0.0000 -1.4746
# 5 -3.9819 12.4255 8.2201 0.0000 41.6205 0.0000
# 6 0.0000 0.0000 0.0000 -1.4746 0.0000 13.4969
#
#
#
# Elastic Compliance Matrix: (Units=1/GPa)
#
#
# Indices 1 2 3 4 5 6 
#
# 1 0.010466 -0.007951 -0.000563 0.000000 0.003486 0.000000
# 2 -0.007951 0.025470 -0.000748 0.000000 -0.008217 0.000000
# 3 -0.000563 -0.000748 0.010239 0.000000 -0.001853 0.000000
# 4 0.000000 0.000000 0.000000 0.240593 0.000000 0.026285
# 5 0.003486 -0.008217 -0.001853 0.000000 0.027179 0.000000
# 6 0.000000 0.000000 0.000000 0.026285 0.000000 0.076963
#
#
# Mechanical properties :
#
#
# Convention : Reuss Voigt Hill
#
# Bulk Modulus (GPa) = 36.16599 43.82285 39.99442
# Shear Modulus (GPa) = 11.94318 26.98267 19.46293
#
# Velocity S-wave (km/s) = 2.29018 3.44233 2.92358
# Velocity P-wave (km/s) = 4.78287 5.91986 5.38148
#
# Compressibility (1/GPa) = 0.02765029
#
# Stress axis : x y z
#
# Youngs Moduli (GPa) = 95.55064 39.26222 97.66958
#
# Poissons Ratio (x) = 0.31216 0.05503
# Poissons Ratio (y) = 0.75968 0.07305
# Poissons Ratio (z) = 0.05384 0.02936
#
# Static dielectric constant tensor:
#      x y z
#    x 1.856640 0.000000 0.035350 
#    y 0.000000 1.840700 0.000000 
#    z 0.035350 0.000000 1.963360 
# 
# From -- ./inp_files/10589.got.cif
#   From: 2010.05.17/outbox.cif.g08.bks.cpg/sg12_6_cif.got.tgz:10589.got - 2010.06.03 13:09:07.
