data_PCOD9209987
_publ_section_title
;
Structure prediction by ZEFSAII (Michael W. Deem and Ramdas Pophale) SiO2 
 PCOD9209987
Probable space group: C 2/M
;
_chemical_formula_sum "Si O2"
_cell_formula_units_Z 64
_cell_length_a 13.003657
_cell_length_b 24.484723
_cell_length_c 16.849629
_cell_angle_alpha 90.000000
_cell_angle_beta 35.494564
_cell_angle_gamma 90.000000
_cell_volume 3114.922947
_symmetry_space_group_name_H-M "C 2/M"
_symmetry_group_IT_number 12
_symmetry_cell_setting 'monoclinic'
loop_
_space_group_symop_operation_xyz
x,y,z
-x,y,-z
-x,-y,-z
x,-y,z
1/2+x,1/2+y,z
1/2-x,1/2+y,-z
1/2-x,1/2-y,-z
1/2+x,1/2-y,z
loop_
_atom_site_type_symbol
_atom_site_label
_atom_site_fract_x
_atom_site_fract_y
_atom_site_fract_z
Si Si1 0.292347 0.934474 0.455311
Si Si2 0.848890 0.760232 0.356610
Si Si3 0.490092 0.880537 0.089046
Si Si4 0.791585 0.374128 0.618554
Si Si5 0.796923 0.200705 0.913293
Si Si6 0.298098 0.347666 0.621844
Si Si7 0.009103 0.871182 0.076846
Si Si8 0.352479 0.936290 0.852322
O O1 0.240756 0.910434 0.573442
O O2 0.206531 0.896735 0.440194
O O3 0.502511 0.924960 0.307032
O O4 0.257983 0.000000 0.470192
O O5 0.750000 0.750000 0.500000
O O6 0.753513 0.810802 0.372819
O O7 0.827062 0.703033 0.324548
O O8 0.053484 0.777285 0.240478
O O9 0.289703 0.867722 0.241133
O O10 0.570889 0.909597 0.115503
O O11 0.500000 0.912336 0.000000
O O12 0.621501 0.828841 0.992867
O O13 0.676062 0.389199 0.768557
O O14 0.000000 0.380422 0.500000
O O15 0.899864 0.159789 0.907305
O O16 0.750000 0.250000 0.000000
O O17 0.500000 0.328714 0.500000
O O18 0.000000 0.837354 0.000000
O O19 0.154519 0.916103 0.961924
O O20 0.350273 0.000000 0.866019
#
# Coordination Sequence:
#
# PCOD9209987 Si02
#       8
#     8   8   8   8   8   8   8   8
#     4  10  22  42  64  85 117 161 202 250 303 352
#     4  11  22  38  62  89 122 160 197 245 299 352
#     4  10  22  38  58  88 121 157 197 241 291 352
#     4  11  23  39  60  91 124 157 200 243 298 363
#     4  10  21  39  58  83 119 158 196 234 289 352
#     4  11  23  39  61  90 124 157 200 248 299 357
#     4  10  22  37  59  89 118 152 194 242 296 351
#     4   9  20  40  63  85 114 154 200 247 297 347
#
# _framework density 20.546254000000001
#
# number of rings (size 3 to 8) (size 9 to 14) (size 15 to 20)
#    0.000    1.750    2.500    1.125    1.750    4.000 
#    0.000    0.000    0.000    0.000    0.000    0.000 
#    0.000    0.000    0.000    0.000    0.000    0.000 
#
# Total GULP energy -178405.004895 kJ/mol
# GULP energy per Si atom -5575.156403 kJ/mol
# Density = 2.049949 g / cm^3
# Si number density = 20.546254 Si / 1000 Ang^3
#
#
#
# Elastic Constant Matrix: (Units=GPa)
#
#
# Indices 1 2 3 4 5 6 
#
# 1 40.9575 0.4027 25.5669 -0.0013 2.2199 0.0008
# 2 0.4027 67.0406 11.0359 -0.0004 4.7822 0.0003
# 3 25.5669 11.0359 148.5819 -0.0064 9.5314 0.0033
# 4 -0.0013 -0.0004 -0.0064 23.3891 0.0027 -4.8822
# 5 2.2199 4.7822 9.5314 0.0027 43.1878 -0.0013
# 6 0.0008 0.0003 0.0033 -4.8822 -0.0013 6.0076
#
#
#
# Elastic Compliance Matrix: (Units=1/GPa)
#
#
# Indices 1 2 3 4 5 6 
#
# 1 0.027387 0.000646 -0.004733 0.000000 -0.000435 -0.000001
# 2 0.000646 0.015206 -0.001147 0.000000 -0.001464 -0.000001
# 3 -0.004733 -0.001147 0.007715 0.000001 -0.001333 -0.000003
# 4 0.000000 0.000000 0.000001 0.051489 -0.000002 0.041843
# 5 -0.000435 -0.001464 -0.001333 -0.000002 0.023633 0.000004
# 6 -0.000001 -0.000001 -0.000003 0.041843 0.000004 0.200459
#
#
# Mechanical properties :
#
#
# Convention : Reuss Voigt Hill
#
# Bulk Modulus (GPa) = 25.09998 36.73234 30.91616
# Shear Modulus (GPa) = 14.30054 29.15520 21.72787
#
# Velocity S-wave (km/s) = 2.64108 3.77105 3.25547
# Velocity P-wave (km/s) = 4.64147 6.07271 5.40468
#
# Compressibility (1/GPa) = 0.03984067
#
# Stress axis : x y z
#
# Youngs Moduli (GPa) = 36.51360 65.76512 129.61261
#
# Poissons Ratio (x) = -0.04246 0.61341
# Poissons Ratio (y) = -0.02357 0.14861
# Poissons Ratio (z) = 0.17281 0.07540
#
# Static dielectric constant tensor:
#      x y z
#    x 1.794100 0.000010 -0.009840 
#    y 0.000010 3.311050 -0.000050 
#    z -0.009840 -0.000050 1.764000 
# 
# From -- ./inp_files/209401.got.cif
#   From: 2010.05.17/outbox.cif.g08.bks.cpg/sg12_105_cif.got.tgz:209401.got - 2010.06.03 13:09:07.
