data_PCOD9209643
_publ_section_title
;
Structure prediction by ZEFSAII (Michael W. Deem and Ramdas Pophale) SiO2 
 PCOD9209643
Probable space group: C 2/M
;
_chemical_formula_sum "Si O2"
_cell_formula_units_Z 56
_cell_length_a 29.678574
_cell_length_b 8.281688
_cell_length_c 21.645635
_cell_angle_alpha 90.000000
_cell_angle_beta 150.462616
_cell_angle_gamma 90.000000
_cell_volume 2622.838296
_symmetry_space_group_name_H-M "C 2/M"
_symmetry_group_IT_number 12
_symmetry_cell_setting 'monoclinic'
loop_
_space_group_symop_operation_xyz
x,y,z
-x,y,-z
-x,-y,-z
x,-y,z
1/2+x,1/2+y,z
1/2-x,1/2+y,-z
1/2-x,1/2-y,-z
1/2+x,1/2-y,z
loop_
_atom_site_type_symbol
_atom_site_label
_atom_site_fract_x
_atom_site_fract_y
_atom_site_fract_z
Si Si1 0.853231 0.812140 0.626381
Si Si2 0.844641 0.689671 0.937808
Si Si3 0.542124 0.187678 0.134545
Si Si4 0.778533 0.689949 0.102195
Si Si5 0.382225 0.193301 0.530631
Si Si6 0.466133 0.803970 0.391552
Si Si7 0.798445 0.190076 0.757995
O O1 0.750000 0.750000 0.500000
O O2 0.903146 0.706943 0.736899
O O3 0.898046 0.785421 0.613103
O O4 0.855204 0.000000 0.646956
O O5 0.853958 0.500000 0.962409
O O6 0.803069 0.774798 0.947412
O O7 0.783654 0.717254 0.804309
O O8 0.942642 0.755619 0.032268
O O9 0.604245 0.270182 0.156807
O O10 0.532433 0.000000 0.106124
O O11 0.793369 0.500000 0.113323
O O12 0.870472 0.755587 0.246736
O O13 0.750000 0.750000 0.000000
O O14 0.454994 0.229812 0.564307
O O15 0.281282 0.233461 0.385043
O O16 0.385118 0.000000 0.546093
O O17 0.500000 0.746723 0.500000
O O18 0.457533 0.000000 0.386892
O O19 0.791217 0.000000 0.761964
#
# Coordination Sequence:
#
# PCOD9209643 Si02
#       7
#     8   8   8   8   8   8   8
#     4  12  24  39  60  89 124 164 208 257 313 372
#     4  11  25  43  64  89 124 169 212 258 316 376
#     4  11  24  41  62  88 124 167 211 257 311 375
#     4  11  24  43  67  95 128 167 215 271 329 389
#     4  10  21  38  63  93 125 162 206 253 312 380
#     4   9  19  39  67  95 123 162 212 263 318 382
#     4  11  22  38  64  96 128 163 204 255 313 377
#
# _framework density 21.350916000000002
#
# number of rings (size 3 to 8) (size 9 to 14) (size 15 to 20)
#    0.000    1.286    1.429    4.286    2.000    6.857 
#    0.000    0.714    0.000    3.000    0.000    0.000 
#    0.000    0.000    0.000    0.000    0.000    0.000 
#
# Total GULP energy -156495.905227 kJ/mol
# GULP energy per Si atom -5589.139472 kJ/mol
# Density = 2.130232 g / cm^3
# Si number density = 21.350916 Si / 1000 Ang^3
#
#
#
# Elastic Constant Matrix: (Units=GPa)
#
#
# Indices 1 2 3 4 5 6 
#
# 1 127.2846 10.3320 61.4253 0.0000 -20.0313 0.0000
# 2 10.3320 23.1042 12.9611 0.0000 -1.2169 0.0000
# 3 61.4253 12.9611 113.6117 0.0000 -12.1577 0.0000
# 4 0.0000 0.0000 0.0000 23.9736 0.0000 -5.4674
# 5 -20.0313 -1.2169 -12.1577 0.0000 37.3146 0.0000
# 6 0.0000 0.0000 0.0000 -5.4674 0.0000 28.6112
#
#
#
# Elastic Compliance Matrix: (Units=1/GPa)
#
#
# Indices 1 2 3 4 5 6 
#
# 1 0.011298 -0.001770 -0.005454 0.000000 0.004230 0.000000
# 2 -0.001770 0.046521 -0.004444 0.000000 -0.000881 0.000000
# 3 -0.005454 -0.004444 0.012360 0.000000 0.000954 0.000000
# 4 0.000000 0.000000 0.000000 0.043613 0.000000 0.008334
# 5 0.004230 -0.000881 0.000954 0.000000 0.029352 0.000000
# 6 0.000000 0.000000 0.000000 0.008334 0.000000 0.036544
#
#
# Mechanical properties :
#
#
# Convention : Reuss Voigt Hill
#
# Bulk Modulus (GPa) = 21.34851 48.15970 34.75410
# Shear Modulus (GPa) = 22.86894 29.93203 26.40048
#
# Velocity S-wave (km/s) = 3.27632 3.74827 3.52021
# Velocity P-wave (km/s) = 4.93284 6.42946 5.73022
#
# Compressibility (1/GPa) = 0.04684167
#
# Stress axis : x y z
#
# Youngs Moduli (GPa) = 88.51435 21.49586 80.90879
#
# Poissons Ratio (x) = 0.03805 0.44124
# Poissons Ratio (y) = 0.15667 0.35960
# Poissons Ratio (z) = 0.48272 0.09554
#
# Static dielectric constant tensor:
#      x y z
#    x 1.752170 0.000000 0.023720 
#    y 0.000000 1.783010 0.000000 
#    z 0.023720 0.000000 1.850180 
# 
# From -- ./inp_files/329721.got.cif
#   From: 2010.05.17/outbox.cif.g08.bks.cpg/sg12_165_cif.got.tgz:329721.got - 2010.06.03 13:09:07.
