data_PCOD9209807
_publ_section_title
;
Structure prediction by ZEFSAII (Michael W. Deem and Ramdas Pophale) SiO2 
 PCOD9209807
Probable space group: C 2/M
;
_chemical_formula_sum "Si O2"
_cell_formula_units_Z 36
_cell_length_a 18.502625
_cell_length_b 22.050585
_cell_length_c 7.954461
_cell_angle_alpha 90.000000
_cell_angle_beta 149.389569
_cell_angle_gamma 90.000000
_cell_volume 1652.536279
_symmetry_space_group_name_H-M "C 2/M"
_symmetry_group_IT_number 12
_symmetry_cell_setting 'monoclinic'
loop_
_space_group_symop_operation_xyz
x,y,z
-x,y,-z
-x,-y,-z
x,-y,z
1/2+x,1/2+y,z
1/2-x,1/2+y,-z
1/2-x,1/2-y,-z
1/2+x,1/2-y,z
loop_
_atom_site_type_symbol
_atom_site_label
_atom_site_fract_x
_atom_site_fract_y
_atom_site_fract_z
Si Si1 0.209720 0.640266 0.804284
Si Si2 0.964569 0.822957 0.116689
Si Si3 0.844565 0.070706 0.369680
Si Si4 0.974551 0.429248 0.134829
Si Si5 0.000000 0.264998 0.500000
O O1 0.076387 0.603113 0.469731
O O2 0.140539 0.693279 0.777752
O O3 0.299647 0.664859 0.827270
O O4 0.314901 0.599256 0.126522
O O5 0.049014 0.885662 0.318501
O O6 0.007295 0.775826 0.348181
O O7 0.000000 0.801924 0.000000
O O8 0.887022 0.000000 0.448015
O O9 0.689708 0.074457 0.145881
O O10 0.015202 0.500000 0.215746
O O11 0.000000 0.404068 0.000000
#
# Coordination Sequence:
#
# PCOD9209807 Si02
#       5
#     8   8   8   8   4
#     4  12  23  44  72  97 139 181 228 283 339 404
#     4  12  28  46  69 103 138 183 229 282 346 401
#     4  11  23  44  71 102 138 178 225 283 351 409
#     4  10  21  38  65 103 140 179 229 279 339 412
#     4  12  26  48  70  98 138 184 236 282 326 412
#
# _framework density 21.784697000000001
#
# number of rings (size 3 to 8) (size 9 to 14) (size 15 to 20)
#    0.000    0.667    4.444    2.667    0.000    6.667 
#    0.000    0.000    0.000    0.000    0.000    0.000 
#    0.000    0.000    0.000    0.000    0.000    0.000 
#
# Total GULP energy -100716.337793 kJ/mol
# GULP energy per Si atom -5595.352100 kJ/mol
# Density = 2.173511 g / cm^3
# Si number density = 21.784697 Si / 1000 Ang^3
#
#
#
# Elastic Constant Matrix: (Units=GPa)
#
#
# Indices 1 2 3 4 5 6 
#
# 1 150.0941 29.4041 12.8721 0.0000 -13.1893 0.0000
# 2 29.4041 99.4755 32.9311 0.0000 -11.2740 0.0000
# 3 12.8721 32.9311 61.3038 0.0000 -0.1280 0.0000
# 4 0.0000 0.0000 0.0000 -6.8584 0.0000 1.1737
# 5 -13.1893 -11.2740 -0.1280 0.0000 30.2671 0.0000
# 6 0.0000 0.0000 0.0000 1.1737 0.0000 24.3973
#
#
#
# Elastic Compliance Matrix: (Units=1/GPa)
#
#
# Indices 1 2 3 4 5 6 
#
# 1 0.007264 -0.001648 -0.000634 0.000000 0.002549 0.000000
# 2 -0.001648 0.013254 -0.006765 0.000000 0.004190 0.000000
# 3 -0.000634 -0.006765 0.020074 0.000000 -0.002712 0.000000
# 4 0.000000 0.000000 0.000000 -0.144617 0.000000 0.006957
# 5 0.002549 0.004190 -0.002712 0.000000 0.035699 0.000000
# 6 0.000000 0.000000 0.000000 0.006957 0.000000 0.040654
#
#
# Mechanical properties :
#
#
# Convention : Reuss Voigt Hill
#
# Bulk Modulus (GPa) = 44.45172 51.25423 47.85298
# Shear Modulus (GPa) = -2406.74848 25.27227 -1190.73810
#
# Velocity S-wave (km/s) = -33.27442 3.40971 -23.40471
# Velocity P-wave (km/s) = 38.15495 6.25142 26.61503
#
# Compressibility (1/GPa) = 0.02249632
#
# Stress axis : x y z
#
# Youngs Moduli (GPa) = 137.66992 75.44669 49.81607
#
# Poissons Ratio (x) = 0.12435 0.03161
# Poissons Ratio (y) = 0.22691 0.33701
# Poissons Ratio (z) = 0.08735 0.51041
#
# Static dielectric constant tensor:
#      x y z
#    x 1.816930 0.000000 0.006120 
#    y 0.000000 1.801350 0.000000 
#    z 0.006120 0.000000 1.772080 
# 
# From -- ./inp_files/78155.got.cif
#   From: 2010.05.17/outbox.cif.g08.bks.cpg/sg12_40_cif.got.tgz:78155.got - 2010.06.03 13:09:07.
