data_PCOD9209726
_publ_section_title
;
Structure prediction by ZEFSAII (Michael W. Deem and Ramdas Pophale) SiO2 
 PCOD9209726
Probable space group: C 2/M
;
_chemical_formula_sum "Si O2"
_cell_formula_units_Z 48
_cell_length_a 14.027306
_cell_length_b 17.590380
_cell_length_c 18.302196
_cell_angle_alpha 90.000000
_cell_angle_beta 150.809571
_cell_angle_gamma 90.000000
_cell_volume 2202.509395
_symmetry_space_group_name_H-M "C 2/M"
_symmetry_group_IT_number 12
_symmetry_cell_setting 'monoclinic'
loop_
_space_group_symop_operation_xyz
x,y,z
-x,y,-z
-x,-y,-z
x,-y,z
1/2+x,1/2+y,z
1/2-x,1/2+y,-z
1/2-x,1/2-y,-z
1/2+x,1/2-y,z
loop_
_atom_site_type_symbol
_atom_site_label
_atom_site_fract_x
_atom_site_fract_y
_atom_site_fract_z
Si Si1 0.907905 0.587632 0.358356
Si Si2 0.176000 0.500000 0.213682
Si Si3 0.728057 0.500000 0.892777
Si Si4 0.436138 0.688354 0.873780
Si Si5 0.316413 0.336414 0.102205
Si Si6 0.059332 0.708968 0.342542
Si Si7 0.363331 0.160820 0.767948
O O1 0.937873 0.500000 0.357283
O O2 0.680957 0.610101 0.211115
O O3 0.000000 0.599364 0.500000
O O4 0.989634 0.646354 0.353370
O O5 0.217394 0.500000 0.155680
O O6 0.245853 0.582574 0.287705
O O7 0.942029 0.500000 0.075038
O O8 0.617456 0.422421 0.837012
O O9 0.609256 0.684636 0.929463
O O10 0.294258 0.757896 0.753097
O O11 0.500000 0.698267 0.000000
O O12 0.406721 0.275497 0.218091
O O13 0.081724 0.340686 0.949811
O O14 0.250000 0.750000 0.500000
O O15 0.110155 0.668376 0.300323
#
# Coordination Sequence:
#
# PCOD9209726 Si02
#       7
#     8   4   4   8   8   8   8
#     4  11  25  42  62  87 121 162 202 247 302 363
#     4   9  20  34  61  93 120 155 203 249 311 349
#     4   9  20  36  60  91 124 157 196 257 303 360
#     4  11  22  37  62  92 124 157 201 249 300 357
#     4  10  21  40  62  92 122 161 203 250 305 358
#     4  11  23  43  63  88 118 161 204 246 306 363
#     4  10  21  38  64  90 122 158 203 254 304 357
#
# _framework density 21.793324999999999
#
# number of rings (size 3 to 8) (size 9 to 14) (size 15 to 20)
#    0.000    1.667    0.000    6.000    9.333    0.333 
#    4.500    0.000    0.000    1.000    0.000    0.000 
#    0.000    0.000    0.000    0.000    0.000    0.000 
#
# Total GULP energy -134045.204181 kJ/mol
# GULP energy per Si atom -5585.216841 kJ/mol
# Density = 2.174372 g / cm^3
# Si number density = 21.793325 Si / 1000 Ang^3
#
#
#
# Elastic Constant Matrix: (Units=GPa)
#
#
# Indices 1 2 3 4 5 6 
#
# 1 84.8488 48.8991 24.0411 0.0035 -21.9265 -0.0016
# 2 48.8991 182.2381 29.1307 0.0156 -26.6241 -0.0082
# 3 24.0411 29.1307 69.1433 0.0128 -13.4219 0.0098
# 4 0.0035 0.0156 0.0128 19.2390 0.0104 1.6497
# 5 -21.9265 -26.6241 -13.4219 0.0104 24.6771 -0.0054
# 6 -0.0016 -0.0082 0.0098 1.6497 -0.0054 23.1458
#
#
#
# Elastic Compliance Matrix: (Units=1/GPa)
#
#
# Indices 1 2 3 4 5 6 
#
# 1 0.016763 -0.002499 -0.002692 -0.000005 0.010733 0.000004
# 2 -0.002499 0.007037 -0.001177 -0.000007 0.004731 0.000004
# 3 -0.002692 -0.001177 0.016976 -0.000012 0.005571 -0.000006
# 4 -0.000005 -0.000007 -0.000012 0.052297 -0.000042 -0.003727
# 5 0.010733 0.004731 0.005571 -0.000042 0.058196 0.000017
# 6 0.000004 0.000004 -0.000006 -0.003727 0.000017 0.043470
#
#
# Mechanical properties :
#
#
# Convention : Reuss Voigt Hill
#
# Bulk Modulus (GPa) = 35.66470 60.04135 47.85302
# Shear Modulus (GPa) = 23.06032 29.02300 26.04166
#
# Velocity S-wave (km/s) = 3.25643 3.65326 3.46054
# Velocity P-wave (km/s) = 5.52627 6.73834 6.16218
#
# Compressibility (1/GPa) = 0.02803893
#
# Stress axis : x y z
#
# Youngs Moduli (GPa) = 59.65691 142.09710 58.90610
#
# Poissons Ratio (x) = 0.35516 0.15856
# Poissons Ratio (y) = 0.14911 0.06936
# Poissons Ratio (z) = 0.16058 0.16731
#
# Static dielectric constant tensor:
#      x y z
#    x 1.797100 0.000000 0.042660 
#    y 0.000000 1.906920 0.000000 
#    z 0.042660 0.000000 1.802300 
# 
# From -- ./inp_files/271814.got.cif
#   From: 2010.05.17/outbox.cif.g08.bks.cpg/sg12_136_cif.got.tgz:271814.got - 2010.06.03 13:09:07.
