data_PCOD9209525
_publ_section_title
;
Structure prediction by ZEFSAII (Michael W. Deem and Ramdas Pophale) SiO2 
 PCOD9209525
Probable space group: C 2/M
;
_chemical_formula_sum "Si O2"
_cell_formula_units_Z 52
_cell_length_a 15.867606
_cell_length_b 9.099015
_cell_length_c 20.610705
_cell_angle_alpha 90.000000
_cell_angle_beta 127.754850
_cell_angle_gamma 90.000000
_cell_volume 2352.752165
_symmetry_space_group_name_H-M "C 2/M"
_symmetry_group_IT_number 12
_symmetry_cell_setting 'monoclinic'
loop_
_space_group_symop_operation_xyz
x,y,z
-x,y,-z
-x,-y,-z
x,-y,z
1/2+x,1/2+y,z
1/2-x,1/2+y,-z
1/2-x,1/2-y,-z
1/2+x,1/2-y,z
loop_
_atom_site_type_symbol
_atom_site_label
_atom_site_fract_x
_atom_site_fract_y
_atom_site_fract_z
Si Si1 0.993482 0.000000 0.074195
Si Si2 0.629760 0.775663 0.171314
Si Si3 0.005019 0.168391 0.319460
Si Si4 0.700594 0.318223 0.858549
Si Si5 0.719985 0.328277 0.339301
Si Si6 0.912759 0.668218 0.515572
Si Si7 0.260428 0.000000 0.044982
Si Si8 0.464442 0.000000 0.059460
O O1 0.066974 0.126945 0.135275
O O2 0.000000 0.000000 0.000000
O O3 0.867126 0.000000 0.028353
O O4 0.695637 0.816160 0.138359
O O5 0.709468 0.766830 0.269307
O O6 0.525186 0.872573 0.124895
O O7 0.104366 0.172443 0.317267
O O8 0.040064 0.252435 0.400149
O O9 0.901720 0.224326 0.232956
O O10 0.984452 0.000000 0.328331
O O11 0.681164 0.500000 0.863319
O O12 0.718164 0.166360 0.911987
O O13 0.748514 0.500000 0.337361
O O14 0.805304 0.271249 0.431770
O O15 0.889359 0.500000 0.523259
O O16 0.000000 0.669366 0.500000
O O17 0.341562 0.000000 0.021833
O O18 0.500000 0.000000 0.000000
#
# Coordination Sequence:
#
# PCOD9209525 Si02
#       8
#     4   8   8   8   8   8   4   4
#     4  12  24  46  78 113 139 191 247 296 377 450
#     4  12  23  47  74 102 150 189 238 308 371 439
#     4  10  22  40  62 101 139 185 237 296 355 428
#     4  11  24  45  78 111 152 193 249 305 368 441
#     4  10  21  40  65  97 138 186 238 294 356 437
#     4  10  21  38  62  93 133 180 235 293 360 426
#     4  12  28  52  80 113 144 204 249 297 385 454
#     4  12  30  52  72 106 152 188 245 318 375 440
#
# _framework density 22.101775
#
# number of rings (size 3 to 8) (size 9 to 14) (size 15 to 20)
#    0.000    1.077    3.077    2.769    1.077    0.923 
#    6.923    0.000    0.000    0.000    0.000    0.000 
#    0.000    0.000    0.000    0.000    0.000    0.000 
#
# Total GULP energy -144796.693004 kJ/mol
# GULP energy per Si atom -5569.103577 kJ/mol
# Density = 2.205147 g / cm^3
# Si number density = 22.101775 Si / 1000 Ang^3
#
#
#
# Elastic Constant Matrix: (Units=GPa)
#
#
# Indices 1 2 3 4 5 6 
#
# 1 100.1067 6.1455 39.9622 0.0000 9.2936 0.0000
# 2 6.1455 101.3516 41.7384 0.0000 -10.0615 0.0000
# 3 39.9622 41.7384 149.7114 0.0000 14.0080 0.0000
# 4 0.0000 0.0000 0.0000 10.9637 0.0000 59.2638
# 5 9.2936 -10.0615 14.0080 0.0000 49.0396 0.0000
# 6 0.0000 0.0000 0.0000 59.2638 0.0000 -14.8846
#
#
#
# Elastic Compliance Matrix: (Units=1/GPa)
#
#
# Indices 1 2 3 4 5 6 
#
# 1 0.011279 0.000444 -0.003024 0.000000 -0.001183 0.000000
# 2 0.000444 0.011696 -0.003695 0.000000 0.003371 0.000000
# 3 -0.003024 -0.003695 0.008768 0.000000 -0.002690 0.000000
# 4 0.000000 0.000000 0.000000 0.004050 0.000000 0.016125
# 5 -0.001183 0.003371 -0.002690 0.000000 0.022076 0.000000
# 6 0.000000 0.000000 0.000000 0.016125 0.000000 -0.002983
#
#
# Mechanical properties :
#
#
# Convention : Reuss Voigt Hill
#
# Bulk Modulus (GPa) = 52.09893 58.54021 55.31957
# Shear Modulus (GPa) = 67.72064 26.57865 47.14964
#
# Velocity S-wave (km/s) = 5.54138 3.47155 4.62377
# Velocity P-wave (km/s) = 8.03529 6.52787 7.32049
#
# Compressibility (1/GPa) = 0.01919425
#
# Stress axis : x y z
#
# Youngs Moduli (GPa) = 88.66061 85.50015 114.04659
#
# Poissons Ratio (x) = -0.03796 0.34485
# Poissons Ratio (y) = -0.03936 0.42136
# Poissons Ratio (z) = 0.26809 0.31589
#
# Static dielectric constant tensor:
#      x y z
#    x 1.802280 0.000000 -0.015350 
#    y 0.000000 1.853430 0.000000 
#    z -0.015350 0.000000 1.740890 
# 
# From -- ./inp_files/314953.got.cif
#   From: 2010.05.17/outbox.cif.g08.bks.cpg/sg12_158_cif.got.tgz:314953.got - 2010.06.03 13:09:07.
