data_PCOD9209621
_publ_section_title
;
Structure prediction by ZEFSAII (Michael W. Deem and Ramdas Pophale) SiO2 
 PCOD9209621
Probable space group: C 2/M
;
_chemical_formula_sum "Si O2"
_cell_formula_units_Z 64
_cell_length_a 18.244890
_cell_length_b 13.764552
_cell_length_c 25.270638
_cell_angle_alpha 90.000000
_cell_angle_beta 149.751203
_cell_angle_gamma 90.000000
_cell_volume 3196.977872
_symmetry_space_group_name_H-M "C 2/M"
_symmetry_group_IT_number 12
_symmetry_cell_setting 'monoclinic'
loop_
_space_group_symop_operation_xyz
x,y,z
-x,y,-z
-x,-y,-z
x,-y,z
1/2+x,1/2+y,z
1/2-x,1/2+y,-z
1/2-x,1/2-y,-z
1/2+x,1/2-y,z
loop_
_atom_site_type_symbol
_atom_site_label
_atom_site_fract_x
_atom_site_fract_y
_atom_site_fract_z
Si Si1 0.140523 0.115310 0.210107
Si Si2 0.667362 0.115124 0.363263
Si Si3 0.613890 0.616780 0.776132
Si Si4 0.172410 0.116538 0.932747
Si Si5 0.227195 0.116217 0.452488
Si Si6 0.836883 0.765082 0.883365
Si Si7 0.162358 0.281389 0.580957
Si Si8 0.330418 0.116810 0.132222
O O1 0.159164 0.173039 0.167585
O O2 0.252657 0.153259 0.323705
O O3 0.980685 0.133946 0.134118
O O4 0.156635 0.000000 0.211814
O O5 0.719444 0.139568 0.455242
O O6 0.756680 0.179285 0.377676
O O7 0.496690 0.136337 0.250906
O O8 0.689482 0.000000 0.369101
O O9 0.627947 0.500000 0.779237
O O10 0.661104 0.647802 0.865041
O O11 0.443859 0.640930 0.661567
O O12 0.723516 0.676302 0.807699
O O13 0.189947 0.000000 0.939560
O O14 0.295556 0.150397 0.050494
O O15 0.322182 0.165850 0.466198
O O16 0.238553 0.000000 0.452883
O O17 0.776471 0.833986 0.892475
O O18 0.000000 0.732302 0.000000
O O19 0.000000 0.268283 0.500000
O O20 0.308417 0.000000 0.120673
#
# Coordination Sequence:
#
# PCOD9209621 Si02
#       8
#     8   8   8   8   8   8   8   8
#     4  11  24  42  62  93 132 163 203 256 323 382
#     4  10  24  44  66  92 123 168 217 261 307 369
#     4  10  22  41  66  92 123 168 218 261 304 365
#     4   9  18  38  66  90 117 158 205 259 309 365
#     4  10  21  42  69  92 121 164 215 265 313 368
#     4  12  25  38  60  96 131 170 205 253 318 378
#     4  12  26  40  63  95 130 164 204 261 320 379
#     4  10  21  38  63  92 125 162 208 261 313 372
#
# _framework density 20.018906999999999
#
# number of rings (size 3 to 8) (size 9 to 14) (size 15 to 20)
#    0.000    1.500    2.500    1.875    3.500    3.500 
#    0.000    0.625    0.000    0.000    0.000    0.000 
#    0.000    0.000    0.000    0.000    0.000    0.000 
#
# Total GULP energy -178951.134833 kJ/mol
# GULP energy per Si atom -5592.222964 kJ/mol
# Density = 1.997334 g / cm^3
# Si number density = 20.018907 Si / 1000 Ang^3
#
#
#
# Elastic Constant Matrix: (Units=GPa)
#
#
# Indices 1 2 3 4 5 6 
#
# 1 78.9013 39.8249 21.1639 0.0000 1.8425 0.0001
# 2 39.8249 71.7870 11.7887 -0.0003 3.1694 0.0002
# 3 21.1639 11.7887 78.2596 -0.0002 -2.4705 0.0002
# 4 0.0000 -0.0003 -0.0002 25.9308 0.0000 0.3463
# 5 1.8425 3.1694 -2.4705 0.0000 25.9392 0.0001
# 6 0.0001 0.0002 0.0002 0.3463 0.0001 36.3933
#
#
#
# Elastic Compliance Matrix: (Units=1/GPa)
#
#
# Indices 1 2 3 4 5 6 
#
# 1 0.018522 -0.009669 -0.003568 0.000000 -0.000474 0.000000
# 2 -0.009669 0.019430 -0.000367 0.000000 -0.001722 0.000000
# 3 -0.003568 -0.000367 0.013849 0.000000 0.001617 0.000000
# 4 0.000000 0.000000 0.000000 0.038569 0.000000 -0.000367
# 5 -0.000474 -0.001722 0.001617 0.000000 0.038950 0.000000
# 6 0.000000 0.000000 0.000000 -0.000367 0.000000 0.027481
#
#
# Mechanical properties :
#
#
# Convention : Reuss Voigt Hill
#
# Bulk Modulus (GPa) = 40.65711 41.61145 41.13428
# Shear Modulus (GPa) = 26.01380 28.06402 27.03891
#
# Velocity S-wave (km/s) = 3.60872 3.74823 3.67913
# Velocity P-wave (km/s) = 6.14143 6.28995 6.21614
#
# Compressibility (1/GPa) = 0.02459594
#
# Stress axis : x y z
#
# Youngs Moduli (GPa) = 53.98905 51.46631 72.20725
#
# Poissons Ratio (x) = 0.49761 0.25760
# Poissons Ratio (y) = 0.52201 0.02647
# Poissons Ratio (z) = 0.19261 0.01886
#
# Static dielectric constant tensor:
#      x y z
#    x 1.658870 0.000000 -0.020490 
#    y 0.000000 1.736060 0.000000 
#    z -0.020490 0.000000 1.714650 
# 
# From -- ./inp_files/344105.got.cif
#   From: 2010.05.17/outbox.cif.g08.bks.cpg/sg12_173_cif.got.tgz:344105.got - 2010.06.03 13:09:07.
