data_PCOD9209454
_publ_section_title
;
Structure prediction by ZEFSAII (Michael W. Deem and Ramdas Pophale) SiO2 
 PCOD9209454
Probable space group: C 2/M
;
_chemical_formula_sum "Si O2"
_cell_formula_units_Z 34
_cell_length_a 24.049721
_cell_length_b 9.958139
_cell_length_c 7.164755
_cell_angle_alpha 90.000000
_cell_angle_beta 115.378099
_cell_angle_gamma 90.000000
_cell_volume 1550.305672
_symmetry_space_group_name_H-M "C 2/M"
_symmetry_group_IT_number 12
_symmetry_cell_setting 'monoclinic'
loop_
_space_group_symop_operation_xyz
x,y,z
-x,y,-z
-x,-y,-z
x,-y,z
1/2+x,1/2+y,z
1/2-x,1/2+y,-z
1/2-x,1/2-y,-z
1/2+x,1/2-y,z
loop_
_atom_site_type_symbol
_atom_site_label
_atom_site_fract_x
_atom_site_fract_y
_atom_site_fract_z
Si Si1 0.262044 0.348019 0.846304
Si Si2 0.107417 0.847085 0.165759
Si Si3 0.545194 0.269069 0.708673
Si Si4 0.371938 0.843029 0.471338
Si Si5 0.000000 0.500000 0.500000
O O1 0.265210 0.500000 0.925769
O O2 0.324809 0.324078 0.825843
O O3 0.201792 0.342658 0.627821
O O4 0.250000 0.250000 0.000000
O O5 0.100501 0.735477 0.314288
O O6 0.105000 0.000000 0.235656
O O7 0.059855 0.831705 0.927115
O O8 0.500000 0.344994 0.500000
O O9 0.607514 0.238190 0.682668
O O10 0.515769 0.121028 0.674794
O O11 0.393857 0.000000 0.479024
#
# Coordination Sequence:
#
# PCOD9209454 Si02
#       5
#     8   8   8   8   2
#     4  10  21  38  62  91 121 159 201 245 303 360
#     4  11  25  40  60  92 128 162 197 246 309 367
#     4  10  21  41  64  87 120 155 208 253 302 346
#     4  11  22  38  65  92 120 158 205 252 299 357
#     4   8  20  40  64  92 116 150 214 260 292 348
#
# _framework density 21.931156999999999
#
# number of rings (size 3 to 8) (size 9 to 14) (size 15 to 20)
#    0.706    0.941    3.529    0.706    1.647    4.235 
#    0.000    3.529    0.000    0.000    0.000    0.000 
#    0.000    0.000    0.000    0.000    0.000    0.000 
#
# Total GULP energy -94671.406271 kJ/mol
# GULP energy per Si atom -5568.906251 kJ/mol
# Density = 2.188124 g / cm^3
# Si number density = 21.931157 Si / 1000 Ang^3
#
#
#
# Elastic Constant Matrix: (Units=GPa)
#
#
# Indices 1 2 3 4 5 6 
#
# 1 60.4874 16.7522 7.0664 0.0000 6.6944 0.0000
# 2 16.7522 98.5909 38.0399 0.0000 -24.6842 0.0000
# 3 7.0664 38.0399 97.3096 0.0000 -2.0411 0.0000
# 4 0.0000 0.0000 0.0000 35.5973 0.0000 0.0938
# 5 6.6944 -24.6842 -2.0411 0.0000 29.1797 0.0000
# 6 0.0000 0.0000 0.0000 0.0938 0.0000 29.1846
#
#
#
# Elastic Compliance Matrix: (Units=1/GPa)
#
#
# Indices 1 2 3 4 5 6 
#
# 1 0.019092 -0.005834 0.000700 0.000000 -0.009266 0.000000
# 2 -0.005834 0.017374 -0.006041 0.000000 0.015613 0.000000
# 3 0.000700 -0.006041 0.012495 0.000000 -0.004397 0.000000
# 4 0.000000 0.000000 0.000000 0.028092 0.000000 -0.000090
# 5 -0.009266 0.015613 -0.004397 0.000000 0.049297 0.000000
# 6 0.000000 0.000000 0.000000 -0.000090 0.000000 0.034265
#
#
# Mechanical properties :
#
#
# Convention : Reuss Voigt Hill
#
# Bulk Modulus (GPa) = 37.57838 42.23388 39.90613
# Shear Modulus (GPa) = 26.06413 31.76095 28.91254
#
# Velocity S-wave (km/s) = 3.45113 3.80967 3.63482
# Velocity P-wave (km/s) = 5.74912 6.21697 5.98761
#
# Compressibility (1/GPa) = 0.02661105
#
# Stress axis : x y z
#
# Youngs Moduli (GPa) = 52.37816 57.55722 80.03323
#
# Poissons Ratio (x) = 0.33579 -0.05601
# Poissons Ratio (y) = 0.30558 0.48345
# Poissons Ratio (z) = -0.03666 0.34768
#
# Static dielectric constant tensor:
#      x y z
#    x 1.801700 0.000000 0.049270 
#    y 0.000000 1.727190 0.000000 
#    z 0.049270 0.000000 1.797110 
# 
# From -- ./inp_files/30708.got.cif
#   From: 2010.05.17/outbox.cif.g08.bks.cpg/sg12_16_cif.got.tgz:30708.got - 2010.06.03 13:09:07.
