data_PCOD9209170
_publ_section_title
;
Structure prediction by ZEFSAII (Michael W. Deem and Ramdas Pophale) SiO2 
 PCOD9209170
Probable space group: C 2/M
;
_chemical_formula_sum "Si O2"
_cell_formula_units_Z 48
_cell_length_a 24.292411
_cell_length_b 8.785458
_cell_length_c 12.169231
_cell_angle_alpha 90.000000
_cell_angle_beta 88.942481
_cell_angle_gamma 90.000000
_cell_volume 2596.714380
_symmetry_space_group_name_H-M "C 2/M"
_symmetry_group_IT_number 12
_symmetry_cell_setting 'monoclinic'
loop_
_space_group_symop_operation_xyz
x,y,z
-x,y,-z
-x,-y,-z
x,-y,z
1/2+x,1/2+y,z
1/2-x,1/2+y,-z
1/2-x,1/2-y,-z
1/2+x,1/2-y,z
loop_
_atom_site_type_symbol
_atom_site_label
_atom_site_fract_x
_atom_site_fract_y
_atom_site_fract_z
Si Si1 0.835034 0.817063 0.022832
Si Si2 0.043128 0.183014 0.901721
Si Si3 0.770441 0.318294 0.827241
Si Si4 0.917432 0.182928 0.531530
Si Si5 0.291207 0.681978 0.587883
Si Si6 0.013927 0.681721 0.667903
O O1 0.895471 0.774182 0.061837
O O2 0.788076 0.777991 0.113985
O O3 0.833903 0.000000 0.007501
O O4 0.816849 0.739680 0.910099
O O5 0.026725 0.264736 0.790060
O O6 0.042407 0.000000 0.883343
O O7 0.000000 0.217221 0.000000
O O8 0.773082 0.500000 0.817363
O O9 0.777169 0.244004 0.708755
O O10 0.854144 0.221958 0.555394
O O11 0.940181 0.253143 0.417532
O O12 0.956756 0.248368 0.625328
O O13 0.923228 0.000000 0.527352
O O14 0.286837 0.500000 0.587635
O O15 0.250000 0.750000 0.500000
O O16 0.012101 0.500000 0.659841
#
# Coordination Sequence:
#
# PCOD9209170 Si02
#       6
#     8   8   8   8   8   8
#     4   9  20  39  61  86 117 158 203 241 289 353
#     4  10  22  39  61  87 119 160 203 242 288 355
#     4  10  21  38  61  88 120 156 196 245 298 352
#     4  10  22  42  65  86 116 161 203 239 291 361
#     4  11  25  41  62  90 121 156 200 247 294 353
#     4  11  23  39  62  92 123 153 194 251 303 348
#
# _framework density 18.484895999999999
#
# number of rings (size 3 to 8) (size 9 to 14) (size 15 to 20)
#    0.000    1.833    0.000    4.000    4.667    4.333 
#    0.000    0.000    0.000    0.000    0.000    0.000 
#    0.000    0.000    0.000    0.000    0.000    0.000 
#
# Total GULP energy -134139.745258 kJ/mol
# GULP energy per Si atom -5589.156052 kJ/mol
# Density = 1.844282 g / cm^3
# Si number density = 18.484896 Si / 1000 Ang^3
#
#
#
# Elastic Constant Matrix: (Units=GPa)
#
#
# Indices 1 2 3 4 5 6 
#
# 1 157.1877 69.2864 114.2948 0.0000 9.4029 0.0000
# 2 69.2864 69.4920 73.2232 0.0000 4.1409 0.0000
# 3 114.2948 73.2232 179.4926 0.0000 16.6366 0.0000
# 4 0.0000 0.0000 0.0000 37.3686 0.0000 5.2687
# 5 9.4029 4.1409 16.6366 0.0000 11.3470 0.0000
# 6 0.0000 0.0000 0.0000 5.2687 0.0000 25.8319
#
#
#
# Elastic Compliance Matrix: (Units=1/GPa)
#
#
# Indices 1 2 3 4 5 6 
#
# 1 0.013998 -0.008037 -0.005591 0.000000 -0.000469 0.000000
# 2 -0.008037 0.030317 -0.007918 0.000000 0.007205 0.000000
# 3 -0.005591 -0.007918 0.013499 0.000000 -0.012269 0.000000
# 4 0.000000 0.000000 0.000000 0.027553 0.000000 -0.005620
# 5 -0.000469 0.007205 -0.012269 0.000000 0.103877 0.000000
# 6 0.000000 0.000000 0.000000 -0.005620 0.000000 0.039858
#
#
# Mechanical properties :
#
#
# Convention : Reuss Voigt Hill
#
# Bulk Modulus (GPa) = 67.92801 102.19792 85.06296
# Shear Modulus (GPa) = 18.04393 24.86735 21.45564
#
# Velocity S-wave (km/s) = 3.12772 3.67178 3.41062
# Velocity P-wave (km/s) = 7.06195 8.56640 7.85030
#
# Compressibility (1/GPa) = 0.01472147
#
# Stress axis : x y z
#
# Youngs Moduli (GPa) = 71.43768 32.98460 74.08078
#
# Poissons Ratio (x) = 0.26511 0.41421
# Poissons Ratio (y) = 0.57417 0.58655
# Poissons Ratio (z) = 0.39943 0.26116
#
# Static dielectric constant tensor:
#      x y z
#    x 1.625460 0.000000 -0.009110 
#    y 0.000000 1.620850 0.000000 
#    z -0.009110 0.000000 1.594840 
# 
# From -- ./inp_files/172318.got.cif
#   From: 2010.05.17/outbox.cif.g08.bks.cpg/sg12_87_cif.got.tgz:172318.got - 2010.06.03 13:09:07.
