data_PCOD9209636
_publ_section_title
;
Structure prediction by ZEFSAII (Michael W. Deem and Ramdas Pophale) SiO2 
 PCOD9209636
Probable space group: C 2/M
;
_chemical_formula_sum "Si O2"
_cell_formula_units_Z 56
_cell_length_a 31.713147
_cell_length_b 8.778677
_cell_length_c 12.145770
_cell_angle_alpha 90.000000
_cell_angle_beta 59.008068
_cell_angle_gamma 90.000000
_cell_volume 2898.650125
_symmetry_space_group_name_H-M "C 2/M"
_symmetry_group_IT_number 12
_symmetry_cell_setting 'monoclinic'
loop_
_space_group_symop_operation_xyz
x,y,z
-x,y,-z
-x,-y,-z
x,-y,z
1/2+x,1/2+y,z
1/2-x,1/2+y,-z
1/2-x,1/2-y,-z
1/2+x,1/2-y,z
loop_
_atom_site_type_symbol
_atom_site_label
_atom_site_fract_x
_atom_site_fract_y
_atom_site_fract_z
Si Si1 0.071692 0.319935 0.133453
Si Si2 0.099494 0.316845 0.634415
Si Si3 0.786708 0.317075 0.539662
Si Si4 0.330996 0.320660 0.910038
Si Si5 0.484502 0.682840 0.396325
Si Si6 0.736434 0.181594 0.181699
Si Si7 0.559153 0.322077 0.915295
O O1 0.063461 0.500000 0.142235
O O2 0.120590 0.276100 0.133999
O O3 0.025961 0.239854 0.255431
O O4 0.077744 0.257397 0.001465
O O5 0.096640 0.500000 0.635903
O O6 0.156505 0.269318 0.549766
O O7 0.066645 0.251652 0.578798
O O8 0.077863 0.256034 0.778796
O O9 0.785842 0.500000 0.532091
O O10 0.750000 0.250000 0.500000
O O11 0.767976 0.275406 0.686002
O O12 0.343107 0.500000 0.893320
O O13 0.303138 0.272316 0.836789
O O14 0.290453 0.290871 0.059436
O O15 0.500000 0.727498 0.500000
O O16 0.481677 0.500000 0.396069
O O17 0.726779 0.000000 0.182865
O O18 0.573296 0.500000 0.895997
O O19 0.500000 0.312929 0.000000
#
# Coordination Sequence:
#
# PCOD9209636 Si02
#       7
#     8   8   8   8   8   8   8
#     4  12  25  40  64  94 127 163 205 257 313 371
#     4  11  24  42  65  95 128 165 211 262 318 376
#     4  10  24  43  63  92 125 164 213 260 311 374
#     4  10  21  38  63  93 124 161 206 256 311 371
#     4  11  25  44  65  94 130 167 213 258 308 377
#     4   9  20  41  63  88 123 163 207 257 312 369
#     4  11  23  41  65  90 122 162 207 255 307 367
#
# _framework density 19.319337000000001
#
# number of rings (size 3 to 8) (size 9 to 14) (size 15 to 20)
#    0.000    1.429    1.429    3.000    4.000    4.000 
#    0.000    0.000    0.000    0.000    0.000    0.000 
#    0.000    0.000    0.000    0.000    0.000    0.000 
#
# Total GULP energy -156559.254459 kJ/mol
# GULP energy per Si atom -5591.401945 kJ/mol
# Density = 1.927537 g / cm^3
# Si number density = 19.319337 Si / 1000 Ang^3
#
#
#
# Elastic Constant Matrix: (Units=GPa)
#
#
# Indices 1 2 3 4 5 6 
#
# 1 128.7075 40.6026 70.7506 0.0000 0.4304 0.0000
# 2 40.6026 61.1222 34.7292 0.0000 3.6715 0.0000
# 3 70.7506 34.7292 108.4291 0.0000 25.8567 0.0000
# 4 0.0000 0.0000 0.0000 16.8532 0.0000 7.4204
# 5 0.4304 3.6715 25.8567 0.0000 19.4805 0.0000
# 6 0.0000 0.0000 0.0000 7.4204 0.0000 36.9778
#
#
#
# Elastic Compliance Matrix: (Units=1/GPa)
#
#
# Indices 1 2 3 4 5 6 
#
# 1 0.016909 -0.004279 -0.014288 0.000000 0.019398 0.000000
# 2 -0.004279 0.021743 -0.004707 0.000000 0.002245 0.000000
# 3 -0.014288 -0.004707 0.028921 0.000000 -0.037184 0.000000
# 4 0.000000 0.000000 0.000000 0.065087 0.000000 -0.013061
# 5 0.019398 0.002245 -0.037184 0.000000 0.099836 0.000000
# 6 0.000000 0.000000 0.000000 -0.013061 0.000000 0.029664
#
#
# Mechanical properties :
#
#
# Convention : Reuss Voigt Hill
#
# Bulk Modulus (GPa) = 47.56670 65.60262 56.58466
# Shear Modulus (GPa) = 15.83695 24.80739 20.32217
#
# Velocity S-wave (km/s) = 2.86623 3.58728 3.24683
# Velocity P-wave (km/s) = 5.96895 7.15463 6.58852
#
# Compressibility (1/GPa) = 0.02102311
#
# Stress axis : x y z
#
# Youngs Moduli (GPa) = 59.14047 45.99180 34.57720
#
# Poissons Ratio (x) = 0.19680 0.49405
# Poissons Ratio (y) = 0.25306 0.16277
# Poissons Ratio (z) = 0.84502 0.21650
#
# Static dielectric constant tensor:
#      x y z
#    x 1.653140 0.000000 -0.001300 
#    y 0.000000 1.650770 0.000000 
#    z -0.001300 0.000000 1.655670 
# 
# From -- ./inp_files/187258.got.cif
#   From: 2010.05.17/outbox.cif.g08.bks.cpg/sg12_94_cif.got.tgz:187258.got - 2010.06.03 13:09:07.
