data_PCOD9209085
_publ_section_title
;
Structure prediction by ZEFSAII (Michael W. Deem and Ramdas Pophale) SiO2 
 PCOD9209085
Probable space group: C 2/M
;
_chemical_formula_sum "Si O2"
_cell_formula_units_Z 64
_cell_length_a 15.543866
_cell_length_b 8.304091
_cell_length_c 27.149209
_cell_angle_alpha 90.000000
_cell_angle_beta 126.290358
_cell_angle_gamma 90.000000
_cell_volume 2824.609385
_symmetry_space_group_name_H-M "C 2/M"
_symmetry_group_IT_number 12
_symmetry_cell_setting 'monoclinic'
loop_
_space_group_symop_operation_xyz
x,y,z
-x,y,-z
-x,-y,-z
x,-y,z
1/2+x,1/2+y,z
1/2-x,1/2+y,-z
1/2-x,1/2-y,-z
1/2+x,1/2-y,z
loop_
_atom_site_type_symbol
_atom_site_label
_atom_site_fract_x
_atom_site_fract_y
_atom_site_fract_z
Si Si1 0.668758 0.251573 0.591665
Si Si2 0.440019 0.304821 0.846798
Si Si3 0.745464 0.808153 0.281422
Si Si4 0.393355 0.175121 0.624553
Si Si5 0.837106 0.193762 0.117371
Si Si6 0.889266 0.806166 0.938869
Si Si7 0.427584 0.320401 0.533388
Si Si8 0.585699 0.691563 0.748964
O O1 0.716853 0.195702 0.660575
O O2 0.777237 0.329660 0.608515
O O3 0.555656 0.320025 0.572755
O O4 0.622934 0.194253 0.522555
O O5 0.433839 0.500000 0.841692
O O6 0.370905 0.232851 0.778918
O O7 0.564829 0.259369 0.884724
O O8 0.390364 0.251946 0.882128
O O9 0.826578 0.782092 0.263670
O O10 0.752024 0.000000 0.297436
O O11 0.395520 0.290255 0.578262
O O12 0.477496 0.228315 0.693909
O O13 0.425075 0.000000 0.616127
O O14 0.717601 0.255296 0.069134
O O15 0.872483 0.248879 0.184155
O O16 0.832136 0.000000 0.115606
O O17 0.891870 0.000000 0.939415
O O18 0.000000 0.748669 0.000000
O O19 0.392166 0.500000 0.506098
O O20 0.567335 0.500000 0.746562
#
# Coordination Sequence:
#
# PCOD9209085 Si02
#       8
#     8   8   8   8   8   8   8   8
#     4  11  23  40  63  85 111 153 198 238 289 358
#     4  10  22  39  61  89 122 156 192 240 299 345
#     4  11  20  37  63  88 113 148 199 244 284 349
#     4  12  24  38  58  89 119 145 190 248 298 345
#     4  10  21  39  61  89 121 155 198 246 290 342
#     4  10  22  40  61  88 125 165 200 237 285 342
#     4  11  22  42  64  80 109 156 199 236 290 357
#     4  10  21  38  61  86 116 154 195 237 291 355
#
# _framework density 22.658000000000001
#
# number of rings (size 3 to 8) (size 9 to 14) (size 15 to 20)
#    0.000    1.375    2.500    4.125    0.000    2.250 
#    0.000    4.375    0.000    0.000    0.000    0.000 
#    0.000    0.000    0.000    0.000    0.000    0.000 
#
# Total GULP energy -178402.694129 kJ/mol
# GULP energy per Si atom -5575.084192 kJ/mol
# Density = 2.260643 g / cm^3
# Si number density = 22.658000 Si / 1000 Ang^3
#
#
#
# Elastic Constant Matrix: (Units=GPa)
#
#
# Indices 1 2 3 4 5 6 
#
# 1 93.1008 16.5039 3.6209 0.0000 33.0982 0.0000
# 2 16.5039 26.2619 7.2128 0.0000 5.4070 0.0000
# 3 3.6209 7.2128 89.3499 0.0000 34.8822 0.0000
# 4 0.0000 0.0000 0.0000 -679.9584 0.0000 -87.5347
# 5 33.0982 5.4070 34.8822 0.0000 44.4270 0.0000
# 6 0.0000 0.0000 0.0000 -87.5347 0.0000 -7.5823
#
#
#
# Elastic Compliance Matrix: (Units=1/GPa)
#
#
# Indices 1 2 3 4 5 6 
#
# 1 0.018811 -0.010008 0.007269 0.000000 -0.018504 0.000000
# 2 -0.010008 0.044599 -0.005749 0.000000 0.006542 0.000000
# 3 0.007269 -0.005749 0.019038 0.000000 -0.019664 0.000000
# 4 0.000000 0.000000 0.000000 0.003025 0.000000 -0.034921
# 5 -0.018504 0.006542 -0.019664 0.000000 0.050937 0.000000
# 6 0.000000 0.000000 0.000000 -0.034921 0.000000 0.271262
#
#
# Mechanical properties :
#
#
# Convention : Reuss Voigt Hill
#
# Bulk Modulus (GPa) = 15.27330 29.26530 22.26930
# Shear Modulus (GPa) = 11.19892 -116.53107 -52.66607
#
# Velocity S-wave (km/s) = 2.22561 -7.17928 -4.82643
# Velocity P-wave (km/s) = 3.65511 7.46851 4.60537
#
# Compressibility (1/GPa) = 0.06547375
#
# Stress axis : x y z
#
# Youngs Moduli (GPa) = 53.16142 22.42183 52.52563
#
# Poissons Ratio (x) = 0.22440 -0.38183
# Poissons Ratio (y) = 0.53205 0.30195
# Poissons Ratio (z) = -0.38645 0.12889
#
# Static dielectric constant tensor:
#      x y z
#    x 1.814650 0.000000 -0.014460 
#    y 0.000000 1.872850 0.000000 
#    z -0.014460 0.000000 1.841610 
# 
# From -- ./inp_files/375537.got.cif
#   From: 2010.05.17/outbox.cif.g08.bks.cpg/sg12_188_cif.got.tgz:375537.got - 2010.06.03 13:09:07.
