data_PCOD9209394
_publ_section_title
;
Structure prediction by ZEFSAII (Michael W. Deem and Ramdas Pophale) SiO2 
 PCOD9209394
Probable space group: C 2/M
;
_chemical_formula_sum "Si O2"
_cell_formula_units_Z 48
_cell_length_a 24.319255
_cell_length_b 9.056533
_cell_length_c 11.305536
_cell_angle_alpha 90.000000
_cell_angle_beta 79.908476
_cell_angle_gamma 90.000000
_cell_volume 2451.500354
_symmetry_space_group_name_H-M "C 2/M"
_symmetry_group_IT_number 12
_symmetry_cell_setting 'monoclinic'
loop_
_space_group_symop_operation_xyz
x,y,z
-x,y,-z
-x,-y,-z
x,-y,z
1/2+x,1/2+y,z
1/2-x,1/2+y,-z
1/2-x,1/2-y,-z
1/2+x,1/2-y,z
loop_
_atom_site_type_symbol
_atom_site_label
_atom_site_fract_x
_atom_site_fract_y
_atom_site_fract_z
Si Si1 0.859565 0.171237 0.686943
Si Si2 0.343347 0.670885 0.237078
Si Si3 0.508726 0.327335 0.362647
Si Si4 0.768698 0.672548 0.874098
Si Si5 0.035674 0.822132 0.873827
Si Si6 0.189230 0.325771 0.521049
O O1 0.925200 0.177448 0.686260
O O2 0.821788 0.244351 0.801209
O O3 0.845248 0.259054 0.573832
O O4 0.843588 0.000000 0.678097
O O5 0.348391 0.500000 0.277223
O O6 0.284428 0.683729 0.193310
O O7 0.397846 0.700488 0.137076
O O8 0.341444 0.780334 0.347481
O O9 0.500000 0.265202 0.500000
O O10 0.490152 0.500000 0.378055
O O11 0.480384 0.266594 0.252828
O O12 0.780900 0.500000 0.886346
O O13 0.750000 0.750000 0.000000
O O14 0.025877 0.000000 0.873673
O O15 0.000000 0.766205 0.000000
O O16 0.195881 0.500000 0.505815
O O17 0.250000 0.250000 0.500000
#
# Coordination Sequence:
#
# PCOD9209394 Si02
#       6
#     8   8   8   8   8   8
#     4  11  22  37  62  91 121 154 195 246 300 358
#     4  10  21  38  62  89 118 152 197 249 301 353
#     4   9  18  33  56  87 120 154 196 247 301 354
#     4  11  24  39  58  86 121 160 201 246 299 361
#     4   9  18  33  58  89 117 149 197 255 301 346
#     4  12  23  37  59  87 120 156 195 239 297 357
#
# _framework density 19.579847000000001
#
# number of rings (size 3 to 8) (size 9 to 14) (size 15 to 20)
#    0.000    1.667    1.667    3.500    2.333    3.333 
#    0.000    0.000    0.000    9.500    0.000    0.000 
#    0.000    0.000    0.000    0.000    0.000    0.000 
#
# Total GULP energy -133966.439789 kJ/mol
# GULP energy per Si atom -5581.934991 kJ/mol
# Density = 1.953528 g / cm^3
# Si number density = 19.579847 Si / 1000 Ang^3
#
#
#
# Elastic Constant Matrix: (Units=GPa)
#
#
# Indices 1 2 3 4 5 6 
#
# 1 45.7398 20.3860 13.5076 0.0000 -14.0769 0.0000
# 2 20.3860 96.8079 34.8928 0.0000 -7.5095 0.0000
# 3 13.5076 34.8928 114.4179 0.0000 -16.1813 0.0000
# 4 0.0000 0.0000 0.0000 27.5810 0.0000 -3.4276
# 5 -14.0769 -7.5095 -16.1813 0.0000 30.6326 0.0000
# 6 0.0000 0.0000 0.0000 -3.4276 0.0000 18.3781
#
#
#
# Elastic Compliance Matrix: (Units=1/GPa)
#
#
# Indices 1 2 3 4 5 6 
#
# 1 0.027588 -0.004867 -0.000160 0.000000 0.011400 0.000000
# 2 -0.004867 0.012496 -0.003371 0.000000 -0.000954 0.000000
# 3 -0.000160 -0.003371 0.010439 0.000000 0.004614 0.000000
# 4 0.000000 0.000000 0.000000 0.037117 0.000000 0.006922
# 5 0.011400 -0.000954 0.004614 0.000000 0.040087 0.000000
# 6 0.000000 0.000000 0.000000 0.006922 0.000000 0.055704
#
#
# Mechanical properties :
#
#
# Convention : Reuss Voigt Hill
#
# Bulk Modulus (GPa) = 29.65110 43.83761 36.74436
# Shear Modulus (GPa) = 23.64395 27.86363 25.75379
#
# Velocity S-wave (km/s) = 3.47877 3.77646 3.63067
# Velocity P-wave (km/s) = 5.59575 6.43842 6.03182
#
# Compressibility (1/GPa) = 0.03372556
#
# Stress axis : x y z
#
# Youngs Moduli (GPa) = 36.24766 80.02729 95.79078
#
# Poissons Ratio (x) = 0.38953 0.01536
# Poissons Ratio (y) = 0.17643 0.32291
# Poissons Ratio (z) = 0.00581 0.26977
#
# Static dielectric constant tensor:
#      x y z
#    x 1.719480 0.000000 -0.026140 
#    y 0.000000 1.656090 0.000000 
#    z -0.026140 0.000000 1.764930 
# 
# From -- ./inp_files/172900.got.cif
#   From: 2010.05.17/outbox.cif.g08.bks.cpg/sg12_87_cif.got.tgz:172900.got - 2010.06.03 13:09:07.
