data_PCOD9209450
_publ_section_title
;
Structure prediction by ZEFSAII (Michael W. Deem and Ramdas Pophale) SiO2 
 PCOD9209450
Probable space group: C 2/M
;
_chemical_formula_sum "Si O2"
_cell_formula_units_Z 36
_cell_length_a 19.079515
_cell_length_b 19.672183
_cell_length_c 6.220074
_cell_angle_alpha 90.000000
_cell_angle_beta 125.043616
_cell_angle_gamma 90.000000
_cell_volume 1911.385463
_symmetry_space_group_name_H-M "C 2/M"
_symmetry_group_IT_number 12
_symmetry_cell_setting 'monoclinic'
loop_
_space_group_symop_operation_xyz
x,y,z
-x,y,-z
-x,-y,-z
x,-y,z
1/2+x,1/2+y,z
1/2-x,1/2+y,-z
1/2-x,1/2-y,-z
1/2+x,1/2-y,z
loop_
_atom_site_type_symbol
_atom_site_label
_atom_site_fract_x
_atom_site_fract_y
_atom_site_fract_z
Si Si1 0.830034 0.313155 0.887873
Si Si2 0.288557 0.578607 0.557001
Si Si3 0.500000 0.243396 0.000000
Si Si4 0.075471 0.850335 0.476665
Si Si5 0.722394 0.329675 0.077344
O O1 0.782533 0.371353 0.670232
O O2 0.786550 0.238078 0.795902
O O3 0.811233 0.331939 0.104133
O O4 0.925824 0.301231 0.977945
O O5 0.266645 0.500000 0.501503
O O6 0.376735 0.594700 0.587166
O O7 0.295692 0.604645 0.813191
O O8 0.460057 0.292178 0.745164
O O9 0.000000 0.875043 0.500000
O O10 0.148889 0.823563 0.767123
#
# Coordination Sequence:
#
# PCOD9209450 Si02
#       5
#     8   8   4   8   8
#     4  10  22  37  65  91 116 157 205 254 297 352
#     4  11  24  41  60  87 127 168 199 239 299 366
#     4  12  22  38  64  98 122 146 200 262 310 344
#     4  11  21  37  62  95 124 155 196 252 303 356
#     4  10  21  38  62  91 120 157 208 248 296 350
#
# _framework density 18.834506000000001
#
# number of rings (size 3 to 8) (size 9 to 14) (size 15 to 20)
#    0.000    1.333    4.444    0.667    6.222    4.000 
#    0.000    4.444    0.000    1.333    0.000    0.000 
#    0.000    0.000    0.000    0.000    0.000    0.000 
#
# Total GULP energy -100432.894863 kJ/mol
# GULP energy per Si atom -5579.605270 kJ/mol
# Density = 1.879164 g / cm^3
# Si number density = 18.834506 Si / 1000 Ang^3
#
#
#
# Elastic Constant Matrix: (Units=GPa)
#
#
# Indices 1 2 3 4 5 6 
#
# 1 174.2145 55.1569 41.6501 0.0000 -8.8338 0.0000
# 2 55.1569 114.6602 48.9561 0.0000 2.8026 0.0000
# 3 41.6501 48.9561 89.2859 0.0000 -7.8584 0.0000
# 4 0.0000 0.0000 0.0000 11.2233 0.0000 2.9098
# 5 -8.8338 2.8026 -7.8584 0.0000 21.1172 0.0000
# 6 0.0000 0.0000 0.0000 2.9098 0.0000 16.0707
#
#
#
# Elastic Compliance Matrix: (Units=1/GPa)
#
#
# Indices 1 2 3 4 5 6 
#
# 1 0.007151 -0.002859 -0.001521 0.000000 0.002805 0.000000
# 2 -0.002859 0.012861 -0.006176 0.000000 -0.005201 0.000000
# 3 -0.001521 -0.006176 0.015830 0.000000 0.006074 0.000000
# 4 0.000000 0.000000 0.000000 0.093489 0.000000 -0.016927
# 5 0.002805 -0.005201 0.006074 0.000000 0.051479 0.000000
# 6 0.000000 0.000000 0.000000 -0.016927 0.000000 0.065290
#
#
# Mechanical properties :
#
#
# Convention : Reuss Voigt Hill
#
# Bulk Modulus (GPa) = 67.88815 74.40964 71.14889
# Shear Modulus (GPa) = 18.37412 25.17541 21.77477
#
# Velocity S-wave (km/s) = 3.12678 3.66001 3.40385
# Velocity P-wave (km/s) = 7.01131 7.57982 7.30110
#
# Compressibility (1/GPa) = 0.01473011
#
# Stress axis : x y z
#
# Youngs Moduli (GPa) = 139.83720 77.75638 63.16937
#
# Poissons Ratio (x) = 0.22231 0.09611
# Poissons Ratio (y) = 0.39980 0.39011
# Poissons Ratio (z) = 0.21275 0.48020
#
# Static dielectric constant tensor:
#      x y z
#    x 1.706720 0.000000 -0.020520 
#    y 0.000000 1.620040 0.000000 
#    z -0.020520 0.000000 1.706840 
# 
# From -- ./inp_files/15950.got.cif
#   From: 2010.05.17/outbox.cif.g08.bks.cpg/sg12_8_cif.got.tgz:15950.got - 2010.06.03 13:09:07.
