data_PCOD9209407
_publ_section_title
;
Structure prediction by ZEFSAII (Michael W. Deem and Ramdas Pophale) SiO2 
 PCOD9209407
Probable space group: C 2/M
;
_chemical_formula_sum "Si O2"
_cell_formula_units_Z 24
_cell_length_a 18.121882
_cell_length_b 10.257488
_cell_length_c 7.024477
_cell_angle_alpha 90.000000
_cell_angle_beta 136.008225
_cell_angle_gamma 90.000000
_cell_volume 906.911721
_symmetry_space_group_name_H-M "C 2/M"
_symmetry_group_IT_number 12
_symmetry_cell_setting 'monoclinic'
loop_
_space_group_symop_operation_xyz
x,y,z
-x,y,-z
-x,-y,-z
x,-y,z
1/2+x,1/2+y,z
1/2-x,1/2+y,-z
1/2-x,1/2-y,-z
1/2+x,1/2-y,z
loop_
_atom_site_type_symbol
_atom_site_label
_atom_site_fract_x
_atom_site_fract_y
_atom_site_fract_z
Si Si1 0.655717 0.653585 0.248236
Si Si2 0.096016 0.819560 0.548478
Si Si3 0.843614 0.638243 0.064149
O O1 0.680427 0.500000 0.251161
O O2 0.750000 0.750000 0.500000
O O3 0.583635 0.650513 0.304135
O O4 0.623101 0.741071 0.007226
O O5 0.215115 0.866970 0.825295
O O6 0.000000 0.868634 0.500000
O O7 0.112284 0.668919 0.643608
O O8 0.881647 0.500000 0.059861
#
# Coordination Sequence:
#
# PCOD9209407 Si02
#       3
#     8   8   8
#     4  10  21  38  62  89 122 162 201 248 303 360
#     4  10  22  39  61  92 123 158 203 251 302 357
#     4  10  23  42  64  90 123 162 202 250 304 360
#
# _framework density 26.463436999999999
#
# number of rings (size 3 to 8) (size 9 to 14) (size 15 to 20)
#    0.000    2.000    0.000    4.000    0.000   19.333 
#    0.000    3.333    0.000    0.000    0.000    0.000 
#    0.000    0.000    0.000    0.000    0.000    0.000 
#
# Total GULP energy -66884.453408 kJ/mol
# GULP energy per Si atom -5573.704451 kJ/mol
# Density = 2.640321 g / cm^3
# Si number density = 26.463437 Si / 1000 Ang^3
#
#
#
# Elastic Constant Matrix: (Units=GPa)
#
#
# Indices 1 2 3 4 5 6 
#
# 1 168.8341 80.1600 24.1774 0.0000 -7.7758 0.0000
# 2 80.1600 272.7864 58.6501 0.0000 -18.2229 0.0000
# 3 24.1774 58.6501 90.9002 0.0000 -30.8458 0.0000
# 4 0.0000 0.0000 0.0000 -4.5942 0.0000 -17.9201
# 5 -7.7758 -18.2229 -30.8458 0.0000 55.2789 0.0000
# 6 0.0000 0.0000 0.0000 -17.9201 0.0000 12.1774
#
#
#
# Elastic Compliance Matrix: (Units=1/GPa)
#
#
# Indices 1 2 3 4 5 6 
#
# 1 0.006913 -0.001900 -0.000611 0.000000 0.000005 0.000000
# 2 -0.001900 0.004779 -0.002633 0.000000 -0.000161 0.000000
# 3 -0.000611 -0.002633 0.015468 0.000000 0.007677 0.000000
# 4 0.000000 0.000000 0.000000 -0.032294 0.000000 -0.047524
# 5 0.000005 -0.000161 0.007677 0.000000 0.022322 0.000000
# 6 0.000000 0.000000 0.000000 -0.047524 0.000000 0.012184
#
#
# Mechanical properties :
#
#
# Convention : Reuss Voigt Hill
#
# Bulk Modulus (GPa) = 59.27029 95.38839 77.32934
# Shear Modulus (GPa) = 110.41740 37.20797 73.81268
#
# Velocity S-wave (km/s) = 6.46646 3.75375 5.28705
# Velocity P-wave (km/s) = 8.84303 7.41021 8.15813
#
# Compressibility (1/GPa) = 0.01687186
#
# Stress axis : x y z
#
# Youngs Moduli (GPa) = 144.66290 209.22899 64.65088
#
# Poissons Ratio (x) = 0.39744 0.03952
# Poissons Ratio (y) = 0.27480 0.17024
# Poissons Ratio (z) = 0.08843 0.55093
#
# Static dielectric constant tensor:
#      x y z
#    x 2.158560 0.000000 0.007210 
#    y 0.000000 2.249610 0.000000 
#    z 0.007210 0.000000 2.222310 
# 
# From -- ./inp_files/55252.got.cif
#   From: 2010.05.17/outbox.cif.g08.bks.cpg/sg12_28_cif.got.tgz:55252.got - 2010.06.03 13:09:07.
