data_PCOD9209801
_publ_section_title
;
Structure prediction by ZEFSAII (Michael W. Deem and Ramdas Pophale) SiO2 
 PCOD9209801
Probable space group: C 2/M
;
_chemical_formula_sum "Si O2"
_cell_formula_units_Z 24
_cell_length_a 10.316329
_cell_length_b 19.464386
_cell_length_c 5.132931
_cell_angle_alpha 90.000000
_cell_angle_beta 65.696899
_cell_angle_gamma 90.000000
_cell_volume 939.358329
_symmetry_space_group_name_H-M "C 2/M"
_symmetry_group_IT_number 12
_symmetry_cell_setting 'monoclinic'
loop_
_space_group_symop_operation_xyz
x,y,z
-x,y,-z
-x,-y,-z
x,-y,z
1/2+x,1/2+y,z
1/2-x,1/2+y,-z
1/2-x,1/2-y,-z
1/2+x,1/2-y,z
loop_
_atom_site_type_symbol
_atom_site_label
_atom_site_fract_x
_atom_site_fract_y
_atom_site_fract_z
Si Si1 0.625612 0.578194 0.069096
Si Si2 0.587058 0.225649 0.674931
Si Si3 0.191767 0.578979 0.588954
O O1 0.577022 0.500000 0.161127
O O2 0.751371 0.577693 0.753462
O O3 0.500000 0.610481 0.000000
O O4 0.686688 0.599775 0.297902
O O5 0.500000 0.250455 0.500000
O O6 0.750000 0.250000 0.500000
O O7 0.586216 0.142423 0.684832
O O8 0.500000 0.247420 0.000000
O O9 0.147562 0.500000 0.688343
#
# Coordination Sequence:
#
# PCOD9209801 Si02
#       3
#     8   8   8
#     4   9  17  31  55  93 138 178 218 271 340 412
#     4  12  28  50  74 103 142 189 237 287 348 419
#     4  10  21  38  64  99 134 172 225 288 348 405
#
# _framework density 25.549354999999998
#
# number of rings (size 3 to 8) (size 9 to 14) (size 15 to 20)
#    0.000    1.667    0.000    4.000    0.000    9.333 
#    0.000    0.000    0.000    0.000    0.000    0.000 
#    0.000    0.000    0.000    0.000    0.000    0.000 
#
# Total GULP energy -67045.660224 kJ/mol
# GULP energy per Si atom -5587.138352 kJ/mol
# Density = 2.549120 g / cm^3
# Si number density = 25.549355 Si / 1000 Ang^3
#
#
#
# Elastic Constant Matrix: (Units=GPa)
#
#
# Indices 1 2 3 4 5 6 
#
# 1 148.8103 22.8687 66.4076 0.0000 20.2841 0.0000
# 2 22.8687 151.5246 40.3457 0.0000 -9.5355 0.0000
# 3 66.4076 40.3457 191.1411 0.0000 4.4214 0.0000
# 4 0.0000 0.0000 0.0000 26.1488 0.0000 12.0301
# 5 20.2841 -9.5355 4.4214 0.0000 49.7632 0.0000
# 6 0.0000 0.0000 0.0000 12.0301 0.0000 53.7679
#
#
#
# Elastic Compliance Matrix: (Units=1/GPa)
#
#
# Indices 1 2 3 4 5 6 
#
# 1 0.008511 -0.000774 -0.002715 0.000000 -0.003376 0.000000
# 2 -0.000774 0.007173 -0.001287 0.000000 0.001804 0.000000
# 3 -0.002715 -0.001287 0.006440 0.000000 0.000288 0.000000
# 4 0.000000 0.000000 0.000000 0.042631 0.000000 -0.009538
# 5 -0.003376 0.001804 0.000288 0.000000 0.021791 0.000000
# 6 0.000000 0.000000 0.000000 -0.009538 0.000000 0.020733
#
#
# Mechanical properties :
#
#
# Convention : Reuss Voigt Hill
#
# Bulk Modulus (GPa) = 79.54720 83.41336 81.48028
# Shear Modulus (GPa) = 41.31502 50.05956 45.68729
#
# Velocity S-wave (km/s) = 4.02564 4.43123 4.23330
# Velocity P-wave (km/s) = 7.26705 7.67463 7.47362
#
# Compressibility (1/GPa) = 0.01257115
#
# Stress axis : x y z
#
# Youngs Moduli (GPa) = 117.49650 139.42007 155.27672
#
# Poissons Ratio (x) = 0.10790 0.42165
# Poissons Ratio (y) = 0.09093 0.19981
# Poissons Ratio (z) = 0.31906 0.17941
#
# Static dielectric constant tensor:
#      x y z
#    x 2.039550 0.000000 -0.022850 
#    y 0.000000 2.038830 0.000000 
#    z -0.022850 0.000000 1.928060 
# 
# From -- ./inp_files/5313.got.cif
#   From: 2010.05.17/outbox.cif.g08.bks.cpg/sg12_3_cif.got.tgz:5313.got - 2010.06.03 13:09:07.
