data_PCOD9209301
_publ_section_title
;
Structure prediction by ZEFSAII (Michael W. Deem and Ramdas Pophale) SiO2 
 PCOD9209301
Probable space group: C 2/M
;
_chemical_formula_sum "Si O2"
_cell_formula_units_Z 32
_cell_length_a 10.053108
_cell_length_b 16.043109
_cell_length_c 12.108676
_cell_angle_alpha 90.000000
_cell_angle_beta 120.928800
_cell_angle_gamma 90.000000
_cell_volume 1675.231986
_symmetry_space_group_name_H-M "C 2/M"
_symmetry_group_IT_number 12
_symmetry_cell_setting 'monoclinic'
loop_
_space_group_symop_operation_xyz
x,y,z
-x,y,-z
-x,-y,-z
x,-y,z
1/2+x,1/2+y,z
1/2-x,1/2+y,-z
1/2-x,1/2-y,-z
1/2+x,1/2-y,z
loop_
_atom_site_type_symbol
_atom_site_label
_atom_site_fract_x
_atom_site_fract_y
_atom_site_fract_z
Si Si1 0.488310 0.295659 0.163843
Si Si2 0.286011 0.000000 0.518119
Si Si3 0.741364 0.339101 0.109725
Si Si4 0.376098 0.324364 0.542045
Si Si5 0.647917 0.000000 0.714399
O O1 0.638572 0.284475 0.151040
O O2 0.393348 0.210852 0.139668
O O3 0.538448 0.329785 0.303348
O O4 0.369664 0.353101 0.043087
O O5 0.202085 0.086044 0.515809
O O6 0.461722 0.000000 0.636746
O O7 0.299592 0.000000 0.390482
O O8 0.786586 0.420330 0.195170
O O9 0.500000 0.303256 0.500000
O O10 0.250000 0.250000 0.500000
#
# Coordination Sequence:
#
# PCOD9209301 Si02
#       5
#     8   4   8   8   4
#     4  10  21  38  61  93 118 163 206 252 311 369
#     4  11  25  41  61  94 133 162 213 263 312 381
#     4  10  21  39  64  87 125 157 209 259 303 378
#     4  12  25  41  66  93 130 168 208 259 319 376
#     4  11  22  40  64  93 123 165 210 260 316 364
#
# _framework density 19.101832000000002
#
# number of rings (size 3 to 8) (size 9 to 14) (size 15 to 20)
#    0.000    1.250    2.500    3.375    3.500    3.000 
#    0.000    0.000    0.000   13.500    0.000    0.000 
#    0.000    0.000    0.000    0.000    0.000    0.000 
#
# Total GULP energy -89373.565889 kJ/mol
# GULP energy per Si atom -5585.847868 kJ/mol
# Density = 1.905835 g / cm^3
# Si number density = 19.101832 Si / 1000 Ang^3
#
#
#
# Elastic Constant Matrix: (Units=GPa)
#
#
# Indices 1 2 3 4 5 6 
#
# 1 146.4824 73.5716 51.0122 0.0000 -5.6821 0.0000
# 2 73.5716 105.4588 20.1336 0.0000 8.0339 0.0000
# 3 51.0122 20.1336 86.4512 0.0000 -11.0088 0.0000
# 4 0.0000 0.0000 0.0000 23.5493 0.0000 -7.8615
# 5 -5.6821 8.0339 -11.0088 0.0000 21.3392 0.0000
# 6 0.0000 0.0000 0.0000 -7.8615 0.0000 20.9406
#
#
#
# Elastic Compliance Matrix: (Units=1/GPa)
#
#
# Indices 1 2 3 4 5 6 
#
# 1 0.013003 -0.008373 -0.005224 0.000000 0.003920 0.000000
# 2 -0.008373 0.015902 0.000204 0.000000 -0.008111 0.000000
# 3 -0.005224 0.000204 0.015429 0.000000 0.006492 0.000000
# 4 0.000000 0.000000 0.000000 0.048549 0.000000 0.018226
# 5 0.003920 -0.008111 0.006492 0.000000 0.054309 0.000000
# 6 0.000000 0.000000 0.000000 0.018226 0.000000 0.054597
#
#
# Mechanical properties :
#
#
# Convention : Reuss Voigt Hill
#
# Bulk Modulus (GPa) = 56.98133 69.75857 63.36995
# Shear Modulus (GPa) = 21.32898 26.07750 23.70324
#
# Velocity S-wave (km/s) = 3.34517 3.69885 3.52645
# Velocity P-wave (km/s) = 6.69442 7.40544 7.05889
#
# Compressibility (1/GPa) = 0.01754961
#
# Stress axis : x y z
#
# Youngs Moduli (GPa) = 76.90380 62.88326 64.81423
#
# Poissons Ratio (x) = 0.52651 0.33857
# Poissons Ratio (y) = 0.64390 -0.01323
# Poissons Ratio (z) = 0.40172 -0.01284
#
# Static dielectric constant tensor:
#      x y z
#    x 1.660550 0.000000 0.007510 
#    y 0.000000 1.641380 0.000000 
#    z 0.007510 0.000000 1.677350 
# 
# From -- ./inp_files/117852.got.cif
#   From: 2010.05.17/outbox.cif.g08.bks.cpg/sg12_59_cif.got.tgz:117852.got - 2010.06.03 13:09:07.
