data_PCOD9209266
_publ_section_title
;
Structure prediction by ZEFSAII (Michael W. Deem and Ramdas Pophale) SiO2 
 PCOD9209266
Probable space group: C 2/M
;
_chemical_formula_sum "Si O2"
_cell_formula_units_Z 56
_cell_length_a 13.492701
_cell_length_b 28.826762
_cell_length_c 7.542499
_cell_angle_alpha 90.000000
_cell_angle_beta 67.066744
_cell_angle_gamma 90.000000
_cell_volume 2701.783230
_symmetry_space_group_name_H-M "C 2/M"
_symmetry_group_IT_number 12
_symmetry_cell_setting 'monoclinic'
loop_
_space_group_symop_operation_xyz
x,y,z
-x,y,-z
-x,-y,-z
x,-y,z
1/2+x,1/2+y,z
1/2-x,1/2+y,-z
1/2-x,1/2-y,-z
1/2+x,1/2-y,z
loop_
_atom_site_type_symbol
_atom_site_label
_atom_site_fract_x
_atom_site_fract_y
_atom_site_fract_z
Si Si1 0.600642 0.619625 0.186150
Si Si2 0.294406 0.552986 0.164468
Si Si3 0.149291 0.116291 0.562434
Si Si4 0.701883 0.800323 0.578267
Si Si5 0.486159 0.156917 0.801804
Si Si6 0.458247 0.948326 0.729981
Si Si7 0.235668 0.303891 0.974796
O O1 0.647215 0.608596 0.351103
O O2 0.473711 0.624702 0.296045
O O3 0.657232 0.666064 0.074371
O O4 0.632458 0.580414 0.025156
O O5 0.327550 0.500000 0.148165
O O6 0.304608 0.574811 0.352317
O O7 0.171067 0.555547 0.184493
O O8 0.221016 0.160852 0.557226
O O9 0.750000 0.750000 0.500000
O O10 0.577424 0.814501 0.631904
O O11 0.713488 0.806687 0.780992
O O12 0.500032 0.101121 0.774311
O O13 0.500000 0.167574 0.000000
O O14 0.364335 0.173647 0.849073
O O15 0.500000 0.949455 0.500000
O O16 0.513790 0.000000 0.212585
O O17 0.250000 0.250000 0.000000
#
# Coordination Sequence:
#
# PCOD9209266 Si02
#       7
#     8   8   8   8   8   8   8
#     4  10  22  42  63  90 128 167 212 259 313 378
#     4  11  23  41  66  96 127 167 214 262 321 379
#     4  10  23  41  62  91 129 166 209 265 307 378
#     4  10  23  39  58  90 123 160 208 256 317 373
#     4  10  21  40  62  87 123 159 206 259 308 377
#     4  10  21  38  61  91 124 159 208 260 315 377
#     4  10  22  38  60  87 120 164 211 257 315 373
#
# _framework density 20.727050999999999
#
# number of rings (size 3 to 8) (size 9 to 14) (size 15 to 20)
#    0.000    1.857    1.429    1.286    4.000    3.143 
#    0.000    1.429    0.000    0.000    0.000    0.000 
#    0.000    0.000    0.000    0.000    0.000    0.000 
#
# Total GULP energy -156290.177375 kJ/mol
# GULP energy per Si atom -5581.792049 kJ/mol
# Density = 2.067988 g / cm^3
# Si number density = 20.727051 Si / 1000 Ang^3
#
#
#
# Elastic Constant Matrix: (Units=GPa)
#
#
# Indices 1 2 3 4 5 6 
#
# 1 28.2153 19.5262 17.7171 0.0000 -7.2806 0.0000
# 2 19.5262 163.2748 42.8461 0.0000 -16.3552 0.0000
# 3 17.7171 42.8461 89.5010 0.0000 -16.2088 0.0000
# 4 0.0000 0.0000 0.0000 39.5027 0.0000 3.5589
# 5 -7.2806 -16.3552 -16.2088 0.0000 21.7180 0.0000
# 6 0.0000 0.0000 0.0000 3.5589 0.0000 25.4444
#
#
#
# Elastic Compliance Matrix: (Units=1/GPa)
#
#
# Indices 1 2 3 4 5 6 
#
# 1 0.043070 -0.002848 -0.005707 0.000000 0.008034 0.000000
# 2 -0.002848 0.007391 -0.002474 0.000000 0.002765 0.000000
# 3 -0.005707 -0.002474 0.014804 0.000000 0.007273 0.000000
# 4 0.000000 0.000000 0.000000 0.025638 0.000000 -0.003586
# 5 0.008034 0.002765 0.007273 0.000000 0.056248 0.000000
# 6 0.000000 0.000000 0.000000 -0.003586 0.000000 0.039803
#
#
# Mechanical properties :
#
#
# Convention : Reuss Voigt Hill
#
# Bulk Modulus (GPa) = 23.14469 49.01887 36.08178
# Shear Modulus (GPa) = 22.37985 30.72647 26.55316
#
# Velocity S-wave (km/s) = 3.28951 3.85441 3.58311
# Velocity P-wave (km/s) = 5.06147 6.59619 5.87912
#
# Compressibility (1/GPa) = 0.04320645
#
# Stress axis : x y z
#
# Youngs Moduli (GPa) = 23.21815 135.29167 67.54833
#
# Poissons Ratio (x) = 0.38535 0.38552
# Poissons Ratio (y) = 0.06613 0.16710
# Poissons Ratio (z) = 0.13251 0.33469
#
# Static dielectric constant tensor:
#      x y z
#    x 1.789370 0.000000 0.006400 
#    y 0.000000 1.757980 0.000000 
#    z 0.006400 0.000000 1.738770 
# 
# From -- ./inp_files/65748.got.cif
#   From: 2010.05.17/outbox.cif.g08.bks.cpg/sg12_33_cif.got.tgz:65748.got - 2010.06.03 13:09:07.
