data_PCOD9209285
_publ_section_title
;
Structure prediction by ZEFSAII (Michael W. Deem and Ramdas Pophale) SiO2 
 PCOD9209285
Probable space group: C 2/M
;
_chemical_formula_sum "Si O2"
_cell_formula_units_Z 56
_cell_length_a 11.179410
_cell_length_b 25.499697
_cell_length_c 11.939186
_cell_angle_alpha 90.000000
_cell_angle_beta 50.102477
_cell_angle_gamma 90.000000
_cell_volume 2611.158213
_symmetry_space_group_name_H-M "C 2/M"
_symmetry_group_IT_number 12
_symmetry_cell_setting 'monoclinic'
loop_
_space_group_symop_operation_xyz
x,y,z
-x,y,-z
-x,-y,-z
x,-y,z
1/2+x,1/2+y,z
1/2-x,1/2+y,-z
1/2-x,1/2-y,-z
1/2+x,1/2-y,z
loop_
_atom_site_type_symbol
_atom_site_label
_atom_site_fract_x
_atom_site_fract_y
_atom_site_fract_z
Si Si1 0.350703 0.560268 0.457936
Si Si2 0.789958 0.564339 0.880640
Si Si3 0.817633 0.385080 0.622845
Si Si4 0.825648 0.897812 0.828235
Si Si5 0.882397 0.209503 0.681022
Si Si6 0.124688 0.438143 0.773721
Si Si7 0.834874 0.225638 0.341853
O O1 0.383069 0.500000 0.461260
O O2 0.222873 0.568539 0.438783
O O3 0.511404 0.583476 0.320598
O O4 0.267725 0.585288 0.615127
O O5 0.775334 0.500000 0.884571
O O6 0.777695 0.592023 0.768177
O O7 0.961115 0.580361 0.824726
O O8 0.672424 0.589625 0.041406
O O9 0.713273 0.335115 0.648704
O O10 0.000000 0.370603 0.500000
O O11 0.808140 0.840541 0.786831
O O12 0.678799 0.929879 0.867330
O O13 0.741794 0.244566 0.717270
O O14 0.000000 0.200391 0.500000
O O15 0.988270 0.231698 0.720260
O O16 0.122189 0.500000 0.754170
O O17 0.750000 0.250000 0.500000
#
# Coordination Sequence:
#
# PCOD9209285 Si02
#       7
#     8   8   8   8   8   8   8
#     4  11  22  37  63  95 129 170 221 273 325 387
#     4  11  25  42  63  94 137 183 220 266 329 401
#     4  12  23  41  67  94 128 169 227 275 332 398
#     4  12  23  39  63  96 136 175 218 269 337 402
#     4  10  21  40  68  99 135 168 225 286 345 400
#     4  10  21  38  61  91 132 175 222 272 322 392
#     4  10  22  41  67 102 129 169 222 291 346 402
#
# _framework density 21.44642
#
# number of rings (size 3 to 8) (size 9 to 14) (size 15 to 20)
#    0.000    1.143    2.857    4.714    2.000    4.571 
#    0.000    2.143    0.000    1.714    0.000    0.000 
#    0.000    0.000    0.000    0.000    0.000    0.000 
#
# Total GULP energy -156120.918295 kJ/mol
# GULP energy per Si atom -5575.747082 kJ/mol
# Density = 2.139761 g / cm^3
# Si number density = 21.446420 Si / 1000 Ang^3
#
#
#
# Elastic Constant Matrix: (Units=GPa)
#
#
# Indices 1 2 3 4 5 6 
#
# 1 129.7209 25.5264 26.1753 0.0000 14.5607 0.0000
# 2 25.5264 71.2044 25.8835 0.0000 5.5584 0.0000
# 3 26.1753 25.8835 77.1700 0.0000 25.3603 0.0000
# 4 0.0000 0.0000 0.0000 20.4013 0.0000 9.7606
# 5 14.5607 5.5584 25.3603 0.0000 32.2837 0.0000
# 6 0.0000 0.0000 0.0000 9.7606 0.0000 43.2965
#
#
#
# Elastic Compliance Matrix: (Units=1/GPa)
#
#
# Indices 1 2 3 4 5 6 
#
# 1 0.008738 -0.002457 -0.001326 0.000000 -0.002476 0.000000
# 2 -0.002457 0.016779 -0.005674 0.000000 0.002676 0.000000
# 3 -0.001326 -0.005674 0.019942 0.000000 -0.014090 0.000000
# 4 0.000000 0.000000 0.000000 0.054942 0.000000 -0.012386
# 5 -0.002476 0.002676 -0.014090 0.000000 0.042700 0.000000
# 6 0.000000 0.000000 0.000000 -0.012386 0.000000 0.025889
#
#
# Mechanical properties :
#
#
# Convention : Reuss Voigt Hill
#
# Bulk Modulus (GPa) = 37.67272 48.14063 42.90668
# Shear Modulus (GPa) = 25.41286 32.56363 28.98825
#
# Velocity S-wave (km/s) = 3.44604 3.90086 3.68048
# Velocity P-wave (km/s) = 5.78253 6.54099 6.17342
#
# Compressibility (1/GPa) = 0.02654441
#
# Stress axis : x y z
#
# Youngs Moduli (GPa) = 114.44423 59.60002 50.14659
#
# Poissons Ratio (x) = 0.14645 0.06648
# Poissons Ratio (y) = 0.28122 0.28452
# Poissons Ratio (z) = 0.15173 0.33815
#
# Static dielectric constant tensor:
#      x y z
#    x 1.788130 0.000000 -0.013240 
#    y 0.000000 1.776420 0.000000 
#    z -0.013240 0.000000 1.848680 
# 
# From -- ./inp_files/136923.got.cif
#   From: 2010.05.17/outbox.cif.g08.bks.cpg/sg12_69_cif.got.tgz:136923.got - 2010.06.03 13:09:07.
