data_PCOD9209921
_publ_section_title
;
Structure prediction by ZEFSAII (Michael W. Deem and Ramdas Pophale) SiO2 
 PCOD9209921
Probable space group: C 2/M
;
_chemical_formula_sum "Si O2"
_cell_formula_units_Z 40
_cell_length_a 9.826225
_cell_length_b 18.041645
_cell_length_c 9.607908
_cell_angle_alpha 90.000000
_cell_angle_beta 103.503809
_cell_angle_gamma 90.000000
_cell_volume 1656.213257
_symmetry_space_group_name_H-M "C 2/M"
_symmetry_group_IT_number 12
_symmetry_cell_setting 'monoclinic'
loop_
_space_group_symop_operation_xyz
x,y,z
-x,y,-z
-x,-y,-z
x,-y,z
1/2+x,1/2+y,z
1/2-x,1/2+y,-z
1/2-x,1/2-y,-z
1/2+x,1/2-y,z
loop_
_atom_site_type_symbol
_atom_site_label
_atom_site_fract_x
_atom_site_fract_y
_atom_site_fract_z
Si Si1 0.186779 0.338889 0.272490
Si Si2 0.889993 0.285379 0.273395
Si Si3 0.787517 0.584186 0.442813
Si Si4 0.546666 0.417887 0.193138
Si Si5 0.784139 0.858600 0.004079
O O1 0.320976 0.285896 0.327008
O O2 0.192918 0.401399 0.390347
O O3 0.186418 0.370175 0.114857
O O4 0.050092 0.288932 0.266198
O O5 0.868696 0.354309 0.373248
O O6 0.791954 0.299237 0.113630
O O7 0.826797 0.500000 0.415823
O O8 0.626229 0.594461 0.355660
O O9 0.481100 0.500000 0.179850
O O10 0.435037 0.356301 0.120038
O O11 0.668150 0.416636 0.103980
#
# Coordination Sequence:
#
# PCOD9209921 Si02
#       5
#     8   8   8   8   8
#     4  12  26  43  71 101 140 181 234 285 343 405
#     4  11  26  45  69  99 141 186 224 286 350 409
#     4  10  24  47  71  99 139 185 229 280 348 413
#     4   9  20  41  69 102 142 183 220 281 350 409
#     4  10  21  38  67  98 135 174 227 276 335 403
#
# _framework density 24.151481
#
# number of rings (size 3 to 8) (size 9 to 14) (size 15 to 20)
#    0.000    1.600    0.000    3.600    8.400    4.800 
#    0.000    2.000    0.000    9.600    0.000    0.000 
#    0.000    0.000    0.000    0.000    0.000    0.000 
#
# Total GULP energy -111551.624882 kJ/mol
# GULP energy per Si atom -5577.581244 kJ/mol
# Density = 2.409651 g / cm^3
# Si number density = 24.151481 Si / 1000 Ang^3
#
#
#
# Elastic Constant Matrix: (Units=GPa)
#
#
# Indices 1 2 3 4 5 6 
#
# 1 92.7884 21.6003 -0.1967 0.0000 -4.5545 0.0000
# 2 21.6003 58.5883 17.6160 0.0000 -8.8756 0.0000
# 3 -0.1967 17.6160 105.2041 0.0000 -4.7573 0.0000
# 4 0.0000 0.0000 0.0000 39.6554 0.0000 5.9290
# 5 -4.5545 -8.8756 -4.7573 0.0000 40.4607 0.0000
# 6 0.0000 0.0000 0.0000 5.9290 0.0000 2.8166
#
#
#
# Elastic Compliance Matrix: (Units=1/GPa)
#
#
# Indices 1 2 3 4 5 6 
#
# 1 0.011859 -0.004548 0.000803 0.000000 0.000432 0.000000
# 2 -0.004548 0.020257 -0.003240 0.000000 0.003551 0.000000
# 3 0.000803 -0.003240 0.010075 0.000000 0.000564 0.000000
# 4 0.000000 0.000000 0.000000 0.036799 0.000000 -0.077461
# 5 0.000432 0.003551 0.000564 0.000000 0.025609 0.000000
# 6 0.000000 0.000000 0.000000 -0.077461 0.000000 0.518090
#
#
# Mechanical properties :
#
#
# Convention : Reuss Voigt Hill
#
# Bulk Modulus (GPa) = 35.43446 37.18000 36.30723
# Shear Modulus (GPa) = 7.73915 31.09061 19.41488
#
# Velocity S-wave (km/s) = 1.79203 3.59181 2.83835
# Velocity P-wave (km/s) = 4.35723 5.71222 5.08010
#
# Compressibility (1/GPa) = 0.02822112
#
# Stress axis : x y z
#
# Youngs Moduli (GPa) = 84.32490 49.36520 99.25695
#
# Poissons Ratio (x) = 0.22453 -0.07973
# Poissons Ratio (y) = 0.38353 0.32159
# Poissons Ratio (z) = -0.06774 0.15994
#
# Static dielectric constant tensor:
#      x y z
#    x 1.962370 0.000000 -0.000290 
#    y 0.000000 1.926300 0.000000 
#    z -0.000290 0.000000 1.947030 
# 
# From -- ./inp_files/48817.got.cif
#   From: 2010.05.17/outbox.cif.g08.bks.cpg/sg12_25_cif.got.tgz:48817.got - 2010.06.03 13:09:07.
