data_PCOD9209712
_publ_section_title
;
Structure prediction by ZEFSAII (Michael W. Deem and Ramdas Pophale) SiO2 
 PCOD9209712
Probable space group: C 2/M
;
_chemical_formula_sum "Si O2"
_cell_formula_units_Z 42
_cell_length_a 19.324084
_cell_length_b 14.897492
_cell_length_c 8.357517
_cell_angle_alpha 90.000000
_cell_angle_beta 65.364253
_cell_angle_gamma 90.000000
_cell_volume 2186.965161
_symmetry_space_group_name_H-M "C 2/M"
_symmetry_group_IT_number 12
_symmetry_cell_setting 'monoclinic'
loop_
_space_group_symop_operation_xyz
x,y,z
-x,y,-z
-x,-y,-z
x,-y,z
1/2+x,1/2+y,z
1/2-x,1/2+y,-z
1/2-x,1/2-y,-z
1/2+x,1/2-y,z
loop_
_atom_site_type_symbol
_atom_site_label
_atom_site_fract_x
_atom_site_fract_y
_atom_site_fract_z
Si Si1 0.500000 0.500000 0.500000
Si Si2 0.580620 0.104747 0.093617
Si Si3 0.415056 0.169815 0.264650
Si Si4 0.305480 0.785603 0.810621
Si Si5 0.260081 0.898419 0.567159
Si Si6 0.615159 0.343631 0.504361
O O1 0.556142 0.420978 0.520864
O O2 0.493869 0.120700 0.231773
O O3 0.639517 0.139148 0.168007
O O4 0.591650 0.000000 0.044280
O O5 0.590840 0.163017 0.921794
O O6 0.341040 0.121015 0.406465
O O7 0.416307 0.268592 0.341405
O O8 0.256196 0.828200 0.715410
O O9 0.358077 0.709067 0.680993
O O10 0.250000 0.750000 0.000000
O O11 0.191941 0.881926 0.510128
O O12 0.257145 0.000000 0.629414
#
# Coordination Sequence:
#
# PCOD9209712 Si02
#       6
#     2   8   8   8   8   8
#     4  12  24  44  64  94 122 164 232 254 316 374
#     4  11  21  37  61  97 127 163 200 264 313 377
#     4  10  21  38  64  88 128 163 207 248 325 372
#     4  11  23  40  62  90 128 165 210 259 326 375
#     4  11  21  39  62  93 118 164 210 260 307 375
#     4  11  23  42  64  87 123 173 211 267 306 382
#
# _framework density 19.204695000000001
#
# number of rings (size 3 to 8) (size 9 to 14) (size 15 to 20)
#    0.000    1.143    0.952    8.571    0.000    2.286 
#    3.429    4.762    0.000    4.571    0.000    0.000 
#    0.000    0.000    0.000    0.000    0.000    0.000 
#
# Total GULP energy -117101.233119 kJ/mol
# GULP energy per Si atom -5576.249196 kJ/mol
# Density = 1.916098 g / cm^3
# Si number density = 19.204695 Si / 1000 Ang^3
#
#
#
# Elastic Constant Matrix: (Units=GPa)
#
#
# Indices 1 2 3 4 5 6 
#
# 1 118.2158 42.5441 41.2112 0.0000 -2.8141 0.0000
# 2 42.5441 135.4135 42.2503 0.0000 -0.5121 0.0000
# 3 41.2112 42.2503 90.9498 0.0000 -3.0879 0.0000
# 4 0.0000 0.0000 0.0000 10.3896 0.0000 3.4143
# 5 -2.8141 -0.5121 -3.0879 0.0000 13.1107 0.0000
# 6 0.0000 0.0000 0.0000 3.4143 0.0000 46.0144
#
#
#
# Elastic Compliance Matrix: (Units=1/GPa)
#
#
# Indices 1 2 3 4 5 6 
#
# 1 0.010569 -0.002146 -0.003748 0.000000 0.001302 0.000000
# 2 -0.002146 0.009077 -0.003274 0.000000 -0.000877 0.000000
# 3 -0.003748 -0.003274 0.014297 0.000000 0.002435 0.000000
# 4 0.000000 0.000000 0.000000 0.098656 0.000000 -0.007320
# 5 0.001302 -0.000877 0.002435 0.000000 0.077093 0.000000
# 6 0.000000 0.000000 0.000000 -0.007320 0.000000 0.022276
#
#
# Mechanical properties :
#
#
# Convention : Reuss Voigt Hill
#
# Bulk Modulus (GPa) = 64.07407 66.28781 65.18094
# Shear Modulus (GPa) = 19.56905 28.47451 24.02178
#
# Velocity S-wave (km/s) = 3.19560 3.85474 3.54054
# Velocity P-wave (km/s) = 6.85944 7.37587 7.12234
#
# Compressibility (1/GPa) = 0.01560694
#
# Stress axis : x y z
#
# Youngs Moduli (GPa) = 94.61603 110.16446 69.94525
#
# Poissons Ratio (x) = 0.23645 0.26214
# Poissons Ratio (y) = 0.20307 0.22901
# Poissons Ratio (z) = 0.35460 0.36069
#
# Static dielectric constant tensor:
#      x y z
#    x 1.659640 0.000000 0.003550 
#    y 0.000000 1.662290 0.000000 
#    z 0.003550 0.000000 1.666090 
# 
# From -- ./inp_files/73549.got.cif
#   From: 2010.05.17/outbox.cif.g08.bks.cpg/sg12_37_cif.got.tgz:73549.got - 2010.06.03 13:09:07.
