data_PCOD9209281
_publ_section_title
;
Structure prediction by ZEFSAII (Michael W. Deem and Ramdas Pophale) SiO2 
 PCOD9209281
Probable space group: C 2/M
;
_chemical_formula_sum "Si O2"
_cell_formula_units_Z 64
_cell_length_a 9.405557
_cell_length_b 27.639511
_cell_length_c 15.430140
_cell_angle_alpha 90.000000
_cell_angle_beta 127.176673
_cell_angle_gamma 90.000000
_cell_volume 3196.104626
_symmetry_space_group_name_H-M "C 2/M"
_symmetry_group_IT_number 12
_symmetry_cell_setting 'monoclinic'
loop_
_space_group_symop_operation_xyz
x,y,z
-x,y,-z
-x,-y,-z
x,-y,z
1/2+x,1/2+y,z
1/2-x,1/2+y,-z
1/2-x,1/2-y,-z
1/2+x,1/2-y,z
loop_
_atom_site_type_symbol
_atom_site_label
_atom_site_fract_x
_atom_site_fract_y
_atom_site_fract_z
Si Si1 0.539216 0.723609 0.760335
Si Si2 0.831200 0.943179 0.881978
Si Si3 0.822339 0.054353 0.673835
Si Si4 0.749253 0.841873 0.615044
Si Si5 0.447884 0.209922 0.881989
Si Si6 0.111354 0.056336 0.626976
Si Si7 0.027362 0.616646 0.216653
Si Si8 0.070964 0.309533 0.389322
O O1 0.440043 0.672323 0.724403
O O2 0.541258 0.751660 0.852353
O O3 0.736233 0.718402 0.796222
O O4 0.422192 0.758178 0.654708
O O5 0.869503 0.940161 0.792882
O O6 0.650383 0.915146 0.838948
O O7 0.805669 0.000000 0.892789
O O8 0.000000 0.925428 0.000000
O O9 0.706881 0.101538 0.609268
O O10 0.983917 0.057751 0.664470
O O11 0.744173 0.000000 0.634953
O O12 0.732003 0.826162 0.509244
O O13 0.604668 0.811999 0.615946
O O14 0.486529 0.154862 0.867143
O O15 0.500000 0.217826 0.000000
O O16 0.291345 0.085473 0.713923
O O17 0.000000 0.073026 0.500000
O O18 0.157974 0.000000 0.627271
O O19 0.041076 0.651324 0.304503
#
# Coordination Sequence:
#
# PCOD9209281 Si02
#       8
#     8   8   8   8   8   8   8   8
#     4  11  22  43  63  88 124 161 208 260 316 369
#     4  10  22  41  64  89 122 167 217 270 319 367
#     4  10  21  39  61  93 128 165 212 258 316 384
#     4  11  20  38  64  88 127 163 203 251 313 372
#     4  11  25  42  62  91 120 160 209 262 316 380
#     4  10  21  38  61  91 129 169 207 255 316 383
#     4  11  22  40  60  91 126 158 213 258 316 379
#     4  10  22  37  57  95 122 158 207 252 304 381
#
# _framework density 20.024374999999999
#
# number of rings (size 3 to 8) (size 9 to 14) (size 15 to 20)
#    0.000    1.500    2.500    2.625    0.000    2.000 
#    0.000    3.750    0.000    3.750    0.000    0.000 
#    0.000    0.000    0.000    0.000    0.000    0.000 
#
# Total GULP energy -178590.878990 kJ/mol
# GULP energy per Si atom -5580.964968 kJ/mol
# Density = 1.997880 g / cm^3
# Si number density = 20.024375 Si / 1000 Ang^3
#
#
#
# Elastic Constant Matrix: (Units=GPa)
#
#
# Indices 1 2 3 4 5 6 
#
# 1 76.3087 24.4731 17.3811 0.0000 -2.2565 0.0000
# 2 24.4731 96.3843 42.0057 0.0000 -0.1037 0.0000
# 3 17.3811 42.0057 79.0582 0.0000 -9.7820 0.0000
# 4 0.0000 0.0000 0.0000 9.0414 0.0000 7.3764
# 5 -2.2565 -0.1037 -9.7820 0.0000 30.0893 0.0000
# 6 0.0000 0.0000 0.0000 7.3764 0.0000 25.6608
#
#
#
# Elastic Compliance Matrix: (Units=1/GPa)
#
#
# Indices 1 2 3 4 5 6 
#
# 1 0.014429 -0.003009 -0.001501 0.000000 0.000584 0.000000
# 2 -0.003009 0.014295 -0.007247 0.000000 -0.002532 0.000000
# 3 -0.001501 -0.007247 0.017517 0.000000 0.005557 0.000000
# 4 0.000000 0.000000 0.000000 0.144488 0.000000 -0.041534
# 5 0.000584 -0.002532 0.005557 0.000000 0.035076 0.000000
# 6 0.000000 0.000000 0.000000 -0.041534 0.000000 0.050909
#
#
# Mechanical properties :
#
#
# Convention : Reuss Voigt Hill
#
# Bulk Modulus (GPa) = 44.00162 46.60790 45.30476
# Shear Modulus (GPa) = 16.24409 24.15105 20.19757
#
# Velocity S-wave (km/s) = 2.85128 3.47664 3.17937
# Velocity P-wave (km/s) = 5.73249 6.28030 6.01263
#
# Compressibility (1/GPa) = 0.02272643
#
# Stress axis : x y z
#
# Youngs Moduli (GPa) = 69.30578 69.95597 57.08697
#
# Poissons Ratio (x) = 0.21047 0.08571
# Poissons Ratio (y) = 0.20852 0.41371
# Poissons Ratio (z) = 0.10406 0.50697
#
# Static dielectric constant tensor:
#      x y z
#    x 1.720700 0.000000 -0.003890 
#    y 0.000000 1.725860 0.000000 
#    z -0.003890 0.000000 1.714450 
# 
# From -- ./inp_files/201319.got.cif
#   From: 2010.05.17/outbox.cif.g08.bks.cpg/sg12_101_cif.got.tgz:201319.got - 2010.06.03 13:09:07.
