data_PCOD9209202
_publ_section_title
;
Structure prediction by ZEFSAII (Michael W. Deem and Ramdas Pophale) SiO2 
 PCOD9209202
Probable space group: C 2/M
;
_chemical_formula_sum "Si O2"
_cell_formula_units_Z 56
_cell_length_a 27.812625
_cell_length_b 8.787702
_cell_length_c 13.915755
_cell_angle_alpha 90.000000
_cell_angle_beta 119.990058
_cell_angle_gamma 90.000000
_cell_volume 2945.765740
_symmetry_space_group_name_H-M "C 2/M"
_symmetry_group_IT_number 12
_symmetry_cell_setting 'monoclinic'
loop_
_space_group_symop_operation_xyz
x,y,z
-x,y,-z
-x,-y,-z
x,-y,z
1/2+x,1/2+y,z
1/2-x,1/2+y,-z
1/2-x,1/2-y,-z
1/2+x,1/2-y,z
loop_
_atom_site_type_symbol
_atom_site_label
_atom_site_fract_x
_atom_site_fract_y
_atom_site_fract_z
Si Si1 0.401669 0.816615 0.550391
Si Si2 0.621788 0.183368 0.693956
Si Si3 0.834056 0.317545 0.828899
Si Si4 0.948930 0.818109 0.019606
Si Si5 0.737252 0.682053 0.882993
Si Si6 0.307959 0.318416 0.594417
Si Si7 0.524949 0.816621 0.746414
O O1 0.392254 0.775218 0.429743
O O2 0.356612 0.736826 0.572322
O O3 0.463803 0.778281 0.646443
O O4 0.395223 0.000000 0.552278
O O5 0.678910 0.256803 0.785550
O O6 0.571700 0.225597 0.715243
O O7 0.627442 0.000000 0.703428
O O8 0.834851 0.500000 0.819042
O O9 0.786236 0.276777 0.857688
O O10 0.820822 0.242514 0.713616
O O11 0.893059 0.260610 0.926580
O O12 0.962966 0.761751 0.140344
O O13 0.941471 0.000000 0.011366
O O14 0.000000 0.780185 0.000000
O O15 0.735406 0.500000 0.888098
O O16 0.750000 0.750000 0.000000
O O17 0.304772 0.500000 0.591838
O O18 0.250000 0.250000 0.500000
O O19 0.527272 0.000000 0.761311
#
# Coordination Sequence:
#
# PCOD9209202 Si02
#       7
#     8   8   8   8   8   8   8
#     4  10  21  39  63  89 120 158 197 241 294 348
#     4  10  21  38  61  89 120 155 196 241 290 348
#     4  11  24  42  63  88 118 155 200 245 293 351
#     4  11  24  40  59  87 121 156 197 245 297 352
#     4  11  24  40  60  87 118 153 195 243 293 349
#     4  12  25  41  62  89 121 156 197 244 294 350
#     4  10  21  38  61  89 120 156 199 243 290 349
#
# _framework density 19.010337
#
# number of rings (size 3 to 8) (size 9 to 14) (size 15 to 20)
#    0.000    1.286    0.000    5.571    0.000   14.857 
#    0.000    0.000    0.000    2.571    0.000    0.000 
#    0.000    0.000    0.000    0.000    0.000    0.000 
#
# Total GULP energy -156668.194042 kJ/mol
# GULP energy per Si atom -5595.292644 kJ/mol
# Density = 1.896707 g / cm^3
# Si number density = 19.010337 Si / 1000 Ang^3
#
#
#
# Elastic Constant Matrix: (Units=GPa)
#
#
# Indices 1 2 3 4 5 6 
#
# 1 219.0791 88.8746 128.8234 0.0000 -2.5386 0.0000
# 2 88.8746 65.0460 79.7156 0.0000 -4.1286 0.0000
# 3 128.8234 79.7156 218.3632 0.0000 -4.0563 0.0000
# 4 0.0000 0.0000 0.0000 30.5849 0.0000 2.1828
# 5 -2.5386 -4.1286 -4.0563 0.0000 44.4614 0.0000
# 6 0.0000 0.0000 0.0000 2.1828 0.0000 32.9992
#
#
#
# Elastic Compliance Matrix: (Units=1/GPa)
#
#
# Indices 1 2 3 4 5 6 
#
# 1 0.010619 -0.012415 -0.001746 0.000000 -0.000706 0.000000
# 2 -0.012415 0.042457 -0.008129 0.000000 0.002492 0.000000
# 3 -0.001746 -0.008129 0.008576 0.000000 -0.000072 0.000000
# 4 0.000000 0.000000 0.000000 0.032851 0.000000 -0.002173
# 5 -0.000706 0.002492 -0.000072 0.000000 0.022676 0.000000
# 6 0.000000 0.000000 0.000000 -0.002173 0.000000 0.030448
#
#
# Mechanical properties :
#
#
# Convention : Reuss Voigt Hill
#
# Bulk Modulus (GPa) = 58.57277 121.92396 90.24836
# Shear Modulus (GPa) = 25.26580 35.28074 30.27327
#
# Velocity S-wave (km/s) = 3.64958 4.31266 3.99490
# Velocity P-wave (km/s) = 6.97403 9.43788 8.29791
#
# Compressibility (1/GPa) = 0.01707278
#
# Stress axis : x y z
#
# Youngs Moduli (GPa) = 94.16796 23.55341 116.60890
#
# Poissons Ratio (x) = 0.29241 0.20358
# Poissons Ratio (y) = 1.16907 0.94790
# Poissons Ratio (z) = 0.16440 0.19146
#
# Static dielectric constant tensor:
#      x y z
#    x 1.629310 0.000000 -0.006090 
#    y 0.000000 1.640970 0.000000 
#    z -0.006090 0.000000 1.615310 
# 
# From -- ./inp_files/181016.got.cif
#   From: 2010.05.17/outbox.cif.g08.bks.cpg/sg12_91_cif.got.tgz:181016.got - 2010.06.03 13:09:07.
