data_PCOD9209541
_publ_section_title
;
Structure prediction by ZEFSAII (Michael W. Deem and Ramdas Pophale) SiO2 
 PCOD9209541
Probable space group: C 2/M
;
_chemical_formula_sum "Si O2"
_cell_formula_units_Z 56
_cell_length_a 22.009794
_cell_length_b 11.680103
_cell_length_c 10.805343
_cell_angle_alpha 90.000000
_cell_angle_beta 67.789708
_cell_angle_gamma 90.000000
_cell_volume 2571.696124
_symmetry_space_group_name_H-M "C 2/M"
_symmetry_group_IT_number 12
_symmetry_cell_setting 'monoclinic'
loop_
_space_group_symop_operation_xyz
x,y,z
-x,y,-z
-x,-y,-z
x,-y,z
1/2+x,1/2+y,z
1/2-x,1/2+y,-z
1/2-x,1/2-y,-z
1/2+x,1/2-y,z
loop_
_atom_site_type_symbol
_atom_site_label
_atom_site_fract_x
_atom_site_fract_y
_atom_site_fract_z
Si Si1 0.097678 0.630903 0.004700
Si Si2 0.746354 0.192623 0.319754
Si Si3 0.328114 0.879950 0.389035
Si Si4 0.488747 0.632416 0.648805
Si Si5 0.165368 0.125346 0.250125
Si Si6 0.323184 0.629043 0.026009
Si Si7 0.463441 0.176072 0.220953
O O1 0.126057 0.500000 0.985225
O O2 0.138630 0.748424 0.994918
O O3 0.066916 0.654086 0.891855
O O4 0.037134 0.629479 0.148952
O O5 0.715304 0.122358 0.454579
O O6 0.805059 0.270606 0.328951
O O7 0.689633 0.279458 0.322726
O O8 0.772480 0.131110 0.177929
O O9 0.405983 0.873685 0.351510
O O10 0.314956 0.000000 0.332092
O O11 0.500000 0.677770 0.500000
O O12 0.509493 0.500000 0.632684
O O13 0.410550 0.638312 0.728341
O O14 0.525093 0.698611 0.730370
O O15 0.172338 0.000000 0.301525
O O16 0.205350 0.130960 0.090953
O O17 0.356656 0.500000 0.007418
#
# Coordination Sequence:
#
# PCOD9209541 Si02
#       7
#     8   8   8   8   8   8   8
#     4  11  23  40  66  95 128 167 214 265 319 385
#     4  11  23  40  64  91 124 169 213 255 314 380
#     4  11  23  40  62  90 126 165 209 263 313 371
#     4  10  21  38  62  94 132 169 211 261 319 385
#     4  10  21  40  64  90 125 167 211 261 316 377
#     4  11  23  42  65  94 131 164 211 270 318 375
#     4  11  21  39  65  93 125 164 211 259 319 371
#
# _framework density 21.775513
#
# number of rings (size 3 to 8) (size 9 to 14) (size 15 to 20)
#    0.000    1.286    2.857    3.857    0.000    1.143 
#    0.000    3.571    0.000    3.857    0.000    0.000 
#    0.000    0.000    0.000    0.000    0.000    0.000 
#
# Total GULP energy -155968.707407 kJ/mol
# GULP energy per Si atom -5570.310979 kJ/mol
# Density = 2.172595 g / cm^3
# Si number density = 21.775513 Si / 1000 Ang^3
#
#
#
# Elastic Constant Matrix: (Units=GPa)
#
#
# Indices 1 2 3 4 5 6 
#
# 1 34.1085 37.6962 -7.1274 0.0000 -11.8223 0.0000
# 2 37.6962 157.9392 10.7099 0.0000 0.5097 0.0000
# 3 -7.1274 10.7099 92.8235 0.0000 -19.5323 0.0000
# 4 0.0000 0.0000 0.0000 96.2971 0.0000 93.5976
# 5 -11.8223 0.5097 -19.5323 0.0000 32.0427 0.0000
# 6 0.0000 0.0000 0.0000 93.5976 0.0000 117.4832
#
#
#
# Elastic Compliance Matrix: (Units=1/GPa)
#
#
# Indices 1 2 3 4 5 6 
#
# 1 0.058607 -0.014925 0.012415 0.000000 0.029428 0.000000
# 2 -0.014925 0.010193 -0.004032 0.000000 -0.008127 0.000000
# 3 0.012415 -0.004032 0.015107 0.000000 0.013853 0.000000
# 4 0.000000 0.000000 0.000000 0.046022 0.000000 -0.036665
# 5 0.029428 -0.008127 0.013853 0.000000 0.050640 0.000000
# 6 0.000000 0.000000 0.000000 -0.036665 0.000000 0.037723
#
#
# Mechanical properties :
#
#
# Convention : Reuss Voigt Hill
#
# Bulk Modulus (GPa) = 14.11985 40.82542 27.47264
# Shear Modulus (GPa) = 19.60909 65.40409 42.50659
#
# Velocity S-wave (km/s) = 3.00411 5.48642 4.42298
# Velocity P-wave (km/s) = 4.30479 7.67616 6.22313
#
# Compressibility (1/GPa) = 0.07082227
#
# Stress axis : x y z
#
# Youngs Moduli (GPa) = 17.06273 98.10261 66.19615
#
# Poissons Ratio (x) = 1.46417 -0.82180
# Poissons Ratio (y) = 0.25466 0.26691
# Poissons Ratio (z) = -0.21183 0.39556
#
# Static dielectric constant tensor:
#      x y z
#    x 1.792160 0.000000 -0.041590 
#    y 0.000000 1.815050 0.000000 
#    z -0.041590 0.000000 1.842450 
# 
# From -- ./inp_files/174467.got.cif
#   From: 2010.05.17/outbox.cif.g08.bks.cpg/sg12_88_cif.got.tgz:174467.got - 2010.06.03 13:09:07.
