data_PCOD9209886
_publ_section_title
;
Structure prediction by ZEFSAII (Michael W. Deem and Ramdas Pophale) SiO2 
 PCOD9209886
Probable space group: C 2/M
;
_chemical_formula_sum "Si O2"
_cell_formula_units_Z 40
_cell_length_a 12.793266
_cell_length_b 17.556295
_cell_length_c 9.278261
_cell_angle_alpha 90.000000
_cell_angle_beta 65.077707
_cell_angle_gamma 90.000000
_cell_volume 1889.864946
_symmetry_space_group_name_H-M "C 2/M"
_symmetry_group_IT_number 12
_symmetry_cell_setting 'monoclinic'
loop_
_space_group_symop_operation_xyz
x,y,z
-x,y,-z
-x,-y,-z
x,-y,z
1/2+x,1/2+y,z
1/2-x,1/2+y,-z
1/2-x,1/2-y,-z
1/2+x,1/2-y,z
loop_
_atom_site_type_symbol
_atom_site_label
_atom_site_fract_x
_atom_site_fract_y
_atom_site_fract_z
Si Si1 0.392990 0.381286 0.472573
Si Si2 0.973248 0.223015 0.178895
Si Si3 0.577557 0.000000 0.254199
Si Si4 0.690941 0.000000 0.510334
Si Si5 0.745851 0.279934 0.241316
Si Si6 0.675388 0.842115 0.099890
O O1 0.500000 0.417152 0.500000
O O2 0.447769 0.346983 0.296449
O O3 0.278521 0.430645 0.501959
O O4 0.350144 0.310987 0.597297
O O5 0.868098 0.282486 0.248454
O O6 0.079913 0.275752 0.159085
O O7 0.000000 0.199415 0.000000
O O8 0.644990 0.000000 0.370520
O O9 0.436962 0.000000 0.341193
O O10 0.621962 0.075944 0.150238
O O11 0.745594 0.190422 0.195082
O O12 0.758183 0.330833 0.089226
#
# Coordination Sequence:
#
# PCOD9209886 Si02
#       6
#     8   8   4   4   8   8
#     4  12  23  42  66  94 135 177 215 268 338 389
#     4  10  21  39  65  97 128 166 222 272 320 387
#     4  11  24  45  68  93 134 170 218 274 342 377
#     4  11  27  43  61  98 132 173 223 277 319 404
#     4  10  21  38  66  96 130 164 219 267 314 394
#     4  10  21  40  64  99 127 166 215 271 323 382
#
# _framework density 21.165534000000001
#
# number of rings (size 3 to 8) (size 9 to 14) (size 15 to 20)
#    0.000    1.400    2.000    3.300    0.000    4.000 
#    0.000    6.000    0.000    0.000    0.000    0.000 
#    0.000    0.000    0.000    0.000    0.000    0.000 
#
# Total GULP energy -111419.454663 kJ/mol
# GULP energy per Si atom -5570.972733 kJ/mol
# Density = 2.111736 g / cm^3
# Si number density = 21.165534 Si / 1000 Ang^3
#
#
#
# Elastic Constant Matrix: (Units=GPa)
#
#
# Indices 1 2 3 4 5 6 
#
# 1 126.8405 34.3010 28.3094 0.0000 -12.3447 0.0000
# 2 34.3010 128.0051 63.2530 0.0000 -8.6611 0.0000
# 3 28.3094 63.2530 83.3130 0.0000 -9.4291 0.0000
# 4 0.0000 0.0000 0.0000 19.2229 0.0000 -8.8785
# 5 -12.3447 -8.6611 -9.4291 0.0000 29.7568 0.0000
# 6 0.0000 0.0000 0.0000 -8.8785 0.0000 33.4139
#
#
#
# Elastic Compliance Matrix: (Units=1/GPa)
#
#
# Indices 1 2 3 4 5 6 
#
# 1 0.008896 -0.001373 -0.001668 0.000000 0.002763 0.000000
# 2 -0.001373 0.012727 -0.009170 0.000000 0.000229 0.000000
# 3 -0.001668 -0.009170 0.019864 0.000000 0.002933 0.000000
# 4 0.000000 0.000000 0.000000 0.059299 0.000000 0.015756
# 5 0.002763 0.000229 0.002933 0.000000 0.035748 0.000000
# 6 0.000000 0.000000 0.000000 0.015756 0.000000 0.034114
#
#
# Mechanical properties :
#
#
# Convention : Reuss Voigt Hill
#
# Bulk Modulus (GPa) = 58.59888 65.54284 62.07086
# Shear Modulus (GPa) = 24.90556 30.63175 27.76866
#
# Velocity S-wave (km/s) = 3.43403 3.80840 3.62605
# Velocity P-wave (km/s) = 6.59314 7.09736 6.84989
#
# Compressibility (1/GPa) = 0.01706517
#
# Stress axis : x y z
#
# Youngs Moduli (GPa) = 112.40632 78.57356 50.34258
#
# Poissons Ratio (x) = 0.10786 0.08398
# Poissons Ratio (y) = 0.15430 0.46165
# Poissons Ratio (z) = 0.18750 0.72053
#
# Static dielectric constant tensor:
#      x y z
#    x 2.145370 0.000000 0.053330 
#    y 0.000000 1.750150 0.000000 
#    z 0.053330 0.000000 1.731960 
# 
# From -- ./inp_files/60902.got.cif
#   From: 2010.05.17/outbox.cif.g08.bks.cpg/sg12_31_cif.got.tgz:60902.got - 2010.06.03 13:09:07.
