data_PCOD9209728
_publ_section_title
;
Structure prediction by ZEFSAII (Michael W. Deem and Ramdas Pophale) SiO2 
 PCOD9209728
Probable space group: C 2/M
;
_chemical_formula_sum "Si O2"
_cell_formula_units_Z 56
_cell_length_a 14.759224
_cell_length_b 9.389026
_cell_length_c 23.619722
_cell_angle_alpha 90.000000
_cell_angle_beta 55.717079
_cell_angle_gamma 90.000000
_cell_volume 2704.449362
_symmetry_space_group_name_H-M "C 2/M"
_symmetry_group_IT_number 12
_symmetry_cell_setting 'monoclinic'
loop_
_space_group_symop_operation_xyz
x,y,z
-x,y,-z
-x,-y,-z
x,-y,z
1/2+x,1/2+y,z
1/2-x,1/2+y,-z
1/2-x,1/2-y,-z
1/2+x,1/2-y,z
loop_
_atom_site_type_symbol
_atom_site_label
_atom_site_fract_x
_atom_site_fract_y
_atom_site_fract_z
Si Si1 0.397589 0.663154 0.593440
Si Si2 0.730446 0.330266 0.183964
Si Si3 0.547941 0.161490 0.319126
Si Si4 0.680554 0.331140 0.071176
Si Si5 0.300703 0.159612 0.533061
Si Si6 0.574824 0.334238 0.828381
Si Si7 0.156083 0.746351 0.678456
O O1 0.434263 0.500000 0.578266
O O2 0.459437 0.755654 0.618827
O O3 0.387407 0.742306 0.536424
O O4 0.267223 0.664361 0.657618
O O5 0.719684 0.500000 0.196407
O O6 0.634958 0.247489 0.250813
O O7 0.719964 0.300017 0.120989
O O8 0.844153 0.269268 0.167040
O O9 0.434875 0.160312 0.324224
O O10 0.585842 0.000000 0.316317
O O11 0.692099 0.500000 0.058043
O O12 0.551168 0.298018 0.115023
O O13 0.750000 0.250000 0.000000
O O14 0.250000 0.250000 0.500000
O O15 0.205898 0.147945 0.614136
O O16 0.337614 0.000000 0.504078
O O17 0.405755 0.500000 0.163632
O O18 0.601201 0.315001 0.752492
#
# Coordination Sequence:
#
# PCOD9209728 Si02
#       7
#     8   8   8   8   8   8   8
#     4  10  22  39  60  89 125 160 203 253 304 361
#     4  11  23  39  61  91 125 160 204 253 307 364
#     4  12  23  37  61  94 126 160 205 255 310 365
#     4  10  24  44  63  89 124 163 204 253 307 366
#     4  10  21  38  64  90 124 168 206 253 311 368
#     4  11  22  41  66  92 123 160 207 256 306 364
#     4  10  23  38  64  90 124 159 208 248 310 359
#
# _framework density 20.706617999999999
#
# number of rings (size 3 to 8) (size 9 to 14) (size 15 to 20)
#    0.857    0.571    2.857    2.571    0.000    4.571 
#    0.000    3.571    0.000    3.429    0.000    0.000 
#    0.000    0.000    0.000    0.000    0.000    0.000 
#
# Total GULP energy -156397.294043 kJ/mol
# GULP energy per Si atom -5585.617644 kJ/mol
# Density = 2.065949 g / cm^3
# Si number density = 20.706618 Si / 1000 Ang^3
#
#
#
# Elastic Constant Matrix: (Units=GPa)
#
#
# Indices 1 2 3 4 5 6 
#
# 1 104.9539 41.8484 29.5049 0.0000 7.8091 0.0000
# 2 41.8484 139.9397 41.5344 0.0000 14.8624 0.0000
# 3 29.5049 41.5344 116.2085 0.0000 -5.7873 0.0000
# 4 0.0000 0.0000 0.0000 23.0959 0.0000 0.3120
# 5 7.8091 14.8624 -5.7873 0.0000 23.9211 0.0000
# 6 0.0000 0.0000 0.0000 0.3120 0.0000 20.7395
#
#
#
# Elastic Compliance Matrix: (Units=1/GPa)
#
#
# Indices 1 2 3 4 5 6 
#
# 1 0.011307 -0.002468 -0.002122 0.000000 -0.002671 0.000000
# 2 -0.002468 0.009391 -0.003017 0.000000 -0.005759 0.000000
# 3 -0.002122 -0.003017 0.010476 0.000000 0.005101 0.000000
# 4 0.000000 0.000000 0.000000 0.043306 0.000000 -0.000652
# 5 -0.002671 -0.005759 0.005101 0.000000 0.047488 0.000000
# 6 0.000000 0.000000 0.000000 -0.000652 0.000000 0.048227
#
#
# Mechanical properties :
#
#
# Convention : Reuss Voigt Hill
#
# Bulk Modulus (GPa) = 62.65037 65.20861 63.92949
# Shear Modulus (GPa) = 26.21513 30.09893 28.15703
#
# Velocity S-wave (km/s) = 3.56199 3.81673 3.69156
# Velocity P-wave (km/s) = 6.87306 7.14026 7.00793
#
# Compressibility (1/GPa) = 0.01596160
#
# Stress axis : x y z
#
# Youngs Moduli (GPa) = 88.43853 106.48586 95.45458
#
# Poissons Ratio (x) = 0.26280 0.20254
# Poissons Ratio (y) = 0.21826 0.28795
# Poissons Ratio (z) = 0.18765 0.32123
#
# Static dielectric constant tensor:
#      x y z
#    x 1.746060 0.000000 -0.033280 
#    y 0.000000 1.722720 0.000000 
#    z -0.033280 0.000000 1.753440 
# 
# From -- ./inp_files/342215.got.cif
#   From: 2010.05.17/outbox.cif.g08.bks.cpg/sg12_172_cif.got.tgz:342215.got - 2010.06.03 13:09:07.
