data_PCOD9209423
_publ_section_title
;
Structure prediction by ZEFSAII (Michael W. Deem and Ramdas Pophale) SiO2 
 PCOD9209423
Probable space group: C 2/M
;
_chemical_formula_sum "Si O2"
_cell_formula_units_Z 56
_cell_length_a 20.673119
_cell_length_b 25.389242
_cell_length_c 4.980252
_cell_angle_alpha 90.000000
_cell_angle_beta 111.305513
_cell_angle_gamma 90.000000
_cell_volume 2435.357764
_symmetry_space_group_name_H-M "C 2/M"
_symmetry_group_IT_number 12
_symmetry_cell_setting 'monoclinic'
loop_
_space_group_symop_operation_xyz
x,y,z
-x,y,-z
-x,-y,-z
x,-y,z
1/2+x,1/2+y,z
1/2-x,1/2+y,-z
1/2-x,1/2-y,-z
1/2+x,1/2-y,z
loop_
_atom_site_type_symbol
_atom_site_label
_atom_site_fract_x
_atom_site_fract_y
_atom_site_fract_z
Si Si1 0.357193 0.292964 0.070222
Si Si2 0.956245 0.298987 0.168796
Si Si3 0.717056 0.331955 0.550351
Si Si4 0.861698 0.376092 0.720041
Si Si5 0.048551 0.106112 0.815190
Si Si6 0.181994 0.941149 0.263561
Si Si7 0.171423 0.439681 0.816881
O O1 0.392840 0.237420 0.167467
O O2 0.295915 0.308177 0.179556
O O3 0.415491 0.338121 0.200984
O O4 0.326983 0.298770 0.727744
O O5 0.000000 0.311168 0.500000
O O6 0.925298 0.347794 0.957173
O O7 0.000000 0.269248 0.000000
O O8 0.797667 0.335578 0.599555
O O9 0.687795 0.391907 0.475492
O O10 0.872346 0.402530 0.448642
O O11 0.835266 0.420135 0.890318
O O12 0.000000 0.087615 0.500000
O O13 0.111896 0.067920 0.990339
O O14 0.000000 0.112918 0.000000
O O15 0.249556 0.935647 0.173767
O O16 0.183638 0.000000 0.384969
O O17 0.149766 0.500000 0.760908
#
# Coordination Sequence:
#
# PCOD9209423 Si02
#       7
#     8   8   8   8   8   8   8
#     4  11  22  40  61  84 118 160 207 248 299 360
#     4  12  26  43  65  92 125 165 203 246 302 370
#     4  10  21  38  62  90 119 154 198 257 309 348
#     4  11  22  40  65  96 128 155 200 255 304 357
#     4  11  21  34  51  74 112 158 202 244 287 347
#     4   9  20  37  57  84 117 154 201 253 302 352
#     4  10  21  40  67  93 121 159 200 249 311 372
#
# _framework density 22.994565999999999
#
# number of rings (size 3 to 8) (size 9 to 14) (size 15 to 20)
#    0.000    1.429    0.000    7.286    0.000    3.429 
#    0.000    8.571    0.000    8.571    0.000    0.000 
#    0.000    0.000    0.000    0.000    0.000    0.000 
#
# Total GULP energy -156775.375817 kJ/mol
# GULP energy per Si atom -5599.120565 kJ/mol
# Density = 2.294223 g / cm^3
# Si number density = 22.994566 Si / 1000 Ang^3
#
#
#
# Elastic Constant Matrix: (Units=GPa)
#
#
# Indices 1 2 3 4 5 6 
#
# 1 34.3524 7.8732 9.8017 0.0000 5.2187 0.0000
# 2 7.8732 55.7963 18.6915 0.0000 21.5268 0.0000
# 3 9.8017 18.6915 110.1759 0.0000 18.8121 0.0000
# 4 0.0000 0.0000 0.0000 120.2707 0.0000 89.1757
# 5 5.2187 21.5268 18.8121 0.0000 42.3588 0.0000
# 6 0.0000 0.0000 0.0000 89.1757 0.0000 105.7498
#
#
#
# Elastic Compliance Matrix: (Units=1/GPa)
#
#
# Indices 1 2 3 4 5 6 
#
# 1 0.030591 -0.003161 -0.001965 0.000000 -0.001290 0.000000
# 2 -0.003161 0.023034 -0.001833 0.000000 -0.010503 0.000000
# 3 -0.001965 -0.001833 0.010130 0.000000 -0.003325 0.000000
# 4 0.000000 0.000000 0.000000 0.022187 0.000000 -0.018710
# 5 -0.001290 -0.010503 -0.003325 0.000000 0.030581 0.000000
# 6 0.000000 0.000000 0.000000 -0.018710 0.000000 0.025234
#
#
# Mechanical properties :
#
#
# Convention : Reuss Voigt Hill
#
# Bulk Modulus (GPa) = 20.06524 30.33972 25.20248
# Shear Modulus (GPa) = 29.02125 64.60641 46.81383
#
# Velocity S-wave (km/s) = 3.55645 5.30635 4.51695
# Velocity P-wave (km/s) = 5.06058 7.12503 6.17963
#
# Compressibility (1/GPa) = 0.04983743
#
# Stress axis : x y z
#
# Youngs Moduli (GPa) = 32.68925 43.41318 98.71683
#
# Poissons Ratio (x) = 0.13721 0.19398
# Poissons Ratio (y) = 0.10332 0.18099
# Poissons Ratio (z) = 0.06424 0.07959
#
# Static dielectric constant tensor:
#      x y z
#    x 1.885300 0.000000 0.010380 
#    y 0.000000 1.866880 0.000000 
#    z 0.010380 0.000000 1.817790 
# 
# From -- ./inp_files/22378.got.cif
#   From: 2010.05.17/outbox.cif.g08.bks.cpg/sg12_12_cif.got.tgz:22378.got - 2010.06.03 13:09:07.
