data_PCOD9209401
_publ_section_title
;
Structure prediction by ZEFSAII (Michael W. Deem and Ramdas Pophale) SiO2 
 PCOD9209401
Probable space group: C 2/M
;
_chemical_formula_sum "Si O2"
_cell_formula_units_Z 48
_cell_length_a 20.654088
_cell_length_b 15.765592
_cell_length_c 18.374444
_cell_angle_alpha 90.000000
_cell_angle_beta 24.623110
_cell_angle_gamma 90.000000
_cell_volume 2492.868028
_symmetry_space_group_name_H-M "C 2/M"
_symmetry_group_IT_number 12
_symmetry_cell_setting 'monoclinic'
loop_
_space_group_symop_operation_xyz
x,y,z
-x,y,-z
-x,-y,-z
x,-y,z
1/2+x,1/2+y,z
1/2-x,1/2+y,-z
1/2-x,1/2-y,-z
1/2+x,1/2-y,z
loop_
_atom_site_type_symbol
_atom_site_label
_atom_site_fract_x
_atom_site_fract_y
_atom_site_fract_z
Si Si1 0.590733 0.593925 0.055376
Si Si2 0.941083 0.735913 0.980911
Si Si3 0.536467 0.902134 0.317186
Si Si4 0.570064 0.271683 0.352755
Si Si5 0.547894 0.405111 0.643201
Si Si6 0.142970 0.329164 0.639058
O O1 0.549205 0.500000 0.073153
O O2 0.536646 0.663565 0.053844
O O3 0.513761 0.609409 0.212213
O O4 0.775960 0.597683 0.879810
O O5 0.031790 0.696259 0.819576
O O6 0.756216 0.723780 0.164441
O O7 0.000000 0.708642 0.000000
O O8 0.508575 0.824579 0.401692
O O9 0.455430 0.870149 0.325934
O O10 0.489369 0.000000 0.382640
O O11 0.500000 0.302196 0.500000
O O12 0.514707 0.332132 0.344723
O O13 0.500428 0.500000 0.669117
O O14 0.732484 0.396125 0.458762
O O15 0.250000 0.250000 0.500000
#
# Coordination Sequence:
#
# PCOD9209401 Si02
#       6
#     8   8   8   8   8   8
#     4   9  19  37  59  87 119 156 200 247 295 353
#     4  11  23  38  60  87 122 161 198 246 305 356
#     4  10  21  38  62  89 120 157 202 247 296 352
#     4  11  23  40  62  87 123 162 201 247 302 357
#     4  11  22  38  62  89 118 157 205 250 296 354
#     4  12  21  37  62  89 121 156 199 247 295 353
#
# _framework density 19.254930000000002
#
# number of rings (size 3 to 8) (size 9 to 14) (size 15 to 20)
#    0.000    1.333    3.333    2.500    0.000    3.667 
#    0.000    0.833    0.000    3.500    0.000    0.000 
#    0.000    0.000    0.000    0.000    0.000    0.000 
#
# Total GULP energy -133915.844611 kJ/mol
# GULP energy per Si atom -5579.826859 kJ/mol
# Density = 1.921110 g / cm^3
# Si number density = 19.254930 Si / 1000 Ang^3
#
#
#
# Elastic Constant Matrix: (Units=GPa)
#
#
# Indices 1 2 3 4 5 6 
#
# 1 63.9136 13.1671 -2.2800 0.0009 -2.5013 -0.0007
# 2 13.1671 74.2554 5.6763 0.0019 4.0823 -0.0015
# 3 -2.2800 5.6763 50.1765 0.0023 17.0425 -0.0025
# 4 0.0009 0.0019 0.0023 20.4677 -0.0016 -7.0195
# 5 -2.5013 4.0823 17.0425 -0.0016 9.7795 0.0015
# 6 -0.0007 -0.0015 -0.0025 -7.0195 0.0015 19.5983
#
#
#
# Elastic Compliance Matrix: (Units=1/GPa)
#
#
# Indices 1 2 3 4 5 6 
#
# 1 0.016606 -0.003291 -0.001917 0.000000 0.008962 0.000000
# 2 -0.003291 0.014455 0.001349 -0.000002 -0.009227 0.000001
# 3 -0.001917 0.001349 0.049125 -0.000009 -0.086662 0.000010
# 4 0.000000 -0.000002 -0.000009 0.055699 0.000023 0.019950
# 5 0.008962 -0.009227 -0.086662 0.000023 0.259422 -0.000023
# 6 0.000000 0.000001 0.000010 0.019950 -0.000023 0.058170
#
#
# Mechanical properties :
#
#
# Convention : Reuss Voigt Hill
#
# Bulk Modulus (GPa) = 13.79919 24.60804 19.20361
# Shear Modulus (GPa) = 10.30182 21.42123 15.86153
#
# Velocity S-wave (km/s) = 2.31556 3.33904 2.87324
# Velocity P-wave (km/s) = 3.78566 5.26056 4.58283
#
# Compressibility (1/GPa) = 0.07246805
#
# Stress axis : x y z
#
# Youngs Moduli (GPa) = 60.21767 69.18172 20.35638
#
# Poissons Ratio (x) = 0.22767 0.03902
# Poissons Ratio (y) = 0.19817 -0.02746
# Poissons Ratio (z) = 0.11544 -0.09333
#
# Static dielectric constant tensor:
#      x y z
#    x 1.633090 0.000000 -0.013670 
#    y 0.000000 1.713800 0.000000 
#    z -0.013670 0.000000 1.655830 
# 
# From -- ./inp_files/75423.got.cif
#   From: 2010.05.17/outbox.cif.g08.bks.cpg/sg12_38_cif.got.tgz:75423.got - 2010.06.03 13:09:07.
