data_PCOD9209226
_publ_section_title
;
Structure prediction by ZEFSAII (Michael W. Deem and Ramdas Pophale) SiO2 
 PCOD9209226
Probable space group: C 2/M
;
_chemical_formula_sum "Si O2"
_cell_formula_units_Z 64
_cell_length_a 20.178380
_cell_length_b 8.867093
_cell_length_c 33.415270
_cell_angle_alpha 90.000000
_cell_angle_beta 145.942851
_cell_angle_gamma 90.000000
_cell_volume 3348.233322
_symmetry_space_group_name_H-M "C 2/M"
_symmetry_group_IT_number 12
_symmetry_cell_setting 'monoclinic'
loop_
_space_group_symop_operation_xyz
x,y,z
-x,y,-z
-x,-y,-z
x,-y,z
1/2+x,1/2+y,z
1/2-x,1/2+y,-z
1/2-x,1/2-y,-z
1/2+x,1/2-y,z
loop_
_atom_site_type_symbol
_atom_site_label
_atom_site_fract_x
_atom_site_fract_y
_atom_site_fract_z
Si Si1 0.936255 0.820962 0.345099
Si Si2 0.762923 0.321254 0.962957
Si Si3 0.495306 0.675416 0.045486
Si Si4 0.825261 0.819523 0.656809
Si Si5 0.584886 0.819971 0.580071
Si Si6 0.832688 0.320472 0.575266
Si Si7 0.764310 0.319362 0.200629
Si Si8 0.401524 0.317645 0.192965
O O1 0.949263 0.768977 0.397267
O O2 0.815535 0.759761 0.265578
O O3 0.037411 0.742235 0.369329
O O4 0.945580 0.000000 0.346134
O O5 0.751881 0.500000 0.960988
O O6 0.665172 0.271217 0.881190
O O7 0.750000 0.250000 0.000000
O O8 0.890897 0.276513 0.010024
O O9 0.469760 0.500000 0.042709
O O10 0.625532 0.713061 0.126404
O O11 0.500000 0.687957 0.000000
O O12 0.720397 0.786931 0.635450
O O13 0.797658 0.736216 0.601576
O O14 0.958753 0.779929 0.736955
O O15 0.822649 0.000000 0.648145
O O16 0.500000 0.785055 0.500000
O O17 0.573977 0.000000 0.582375
O O18 0.829907 0.500000 0.571722
O O19 0.750000 0.250000 0.500000
O O20 0.780065 0.500000 0.210679
O O21 0.835036 0.257028 0.197372
O O22 0.391886 0.500000 0.192143
#
# Coordination Sequence:
#
# PCOD9209226 Si02
#       8
#     8   8   8   8   8   8   8   8
#     4  12  25  41  62  91 128 164 206 256 306 366
#     4  11  24  40  61  91 128 170 211 258 312 373
#     4  10  21  39  63  91 122 161 210 261 314 372
#     4  10  21  39  63  90 122 162 206 256 315 375
#     4  10  22  41  64  90 124 166 209 255 311 372
#     4  12  24  39  62  92 124 160 206 255 307 366
#     4  11  22  38  64  93 123 161 206 261 316 370
#     4  10  21  38  61  89 124 163 205 256 315 375
#
# _framework density 19.114557000000001
#
# number of rings (size 3 to 8) (size 9 to 14) (size 15 to 20)
#    0.000    1.250    2.500    3.750    0.000    4.500 
#    0.000    2.500    0.000    0.000    0.000    0.000 
#    0.000    0.000    0.000    0.000    0.000    0.000 
#
# Total GULP energy -178911.854383 kJ/mol
# GULP energy per Si atom -5590.995449 kJ/mol
# Density = 1.907105 g / cm^3
# Si number density = 19.114557 Si / 1000 Ang^3
#
#
#
# Elastic Constant Matrix: (Units=GPa)
#
#
# Indices 1 2 3 4 5 6 
#
# 1 39.3068 15.4120 -1.0020 0.0000 -3.2732 0.0000
# 2 15.4120 43.9504 17.5102 -0.0001 -2.1113 0.0001
# 3 -1.0020 17.5102 79.3252 0.0001 -5.8994 -0.0001
# 4 0.0000 -0.0001 0.0001 27.0836 0.0000 -6.5438
# 5 -3.2732 -2.1113 -5.8994 0.0000 29.9055 0.0000
# 6 0.0000 0.0001 -0.0001 -6.5438 0.0000 32.7923
#
#
#
# Elastic Compliance Matrix: (Units=1/GPa)
#
#
# Indices 1 2 3 4 5 6 
#
# 1 0.030409 -0.011796 0.003221 0.000000 0.003131 0.000000
# 2 -0.011796 0.029537 -0.006708 0.000000 -0.000529 0.000000
# 3 0.003221 -0.006708 0.014329 0.000000 0.002706 0.000000
# 4 0.000000 0.000000 0.000000 0.038793 0.000000 0.007741
# 5 0.003131 -0.000529 0.002706 0.000000 0.034278 0.000000
# 6 0.000000 0.000000 0.000000 0.007741 0.000000 0.032040
#
#
# Mechanical properties :
#
#
# Convention : Reuss Voigt Hill
#
# Bulk Modulus (GPa) = 22.87947 25.15809 24.01878
# Shear Modulus (GPa) = 22.26955 26.66710 24.46833
#
# Velocity S-wave (km/s) = 3.41700 3.73918 3.58171
# Velocity P-wave (km/s) = 5.25009 5.64201 5.44958
#
# Compressibility (1/GPa) = 0.04370731
#
# Stress axis : x y z
#
# Youngs Moduli (GPa) = 32.88500 33.85614 69.78850
#
# Poissons Ratio (x) = 0.39938 -0.22478
# Poissons Ratio (y) = 0.38792 0.46816
# Poissons Ratio (z) = -0.10592 0.22712
#
# Static dielectric constant tensor:
#      x y z
#    x 1.659690 0.000000 0.043160 
#    y 0.000000 1.639690 0.000000 
#    z 0.043160 0.000000 1.716890 
# 
# From -- ./inp_files/378526.got.cif
#   From: 2010.05.17/outbox.cif.g08.bks.cpg/sg12_190_cif.got.tgz:378526.got - 2010.06.03 13:09:07.
