data_PCOD9209647
_publ_section_title
;
Structure prediction by ZEFSAII (Michael W. Deem and Ramdas Pophale) SiO2 
 PCOD9209647
Probable space group: C 2/M
;
_chemical_formula_sum "Si O2"
_cell_formula_units_Z 56
_cell_length_a 28.070439
_cell_length_b 13.916556
_cell_length_c 11.062121
_cell_angle_alpha 90.000000
_cell_angle_beta 141.504569
_cell_angle_gamma 90.000000
_cell_volume 2689.833545
_symmetry_space_group_name_H-M "C 2/M"
_symmetry_group_IT_number 12
_symmetry_cell_setting 'monoclinic'
loop_
_space_group_symop_operation_xyz
x,y,z
-x,y,-z
-x,-y,-z
x,-y,z
1/2+x,1/2+y,z
1/2-x,1/2+y,-z
1/2-x,1/2-y,-z
1/2+x,1/2-y,z
loop_
_atom_site_type_symbol
_atom_site_label
_atom_site_fract_x
_atom_site_fract_y
_atom_site_fract_z
Si Si1 0.546302 0.738158 0.204831
Si Si2 0.370545 0.112155 0.999203
Si Si3 0.946841 0.606659 0.601494
Si Si4 0.827613 0.109282 0.133349
Si Si5 0.335929 0.822363 0.195260
Si Si6 0.327574 0.727646 0.721322
Si Si7 0.914876 0.890695 0.063553
O O1 0.583495 0.815630 0.365302
O O2 0.614181 0.689420 0.266436
O O3 0.500000 0.784809 0.000000
O O4 0.486393 0.673702 0.160937
O O5 0.351710 0.175888 0.844191
O O6 0.348081 0.000000 0.943457
O O7 0.461663 0.114709 0.205846
O O8 0.334622 0.159635 0.048217
O O9 0.924693 0.500000 0.593083
O O10 0.910631 0.629517 0.400397
O O11 0.837790 0.208404 0.228217
O O12 0.830571 0.000000 0.190797
O O13 0.741389 0.126599 0.911510
O O14 0.893208 0.115055 0.161294
O O15 0.250000 0.750000 0.500000
O O16 0.338685 0.646916 0.845030
O O17 0.931586 0.000000 0.065480
#
# Coordination Sequence:
#
# PCOD9209647 Si02
#       7
#     8   8   8   8   8   8   8
#     4  10  21  41  61  88 125 168 212 265 320 379
#     4  11  22  40  61  89 129 169 209 265 329 391
#     4  11  22  36  62  94 124 168 216 260 324 393
#     4  10  21  38  63  93 127 171 214 266 327 379
#     4  11  22  38  63  94 135 167 213 269 326 395
#     4  11  24  40  63  93 125 164 215 269 331 382
#     4  10  21  42  66  89 123 171 220 264 319 390
#
# _framework density 20.819132
#
# number of rings (size 3 to 8) (size 9 to 14) (size 15 to 20)
#    0.000    1.429    4.286    1.714    2.000    5.143 
#    0.000    0.714    0.000    2.571    0.000    0.000 
#    0.000    0.000    0.000    0.000    0.000    0.000 
#
# Total GULP energy -155984.825646 kJ/mol
# GULP energy per Si atom -5570.886630 kJ/mol
# Density = 2.077175 g / cm^3
# Si number density = 20.819132 Si / 1000 Ang^3
#
#
#
# Elastic Constant Matrix: (Units=GPa)
#
#
# Indices 1 2 3 4 5 6 
#
# 1 57.2898 9.7857 3.5636 0.0000 2.5675 0.0000
# 2 9.7857 141.8895 13.5206 0.0000 -7.6971 0.0000
# 3 3.5636 13.5206 77.9898 0.0000 5.3666 0.0000
# 4 0.0000 0.0000 0.0000 14.0969 0.0000 -2.0398
# 5 2.5675 -7.6971 5.3666 0.0000 12.8277 0.0000
# 6 0.0000 0.0000 0.0000 -2.0398 0.0000 8.9590
#
#
#
# Elastic Compliance Matrix: (Units=1/GPa)
#
#
# Indices 1 2 3 4 5 6 
#
# 1 0.017913 -0.001445 -0.000269 0.000000 -0.004340 0.000000
# 2 -0.001445 0.007603 -0.001633 0.000000 0.005535 0.000000
# 3 -0.000269 -0.001633 0.013572 0.000000 -0.006604 0.000000
# 4 0.000000 0.000000 0.000000 0.073354 0.000000 0.016701
# 5 -0.004340 0.005535 -0.006604 0.000000 0.084909 0.000000
# 6 0.000000 0.000000 0.000000 0.016701 0.000000 0.115423
#
#
# Mechanical properties :
#
#
# Convention : Reuss Voigt Hill
#
# Bulk Modulus (GPa) = 30.87033 36.76766 33.81900
# Shear Modulus (GPa) = 15.13927 23.86331 19.50129
#
# Velocity S-wave (km/s) = 2.69955 3.38926 3.06388
# Velocity P-wave (km/s) = 4.95750 5.74587 5.36618
#
# Compressibility (1/GPa) = 0.03239356
#
# Stress axis : x y z
#
# Youngs Moduli (GPa) = 55.82466 131.52274 73.68104
#
# Poissons Ratio (x) = 0.19007 0.01985
# Poissons Ratio (y) = 0.08068 0.12032
# Poissons Ratio (z) = 0.01504 0.21477
#
# Static dielectric constant tensor:
#      x y z
#    x 1.811640 0.000000 0.014100 
#    y 0.000000 1.770950 0.000000 
#    z 0.014100 0.000000 1.770900 
# 
# From -- ./inp_files/183563.got.cif
#   From: 2010.05.17/outbox.cif.g08.bks.cpg/sg12_92_cif.got.tgz:183563.got - 2010.06.03 13:09:07.
