data_PCOD9209464
_publ_section_title
;
Structure prediction by ZEFSAII (Michael W. Deem and Ramdas Pophale) SiO2 
 PCOD9209464
Probable space group: C 2/M
;
_chemical_formula_sum "Si O2"
_cell_formula_units_Z 64
_cell_length_a 8.900298
_cell_length_b 17.212943
_cell_length_c 26.983006
_cell_angle_alpha 90.000000
_cell_angle_beta 40.105870
_cell_angle_gamma 90.000000
_cell_volume 2663.005557
_symmetry_space_group_name_H-M "C 2/M"
_symmetry_group_IT_number 12
_symmetry_cell_setting 'monoclinic'
loop_
_space_group_symop_operation_xyz
x,y,z
-x,y,-z
-x,-y,-z
x,-y,z
1/2+x,1/2+y,z
1/2-x,1/2+y,-z
1/2-x,1/2-y,-z
1/2+x,1/2-y,z
loop_
_atom_site_type_symbol
_atom_site_label
_atom_site_fract_x
_atom_site_fract_y
_atom_site_fract_z
Si Si1 0.982641 0.083665 0.368594
Si Si2 0.663701 0.083693 0.547185
Si Si3 0.761817 0.275589 0.152543
Si Si4 0.661717 0.211112 0.410095
Si Si5 0.754725 0.085624 0.960008
Si Si6 0.358409 0.641984 0.206693
Si Si7 0.346302 0.119664 0.345289
Si Si8 0.762636 0.181330 0.048625
O O1 0.839280 0.087683 0.456713
O O2 0.881848 0.156098 0.365282
O O3 0.248612 0.087638 0.318607
O O4 0.937948 0.000000 0.356451
O O5 0.505077 0.160474 0.582908
O O6 0.762072 0.084940 0.577425
O O7 0.542140 0.000000 0.570755
O O8 0.514283 0.318084 0.209999
O O9 0.765994 0.204712 0.189604
O O10 0.796942 0.242131 0.086610
O O11 0.978684 0.327708 0.118551
O O12 0.500000 0.223759 0.500000
O O13 0.758543 0.291737 0.366898
O O14 0.956758 0.088838 0.868455
O O15 0.766024 0.000000 0.982810
O O16 0.500000 0.088870 0.000000
O O17 0.782806 0.166468 0.983671
O O18 0.119222 0.604261 0.283434
O O19 0.000000 0.130877 0.000000
#
# Coordination Sequence:
#
# PCOD9209464 Si02
#       8
#     8   8   8   8   8   8   8   8
#     4  10  21  39  63  89 121 162 209 256 309 371
#     4  10  21  39  63  90 120 164 211 250 306 381
#     4  10  23  38  62  92 120 150 201 246 304 367
#     4  10  21  38  62  91 124 158 203 264 315 355
#     4  11  24  42  63  89 122 161 204 250 301 359
#     4  11  25  40  61  87 124 164 196 247 306 372
#     4  12  24  36  61  91 126 162 206 259 310 360
#     4  11  20  36  67  94 115 148 194 254 300 355
#
# _framework density 24.032996000000001
#
# number of rings (size 3 to 8) (size 9 to 14) (size 15 to 20)
#    0.000    1.375    2.500    3.000    5.250    5.750 
#    0.000    0.000    0.000    0.000    0.000    0.000 
#    0.000    0.000    0.000    0.000    0.000    0.000 
#
# Total GULP energy -178143.055629 kJ/mol
# GULP energy per Si atom -5566.970488 kJ/mol
# Density = 2.397830 g / cm^3
# Si number density = 24.032996 Si / 1000 Ang^3
#
#
#
# Elastic Constant Matrix: (Units=GPa)
#
#
# Indices 1 2 3 4 5 6 
#
# 1 122.7445 22.7531 13.4131 -0.0050 -33.6011 0.0095
# 2 22.7531 108.5352 9.3075 0.0019 -14.5240 0.0054
# 3 13.4131 9.3075 80.0247 -0.0099 -26.2965 0.0118
# 4 -0.0050 0.0019 -0.0099 4.7099 0.0059 -21.7109
# 5 -33.6011 -14.5240 -26.2965 0.0059 42.8969 -0.0066
# 6 0.0095 0.0054 0.0118 -21.7109 -0.0066 109.0386
#
#
#
# Elastic Compliance Matrix: (Units=1/GPa)
#
#
# Indices 1 2 3 4 5 6 
#
# 1 0.010598 -0.001168 0.001199 0.000015 0.008641 0.000003
# 2 -0.001168 0.009780 -0.000193 -0.000115 0.002278 -0.000023
# 3 0.001199 -0.000193 0.015784 0.000193 0.010550 0.000037
# 4 0.000015 -0.000115 0.000193 2.583735 -0.000186 0.514452
# 5 0.008641 0.002278 0.010550 -0.000186 0.037318 -0.000037
# 6 0.000003 -0.000023 0.000037 0.514452 -0.000037 0.111604
#
#
# Mechanical properties :
#
#
# Convention : Reuss Voigt Hill
#
# Bulk Modulus (GPa) = 27.90398 44.69463 36.29930
# Shear Modulus (GPa) = 1.79786 49.05113 25.42449
#
# Velocity S-wave (km/s) = 0.86585 4.52263 3.25607
# Velocity P-wave (km/s) = 3.55465 6.77568 5.41042
#
# Compressibility (1/GPa) = 0.03583718
#
# Stress axis : x y z
#
# Youngs Moduli (GPa) = 94.35797 102.25065 63.35377
#
# Poissons Ratio (x) = 0.11945 -0.07596
# Poissons Ratio (y) = 0.11023 0.01224
# Poissons Ratio (z) = -0.11313 0.01975
#
# Static dielectric constant tensor:
#      x y z
#    x 1.938220 0.000000 -0.007630 
#    y 0.000000 2.017360 0.000010 
#    z -0.007630 0.000010 2.001060 
# 
# From -- ./inp_files/372883.got.cif
#   From: 2010.05.17/outbox.cif.g08.bks.cpg/sg12_187_cif.got.tgz:372883.got - 2010.06.03 13:09:07.
