data_PCOD9209156
_publ_section_title
;
Structure prediction by ZEFSAII (Michael W. Deem and Ramdas Pophale) SiO2 
 PCOD9209156
Probable space group: C 2/M
;
_chemical_formula_sum "Si O2"
_cell_formula_units_Z 64
_cell_length_a 24.507304
_cell_length_b 8.378874
_cell_length_c 29.523529
_cell_angle_alpha 90.000000
_cell_angle_beta 30.892137
_cell_angle_gamma 90.000000
_cell_volume 3112.613529
_symmetry_space_group_name_H-M "C 2/M"
_symmetry_group_IT_number 12
_symmetry_cell_setting 'monoclinic'
loop_
_space_group_symop_operation_xyz
x,y,z
-x,y,-z
-x,-y,-z
x,-y,z
1/2+x,1/2+y,z
1/2-x,1/2+y,-z
1/2-x,1/2-y,-z
1/2+x,1/2-y,z
loop_
_atom_site_type_symbol
_atom_site_label
_atom_site_fract_x
_atom_site_fract_y
_atom_site_fract_z
Si Si1 0.782700 0.813207 0.176784
Si Si2 0.128028 0.313221 0.972959
Si Si3 0.018197 0.806648 0.721270
Si Si4 0.303431 0.190617 0.915545
Si Si5 0.448809 0.687896 0.671428
Si Si6 0.697753 0.694590 0.658276
Si Si7 0.439063 0.808301 0.498335
Si Si8 0.916974 0.192280 0.168187
O O1 0.868767 0.780979 0.076462
O O2 0.677195 0.717051 0.239946
O O3 0.831283 0.768470 0.190459
O O4 0.755224 0.000000 0.197231
O O5 0.128053 0.500000 0.963197
O O6 0.232933 0.264181 0.925628
O O7 0.027684 0.268799 0.075067
O O8 0.923775 0.746338 0.821162
O O9 0.995160 0.751639 0.686404
O O10 0.131844 0.756830 0.660769
O O11 0.013287 0.000000 0.724933
O O12 0.298129 0.000000 0.917659
O O13 0.250000 0.250000 0.000000
O O14 0.470878 0.500000 0.653033
O O15 0.497819 0.769195 0.592290
O O16 0.701538 0.500000 0.655397
O O17 0.818213 0.752105 0.578569
O O18 0.628195 0.742165 0.751310
O O19 0.500000 0.748043 0.500000
O O20 0.432889 0.000000 0.507416
O O21 0.930666 0.000000 0.158622
#
# Coordination Sequence:
#
# PCOD9209156 Si02
#       8
#     8   8   8   8   8   8   8   8
#     4  11  22  38  61  88 120 162 211 258 306 369
#     4  12  24  38  57  87 124 162 205 253 312 374
#     4  10  21  39  61  87 122 162 206 253 310 373
#     4  12  24  39  61  87 120 164 213 261 310 366
#     4  11  23  38  60  90 125 162 203 257 317 375
#     4   9  19  38  63  88 117 156 202 255 306 360
#     4  10  21  40  66  93 120 157 207 256 307 374
#     4  10  21  38  61  88 118 158 209 260 313 368
#
# _framework density 20.561499000000001
#
# number of rings (size 3 to 8) (size 9 to 14) (size 15 to 20)
#    0.000    1.375    1.250    4.875    0.000    6.750 
#    0.000    1.250    0.000    0.000    0.000    0.000 
#    0.000    0.000    0.000    0.000    0.000    0.000 
#
# Total GULP energy -178912.269467 kJ/mol
# GULP energy per Si atom -5591.008421 kJ/mol
# Density = 2.051470 g / cm^3
# Si number density = 20.561499 Si / 1000 Ang^3
#
#
#
# Elastic Constant Matrix: (Units=GPa)
#
#
# Indices 1 2 3 4 5 6 
#
# 1 77.3840 27.5474 56.5722 -0.0036 -20.4330 0.0109
# 2 27.5474 -4.7205 -8.1996 -0.0057 -2.3270 0.0147
# 3 56.5722 -8.1996 101.6575 0.0004 -3.4722 0.0080
# 4 -0.0036 -0.0057 0.0004 27.3598 0.0014 -3.3127
# 5 -20.4330 -2.3270 -3.4722 0.0014 31.4339 -0.0063
# 6 0.0109 0.0147 0.0080 -3.3127 -0.0063 11.0786
#
#
#
# Elastic Compliance Matrix: (Units=1/GPa)
#
#
# Indices 1 2 3 4 5 6 
#
# 1 0.004953 0.027045 -0.000398 0.000002 0.005178 -0.000037
# 2 0.027045 -0.030939 -0.017088 0.000001 0.013402 0.000035
# 3 -0.000398 -0.017088 0.008661 -0.000002 -0.000567 0.000016
# 4 0.000002 0.000001 -0.000002 0.037923 0.000001 0.011340
# 5 0.005178 0.013402 -0.000567 0.000001 0.036108 -0.000001
# 6 -0.000037 0.000035 0.000016 0.011340 -0.000001 0.093655
#
#
# Mechanical properties :
#
#
# Convention : Reuss Voigt Hill
#
# Bulk Modulus (GPa) = 557.95533 36.24012 297.09772
# Shear Modulus (GPa) = 37.92453 20.53454 29.22954
#
# Velocity S-wave (km/s) = 4.29936 3.16363 3.77446
# Velocity P-wave (km/s) = 17.22191 5.56851 12.79849
#
# Compressibility (1/GPa) = 0.00179226
#
# Stress axis : x y z
#
# Youngs Moduli (GPa) = 201.88704 -32.32157 115.46202
#
# Poissons Ratio (x) = 0.87414 0.04598
# Poissons Ratio (y) = -5.46006 1.97305
# Poissons Ratio (z) = 0.08039 -0.55232
#
# Static dielectric constant tensor:
#      x y z
#    x 1.740150 0.000000 -0.004330 
#    y 0.000000 1.710110 0.000010 
#    z -0.004330 0.000010 1.708130 
# 
# From -- ./inp_files/238616.got.cif
#   From: 2010.05.17/outbox.cif.g08.bks.cpg/sg12_120_cif.got.tgz:238616.got - 2010.06.03 13:09:07.
