data_PCOD9209566
_publ_section_title
;
Structure prediction by ZEFSAII (Michael W. Deem and Ramdas Pophale) SiO2 
 PCOD9209566
Probable space group: C 2/M
;
_chemical_formula_sum "Si O2"
_cell_formula_units_Z 46
_cell_length_a 14.745093
_cell_length_b 30.662818
_cell_length_c 14.285336
_cell_angle_alpha 90.000000
_cell_angle_beta 20.547342
_cell_angle_gamma 90.000000
_cell_volume 2266.908062
_symmetry_space_group_name_H-M "C 2/M"
_symmetry_group_IT_number 12
_symmetry_cell_setting 'monoclinic'
loop_
_space_group_symop_operation_xyz
x,y,z
-x,y,-z
-x,-y,-z
x,-y,z
1/2+x,1/2+y,z
1/2-x,1/2+y,-z
1/2-x,1/2-y,-z
1/2+x,1/2-y,z
loop_
_atom_site_type_symbol
_atom_site_label
_atom_site_fract_x
_atom_site_fract_y
_atom_site_fract_z
Si Si1 0.000000 0.846584 0.500000
Si Si2 0.541732 0.285076 0.296299
Si Si3 0.324628 0.074789 0.259250
Si Si4 0.452263 0.552046 0.156006
Si Si5 0.472214 0.908566 0.729275
Si Si6 0.000000 0.000000 0.500000
Si Si7 0.990825 0.306565 0.293461
O O1 0.885051 0.814709 0.687543
O O2 0.793529 0.878548 0.652599
O O3 0.504536 0.233652 0.353444
O O4 0.271546 0.300262 0.511915
O O5 0.764976 0.295433 0.006974
O O6 0.461262 0.079534 0.226967
O O7 0.500000 0.060734 0.000000
O O8 0.102674 0.038435 0.473177
O O9 0.465992 0.500000 0.154567
O O10 0.180409 0.568624 0.459858
O O11 0.500000 0.561612 0.000000
O O12 0.685354 0.574932 0.985615
O O13 0.491662 0.856595 0.693824
#
# Coordination Sequence:
#
# PCOD9209566 Si02
#       7
#     4   8   8   8   8   2   8
#     4  11  22  39  60  92 132 180 217 258 319 402
#     4  10  21  38  63  87 131 172 217 265 317 383
#     4  11  25  39  63  96 141 178 222 266 321 408
#     4  11  27  49  71  97 127 169 229 289 340 406
#     4  12  24  42  76  97 133 177 221 276 350 394
#     4  10  26  40  56  94 150 166 230 264 320 384
#     4  10  21  40  62  94 125 167 220 272 319 388
#
# _framework density 20.291957
#
# number of rings (size 3 to 8) (size 9 to 14) (size 15 to 20)
#    0.000    1.217    1.739    3.391    7.304    1.391 
#    3.130    0.000    0.000    0.000    0.000    0.000 
#    0.000    0.000    0.000    0.000    0.000    0.000 
#
# Total GULP energy -128202.272343 kJ/mol
# GULP energy per Si atom -5574.011841 kJ/mol
# Density = 2.024577 g / cm^3
# Si number density = 20.291957 Si / 1000 Ang^3
#
#
#
# Elastic Constant Matrix: (Units=GPa)
#
#
# Indices 1 2 3 4 5 6 
#
# 1 53.4100 29.9439 -16.5506 -0.0351 -2.3421 0.0225
# 2 29.9439 144.8468 -8.8229 0.0007 -2.3532 -0.0238
# 3 -16.5506 -8.8229 65.6761 -0.0089 -1.9946 0.0035
# 4 -0.0351 0.0007 -0.0089 23.3831 0.0106 13.0137
# 5 -2.3421 -2.3532 -1.9946 0.0106 29.0916 -0.0234
# 6 0.0225 -0.0238 0.0035 13.0137 -0.0234 7.8906
#
#
#
# Elastic Compliance Matrix: (Units=1/GPa)
#
#
# Indices 1 2 3 4 5 6 
#
# 1 0.022884 -0.004382 0.005234 0.000945 0.001845 -0.001634
# 2 -0.004382 0.007812 -0.000047 -0.000335 0.000276 0.000589
# 3 0.005234 -0.000047 0.016586 0.000285 0.001554 -0.000489
# 4 0.000945 -0.000335 0.000285 0.520881 -0.000811 -0.859078
# 5 0.001845 0.000276 0.001554 -0.000811 0.034653 0.001435
# 6 -0.001634 0.000589 -0.000489 -0.859078 0.001435 1.543594
#
#
# Mechanical properties :
#
#
# Convention : Reuss Voigt Hill
#
# Bulk Modulus (GPa) = 20.45276 30.34152 25.39714
# Shear Modulus (GPa) = 2.31364 29.36389 15.83877
#
# Velocity S-wave (km/s) = 1.06895 3.80817 2.79685
# Velocity P-wave (km/s) = 3.40950 5.85842 4.79300
#
# Compressibility (1/GPa) = 0.04889316
#
# Stress axis : x y z
#
# Youngs Moduli (GPa) = 43.69828 128.01594 60.29058
#
# Poissons Ratio (x) = 0.56100 -0.31559
# Poissons Ratio (y) = 0.19150 0.00281
# Poissons Ratio (z) = -0.22874 0.00597
#
# Static dielectric constant tensor:
#      x y z
#    x 1.741820 0.000010 0.027880 
#    y 0.000010 1.729440 0.000040 
#    z 0.027880 0.000040 1.755770 
# 
# From -- ./inp_files/219573.got.cif
#   From: 2010.05.17/outbox.cif.g08.bks.cpg/sg12_110_cif.got.tgz:219573.got - 2010.06.03 13:09:07.
