data_PCOD9209913
_publ_section_title
;
Structure prediction by ZEFSAII (Michael W. Deem and Ramdas Pophale) SiO2 
 PCOD9209913
Probable space group: C 2/M
;
_chemical_formula_sum "Si O2"
_cell_formula_units_Z 34
_cell_length_a 20.498103
_cell_length_b 7.712239
_cell_length_c 19.580163
_cell_angle_alpha 90.000000
_cell_angle_beta 148.985816
_cell_angle_gamma 90.000000
_cell_volume 1594.882420
_symmetry_space_group_name_H-M "C 2/M"
_symmetry_group_IT_number 12
_symmetry_cell_setting 'monoclinic'
loop_
_space_group_symop_operation_xyz
x,y,z
-x,y,-z
-x,-y,-z
x,-y,z
1/2+x,1/2+y,z
1/2-x,1/2+y,-z
1/2-x,1/2-y,-z
1/2+x,1/2-y,z
loop_
_atom_site_type_symbol
_atom_site_label
_atom_site_fract_x
_atom_site_fract_y
_atom_site_fract_z
Si Si1 0.615417 0.791628 0.413358
Si Si2 0.469686 0.706588 0.897528
Si Si3 0.895152 0.701399 0.119463
Si Si4 0.000000 0.000000 0.500000
Si Si5 0.328693 0.792136 0.383751
O O1 0.750000 0.750000 0.500000
O O2 0.499666 0.718017 0.264733
O O3 0.617636 0.734881 0.493927
O O4 0.608734 0.000000 0.410206
O O5 0.490395 0.500000 0.918003
O O6 0.556496 0.771912 0.914072
O O7 0.322068 0.734530 0.749196
O O8 0.500000 0.776738 0.000000
O O9 0.900699 0.500000 0.139375
O O10 0.750000 0.750000 0.000000
O O11 0.106349 0.156552 0.608258
O O12 0.350672 0.000000 0.391257
#
# Coordination Sequence:
#
# PCOD9209913 Si02
#       5
#     8   8   8   2   8
#     4  10  21  38  67  93 123 166 216 271 329 394
#     4  10  22  42  67  92 129 176 216 265 339 405
#     4  11  24  41  64  97 131 166 222 275 327 393
#     4  12  26  40  66  98 136 168 232 268 314 416
#     4  10  23  44  66  96 133 174 217 277 333 384
#
# _framework density 21.318185
#
# number of rings (size 3 to 8) (size 9 to 14) (size 15 to 20)
#    0.000    1.647    2.353    1.059    3.294    3.294 
#    4.235    7.059    0.000    0.000    0.000    0.000 
#    0.000    0.000    0.000    0.000    0.000    0.000 
#
# Total GULP energy -94646.330118 kJ/mol
# GULP energy per Si atom -5567.431183 kJ/mol
# Density = 2.126966 g / cm^3
# Si number density = 21.318185 Si / 1000 Ang^3
#
#
#
# Elastic Constant Matrix: (Units=GPa)
#
#
# Indices 1 2 3 4 5 6 
#
# 1 85.2184 24.3699 72.4715 0.0000 19.0205 0.0000
# 2 24.3699 69.9920 23.1870 0.0000 12.4028 0.0000
# 3 72.4715 23.1870 161.1053 0.0000 2.1129 0.0000
# 4 0.0000 0.0000 0.0000 17.2463 0.0000 14.4741
# 5 19.0205 12.4028 2.1129 0.0000 41.9868 0.0000
# 6 0.0000 0.0000 0.0000 14.4741 0.0000 28.2638
#
#
#
# Elastic Compliance Matrix: (Units=1/GPa)
#
#
# Indices 1 2 3 4 5 6 
#
# 1 0.022920 -0.003167 -0.009737 0.000000 -0.008957 0.000000
# 2 -0.003167 0.016269 -0.000873 0.000000 -0.003327 0.000000
# 3 -0.009737 -0.000873 0.010659 0.000000 0.004133 0.000000
# 4 0.000000 0.000000 0.000000 0.101688 0.000000 -0.052075
# 5 -0.008957 -0.003327 0.004133 0.000000 0.028650 0.000000
# 6 0.000000 0.000000 0.000000 -0.052075 0.000000 0.062049
#
#
# Mechanical properties :
#
#
# Convention : Reuss Voigt Hill
#
# Bulk Modulus (GPa) = 44.85746 61.81916 53.33831
# Shear Modulus (GPa) = 18.03623 30.58521 24.31072
#
# Velocity S-wave (km/s) = 2.91185 3.79185 3.38061
# Velocity P-wave (km/s) = 5.69146 6.94494 6.34921
#
# Compressibility (1/GPa) = 0.02229284
#
# Stress axis : x y z
#
# Youngs Moduli (GPa) = 43.62954 61.46672 93.82013
#
# Poissons Ratio (x) = 0.19469 0.91353
# Poissons Ratio (y) = 0.13819 0.08191
# Poissons Ratio (z) = 0.42482 0.05366
#
# Static dielectric constant tensor:
#      x y z
#    x 1.846300 0.000000 -0.013520 
#    y 0.000000 1.803250 0.000000 
#    z -0.013520 0.000000 1.778350 
# 
# From -- ./inp_files/282348.got.cif
#   From: 2010.05.17/outbox.cif.g08.bks.cpg/sg12_142_cif.got.tgz:282348.got - 2010.06.03 13:09:07.
