data_PCOD9209537
_publ_section_title
;
Structure prediction by ZEFSAII (Michael W. Deem and Ramdas Pophale) SiO2 
 PCOD9209537
Probable space group: C 2/M
;
_chemical_formula_sum "Si O2"
_cell_formula_units_Z 60
_cell_length_a 24.937961
_cell_length_b 9.415377
_cell_length_c 22.358788
_cell_angle_alpha 90.000000
_cell_angle_beta 36.404242
_cell_angle_gamma 90.000000
_cell_volume 3115.673117
_symmetry_space_group_name_H-M "C 2/M"
_symmetry_group_IT_number 12
_symmetry_cell_setting 'monoclinic'
loop_
_space_group_symop_operation_xyz
x,y,z
-x,y,-z
-x,-y,-z
x,-y,z
1/2+x,1/2+y,z
1/2-x,1/2+y,-z
1/2-x,1/2-y,-z
1/2+x,1/2-y,z
loop_
_atom_site_type_symbol
_atom_site_label
_atom_site_fract_x
_atom_site_fract_y
_atom_site_fract_z
Si Si1 0.367103 0.169669 0.269862
Si Si2 0.344472 0.271635 0.845260
Si Si3 0.261160 0.500000 0.010555
Si Si4 0.400432 0.663492 0.562790
Si Si5 0.684367 0.830819 0.465997
Si Si6 0.754837 0.839051 0.799448
Si Si7 0.099714 0.166759 0.883183
Si Si8 0.038400 0.331410 0.694318
O O1 0.275817 0.242270 0.375916
O O2 0.391203 0.243368 0.185762
O O3 0.443086 0.193362 0.252200
O O4 0.354541 0.000000 0.273787
O O5 0.305111 0.321786 0.817122
O O6 0.452371 0.252634 0.747794
O O7 0.297967 0.123258 0.902546
O O8 0.316204 0.378351 0.922734
O O9 0.500000 0.681411 0.500000
O O10 0.393038 0.500000 0.546671
O O11 0.378754 0.776702 0.531362
O O12 0.326658 0.679364 0.681485
O O13 0.629231 0.798926 0.575857
O O14 0.701354 0.000000 0.447397
O O15 0.674239 0.728464 0.861702
O O16 0.718209 0.000000 0.828487
O O17 0.116457 0.000000 0.856372
O O18 0.000000 0.181633 0.000000
O O19 0.021943 0.500000 0.701142
#
# Coordination Sequence:
#
# PCOD9209537 Si02
#       8
#     8   8   4   8   8   8   8   8
#     4  11  23  44  67  94 131 174 221 267 323 389
#     4  11  22  46  64  99 129 168 220 270 328 389
#     4  10  24  40  68  88 132 170 210 272 330 374
#     4  10  21  38  62  94 130 171 215 261 317 385
#     4  11  22  40  64  94 133 170 214 267 330 386
#     4  11  23  41  67  95 132 174 214 264 324 393
#     4  11  26  46  66  98 132 170 220 275 328 383
#     4  10  23  42  67  96 131 173 219 266 326 396
#
# _framework density 19.257474999999999
#
# number of rings (size 3 to 8) (size 9 to 14) (size 15 to 20)
#    0.000    1.333    2.667    2.400    0.933    3.467 
#    7.200    0.000    0.000    0.000    0.000    0.000 
#    0.000    0.000    0.000    0.000    0.000    0.000 
#
# Total GULP energy -167087.826250 kJ/mol
# GULP energy per Si atom -5569.594208 kJ/mol
# Density = 1.921364 g / cm^3
# Si number density = 19.257475 Si / 1000 Ang^3
#
#
#
# Elastic Constant Matrix: (Units=GPa)
#
#
# Indices 1 2 3 4 5 6 
#
# 1 75.8808 31.5963 36.5826 -0.0001 -14.5380 -0.0001
# 2 31.5963 110.7975 40.2867 -0.0011 -5.9055 0.0006
# 3 36.5826 40.2867 69.8486 -0.0003 0.4018 0.0004
# 4 -0.0001 -0.0011 -0.0003 14.2803 0.0001 -15.1884
# 5 -14.5380 -5.9055 0.4018 0.0001 16.5129 -0.0002
# 6 -0.0001 0.0006 0.0004 -15.1884 -0.0002 -6.5417
#
#
#
# Elastic Compliance Matrix: (Units=1/GPa)
#
#
# Indices 1 2 3 4 5 6 
#
# 1 0.023120 -0.001359 -0.011441 -0.000001 0.020147 0.000000
# 2 -0.001359 0.011806 -0.006116 0.000000 0.003174 0.000000
# 3 -0.011441 -0.006116 0.023910 0.000000 -0.012842 0.000000
# 4 -0.000001 0.000000 0.000000 0.020184 -0.000001 -0.046863
# 5 0.020147 0.003174 -0.012842 -0.000001 0.079744 -0.000001
# 6 0.000000 0.000000 0.000000 -0.046863 -0.000001 -0.044061
#
#
# Mechanical properties :
#
#
# Convention : Reuss Voigt Hill
#
# Bulk Modulus (GPa) = 47.60906 52.60643 50.10775
# Shear Modulus (GPa) = 31.34065 14.72106 23.03085
#
# Velocity S-wave (km/s) = 4.03855 2.76784 3.46199
# Velocity P-wave (km/s) = 6.82074 6.13117 6.48513
#
# Compressibility (1/GPa) = 0.02100441
#
# Stress axis : x y z
#
# Youngs Moduli (GPa) = 43.25177 84.70263 41.82355
#
# Poissons Ratio (x) = 0.11515 0.47850
# Poissons Ratio (y) = 0.05880 0.25578
# Poissons Ratio (z) = 0.49484 0.51801
#
# Static dielectric constant tensor:
#      x y z
#    x 1.672840 0.000000 -0.001110 
#    y 0.000000 1.651280 0.000000 
#    z -0.001110 0.000000 1.646800 
# 
# From -- ./inp_files/324575.got.cif
#   From: 2010.05.17/outbox.cif.g08.bks.cpg/sg12_163_cif.got.tgz:324575.got - 2010.06.03 13:09:07.
