data_PCOD9209351
_publ_section_title
;
Structure prediction by ZEFSAII (Michael W. Deem and Ramdas Pophale) SiO2 
 PCOD9209351
Probable space group: C 2/M
;
_chemical_formula_sum "Si O2"
_cell_formula_units_Z 40
_cell_length_a 16.521912
_cell_length_b 19.088095
_cell_length_c 9.987985
_cell_angle_alpha 90.000000
_cell_angle_beta 33.937273
_cell_angle_gamma 90.000000
_cell_volume 1758.557973
_symmetry_space_group_name_H-M "C 2/M"
_symmetry_group_IT_number 12
_symmetry_cell_setting 'monoclinic'
loop_
_space_group_symop_operation_xyz
x,y,z
-x,y,-z
-x,-y,-z
x,-y,z
1/2+x,1/2+y,z
1/2-x,1/2+y,-z
1/2-x,1/2-y,-z
1/2+x,1/2-y,z
loop_
_atom_site_type_symbol
_atom_site_label
_atom_site_fract_x
_atom_site_fract_y
_atom_site_fract_z
Si Si1 0.067780 0.699751 0.617975
Si Si2 0.964144 0.422588 0.894537
Si Si3 0.503145 0.651378 0.835753
Si Si4 0.789001 0.690387 0.841316
Si Si5 0.362295 0.584355 0.599484
O O1 0.032691 0.766442 0.758010
O O2 0.937238 0.668197 0.706151
O O3 0.182910 0.720198 0.346895
O O4 0.088309 0.631195 0.676626
O O5 0.969477 0.500000 0.822653
O O6 0.796106 0.395130 0.125632
O O7 0.000000 0.430898 0.000000
O O8 0.609039 0.609552 0.591579
O O9 0.500000 0.640135 0.000000
O O10 0.341153 0.637116 0.001132
O O11 0.750000 0.750000 0.000000
O O12 0.500000 0.610713 0.500000
O O13 0.363771 0.500000 0.600051
#
# Coordination Sequence:
#
# PCOD9209351 Si02
#       5
#     8   8   8   8   8
#     4  10  21  38  62  86 122 162 206 251 304 372
#     4  10  22  40  63  89 122 164 206 253 308 365
#     4  11  24  35  60  95 123 156 201 262 314 361
#     4   9  21  38  56  88 121 164 197 247 314 363
#     4  10  23  42  65  89 122 170 210 247 305 379
#
# _framework density 22.745909000000001
#
# number of rings (size 3 to 8) (size 9 to 14) (size 15 to 20)
#    0.000    2.000    0.000    1.800   14.000    1.200 
#    0.000    3.000    0.000    0.000    0.000    0.000 
#    0.000    0.000    0.000    0.000    0.000    0.000 
#
# Total GULP energy -111370.981607 kJ/mol
# GULP energy per Si atom -5568.549080 kJ/mol
# Density = 2.269414 g / cm^3
# Si number density = 22.745909 Si / 1000 Ang^3
#
#
#
# Elastic Constant Matrix: (Units=GPa)
#
#
# Indices 1 2 3 4 5 6 
#
# 1 86.2422 -5.5907 22.8063 -0.0005 1.0353 -0.0014
# 2 -5.5907 49.8800 27.0695 0.0000 16.6110 -0.0003
# 3 22.8063 27.0695 127.6118 0.0002 34.6498 -0.0002
# 4 -0.0005 0.0000 0.0002 -53.5926 0.0001 -77.2219
# 5 1.0353 16.6110 34.6498 0.0001 41.5218 0.0006
# 6 -0.0014 -0.0003 -0.0002 -77.2219 0.0006 -67.1148
#
#
#
# Elastic Compliance Matrix: (Units=1/GPa)
#
#
# Indices 1 2 3 4 5 6 
#
# 1 0.012593 0.002715 -0.003163 0.000000 0.001239 0.000000
# 2 0.002715 0.024701 -0.003909 0.000000 -0.006687 0.000000
# 3 -0.003163 -0.003909 0.011358 0.000000 -0.007836 0.000000
# 4 0.000000 0.000000 0.000000 0.028362 0.000001 -0.032633
# 5 0.001239 -0.006687 -0.007836 0.000001 0.033267 0.000000
# 6 0.000000 0.000000 0.000000 -0.032633 0.000000 0.022648
#
#
# Mechanical properties :
#
#
# Convention : Reuss Voigt Hill
#
# Bulk Modulus (GPa) = 25.03861 39.14492 32.09176
# Shear Modulus (GPa) = 32.26739 -1.20720 15.53010
#
# Velocity S-wave (km/s) = 3.77052 -0.72930 2.61581
# Velocity P-wave (km/s) = 5.47609 4.06667 4.82314
#
# Compressibility (1/GPa) = 0.03993831
#
# Stress axis : x y z
#
# Youngs Moduli (GPa) = 79.41022 40.48435 88.04068
#
# Poissons Ratio (x) = -0.10993 0.27847
# Poissons Ratio (y) = -0.21562 0.34417
# Poissons Ratio (z) = 0.25118 0.15826
#
# Static dielectric constant tensor:
#      x y z
#    x 2.043400 0.000000 -0.024570 
#    y 0.000000 1.871340 0.000000 
#    z -0.024570 0.000000 2.018520 
# 
# From -- ./inp_files/77195.got.cif
#   From: 2010.05.17/outbox.cif.g08.bks.cpg/sg12_39_cif.got.tgz:77195.got - 2010.06.03 13:09:07.
