data_PCOD9209720
_publ_section_title
;
Structure prediction by ZEFSAII (Michael W. Deem and Ramdas Pophale) SiO2 
 PCOD9209720
Probable space group: C 2/M
;
_chemical_formula_sum "Si O2"
_cell_formula_units_Z 58
_cell_length_a 8.275475
_cell_length_b 25.476164
_cell_length_c 12.817846
_cell_angle_alpha 90.000000
_cell_angle_beta 91.728441
_cell_angle_gamma 90.000000
_cell_volume 2701.123070
_symmetry_space_group_name_H-M "C 2/M"
_symmetry_group_IT_number 12
_symmetry_cell_setting 'monoclinic'
loop_
_space_group_symop_operation_xyz
x,y,z
-x,y,-z
-x,-y,-z
x,-y,z
1/2+x,1/2+y,z
1/2-x,1/2+y,-z
1/2-x,1/2-y,-z
1/2+x,1/2-y,z
loop_
_atom_site_type_symbol
_atom_site_label
_atom_site_fract_x
_atom_site_fract_y
_atom_site_fract_z
Si Si1 0.594878 0.115567 0.407072
Si Si2 0.407347 0.701562 0.604130
Si Si3 0.771567 0.207740 0.292684
Si Si4 0.000000 0.000000 0.000000
Si Si5 0.841918 0.920036 0.557759
Si Si6 0.302572 0.084898 0.020861
Si Si7 0.842931 0.440549 0.252539
Si Si8 0.824276 0.300664 0.945875
O O1 0.500000 0.143309 0.500000
O O2 0.705385 0.157153 0.352028
O O3 0.696835 0.072508 0.473025
O O4 0.479334 0.089105 0.320919
O O5 0.500000 0.718384 0.500000
O O6 0.272157 0.741108 0.640399
O O7 0.536623 0.701770 0.700614
O O8 0.351691 0.642585 0.579509
O O9 0.692908 0.208866 0.177748
O O10 0.849072 0.954760 0.004599
O O11 0.805673 0.943381 0.669378
O O12 0.000000 0.936830 0.500000
O O13 0.304131 0.089395 0.146376
O O14 0.500000 0.071867 0.000000
O O15 0.259853 0.140604 0.967553
O O16 0.890937 0.500000 0.225728
O O17 0.750000 0.250000 0.000000
O O18 0.000000 0.303703 0.000000
#
# Coordination Sequence:
#
# PCOD9209720 Si02
#       8
#     8   8   8   2   8   8   8   8
#     4  10  21  38  64  89 131 177 227 278 360 426
#     4  11  23  37  63  99 139 177 234 290 346 432
#     4  12  23  39  64  95 130 189 226 282 363 429
#     4  12  26  48  88 110 140 202 250 338 388 434
#     4  10  22  42  62 100 145 175 234 302 346 434
#     4  11  26  52  76 111 155 188 263 326 381 459
#     4  11  25  45  72 100 132 193 240 295 377 433
#     4  11  26  45  68 104 148 197 242 313 383 450
#
# _framework density 21.472549000000001
#
# number of rings (size 3 to 8) (size 9 to 14) (size 15 to 20)
#    0.000    1.103    3.448    3.517    6.759    3.862 
#    2.483    0.000    0.000    0.000    0.000    0.000 
#    0.000    0.000    0.000    0.000    0.000    0.000 
#
# Total GULP energy -161475.739089 kJ/mol
# GULP energy per Si atom -5568.128934 kJ/mol
# Density = 2.142368 g / cm^3
# Si number density = 21.472549 Si / 1000 Ang^3
#
#
#
# Elastic Constant Matrix: (Units=GPa)
#
#
# Indices 1 2 3 4 5 6 
#
# 1 96.6043 26.2346 17.5533 0.0000 3.5654 0.0000
# 2 26.2346 114.4664 19.7252 0.0000 -4.9959 0.0000
# 3 17.5533 19.7252 120.5644 0.0000 6.6848 0.0000
# 4 0.0000 0.0000 0.0000 -10.7114 0.0000 -4.2078
# 5 3.5654 -4.9959 6.6848 0.0000 32.7028 0.0000
# 6 0.0000 0.0000 0.0000 -4.2078 0.0000 33.3751
#
#
#
# Elastic Compliance Matrix: (Units=1/GPa)
#
#
# Indices 1 2 3 4 5 6 
#
# 1 0.011277 -0.002443 -0.001167 0.000000 -0.001364 0.000000
# 2 -0.002443 0.009613 -0.001328 0.000000 0.002006 0.000000
# 3 -0.001167 -0.001328 0.008785 0.000000 -0.001872 0.000000
# 4 0.000000 0.000000 0.000000 -0.088953 0.000000 -0.011215
# 5 -0.001364 0.002006 -0.001872 0.000000 0.031416 0.000000
# 6 0.000000 0.000000 0.000000 -0.011215 0.000000 0.028549
#
#
# Mechanical properties :
#
#
# Convention : Reuss Voigt Hill
#
# Bulk Modulus (GPa) = 50.50689 50.96236 50.73462
# Shear Modulus (GPa) = 291.33699 28.94810 160.14255
#
# Velocity S-wave (km/s) = 11.66076 3.67569 8.64535
# Velocity P-wave (km/s) = 14.31330 6.46526 11.10563
#
# Compressibility (1/GPa) = 0.01979928
#
# Stress axis : x y z
#
# Youngs Moduli (GPa) = 88.67372 104.03020 113.82734
#
# Poissons Ratio (x) = 0.25416 0.13278
# Poissons Ratio (y) = 0.21664 0.15119
# Poissons Ratio (z) = 0.10344 0.13818
#
# Static dielectric constant tensor:
#      x y z
#    x 1.933570 0.000000 -0.043290 
#    y 0.000000 1.813740 0.000000 
#    z -0.043290 0.000000 1.758510 
# 
# From -- ./inp_files/124316.got.cif
#   From: 2010.05.17/outbox.cif.g08.bks.cpg/sg12_63_cif.got.tgz:124316.got - 2010.06.03 13:09:07.
