data_PCOD9209793
_publ_section_title
;
Structure prediction by ZEFSAII (Michael W. Deem and Ramdas Pophale) SiO2 
 PCOD9209793
Probable space group: C 2/M
;
_chemical_formula_sum "Si O2"
_cell_formula_units_Z 40
_cell_length_a 9.462961
_cell_length_b 15.607198
_cell_length_c 13.945068
_cell_angle_alpha 90.000000
_cell_angle_beta 80.252448
_cell_angle_gamma 90.000000
_cell_volume 2029.818222
_symmetry_space_group_name_H-M "C 2/M"
_symmetry_group_IT_number 12
_symmetry_cell_setting 'monoclinic'
loop_
_space_group_symop_operation_xyz
x,y,z
-x,y,-z
-x,-y,-z
x,-y,z
1/2+x,1/2+y,z
1/2-x,1/2+y,-z
1/2-x,1/2-y,-z
1/2+x,1/2-y,z
loop_
_atom_site_type_symbol
_atom_site_label
_atom_site_fract_x
_atom_site_fract_y
_atom_site_fract_z
Si Si1 0.638969 0.739115 0.927803
Si Si2 0.651924 0.343188 0.603718
Si Si3 0.728583 0.093983 0.219756
Si Si4 0.185787 0.837409 0.383813
Si Si5 0.401481 0.097383 0.202468
O O1 0.695444 0.669794 0.846292
O O2 0.612293 0.828722 0.875747
O O3 0.500000 0.708436 0.000000
O O4 0.750000 0.750000 0.000000
O O5 0.710389 0.403285 0.680112
O O6 0.736531 0.254399 0.613033
O O7 0.684158 0.374400 0.492067
O O8 0.480235 0.328802 0.628832
O O9 0.557327 0.107541 0.234184
O O10 0.757402 0.000000 0.173742
O O11 0.277527 0.888556 0.295484
O O12 0.393120 0.000000 0.165206
#
# Coordination Sequence:
#
# PCOD9209793 Si02
#       5
#     8   8   8   8   8
#     4  12  26  46  70  93 125 168 217 271 329 383
#     4  10  21  38  64  97 134 173 216 260 315 384
#     4  11  25  44  67  99 133 168 216 268 323 387
#     4  10  21  38  64  97 133 175 215 259 317 382
#     4  11  25  44  68  98 132 171 216 264 325 390
#
# _framework density 19.706199000000002
#
# number of rings (size 3 to 8) (size 9 to 14) (size 15 to 20)
#    0.000    1.200    4.000    1.200    2.800    5.600 
#    0.000    4.000    0.000    0.000    0.000    0.000 
#    0.000    0.000    0.000    0.000    0.000    0.000 
#
# Total GULP energy -111699.492255 kJ/mol
# GULP energy per Si atom -5584.974613 kJ/mol
# Density = 1.966135 g / cm^3
# Si number density = 19.706199 Si / 1000 Ang^3
#
#
#
# Elastic Constant Matrix: (Units=GPa)
#
#
# Indices 1 2 3 4 5 6 
#
# 1 132.7841 33.2272 50.6795 0.0000 6.5400 0.0000
# 2 33.2272 102.2313 40.4926 0.0000 4.3554 0.0000
# 3 50.6795 40.4926 91.1217 0.0000 8.0059 0.0000
# 4 0.0000 0.0000 0.0000 -6.8409 0.0000 3.8015
# 5 6.5400 4.3554 8.0059 0.0000 43.9686 0.0000
# 6 0.0000 0.0000 0.0000 3.8015 0.0000 18.8532
#
#
#
# Elastic Compliance Matrix: (Units=1/GPa)
#
#
# Indices 1 2 3 4 5 6 
#
# 1 0.009695 -0.001228 -0.004807 0.000000 -0.000445 0.000000
# 2 -0.001228 0.012029 -0.004648 0.000000 -0.000163 0.000000
# 3 -0.004807 -0.004648 0.015864 0.000000 -0.001713 0.000000
# 4 0.000000 0.000000 0.000000 -0.131451 0.000000 0.026505
# 5 -0.000445 -0.000163 -0.001713 0.000000 0.023138 0.000000
# 6 0.000000 0.000000 0.000000 0.026505 0.000000 0.047697
#
#
# Mechanical properties :
#
#
# Convention : Reuss Voigt Hill
#
# Bulk Modulus (GPa) = 61.64808 63.88174 62.76491
# Shear Modulus (GPa) = 1334.97251 24.64536 679.80894
#
# Velocity S-wave (km/s) = 26.05587 3.54028 18.59358
# Velocity P-wave (km/s) = 30.60331 7.01419 22.20092
#
# Compressibility (1/GPa) = 0.01622110
#
# Stress axis : x y z
#
# Youngs Moduli (GPa) = 103.14553 83.13341 63.03548
#
# Poissons Ratio (x) = 0.10209 0.30303
# Poissons Ratio (y) = 0.12666 0.29300
# Poissons Ratio (z) = 0.49585 0.38641
#
# Static dielectric constant tensor:
#      x y z
#    x 1.648900 0.000000 0.000380 
#    y 0.000000 1.713280 0.000000 
#    z 0.000380 0.000000 1.692250 
# 
# From -- ./inp_files/194439.got.cif
#   From: 2010.05.17/outbox.cif.g08.bks.cpg/sg12_98_cif.got.tgz:194439.got - 2010.06.03 13:09:07.
