data_PCOD9209259
_publ_section_title
;
Structure prediction by ZEFSAII (Michael W. Deem and Ramdas Pophale) SiO2 
 PCOD9209259
Probable space group: C 2/M
;
_chemical_formula_sum "Si O2"
_cell_formula_units_Z 36
_cell_length_a 7.995545
_cell_length_b 13.297433
_cell_length_c 14.064997
_cell_angle_alpha 90.000000
_cell_angle_beta 86.407376
_cell_angle_gamma 90.000000
_cell_volume 1492.454888
_symmetry_space_group_name_H-M "C 2/M"
_symmetry_group_IT_number 12
_symmetry_cell_setting 'monoclinic'
loop_
_space_group_symop_operation_xyz
x,y,z
-x,y,-z
-x,-y,-z
x,-y,z
1/2+x,1/2+y,z
1/2-x,1/2+y,-z
1/2-x,1/2-y,-z
1/2+x,1/2-y,z
loop_
_atom_site_type_symbol
_atom_site_label
_atom_site_fract_x
_atom_site_fract_y
_atom_site_fract_z
Si Si1 0.263043 0.388390 0.192830
Si Si2 0.813739 0.615774 0.021660
Si Si3 0.130834 0.182069 0.215681
Si Si4 0.313726 0.116492 0.394412
Si Si5 0.000000 0.779442 0.500000
O O1 0.209058 0.500000 0.222599
O O2 0.137362 0.301856 0.228429
O O3 0.445895 0.362831 0.226005
O O4 0.273968 0.385379 0.077526
O O5 0.837450 0.500000 0.051320
O O6 0.709619 0.665443 0.108650
O O7 0.000000 0.659555 0.000000
O O8 0.247991 0.130771 0.289660
O O9 0.448023 0.201522 0.418692
O O10 0.154064 0.150228 0.464605
O O11 0.360979 0.000000 0.409264
#
# Coordination Sequence:
#
# PCOD9209259 Si02
#       5
#     8   8   8   8   4
#     4  11  24  41  61  90 129 170 211 255 304 358
#     4  10  21  38  61  90 128 172 213 255 305 359
#     4  12  23  40  65  93 124 165 213 258 306 365
#     4  11  23  43  69  95 126 161 204 258 314 376
#     4  10  24  44  66  96 126 160 202 252 324 386
#
# _framework density 24.121333
#
# number of rings (size 3 to 8) (size 9 to 14) (size 15 to 20)
#    0.000    1.111    0.000    6.667    0.000    1.778 
#    0.000   12.222    0.000    0.000    0.000    0.000 
#    0.000    0.000    0.000    0.000    0.000    0.000 
#
# Total GULP energy -100858.847317 kJ/mol
# GULP energy per Si atom -5603.269295 kJ/mol
# Density = 2.406643 g / cm^3
# Si number density = 24.121333 Si / 1000 Ang^3
#
#
#
# Elastic Constant Matrix: (Units=GPa)
#
#
# Indices 1 2 3 4 5 6 
#
# 1 45.4178 6.8151 25.1645 0.0000 14.0267 0.0000
# 2 6.8151 159.1318 14.5273 0.0000 -5.9432 0.0000
# 3 25.1645 14.5273 70.3743 0.0000 10.0668 0.0000
# 4 0.0000 0.0000 0.0000 21.5996 0.0000 6.5199
# 5 14.0267 -5.9432 10.0668 0.0000 44.8407 0.0000
# 6 0.0000 0.0000 0.0000 6.5199 0.0000 20.3104
#
#
#
# Elastic Compliance Matrix: (Units=1/GPa)
#
#
# Indices 1 2 3 4 5 6 
#
# 1 0.029557 -0.000678 -0.009395 0.000000 -0.007226 0.000000
# 2 -0.000678 0.006482 -0.001290 0.000000 0.001361 0.000000
# 3 -0.009395 -0.001290 0.018018 0.000000 -0.001277 0.000000
# 4 0.000000 0.000000 0.000000 0.051265 0.000000 -0.016457
# 5 -0.007226 0.001361 -0.001277 0.000000 0.025029 0.000000
# 6 0.000000 0.000000 0.000000 -0.016457 0.000000 0.054519
#
#
# Mechanical properties :
#
#
# Convention : Reuss Voigt Hill
#
# Bulk Modulus (GPa) = 31.91840 40.88195 36.40017
# Shear Modulus (GPa) = 22.93163 32.57795 27.75479
#
# Velocity S-wave (km/s) = 3.08665 3.67902 3.39578
# Velocity P-wave (km/s) = 5.09553 5.91880 5.52252
#
# Compressibility (1/GPa) = 0.03132989
#
# Stress axis : x y z
#
# Youngs Moduli (GPa) = 33.83300 154.27934 55.49889
#
# Poissons Ratio (x) = 0.10460 0.52143
# Poissons Ratio (y) = 0.02294 0.07161
# Poissons Ratio (z) = 0.31787 0.19906
#
# Static dielectric constant tensor:
#      x y z
#    x 1.912450 0.000000 0.009430 
#    y 0.000000 1.930570 0.000000 
#    z 0.009430 0.000000 1.908530 
# 
# From -- ./inp_files/194132.got.cif
#   From: 2010.05.17/outbox.cif.g08.bks.cpg/sg12_98_cif.got.tgz:194132.got - 2010.06.03 13:09:07.
