data_PCOD9209458
_publ_section_title
;
Structure prediction by ZEFSAII (Michael W. Deem and Ramdas Pophale) SiO2 
 PCOD9209458
Probable space group: C 2/M
;
_chemical_formula_sum "Si O2"
_cell_formula_units_Z 64
_cell_length_a 15.701486
_cell_length_b 18.065586
_cell_length_c 12.083707
_cell_angle_alpha 90.000000
_cell_angle_beta 91.484342
_cell_angle_gamma 90.000000
_cell_volume 3426.472418
_symmetry_space_group_name_H-M "C 2/M"
_symmetry_group_IT_number 12
_symmetry_cell_setting 'monoclinic'
loop_
_space_group_symop_operation_xyz
x,y,z
-x,y,-z
-x,-y,-z
x,-y,z
1/2+x,1/2+y,z
1/2-x,1/2+y,-z
1/2-x,1/2-y,-z
1/2+x,1/2-y,z
loop_
_atom_site_type_symbol
_atom_site_label
_atom_site_fract_x
_atom_site_fract_y
_atom_site_fract_z
Si Si1 0.715057 0.658705 0.124787
Si Si2 0.795532 0.912886 0.451993
Si Si3 0.267732 0.170396 0.875903
Si Si4 0.128495 0.586289 0.293372
Si Si5 0.199988 0.588972 0.664455
Si Si6 0.030890 0.323437 0.623472
Si Si7 0.597449 0.329090 0.721674
Si Si8 0.031477 0.911797 0.124237
O O1 0.697388 0.746254 0.136141
O O2 0.778702 0.628688 0.219904
O O3 0.628625 0.613323 0.135648
O O4 0.752167 0.650949 0.002770
O O5 0.705957 0.903859 0.383406
O O6 0.773296 0.891576 0.576964
O O7 0.866430 0.866857 0.389094
O O8 0.817367 0.000000 0.448965
O O9 0.330385 0.112911 0.819919
O O10 0.177688 0.171393 0.808224
O O11 0.105297 0.500000 0.291683
O O12 0.048156 0.635994 0.321293
O O13 0.197781 0.500000 0.674365
O O14 0.109914 0.619769 0.618864
O O15 0.063266 0.251845 0.690571
O O16 0.000000 0.301765 0.500000
O O17 0.524694 0.374683 0.782156
O O18 0.023837 0.000000 0.132702
O O19 0.000000 0.889548 0.000000
#
# Coordination Sequence:
#
# PCOD9209458 Si02
#       8
#     8   8   8   8   8   8   8   8
#     4  11  22  42  63  91 125 164 207 251 309 372
#     4   9  20  38  62  89 123 163 202 253 311 362
#     4  10  22  40  64  90 124 164 203 255 314 366
#     4  10  21  38  62  91 122 162 209 256 306 363
#     4  11  23  40  64  92 127 166 206 254 309 370
#     4  12  24  40  62  94 127 164 211 256 308 371
#     4  11  22  40  62  92 126 159 208 258 305 371
#     4  11  23  39  63  92 123 161 205 253 305 368
#
# _framework density 18.678101999999999
#
# number of rings (size 3 to 8) (size 9 to 14) (size 15 to 20)
#    0.000    1.375    3.750    1.875    0.000    4.500 
#    0.000    0.625    0.000    4.500    0.000    0.000 
#    0.000    0.000    0.000    0.000    0.000    0.000 
#
# Total GULP energy -178771.283230 kJ/mol
# GULP energy per Si atom -5586.602601 kJ/mol
# Density = 1.863559 g / cm^3
# Si number density = 18.678102 Si / 1000 Ang^3
#
#
#
# Elastic Constant Matrix: (Units=GPa)
#
#
# Indices 1 2 3 4 5 6 
#
# 1 53.4350 38.1514 22.3482 0.0000 -14.6183 0.0000
# 2 38.1514 86.4254 46.1216 0.0000 -24.3830 0.0000
# 3 22.3482 46.1216 101.9381 0.0000 -9.4321 0.0000
# 4 0.0000 0.0000 0.0000 53.4711 0.0000 39.4164
# 5 -14.6183 -24.3830 -9.4321 0.0000 26.2103 0.0000
# 6 0.0000 0.0000 0.0000 39.4164 0.0000 85.1964
#
#
#
# Elastic Compliance Matrix: (Units=1/GPa)
#
#
# Indices 1 2 3 4 5 6 
#
# 1 0.027988 -0.010202 -0.000987 0.000000 0.005764 0.000000
# 2 -0.010202 0.023885 -0.007283 0.000000 0.013909 0.000000
# 3 -0.000987 -0.007283 0.013079 0.000000 -0.002619 0.000000
# 4 0.000000 0.000000 0.000000 0.028381 0.000000 -0.013131
# 5 0.005764 0.013909 -0.002619 0.000000 0.053364 0.000000
# 6 0.000000 0.000000 0.000000 -0.013131 0.000000 0.017812
#
#
# Mechanical properties :
#
#
# Convention : Reuss Voigt Hill
#
# Bulk Modulus (GPa) = 35.70396 50.56010 43.13203
# Shear Modulus (GPa) = 23.72029 41.98736 32.85383
#
# Velocity S-wave (km/s) = 3.56750 4.74639 4.19853
# Velocity P-wave (km/s) = 6.01052 7.56080 6.82979
#
# Compressibility (1/GPa) = 0.02800810
#
# Stress axis : x y z
#
# Youngs Moduli (GPa) = 35.72964 41.86704 76.45809
#
# Poissons Ratio (x) = 0.42714 0.07543
# Poissons Ratio (y) = 0.36453 0.55685
# Poissons Ratio (z) = 0.03525 0.30492
#
# Static dielectric constant tensor:
#      x y z
#    x 1.625490 0.000000 0.016240 
#    y 0.000000 1.624090 0.000000 
#    z 0.016240 0.000000 1.652020 
# 
# From -- ./inp_files/146162.got.cif
#   From: 2010.05.17/outbox.cif.g08.bks.cpg/sg12_74_cif.got.tgz:146162.got - 2010.06.03 13:09:07.
