data_PCOD9209779
_publ_section_title
;
Structure prediction by ZEFSAII (Michael W. Deem and Ramdas Pophale) SiO2 
 PCOD9209779
Probable space group: C 2/M
;
_chemical_formula_sum "Si O2"
_cell_formula_units_Z 58
_cell_length_a 25.025724
_cell_length_b 8.173315
_cell_length_c 12.098128
_cell_angle_alpha 90.000000
_cell_angle_beta 99.357498
_cell_angle_gamma 90.000000
_cell_volume 2441.659670
_symmetry_space_group_name_H-M "C 2/M"
_symmetry_group_IT_number 12
_symmetry_cell_setting 'monoclinic'
loop_
_space_group_symop_operation_xyz
x,y,z
-x,y,-z
-x,-y,-z
x,-y,z
1/2+x,1/2+y,z
1/2-x,1/2+y,-z
1/2-x,1/2-y,-z
1/2+x,1/2-y,z
loop_
_atom_site_type_symbol
_atom_site_label
_atom_site_fract_x
_atom_site_fract_y
_atom_site_fract_z
Si Si1 0.000000 0.500000 0.500000
Si Si2 0.124028 0.179928 0.449865
Si Si3 0.638744 0.196862 0.106168
Si Si4 0.996667 0.187485 0.351736
Si Si5 0.804334 0.190616 0.081388
Si Si6 0.479770 0.196114 0.869670
Si Si7 0.713473 0.812534 0.330897
Si Si8 0.174479 0.316029 0.666593
O O1 0.022075 0.351227 0.591149
O O2 0.061844 0.197888 0.396047
O O3 0.164016 0.300643 0.399308
O O4 0.134529 0.202398 0.583359
O O5 0.142325 0.000000 0.421636
O O6 0.583370 0.244784 0.147506
O O7 0.687889 0.236510 0.204567
O O8 0.637437 0.000000 0.091518
O O9 0.648297 0.276305 0.991149
O O10 0.989674 0.213585 0.218460
O O11 0.979783 0.000000 0.376542
O O12 0.817251 0.274857 0.202158
O O13 0.797795 0.000000 0.101365
O O14 0.750000 0.250000 0.000000
O O15 0.482970 0.000000 0.850590
O O16 0.500000 0.227484 0.000000
O O17 0.766193 0.705758 0.369073
O O18 0.732037 0.000000 0.330798
O O19 0.155448 0.500000 0.647541
#
# Coordination Sequence:
#
# PCOD9209779 Si02
#       8
#     2   8   8   8   8   8   8   8
#     4  12  26  48  78  98 144 176 234 278 360 422
#     4  11  24  42  65  95 133 170 224 277 327 396
#     4  10  21  38  64  95 129 171 218 265 328 395
#     4  11  25  46  75 105 138 183 228 285 352 422
#     4  12  24  40  61  87 128 173 220 272 330 393
#     4  10  21  43  74 105 137 176 226 288 351 413
#     4  11  21  36  64  93 129 171 219 269 326 387
#     4  12  25  40  61  90 131 178 226 272 330 394
#
# _framework density 23.754334
#
# number of rings (size 3 to 8) (size 9 to 14) (size 15 to 20)
#    0.000    0.966    3.448    3.931    1.931    1.379 
#    2.483    0.000    0.000    0.000    0.000    0.000 
#    0.000    0.000    0.000    0.000    0.000    0.000 
#
# Total GULP energy -162000.279998 kJ/mol
# GULP energy per Si atom -5586.216552 kJ/mol
# Density = 2.370027 g / cm^3
# Si number density = 23.754334 Si / 1000 Ang^3
#
#
#
# Elastic Constant Matrix: (Units=GPa)
#
#
# Indices 1 2 3 4 5 6 
#
# 1 35.1292 25.2180 3.4501 0.0000 4.4998 0.0000
# 2 25.2180 104.4103 18.8358 0.0000 -7.9585 0.0000
# 3 3.4501 18.8358 98.4417 0.0000 -13.0157 0.0000
# 4 0.0000 0.0000 0.0000 34.8252 0.0000 -7.1717
# 5 4.4998 -7.9585 -13.0157 0.0000 29.5206 0.0000
# 6 0.0000 0.0000 0.0000 -7.1717 0.0000 18.6088
#
#
#
# Elastic Compliance Matrix: (Units=1/GPa)
#
#
# Indices 1 2 3 4 5 6 
#
# 1 0.036248 -0.009280 -0.000590 0.000000 -0.008287 0.000000
# 2 -0.009280 0.012403 -0.001507 0.000000 0.004094 0.000000
# 3 -0.000590 -0.001507 0.011071 0.000000 0.004565 0.000000
# 4 0.000000 0.000000 0.000000 0.031190 0.000000 0.012021
# 5 -0.008287 0.004094 0.004565 0.000000 0.038254 0.000000
# 6 0.000000 0.000000 0.000000 0.012021 0.000000 0.058371
#
#
# Mechanical properties :
#
#
# Convention : Reuss Voigt Hill
#
# Bulk Modulus (GPa) = 27.05102 36.99878 32.02490
# Shear Modulus (GPa) = 22.46050 29.28941 25.87495
#
# Velocity S-wave (km/s) = 3.07829 3.51524 3.30399
# Velocity P-wave (km/s) = 4.90378 5.66439 5.29775
#
# Compressibility (1/GPa) = 0.03696719
#
# Stress axis : x y z
#
# Youngs Moduli (GPa) = 27.58799 80.62685 90.32737
#
# Poissons Ratio (x) = 0.74821 0.05334
# Poissons Ratio (y) = 0.25602 0.13609
# Poissons Ratio (z) = 0.01629 0.12147
#
# Static dielectric constant tensor:
#      x y z
#    x 1.935940 0.000000 -0.011860 
#    y 0.000000 1.800490 0.000000 
#    z -0.011860 0.000000 1.937370 
# 
# From -- ./inp_files/186695.got.cif
#   From: 2010.05.17/outbox.cif.g08.bks.cpg/sg12_94_cif.got.tgz:186695.got - 2010.06.03 13:09:07.
