data_PCOD9209884
_publ_section_title
;
Structure prediction by ZEFSAII (Michael W. Deem and Ramdas Pophale) SiO2 
 PCOD9209884
Probable space group: C 2/M
;
_chemical_formula_sum "Si O2"
_cell_formula_units_Z 40
_cell_length_a 17.452120
_cell_length_b 10.068382
_cell_length_c 18.408600
_cell_angle_alpha 90.000000
_cell_angle_beta 34.312685
_cell_angle_gamma 90.000000
_cell_volume 1823.406717
_symmetry_space_group_name_H-M "C 2/M"
_symmetry_group_IT_number 12
_symmetry_cell_setting 'monoclinic'
loop_
_space_group_symop_operation_xyz
x,y,z
-x,y,-z
-x,-y,-z
x,-y,z
1/2+x,1/2+y,z
1/2-x,1/2+y,-z
1/2-x,1/2-y,-z
1/2+x,1/2-y,z
loop_
_atom_site_type_symbol
_atom_site_label
_atom_site_fract_x
_atom_site_fract_y
_atom_site_fract_z
Si Si1 0.351523 0.229978 0.803133
Si Si2 0.579950 0.208746 0.093062
Si Si3 0.499585 0.500000 0.879815
Si Si4 0.346971 0.500000 0.596960
Si Si5 0.916033 0.500000 0.138100
Si Si6 0.644182 0.647729 0.549030
Si Si7 0.726827 0.500000 0.815178
O O1 0.387276 0.158183 0.852011
O O2 0.487091 0.310107 0.678383
O O3 0.313290 0.130097 0.768245
O O4 0.213131 0.303935 0.937120
O O5 0.535473 0.363152 0.133371
O O6 0.462118 0.126942 0.147879
O O7 0.649053 0.500000 0.799315
O O8 0.392677 0.500000 0.030540
O O9 0.500000 0.500000 0.500000
O O10 0.244728 0.500000 0.743480
O O11 0.323646 0.623740 0.561099
O O12 0.000000 0.500000 0.000000
O O13 0.660872 0.500000 0.569473
O O14 0.750000 0.750000 0.500000
#
# Coordination Sequence:
#
# PCOD9209884 Si02
#       7
#     8   8   4   4   4   8   4
#     4  10  21  38  66  96 129 170 217 277 326 389
#     4  10  23  38  63  99 135 162 225 272 330 390
#     4   9  20  37  56  92 131 173 195 271 331 390
#     4  10  26  46  65 100 140 175 218 279 331 399
#     4  12  27  39  70  94 135 175 225 267 335 396
#     4  10  24  42  71  91 132 176 226 266 337 396
#     4   9  19  34  61  84 134 168 212 253 336 383
#
# _framework density 21.936961
#
# number of rings (size 3 to 8) (size 9 to 14) (size 15 to 20)
#    0.600    1.400    0.000    1.800   12.600    1.600 
#    0.000    0.000    0.000    0.600    0.000    0.000 
#    0.000    0.000    0.000    0.000    0.000    0.000 
#
# Total GULP energy -111635.504782 kJ/mol
# GULP energy per Si atom -5581.775239 kJ/mol
# Density = 2.188703 g / cm^3
# Si number density = 21.936961 Si / 1000 Ang^3
#
#
#
# Elastic Constant Matrix: (Units=GPa)
#
#
# Indices 1 2 3 4 5 6 
#
# 1 87.5601 30.3967 38.8922 0.0000 -25.6830 0.0000
# 2 30.3967 114.4180 43.6011 0.0000 -26.7156 0.0000
# 3 38.8922 43.6011 149.3549 0.0001 -20.1230 0.0000
# 4 0.0000 0.0000 0.0001 18.2544 0.0000 -10.5882
# 5 -25.6830 -26.7156 -20.1230 0.0000 34.9246 0.0000
# 6 0.0000 0.0000 0.0000 -10.5882 0.0000 25.1778
#
#
#
# Elastic Compliance Matrix: (Units=1/GPa)
#
#
# Indices 1 2 3 4 5 6 
#
# 1 0.015607 -0.001029 -0.002519 0.000000 0.009238 0.000000
# 2 -0.001029 0.011405 -0.002155 0.000000 0.006726 0.000000
# 3 -0.002519 -0.002155 0.008141 0.000000 0.001190 0.000000
# 4 0.000000 0.000000 0.000000 0.072455 0.000000 0.030470
# 5 0.009238 0.006726 0.001190 0.000000 0.041257 0.000000
# 6 0.000000 0.000000 0.000000 0.030470 0.000000 0.052531
#
#
# Mechanical properties :
#
#
# Convention : Reuss Voigt Hill
#
# Bulk Modulus (GPa) = 42.11277 64.12363 53.11820
# Shear Modulus (GPa) = 22.65337 31.56755 27.11046
#
# Velocity S-wave (km/s) = 3.21699 3.79755 3.51926
# Velocity P-wave (km/s) = 5.74783 6.96583 6.38593
#
# Compressibility (1/GPa) = 0.02374577
#
# Stress axis : x y z
#
# Youngs Moduli (GPa) = 64.07555 87.68106 122.83745
#
# Poissons Ratio (x) = 0.09024 0.30940
# Poissons Ratio (y) = 0.06595 0.26475
# Poissons Ratio (z) = 0.16139 0.18898
#
# Static dielectric constant tensor:
#      x y z
#    x 1.799410 0.000000 0.012930 
#    y 0.000000 1.817750 0.000000 
#    z 0.012930 0.000000 1.812050 
# 
# From -- ./inp_files/315579.got.cif
#   From: 2010.05.17/outbox.cif.g08.bks.cpg/sg12_158_cif.got.tgz:315579.got - 2010.06.03 13:09:07.
