data_PCOD9209108
_publ_section_title
;
Structure prediction by ZEFSAII (Michael W. Deem and Ramdas Pophale) SiO2 
 PCOD9209108
Probable space group: C 2/M
;
_chemical_formula_sum "Si O2"
_cell_formula_units_Z 48
_cell_length_a 15.536323
_cell_length_b 8.510960
_cell_length_c 21.963948
_cell_angle_alpha 90.000000
_cell_angle_beta 60.350392
_cell_angle_gamma 90.000000
_cell_volume 2524.006250
_symmetry_space_group_name_H-M "C 2/M"
_symmetry_group_IT_number 12
_symmetry_cell_setting 'monoclinic'
loop_
_space_group_symop_operation_xyz
x,y,z
-x,y,-z
-x,-y,-z
x,-y,z
1/2+x,1/2+y,z
1/2-x,1/2+y,-z
1/2-x,1/2-y,-z
1/2+x,1/2-y,z
loop_
_atom_site_type_symbol
_atom_site_label
_atom_site_fract_x
_atom_site_fract_y
_atom_site_fract_z
Si Si1 0.829401 0.188866 0.423253
Si Si2 0.895780 0.687644 0.166040
Si Si3 0.473885 0.691477 0.578048
Si Si4 0.887313 0.187692 0.909391
Si Si5 0.249505 0.810015 0.323719
Si Si6 0.312438 0.687177 0.069445
O O1 0.750000 0.250000 0.500000
O O2 0.801275 0.252776 0.367179
O O3 0.938081 0.239937 0.407936
O O4 0.826457 0.000000 0.423840
O O5 0.904469 0.500000 0.166515
O O6 0.812256 0.740819 0.243241
O O7 0.862780 0.735186 0.109924
O O8 0.001868 0.761637 0.144387
O O9 0.500000 0.741607 0.500000
O O10 0.472839 0.500000 0.577805
O O11 0.364610 0.744611 0.635374
O O12 0.802278 0.264736 0.897937
O O13 0.877214 0.000000 0.908942
O O14 0.864033 0.235245 0.987647
O O15 0.247962 0.000000 0.324755
O O16 0.321523 0.500000 0.071835
#
# Coordination Sequence:
#
# PCOD9209108 Si02
#       6
#     8   8   8   8   8   8
#     4  11  21  35  59  85 109 143 186 234 287 342
#     4  11  23  37  57  85 121 159 194 241 297 353
#     4   9  17  34  59  79 104 144 182 222 277 339
#     4  10  21  38  61  87 117 155 198 243 291 348
#     4  10  22  40  57  81 114 149 191 235 284 341
#     4  10  21  38  61  88 117 152 198 247 291 344
#
# _framework density 19.017385000000001
#
# number of rings (size 3 to 8) (size 9 to 14) (size 15 to 20)
#    0.000    1.833    1.667    2.500    0.000    6.667 
#    0.000    4.167    0.000    0.000    0.000    0.000 
#    0.000    0.000    0.000    0.000    0.000    0.000 
#
# Total GULP energy -134083.140332 kJ/mol
# GULP energy per Si atom -5586.797514 kJ/mol
# Density = 1.897410 g / cm^3
# Si number density = 19.017385 Si / 1000 Ang^3
#
#
#
# Elastic Constant Matrix: (Units=GPa)
#
#
# Indices 1 2 3 4 5 6 
#
# 1 116.0992 -2.5981 22.0674 0.0000 -24.7906 0.0000
# 2 -2.5981 5.5681 6.4926 0.0000 -4.3263 0.0000
# 3 22.0674 6.4926 34.9373 0.0000 -23.7493 0.0000
# 4 0.0000 0.0000 0.0000 24.8151 0.0000 4.0690
# 5 -24.7906 -4.3263 -23.7493 0.0000 32.1268 0.0000
# 6 0.0000 0.0000 0.0000 4.0690 0.0000 34.6350
#
#
#
# Elastic Compliance Matrix: (Units=1/GPa)
#
#
# Indices 1 2 3 4 5 6 
#
# 1 0.011623 0.017712 -0.005859 0.000000 0.007023 0.000000
# 2 0.017712 0.256293 -0.052391 0.000000 0.009452 0.000000
# 3 -0.005859 -0.052391 0.068726 0.000000 0.039228 0.000000
# 4 0.000000 0.000000 0.000000 0.041090 0.000000 -0.004827
# 5 0.007023 0.009452 0.039228 0.000000 0.066818 0.000000
# 6 0.000000 0.000000 0.000000 -0.004827 0.000000 0.029440
#
#
# Mechanical properties :
#
#
# Convention : Reuss Voigt Hill
#
# Bulk Modulus (GPa) = 3.91289 23.16982 13.54135
# Shear Modulus (GPa) = 7.80942 27.02488 17.41715
#
# Velocity S-wave (km/s) = 2.02864 3.77379 3.02959
# Velocity P-wave (km/s) = 2.74758 5.58557 4.40158
#
# Compressibility (1/GPa) = 0.25556584
#
# Stress axis : x y z
#
# Youngs Moduli (GPa) = 86.03706 3.90179 14.55063
#
# Poissons Ratio (x) = -0.06911 0.08525
# Poissons Ratio (y) = -1.52387 0.76232
# Poissons Ratio (z) = 0.50409 0.20442
#
# Static dielectric constant tensor:
#      x y z
#    x 1.640980 0.000000 -0.017420 
#    y 0.000000 1.649210 0.000000 
#    z -0.017420 0.000000 1.643120 
# 
# From -- ./inp_files/308258.got.cif
#   From: 2010.05.17/outbox.cif.g08.bks.cpg/sg12_155_cif.got.tgz:308258.got - 2010.06.03 13:09:07.
