data_PCOD9209532
_publ_section_title
;
Structure prediction by ZEFSAII (Michael W. Deem and Ramdas Pophale) SiO2 
 PCOD9209532
Probable space group: C 2/M
;
_chemical_formula_sum "Si O2"
_cell_formula_units_Z 64
_cell_length_a 15.635041
_cell_length_b 29.848065
_cell_length_c 11.410451
_cell_angle_alpha 90.000000
_cell_angle_beta 141.730307
_cell_angle_gamma 90.000000
_cell_volume 3298.100290
_symmetry_space_group_name_H-M "C 2/M"
_symmetry_group_IT_number 12
_symmetry_cell_setting 'monoclinic'
loop_
_space_group_symop_operation_xyz
x,y,z
-x,y,-z
-x,-y,-z
x,-y,z
1/2+x,1/2+y,z
1/2-x,1/2+y,-z
1/2-x,1/2-y,-z
1/2+x,1/2-y,z
loop_
_atom_site_type_symbol
_atom_site_label
_atom_site_fract_x
_atom_site_fract_y
_atom_site_fract_z
Si Si1 0.651512 0.201008 0.113568
Si Si2 0.732269 0.297074 0.180945
Si Si3 0.739704 0.643465 0.410481
Si Si4 0.083698 0.951314 0.716558
Si Si5 0.356873 0.360396 0.285149
Si Si6 0.981519 0.695978 0.276332
Si Si7 0.414899 0.447876 0.783847
Si Si8 0.004982 0.797524 0.267154
O O1 0.732047 0.246343 0.228547
O O2 0.739093 0.157882 0.242701
O O3 0.500000 0.204140 0.000000
O O4 0.621788 0.193841 0.944364
O O5 0.710067 0.334061 0.253462
O O6 0.877221 0.306479 0.273172
O O7 0.598037 0.296489 0.954205
O O8 0.897460 0.659382 0.603508
O O9 0.699340 0.591254 0.356173
O O10 0.632749 0.669939 0.379461
O O11 0.179118 0.907179 0.814212
O O12 0.000000 0.954126 0.500000
O O13 0.998275 0.945868 0.747747
O O14 0.153544 0.000000 0.800730
O O15 0.500000 0.370530 0.500000
O O16 0.406678 0.319166 0.258961
O O17 0.043663 0.746366 0.337397
O O18 0.367063 0.500000 0.741407
O O19 0.500000 0.439581 0.000000
#
# Coordination Sequence:
#
# PCOD9209532 Si02
#       8
#     8   8   8   8   8   8   8   8
#     4  11  23  38  55  80 119 159 199 245 303 363
#     4  11  21  39  53  76 115 163 194 236 296 366
#     4  12  24  34  61  88 116 156 204 250 312 372
#     4   9  19  37  60  88 118 152 196 252 316 370
#     4  11  22  34  61  85 114 150 196 257 301 358
#     4  11  23  37  53  80 120 159 196 242 296 372
#     4  10  21  38  62  94 127 160 209 270 318 366
#     4  11  20  38  54  83 115 149 197 249 295 353
#
# _framework density 19.405108999999999
#
# number of rings (size 3 to 8) (size 9 to 14) (size 15 to 20)
#    0.000    1.250    3.750    4.125    3.500    0.000 
#    0.000    0.000    0.000    2.625    0.000    0.000 
#    0.000    0.000    0.000    0.000    0.000    0.000 
#
# Total GULP energy -178178.333660 kJ/mol
# GULP energy per Si atom -5568.072927 kJ/mol
# Density = 1.936094 g / cm^3
# Si number density = 19.405109 Si / 1000 Ang^3
#
#
#
# Elastic Constant Matrix: (Units=GPa)
#
#
# Indices 1 2 3 4 5 6 
#
# 1 87.5589 28.3064 29.9805 0.0000 10.3598 0.0000
# 2 28.3064 137.9752 28.8731 0.0000 14.5362 0.0000
# 3 29.9805 28.8731 74.0350 0.0000 7.0868 0.0000
# 4 0.0000 0.0000 0.0000 13.3090 0.0000 10.6530
# 5 10.3598 14.5362 7.0868 0.0000 35.4325 0.0000
# 6 0.0000 0.0000 0.0000 10.6530 0.0000 44.0720
#
#
#
# Elastic Compliance Matrix: (Units=1/GPa)
#
#
# Indices 1 2 3 4 5 6 
#
# 1 0.013852 -0.001589 -0.004756 0.000000 -0.002447 0.000000
# 2 -0.001589 0.008330 -0.002368 0.000000 -0.002479 0.000000
# 3 -0.004756 -0.002368 0.016445 0.000000 -0.000927 0.000000
# 4 0.000000 0.000000 0.000000 0.093162 0.000000 -0.022519
# 5 -0.002447 -0.002479 -0.000927 0.000000 0.030141 0.000000
# 6 0.000000 0.000000 0.000000 -0.022519 0.000000 0.028133
#
#
# Mechanical properties :
#
#
# Convention : Reuss Voigt Hill
#
# Bulk Modulus (GPa) = 47.16342 52.65436 49.90889
# Shear Modulus (GPa) = 23.30379 32.72329 28.01354
#
# Velocity S-wave (km/s) = 3.46917 4.11094 3.80362
# Velocity P-wave (km/s) = 6.35644 7.05169 6.71307
#
# Compressibility (1/GPa) = 0.02120287
#
# Stress axis : x y z
#
# Youngs Moduli (GPa) = 72.18944 120.04214 60.80803
#
# Poissons Ratio (x) = 0.19074 0.28918
# Poissons Ratio (y) = 0.11470 0.14400
# Poissons Ratio (z) = 0.34331 0.28426
#
# Static dielectric constant tensor:
#      x y z
#    x 1.658380 0.000000 0.038230 
#    y 0.000000 1.727160 0.000000 
#    z 0.038230 0.000000 1.680740 
# 
# From -- ./inp_files/150310.got.cif
#   From: 2010.05.17/outbox.cif.g08.bks.cpg/sg12_76_cif.got.tgz:150310.got - 2010.06.03 13:09:07.
