data_PCOD9209962
_publ_section_title
;
Structure prediction by ZEFSAII (Michael W. Deem and Ramdas Pophale) SiO2 
 PCOD9209962
Probable space group: C 2/M
;
_chemical_formula_sum "Si O2"
_cell_formula_units_Z 54
_cell_length_a 8.817128
_cell_length_b 17.741836
_cell_length_c 16.241664
_cell_angle_alpha 90.000000
_cell_angle_beta 74.282831
_cell_angle_gamma 90.000000
_cell_volume 2445.720787
_symmetry_space_group_name_H-M "C 2/M"
_symmetry_group_IT_number 12
_symmetry_cell_setting 'monoclinic'
loop_
_space_group_symop_operation_xyz
x,y,z
-x,y,-z
-x,-y,-z
x,-y,z
1/2+x,1/2+y,z
1/2-x,1/2+y,-z
1/2-x,1/2-y,-z
1/2+x,1/2-y,z
loop_
_atom_site_type_symbol
_atom_site_label
_atom_site_fract_x
_atom_site_fract_y
_atom_site_fract_z
Si Si1 0.379034 0.368945 0.786748
Si Si2 0.858648 0.584712 0.688090
Si Si3 0.358088 0.709931 0.357149
Si Si4 0.278177 0.884829 0.353373
Si Si5 0.652152 0.222263 0.936481
Si Si6 0.500000 0.646227 0.500000
Si Si7 0.000000 0.000000 0.000000
Si Si8 0.858605 0.114549 0.133384
O O1 0.496218 0.309025 0.724964
O O2 0.289862 0.408799 0.725060
O O3 0.250742 0.330200 0.862690
O O4 0.498325 0.413209 0.828504
O O5 0.804108 0.500000 0.675263
O O6 0.775223 0.647945 0.644413
O O7 0.798256 0.603371 0.789753
O O8 0.046803 0.587122 0.655038
O O9 0.296656 0.793510 0.351195
O O10 0.422749 0.696500 0.439285
O O11 0.142094 0.901108 0.439383
O O12 0.612166 0.298219 0.891721
O O13 0.500000 0.185358 0.000000
O O14 0.750000 0.250000 0.000000
O O15 0.875813 0.065757 0.049714
#
# Coordination Sequence:
#
# PCOD9209962 Si02
#       8
#     8   8   8   8   8   4   2   8
#     4  10  21  39  56  90 120 166 203 259 315 379
#     4  11  24  42  65  95 129 174 214 263 322 393
#     4  10  21  40  68  93 131 168 215 260 326 391
#     4  11  22  40  67  94 130 165 213 265 327 388
#     4  12  22  34  57  91 127 156 211 271 319 367
#     4  10  22  40  63 100 125 166 210 270 318 386
#     4  12  20  40  60  82 112 166 216 254 296 368
#     4  11  22  40  61  85 122 168 213 251 320 381
#
# _framework density 22.07938
#
# number of rings (size 3 to 8) (size 9 to 14) (size 15 to 20)
#    0.000    1.185    2.963    4.889    2.074    0.593 
#    1.333    4.444    0.000    0.889    0.000    0.000 
#    0.000    0.000    0.000    0.000    0.000    0.000 
#
# Total GULP energy -150679.568574 kJ/mol
# GULP energy per Si atom -5580.724762 kJ/mol
# Density = 2.202913 g / cm^3
# Si number density = 22.079380 Si / 1000 Ang^3
#
#
#
# Elastic Constant Matrix: (Units=GPa)
#
#
# Indices 1 2 3 4 5 6 
#
# 1 116.4543 11.8788 49.9544 0.0000 -21.6988 0.0000
# 2 11.8788 89.1109 15.3218 0.0000 -11.2189 0.0000
# 3 49.9544 15.3218 108.0618 0.0000 -19.1412 0.0000
# 4 0.0000 0.0000 0.0000 -22.6675 0.0000 -12.3375
# 5 -21.6988 -11.2189 -19.1412 0.0000 50.9375 0.0000
# 6 0.0000 0.0000 0.0000 -12.3375 0.0000 5.5223
#
#
#
# Elastic Compliance Matrix: (Units=1/GPa)
#
#
# Indices 1 2 3 4 5 6 
#
# 1 0.011134 -0.000326 -0.004578 0.000000 0.002951 0.000000
# 2 -0.000326 0.011717 -0.001155 0.000000 0.002008 0.000000
# 3 -0.004578 -0.001155 0.011938 0.000000 0.002281 0.000000
# 4 0.000000 0.000000 0.000000 -0.019908 0.000000 -0.044477
# 5 0.002951 0.002008 0.002281 0.000000 0.022189 0.000000
# 6 0.000000 0.000000 0.000000 -0.044477 0.000000 0.081717
#
#
# Mechanical properties :
#
#
# Convention : Reuss Voigt Hill
#
# Bulk Modulus (GPa) = 44.10852 51.99303 48.05077
# Shear Modulus (GPa) = 36.11128 22.52325 29.31727
#
# Velocity S-wave (km/s) = 4.04854 3.19737 3.64787
# Velocity P-wave (km/s) = 6.47108 6.10166 6.28908
#
# Compressibility (1/GPa) = 0.02267136
#
# Stress axis : x y z
#
# Youngs Moduli (GPa) = 89.81557 85.34775 83.76462
#
# Poissons Ratio (x) = 0.02778 0.38348
# Poissons Ratio (y) = 0.02924 0.09676
# Poissons Ratio (z) = 0.41118 0.09859
#
# Static dielectric constant tensor:
#      x y z
#    x 1.800420 0.000000 0.034450 
#    y 0.000000 1.788930 0.000000 
#    z 0.034450 0.000000 1.841220 
# 
# From -- ./inp_files/257087.got.cif
#   From: 2010.05.17/outbox.cif.g08.bks.cpg/sg12_129_cif.got.tgz:257087.got - 2010.06.03 13:09:07.
