data_PCOD9209078
_publ_section_title
;
Structure prediction by ZEFSAII (Michael W. Deem and Ramdas Pophale) SiO2 
 PCOD9209078
Probable space group: C 2/M
;
_chemical_formula_sum "Si O2"
_cell_formula_units_Z 40
_cell_length_a 32.142710
_cell_length_b 8.703962
_cell_length_c 22.786448
_cell_angle_alpha 90.000000
_cell_angle_beta 160.569870
_cell_angle_gamma 90.000000
_cell_volume 2120.669060
_symmetry_space_group_name_H-M "C 2/M"
_symmetry_group_IT_number 12
_symmetry_cell_setting 'monoclinic'
loop_
_space_group_symop_operation_xyz
x,y,z
-x,y,-z
-x,-y,-z
x,-y,z
1/2+x,1/2+y,z
1/2-x,1/2+y,-z
1/2-x,1/2-y,-z
1/2+x,1/2-y,z
loop_
_atom_site_type_symbol
_atom_site_label
_atom_site_fract_x
_atom_site_fract_y
_atom_site_fract_z
Si Si1 0.467114 0.316450 0.632119
Si Si2 0.418256 0.814676 0.334496
Si Si3 0.808887 0.816567 0.730669
Si Si4 0.973570 0.683101 0.054363
Si Si5 0.372478 0.684659 0.039631
O O1 0.450690 0.500000 0.608923
O O2 0.526922 0.260481 0.650937
O O3 0.333029 0.237991 0.462464
O O4 0.558265 0.277974 0.807520
O O5 0.500000 0.771643 0.500000
O O6 0.424917 0.000000 0.337048
O O7 0.273476 0.772352 0.151129
O O8 0.894695 0.751243 0.792471
O O9 0.816885 0.000000 0.742370
O O10 0.870786 0.750662 0.872548
O O11 0.975951 0.500000 0.052171
O O12 0.938408 0.734450 0.072687
O O13 0.379070 0.500000 0.039751
#
# Coordination Sequence:
#
# PCOD9209078 Si02
#       5
#     8   8   8   8   8
#     4  11  23  38  58  86 120 155 196 244 289 340
#     4  10  21  38  61  86 114 153 198 241 290 350
#     4  11  22  39  62  85 116 156 196 239 291 347
#     4  11  22  38  62  90 118 149 193 243 289 344
#     4  10  22  39  58  85 122 159 193 235 292 351
#
# _framework density 18.861972000000002
#
# number of rings (size 3 to 8) (size 9 to 14) (size 15 to 20)
#    0.000    1.400    0.000    7.200    0.000    5.200 
#    0.000    0.000    0.000    0.000    0.000    0.000 
#    0.000    0.000    0.000    0.000    0.000    0.000 
#
# Total GULP energy -111865.406592 kJ/mol
# GULP energy per Si atom -5593.270330 kJ/mol
# Density = 1.881904 g / cm^3
# Si number density = 18.861972 Si / 1000 Ang^3
#
#
#
# Elastic Constant Matrix: (Units=GPa)
#
#
# Indices 1 2 3 4 5 6 
#
# 1 -31.3331 346.6740 1275.6032 0.0000 217.8647 0.0000
# 2 346.6740 -204.3770-1333.8949 0.0000 -269.4245 0.0000
# 3 1275.6032-1333.8949-6247.5154 -0.0001-1204.7545 0.0001
# 4 0.0000 0.0000 -0.0001 48.0169 0.0000 -22.1768
# 5 217.8647 -269.4245-1204.7545 0.0000 -210.5226 0.0000
# 6 0.0000 0.0000 0.0001 -22.1768 0.0000 59.3239
#
#
#
# Elastic Compliance Matrix: (Units=1/GPa)
#
#
# Indices 1 2 3 4 5 6 
#
# 1 0.006840 -0.005445 0.001445 0.000000 0.005775 0.000000
# 2 -0.005445 0.017923 -0.005518 0.000000 0.003007 0.000000
# 3 0.001445 -0.005518 0.003255 0.000000 -0.010070 0.000000
# 4 0.000000 0.000000 0.000000 0.025172 0.000000 0.009410
# 5 0.005775 0.003007 -0.010070 0.000000 0.055006 0.000000
# 6 0.000000 0.000000 0.000000 0.009410 0.000000 0.020374
#
#
# Mechanical properties :
#
#
# Convention : Reuss Voigt Hill
#
# Bulk Modulus (GPa) = 111.33438 -656.27343 -272.46952
# Shear Modulus (GPa) = 33.20060 -472.07687 -219.43813
#
# Velocity S-wave (km/s) = 4.20001 -15.83739 -10.79775
# Velocity P-wave (km/s) = 9.09253 26.13658 17.32695
#
# Compressibility (1/GPa) = 0.00898195
#
# Stress axis : x y z
#
# Youngs Moduli (GPa) = 146.20579 55.79467 307.21130
#
# Poissons Ratio (x) = 0.30380 -0.44402
# Poissons Ratio (y) = 0.79608 1.69526
# Poissons Ratio (z) = -0.21131 0.30789
#
# Static dielectric constant tensor:
#      x y z
#    x 1.614710 0.000000 -0.001500 
#    y 0.000000 1.637610 0.000000 
#    z -0.001500 0.000000 1.632380 
# 
# From -- ./inp_files/151617.got.cif
#   From: 2010.05.17/outbox.cif.g08.bks.cpg/sg12_76_cif.got.tgz:151617.got - 2010.06.03 13:09:07.
