data_PCOD9209536
_publ_section_title
;
Structure prediction by ZEFSAII (Michael W. Deem and Ramdas Pophale) SiO2 
 PCOD9209536
Probable space group: C 2/M
;
_chemical_formula_sum "Si O2"
_cell_formula_units_Z 42
_cell_length_a 9.718662
_cell_length_b 10.673607
_cell_length_c 20.627113
_cell_angle_alpha 90.000000
_cell_angle_beta 74.674794
_cell_angle_gamma 90.000000
_cell_volume 2063.630352
_symmetry_space_group_name_H-M "C 2/M"
_symmetry_group_IT_number 12
_symmetry_cell_setting 'monoclinic'
loop_
_space_group_symop_operation_xyz
x,y,z
-x,y,-z
-x,-y,-z
x,-y,z
1/2+x,1/2+y,z
1/2-x,1/2+y,-z
1/2-x,1/2-y,-z
1/2+x,1/2-y,z
loop_
_atom_site_type_symbol
_atom_site_label
_atom_site_fract_x
_atom_site_fract_y
_atom_site_fract_z
Si Si1 0.500000 0.500000 0.500000
Si Si2 0.363603 0.357325 0.970527
Si Si3 0.539591 0.141739 0.570590
Si Si4 0.852502 0.360702 0.241006
Si Si5 0.924282 0.143561 0.810725
Si Si6 0.696814 0.693590 0.391959
O O1 0.586057 0.607659 0.445756
O O2 0.307309 0.500000 0.987086
O O3 0.410751 0.347194 0.889863
O O4 0.500000 0.342665 0.000000
O O5 0.250000 0.250000 0.000000
O O6 0.500000 0.141337 0.500000
O O7 0.395048 0.188630 0.620749
O O8 0.672870 0.224819 0.575942
O O9 0.579993 0.000000 0.582920
O O10 0.915572 0.500000 0.222419
O O11 0.731068 0.338442 0.202038
O O12 0.770027 0.362277 0.319693
O O13 0.966956 0.249608 0.226646
O O14 0.969310 0.000000 0.788451
#
# Coordination Sequence:
#
# PCOD9209536 Si02
#       6
#     2   8   8   8   8   8
#     4  12  24  40  68  84 120 152 198 258 318 358
#     4  10  21  38  62  94 130 165 206 250 298 352
#     4  11  24  40  58  87 112 144 191 243 302 372
#     4  11  23  41  62  88 120 162 207 252 303 371
#     4  10  23  41  62  93 127 164 206 251 300 361
#     4  12  24  42  63  86 118 155 196 253 315 362
#
# _framework density 20.352481999999998
#
# number of rings (size 3 to 8) (size 9 to 14) (size 15 to 20)
#    0.000    1.143    2.857    2.857    0.000    2.667 
#    0.000    0.000    0.000    0.000    0.000    0.000 
#    0.000    0.000    0.000    0.000    0.000    0.000 
#
# Total GULP energy -116972.609773 kJ/mol
# GULP energy per Si atom -5570.124275 kJ/mol
# Density = 2.030616 g / cm^3
# Si number density = 20.352482 Si / 1000 Ang^3
#
#
#
# Elastic Constant Matrix: (Units=GPa)
#
#
# Indices 1 2 3 4 5 6 
#
# 1 75.0040 31.2203 9.2760 0.0000 4.1123 0.0000
# 2 31.2203 115.6044 12.7127 0.0000 -30.1251 0.0000
# 3 9.2760 12.7127 49.0185 0.0000 5.4833 0.0000
# 4 0.0000 0.0000 0.0000 12.0711 0.0000 -7.5800
# 5 4.1123 -30.1251 5.4833 0.0000 33.9050 0.0000
# 6 0.0000 0.0000 0.0000 -7.5800 0.0000 35.3758
#
#
#
# Elastic Compliance Matrix: (Units=1/GPa)
#
#
# Indices 1 2 3 4 5 6 
#
# 1 0.016461 -0.006337 -0.000630 0.000000 -0.007525 0.000000
# 2 -0.006337 0.014574 -0.004191 0.000000 0.014395 0.000000
# 3 -0.000630 -0.004191 0.022420 0.000000 -0.007273 0.000000
# 4 0.000000 0.000000 0.000000 0.095722 0.000000 0.020510
# 5 -0.007525 0.014395 -0.007273 0.000000 0.044374 0.000000
# 6 0.000000 0.000000 0.000000 0.020510 0.000000 0.032663
#
#
# Mechanical properties :
#
#
# Convention : Reuss Voigt Hill
#
# Bulk Modulus (GPa) = 32.11353 38.44944 35.28148
# Shear Modulus (GPa) = 19.31188 28.69826 24.00507
#
# Velocity S-wave (km/s) = 3.08372 3.75915 3.43806
# Velocity P-wave (km/s) = 5.33779 6.14609 5.75615
#
# Compressibility (1/GPa) = 0.03113952
#
# Stress axis : x y z
#
# Youngs Moduli (GPa) = 60.74977 68.61650 44.60298
#
# Poissons Ratio (x) = 0.43484 0.02808
# Poissons Ratio (y) = 0.38499 0.18692
# Poissons Ratio (z) = 0.03825 0.28755
#
# Static dielectric constant tensor:
#      x y z
#    x 1.710510 0.000000 0.020360 
#    y 0.000000 1.752000 0.000000 
#    z 0.020360 0.000000 1.719040 
# 
# From -- ./inp_files/299198.got.cif
#   From: 2010.05.17/outbox.cif.g08.bks.cpg/sg12_150_cif.got.tgz:299198.got - 2010.06.03 13:09:07.
