data_PCOD9209177
_publ_section_title
;
Structure prediction by ZEFSAII (Michael W. Deem and Ramdas Pophale) SiO2 
 PCOD9209177
Probable space group: C 2/M
;
_chemical_formula_sum "Si O2"
_cell_formula_units_Z 64
_cell_length_a 19.407565
_cell_length_b 9.027372
_cell_length_c 29.725743
_cell_angle_alpha 90.000000
_cell_angle_beta 145.852184
_cell_angle_gamma 90.000000
_cell_volume 2923.366380
_symmetry_space_group_name_H-M "C 2/M"
_symmetry_group_IT_number 12
_symmetry_cell_setting 'monoclinic'
loop_
_space_group_symop_operation_xyz
x,y,z
-x,y,-z
-x,-y,-z
x,-y,z
1/2+x,1/2+y,z
1/2-x,1/2+y,-z
1/2-x,1/2-y,-z
1/2+x,1/2-y,z
loop_
_atom_site_type_symbol
_atom_site_label
_atom_site_fract_x
_atom_site_fract_y
_atom_site_fract_z
Si Si1 0.123198 0.171949 0.879953
Si Si2 0.234380 0.824838 0.374908
Si Si3 0.416025 0.170296 0.050769
Si Si4 0.235615 0.823721 0.700531
Si Si5 0.657633 0.671818 0.800532
Si Si6 0.913236 0.172726 0.615319
Si Si7 0.356640 0.674764 0.853827
Si Si8 0.028688 0.673542 0.441654
O O1 0.071443 0.273549 0.891146
O O2 0.093455 0.212921 0.812849
O O3 0.088984 0.000000 0.869983
O O4 0.271875 0.182214 0.962168
O O5 0.207337 0.734650 0.315428
O O6 0.159742 0.782511 0.379320
O O7 0.376967 0.807635 0.466301
O O8 0.211018 0.000000 0.354172
O O9 0.504042 0.269303 0.068032
O O10 0.453200 0.000000 0.066702
O O11 0.300101 0.749948 0.778403
O O12 0.094035 0.769753 0.622286
O O13 0.242231 0.000000 0.707747
O O14 0.696441 0.500000 0.826330
O O15 0.556021 0.679171 0.706904
O O16 0.772557 0.769837 0.849219
O O17 0.899857 0.275903 0.564952
O O18 0.883035 0.000000 0.588951
O O19 0.351084 0.500000 0.846537
O O20 0.995830 0.500000 0.421037
#
# Coordination Sequence:
#
# PCOD9209177 Si02
#       8
#     8   8   8   8   8   8   8   8
#     4   9  20  39  64  94 127 163 198 242 299 352
#     4  10  23  40  60  90 122 158 200 246 302 359
#     4  10  21  39  63  93 128 161 200 245 292 352
#     4  12  25  41  61  88 119 155 203 253 303 358
#     4  10  21  39  62  89 121 159 201 245 298 355
#     4  10  21  38  61  88 121 158 199 248 297 353
#     4  12  25  41  62  87 120 160 202 249 303 357
#     4  11  22  39  62  87 122 160 199 246 299 359
#
# _framework density 21.892569000000002
#
# number of rings (size 3 to 8) (size 9 to 14) (size 15 to 20)
#    0.000    1.500    1.250    3.750    1.750    4.500 
#    0.000    2.500    0.000    0.000    0.000    0.000 
#    0.000    0.000    0.000    0.000    0.000    0.000 
#
# Total GULP energy -179070.784066 kJ/mol
# GULP energy per Si atom -5595.962002 kJ/mol
# Density = 2.184274 g / cm^3
# Si number density = 21.892569 Si / 1000 Ang^3
#
#
#
# Elastic Constant Matrix: (Units=GPa)
#
#
# Indices 1 2 3 4 5 6 
#
# 1 69.0660 23.8662 -1.6110 0.0000 5.4546 0.0000
# 2 23.8662 88.2986 9.3729 0.0000 0.3176 0.0000
# 3 -1.6110 9.3729 35.5522 0.0000 -4.4198 0.0000
# 4 0.0000 0.0000 0.0000 21.8011 0.0000 0.1170
# 5 5.4546 0.3176 -4.4198 0.0000 37.1643 0.0000
# 6 0.0000 0.0000 0.0000 0.1170 0.0000 40.7389
#
#
#
# Elastic Compliance Matrix: (Units=1/GPa)
#
#
# Indices 1 2 3 4 5 6 
#
# 1 0.016266 -0.004566 0.001674 0.000000 -0.002149 0.000000
# 2 -0.004566 0.012941 -0.003602 0.000000 0.000131 0.000000
# 3 0.001674 -0.003602 0.029564 0.000000 0.003301 0.000000
# 4 0.000000 0.000000 0.000000 0.045870 0.000000 -0.000132
# 5 -0.002149 0.000131 0.003301 0.000000 0.027614 0.000000
# 6 0.000000 0.000000 0.000000 -0.000132 0.000000 0.024547
#
#
# Mechanical properties :
#
#
# Convention : Reuss Voigt Hill
#
# Bulk Modulus (GPa) = 21.84339 28.46367 25.15353
# Shear Modulus (GPa) = 27.01939 30.69344 28.85642
#
# Velocity S-wave (km/s) = 3.51690 3.74839 3.63449
# Velocity P-wave (km/s) = 5.14691 5.63593 5.39696
#
# Compressibility (1/GPa) = 0.04578044
#
# Stress axis : x y z
#
# Youngs Moduli (GPa) = 61.47943 77.27150 33.82533
#
# Poissons Ratio (x) = 0.35285 -0.05661
# Poissons Ratio (y) = 0.28074 0.12185
# Poissons Ratio (z) = -0.10290 0.27837
#
# Static dielectric constant tensor:
#      x y z
#    x 1.820140 0.000000 0.024640 
#    y 0.000000 1.727920 0.000000 
#    z 0.024640 0.000000 1.837960 
# 
# From -- ./inp_files/378459.got.cif
#   From: 2010.05.17/outbox.cif.g08.bks.cpg/sg12_190_cif.got.tgz:378459.got - 2010.06.03 13:09:07.
