data_PCOD9209199
_publ_section_title
;
Structure prediction by ZEFSAII (Michael W. Deem and Ramdas Pophale) SiO2 
 PCOD9209199
Probable space group: C 2/M
;
_chemical_formula_sum "Si O2"
_cell_formula_units_Z 42
_cell_length_a 27.923119
_cell_length_b 9.600784
_cell_length_c 8.302181
_cell_angle_alpha 90.000000
_cell_angle_beta 121.064501
_cell_angle_gamma 90.000000
_cell_volume 1906.488886
_symmetry_space_group_name_H-M "C 2/M"
_symmetry_group_IT_number 12
_symmetry_cell_setting 'monoclinic'
loop_
_space_group_symop_operation_xyz
x,y,z
-x,y,-z
-x,-y,-z
x,-y,z
1/2+x,1/2+y,z
1/2-x,1/2+y,-z
1/2-x,1/2-y,-z
1/2+x,1/2-y,z
loop_
_atom_site_type_symbol
_atom_site_label
_atom_site_fract_x
_atom_site_fract_y
_atom_site_fract_z
Si Si1 0.000000 0.000000 0.500000
Si Si2 0.273119 0.662525 0.788498
Si Si3 0.636830 0.838583 0.897756
Si Si4 0.930031 0.743406 0.524439
Si Si5 0.469909 0.158883 0.098833
Si Si6 0.826554 0.837939 0.526896
O O1 0.956836 0.879231 0.490913
O O2 0.263570 0.500000 0.809816
O O3 0.216494 0.744139 0.649438
O O4 0.308246 0.671100 0.681527
O O5 0.309738 0.741829 0.984994
O O6 0.608039 0.831259 0.674111
O O7 0.587551 0.783244 0.931288
O O8 0.650273 0.000000 0.958906
O O9 0.982861 0.658932 0.682220
O O10 0.888537 0.784119 0.597724
O O11 0.456245 0.000000 0.028102
O O12 0.500000 0.230982 0.000000
O O13 0.822102 0.000000 0.471121
#
# Coordination Sequence:
#
# PCOD9209199 Si02
#       6
#     2   8   8   8   8   8
#     4  12  24  40  60  96 124 172 200 256 300 378
#     4  10  23  41  65  93 122 159 210 260 310 367
#     4  11  23  39  61  89 126 165 206 254 309 369
#     4  12  23  40  63  90 128 162 206 251 313 365
#     4  10  21  38  61  89 119 158 205 254 308 366
#     4  10  22  42  65  91 123 163 205 257 313 369
#
# _framework density 22.030025999999999
#
# number of rings (size 3 to 8) (size 9 to 14) (size 15 to 20)
#    0.000    1.333    2.857    2.286    1.333    4.571 
#    0.000    0.476    0.000    0.000    0.000    0.000 
#    0.000    0.000    0.000    0.000    0.000    0.000 
#
# Total GULP energy -117086.144682 kJ/mol
# GULP energy per Si atom -5575.530699 kJ/mol
# Density = 2.197989 g / cm^3
# Si number density = 22.030026 Si / 1000 Ang^3
#
#
#
# Elastic Constant Matrix: (Units=GPa)
#
#
# Indices 1 2 3 4 5 6 
#
# 1 88.9298 6.8012 -12.2325 0.0000 11.4933 0.0000
# 2 6.8012 83.2969 12.6360 0.0000 14.5313 0.0000
# 3 -12.2325 12.6360 74.8578 0.0000 18.7211 0.0000
# 4 0.0000 0.0000 0.0000 -34.2857 0.0000 39.0558
# 5 11.4933 14.5313 18.7211 0.0000 33.3609 0.0000
# 6 0.0000 0.0000 0.0000 39.0558 0.0000 4.6279
#
#
#
# Elastic Compliance Matrix: (Units=1/GPa)
#
#
# Indices 1 2 3 4 5 6 
#
# 1 0.012591 -0.000509 0.003691 0.000000 -0.006187 0.000000
# 2 -0.000509 0.013066 -0.001058 0.000000 -0.004923 0.000000
# 3 0.003691 -0.001058 0.016685 0.000000 -0.010174 0.000000
# 4 0.000000 0.000000 0.000000 -0.002748 0.000000 0.023192
# 5 -0.006187 -0.004923 -0.010174 0.000000 0.039960 0.000000
# 6 0.000000 0.000000 0.000000 0.023192 0.000000 0.020359
#
#
# Mechanical properties :
#
#
# Convention : Reuss Voigt Hill
#
# Bulk Modulus (GPa) = 21.46339 29.05486 25.25913
# Shear Modulus (GPa) = 44.96645 16.73261 30.84953
#
# Velocity S-wave (km/s) = 4.52280 2.75896 3.74617
# Velocity P-wave (km/s) = 6.08591 4.83389 5.49567
#
# Compressibility (1/GPa) = 0.04659097
#
# Stress axis : x y z
#
# Youngs Moduli (GPa) = 79.42154 76.53481 59.93539
#
# Poissons Ratio (x) = 0.03892 -0.22121
# Poissons Ratio (y) = 0.04039 0.06338
# Poissons Ratio (z) = -0.29312 0.08094
#
# Static dielectric constant tensor:
#      x y z
#    x 1.829960 0.000000 -0.070470 
#    y 0.000000 1.769760 0.000000 
#    z -0.070470 0.000000 1.817960 
# 
# From -- ./inp_files/108523.got.cif
#   From: 2010.05.17/outbox.cif.g08.bks.cpg/sg12_55_cif.got.tgz:108523.got - 2010.06.03 13:09:07.
