data_PCOD9209359
_publ_section_title
;
Structure prediction by ZEFSAII (Michael W. Deem and Ramdas Pophale) SiO2 
 PCOD9209359
Probable space group: C 2/M
;
_chemical_formula_sum "Si O2"
_cell_formula_units_Z 40
_cell_length_a 19.480427
_cell_length_b 8.874278
_cell_length_c 12.206459
_cell_angle_alpha 90.000000
_cell_angle_beta 104.545972
_cell_angle_gamma 90.000000
_cell_volume 2042.549180
_symmetry_space_group_name_H-M "C 2/M"
_symmetry_group_IT_number 12
_symmetry_cell_setting 'monoclinic'
loop_
_space_group_symop_operation_xyz
x,y,z
-x,y,-z
-x,-y,-z
x,-y,z
1/2+x,1/2+y,z
1/2-x,1/2+y,-z
1/2-x,1/2-y,-z
1/2+x,1/2-y,z
loop_
_atom_site_type_symbol
_atom_site_label
_atom_site_fract_x
_atom_site_fract_y
_atom_site_fract_z
Si Si1 0.314537 0.320701 0.593821
Si Si2 0.289615 0.681166 0.838952
Si Si3 0.571487 0.683374 0.969141
Si Si4 0.138448 0.180585 0.774393
Si Si5 0.915684 0.323935 0.471923
O O1 0.313268 0.500000 0.580920
O O2 0.250000 0.250000 0.500000
O O3 0.306158 0.285751 0.718283
O O4 0.385000 0.255617 0.567036
O O5 0.280217 0.500000 0.846457
O O6 0.216626 0.763109 0.839207
O O7 0.357564 0.727647 0.937131
O O8 0.569281 0.500000 0.970576
O O9 0.583117 0.726855 0.847328
O O10 0.500000 0.737434 0.000000
O O11 0.118549 0.250996 0.649843
O O12 0.138549 0.000000 0.765938
O O13 0.896314 0.500000 0.466751
O O14 0.000000 0.309091 0.500000
#
# Coordination Sequence:
#
# PCOD9209359 Si02
#       5
#     8   8   8   8   8
#     4  11  22  37  62  92 122 157 198 244 295 357
#     4  10  21  38  62  87 120 159 193 241 296 353
#     4   9  20  38  60  88 118 152 197 246 297 352
#     4  11  22  37  63  90 116 155 201 248 294 356
#     4  11  25  42  60  85 123 163 198 248 304 354
#
# _framework density 19.583371
#
# number of rings (size 3 to 8) (size 9 to 14) (size 15 to 20)
#    0.000    1.600    2.000    2.400    2.800    2.400 
#    0.000    1.000    0.000    3.000    0.000    0.000 
#    0.000    0.000    0.000    0.000    0.000    0.000 
#
# Total GULP energy -111783.619211 kJ/mol
# GULP energy per Si atom -5589.180961 kJ/mol
# Density = 1.953880 g / cm^3
# Si number density = 19.583371 Si / 1000 Ang^3
#
#
#
# Elastic Constant Matrix: (Units=GPa)
#
#
# Indices 1 2 3 4 5 6 
#
# 1 99.2680 30.1472 22.7574 0.0000 -24.5185 0.0000
# 2 30.1472 33.1650 19.5043 0.0000 -12.0935 0.0000
# 3 22.7574 19.5043 52.0262 0.0000 -12.3494 0.0000
# 4 0.0000 0.0000 0.0000 5.9292 0.0000 -6.3715
# 5 -24.5185 -12.0935 -12.3494 0.0000 37.7308 0.0000
# 6 0.0000 0.0000 0.0000 -6.3715 0.0000 27.1816
#
#
#
# Elastic Compliance Matrix: (Units=1/GPa)
#
#
# Indices 1 2 3 4 5 6 
#
# 1 0.015114 -0.010916 -0.001104 0.000000 0.005962 0.000000
# 2 -0.010916 0.049117 -0.012562 0.000000 0.004538 0.000000
# 3 -0.001104 -0.012562 0.025249 0.000000 0.003520 0.000000
# 4 0.000000 0.000000 0.000000 0.225443 0.000000 0.052845
# 5 0.005962 0.004538 0.003520 0.000000 0.032984 0.000000
# 6 0.000000 0.000000 0.000000 0.052845 0.000000 0.049177
#
#
# Mechanical properties :
#
#
# Convention : Reuss Voigt Hill
#
# Bulk Modulus (GPa) = 24.80320 36.58634 30.69477
# Shear Modulus (GPa) = 10.87697 21.63836 16.25766
#
# Velocity S-wave (km/s) = 2.35929 3.32766 2.88441
# Velocity P-wave (km/s) = 4.48493 5.78683 5.17697
#
# Compressibility (1/GPa) = 0.04031738
#
# Stress axis : x y z
#
# Youngs Moduli (GPa) = 66.16178 20.35946 39.60575
#
# Poissons Ratio (x) = 0.22224 0.04372
# Poissons Ratio (y) = 0.72222 0.49751
# Poissons Ratio (z) = 0.07304 0.25575
#
# Static dielectric constant tensor:
#      x y z
#    x 1.695340 0.000000 -0.015520 
#    y 0.000000 1.657910 0.000000 
#    z -0.015520 0.000000 1.671300 
# 
# From -- ./inp_files/151696.got.cif
#   From: 2010.05.17/outbox.cif.g08.bks.cpg/sg12_76_cif.got.tgz:151696.got - 2010.06.03 13:09:07.
