data_PCOD9209542
_publ_section_title
;
Structure prediction by ZEFSAII (Michael W. Deem and Ramdas Pophale) SiO2 
 PCOD9209542
Probable space group: C 2/M
;
_chemical_formula_sum "Si O2"
_cell_formula_units_Z 50
_cell_length_a 28.444892
_cell_length_b 9.389695
_cell_length_c 11.662953
_cell_angle_alpha 90.000000
_cell_angle_beta 123.832132
_cell_angle_gamma 90.000000
_cell_volume 2587.581644
_symmetry_space_group_name_H-M "C 2/M"
_symmetry_group_IT_number 12
_symmetry_cell_setting 'monoclinic'
loop_
_space_group_symop_operation_xyz
x,y,z
-x,y,-z
-x,-y,-z
x,-y,z
1/2+x,1/2+y,z
1/2-x,1/2+y,-z
1/2-x,1/2-y,-z
1/2+x,1/2-y,z
loop_
_atom_site_type_symbol
_atom_site_label
_atom_site_fract_x
_atom_site_fract_y
_atom_site_fract_z
Si Si1 0.651144 0.842743 0.681416
Si Si2 0.861882 0.831134 0.930099
Si Si3 0.000000 0.000000 0.500000
Si Si4 0.446788 0.329040 0.852210
Si Si5 0.921548 0.653618 0.187507
Si Si6 0.245850 0.329435 0.117672
Si Si7 0.956464 0.257388 0.602251
O O1 0.621649 0.834098 0.765974
O O2 0.697713 0.719858 0.738880
O O3 0.599869 0.828131 0.523482
O O4 0.677917 0.000000 0.707627
O O5 0.889552 0.798186 0.844963
O O6 0.808066 0.736653 0.890538
O O7 0.850321 0.000000 0.923491
O O8 0.909564 0.785088 0.087672
O O9 0.970203 0.122834 0.540795
O O10 0.452144 0.500000 0.855362
O O11 0.447313 0.275868 0.723705
O O12 0.500000 0.274332 0.000000
O O13 0.911566 0.500000 0.116051
O O14 0.984833 0.656660 0.320691
O O15 0.242362 0.500000 0.099506
O O16 0.250000 0.250000 0.000000
#
# Coordination Sequence:
#
# PCOD9209542 Si02
#       7
#     8   8   2   8   8   8   8
#     4  11  24  41  63  93 132 170 213 271 334 388
#     4  11  23  40  65  93 128 170 215 265 319 386
#     4  12  24  32  64 100 136 160 214 270 306 398
#     4  10  21  38  62  94 132 172 214 264 320 389
#     4  11  22  37  61  93 133 168 208 264 328 385
#     4  12  25  42  67  95 128 167 218 275 330 386
#     4  12  23  39  63  97 137 170 214 264 329 385
#
# _framework density 19.323062
#
# number of rings (size 3 to 8) (size 9 to 14) (size 15 to 20)
#    0.000    0.800    5.600    2.400    2.240    1.280 
#    0.000    4.800    0.000    0.000    0.000    0.000 
#    0.000    0.000    0.000    0.000    0.000    0.000 
#
# Total GULP energy -139338.374932 kJ/mol
# GULP energy per Si atom -5573.534997 kJ/mol
# Density = 1.927908 g / cm^3
# Si number density = 19.323062 Si / 1000 Ang^3
#
#
#
# Elastic Constant Matrix: (Units=GPa)
#
#
# Indices 1 2 3 4 5 6 
#
# 1 94.2884 63.1784 29.3719 0.0000 5.3403 0.0000
# 2 63.1784 127.4470 25.5257 0.0000 0.1748 0.0000
# 3 29.3719 25.5257 66.0868 0.0000 3.4316 0.0000
# 4 0.0000 0.0000 0.0000 -37.7887 0.0000 -22.4609
# 5 5.3403 0.1748 3.4316 0.0000 38.7779 0.0000
# 6 0.0000 0.0000 0.0000 -22.4609 0.0000 4.4482
#
#
#
# Elastic Compliance Matrix: (Units=1/GPa)
#
#
# Indices 1 2 3 4 5 6 
#
# 1 0.017271 -0.007632 -0.004628 0.000000 -0.001935 0.000000
# 2 -0.007632 0.011879 -0.001254 0.000000 0.001108 0.000000
# 3 -0.004628 -0.001254 0.017721 0.000000 -0.000925 0.000000
# 4 0.000000 0.000000 0.000000 -0.006614 0.000000 -0.033395
# 5 -0.001935 0.001108 -0.000925 0.000000 0.026131 0.000000
# 6 0.000000 0.000000 0.000000 -0.033395 0.000000 0.056184
#
#
# Mechanical properties :
#
#
# Convention : Reuss Voigt Hill
#
# Bulk Modulus (GPa) = 50.39366 58.21936 54.30651
# Shear Modulus (GPa) = 32.00731 12.40391 22.20561
#
# Velocity S-wave (km/s) = 4.07434 2.53637 3.39363
# Velocity P-wave (km/s) = 6.94765 6.22675 6.59706
#
# Compressibility (1/GPa) = 0.01984376
#
# Stress axis : x y z
#
# Youngs Moduli (GPa) = 57.90147 84.17954 56.43126
#
# Poissons Ratio (x) = 0.64246 0.26114
# Poissons Ratio (y) = 0.44190 0.07076
# Poissons Ratio (z) = 0.26794 0.10555
#
# Static dielectric constant tensor:
#      x y z
#    x 1.670220 0.000000 0.024440 
#    y 0.000000 1.700490 0.000000 
#    z 0.024440 0.000000 1.700940 
# 
# From -- ./inp_files/180205.got.cif
#   From: 2010.05.17/outbox.cif.g08.bks.cpg/sg12_91_cif.got.tgz:180205.got - 2010.06.03 13:09:07.
