data_PCOD9209493
_publ_section_title
;
Structure prediction by ZEFSAII (Michael W. Deem and Ramdas Pophale) SiO2 
 PCOD9209493
Probable space group: C 2/M
;
_chemical_formula_sum "Si O2"
_cell_formula_units_Z 64
_cell_length_a 25.828709
_cell_length_b 14.249248
_cell_length_c 8.786283
_cell_angle_alpha 90.000000
_cell_angle_beta 72.364490
_cell_angle_gamma 90.000000
_cell_volume 3081.726827
_symmetry_space_group_name_H-M "C 2/M"
_symmetry_group_IT_number 12
_symmetry_cell_setting 'monoclinic'
loop_
_space_group_symop_operation_xyz
x,y,z
-x,y,-z
-x,-y,-z
x,-y,z
1/2+x,1/2+y,z
1/2-x,1/2+y,-z
1/2-x,1/2-y,-z
1/2+x,1/2-y,z
loop_
_atom_site_type_symbol
_atom_site_label
_atom_site_fract_x
_atom_site_fract_y
_atom_site_fract_z
Si Si1 0.195486 0.243695 0.451750
Si Si2 0.963115 0.216981 0.668160
Si Si3 0.201900 0.889869 0.153030
Si Si4 0.175366 0.394289 0.986311
Si Si5 0.403674 0.609426 0.962235
Si Si6 0.036830 0.605865 0.683804
Si Si7 0.620556 0.145186 0.348981
Si Si8 0.117188 0.732029 0.793482
O O1 0.250000 0.250000 0.500000
O O2 0.200238 0.170232 0.309604
O O3 0.176253 0.341496 0.391783
O O4 0.148395 0.228979 0.618519
O O5 0.951115 0.141493 0.805895
O O6 0.905817 0.252326 0.653693
O O7 0.000000 0.179905 0.500000
O O8 0.991021 0.314721 0.698935
O O9 0.153736 0.871573 0.075089
O O10 0.197055 0.000000 0.196771
O O11 0.261815 0.874653 0.028042
O O12 0.172990 0.500000 0.924793
O O13 0.136772 0.391068 0.168967
O O14 0.156339 0.320293 0.877947
O O15 0.405908 0.500000 0.997906
O O16 0.408129 0.679749 0.098678
O O17 0.017675 0.500000 0.734575
O O18 0.075094 0.599878 0.498307
O O19 0.074697 0.652763 0.777911
#
# Coordination Sequence:
#
# PCOD9209493 Si02
#       8
#     8   8   8   8   8   8   8   8
#     4  11  21  36  60  88 125 173 201 252 307 368
#     4  10  21  41  68  93 120 160 214 257 312 372
#     4  10  22  39  62  91 122 166 217 256 305 373
#     4  11  21  36  61  95 130 166 207 253 303 376
#     4  11  24  45  67  90 123 161 216 274 311 363
#     4  10  23  42  64  95 132 166 202 255 317 383
#     4  10  21  38  62  92 126 167 210 249 299 370
#     4  11  23  39  62  91 130 168 207 252 324 374
#
# _framework density 20.767575999999998
#
# number of rings (size 3 to 8) (size 9 to 14) (size 15 to 20)
#    0.000    1.500    3.750    0.750    1.750    5.000 
#    0.000    2.500    0.000    0.000    0.000    0.000 
#    0.000    0.000    0.000    0.000    0.000    0.000 
#
# Total GULP energy -178539.266901 kJ/mol
# GULP energy per Si atom -5579.352091 kJ/mol
# Density = 2.072031 g / cm^3
# Si number density = 20.767576 Si / 1000 Ang^3
#
#
#
# Elastic Constant Matrix: (Units=GPa)
#
#
# Indices 1 2 3 4 5 6 
#
# 1 64.2275 8.3233 3.8696 0.0000 -4.2096 0.0000
# 2 8.3233 62.9360 36.1869 0.0000 -4.3745 0.0000
# 3 3.8696 36.1869 93.6028 0.0000 -8.9175 0.0000
# 4 0.0000 0.0000 0.0000 7.9040 0.0000 -5.0052
# 5 -4.2096 -4.3745 -8.9175 0.0000 20.9851 0.0000
# 6 0.0000 0.0000 0.0000 -5.0052 0.0000 17.5811
#
#
#
# Elastic Compliance Matrix: (Units=1/GPa)
#
#
# Indices 1 2 3 4 5 6 
#
# 1 0.016018 -0.002178 0.000461 0.000000 0.002955 0.000000
# 2 -0.002178 0.020745 -0.007878 0.000000 0.000539 0.000000
# 3 0.000461 -0.007878 0.014135 0.000000 0.004457 0.000000
# 4 0.000000 0.000000 0.000000 0.154342 0.000000 0.043940
# 5 0.002955 0.000539 0.004457 0.000000 0.050252 0.000000
# 6 0.000000 0.000000 0.000000 0.043940 0.000000 0.069388
#
#
# Mechanical properties :
#
#
# Convention : Reuss Voigt Hill
#
# Bulk Modulus (GPa) = 31.53904 35.28065 33.40984
# Shear Modulus (GPa) = 14.09883 20.78648 17.44266
#
# Velocity S-wave (km/s) = 2.60837 3.16715 2.90124
# Velocity P-wave (km/s) = 4.92860 5.51359 5.22928
#
# Compressibility (1/GPa) = 0.03170674
#
# Stress axis : x y z
#
# Youngs Moduli (GPa) = 62.43041 48.20507 70.74753
#
# Poissons Ratio (x) = 0.10501 -0.03265
# Poissons Ratio (y) = 0.13599 0.55738
# Poissons Ratio (z) = -0.02881 0.37978
#
# Static dielectric constant tensor:
#      x y z
#    x 1.821070 0.000000 0.002600 
#    y 0.000000 1.740820 0.000000 
#    z 0.002600 0.000000 1.749410 
# 
# From -- ./inp_files/104494.got.cif
#   From: 2010.05.17/outbox.cif.g08.bks.cpg/sg12_53_cif.got.tgz:104494.got - 2010.06.03 13:09:07.
