data_PCOD9209666
_publ_section_title
;
Structure prediction by ZEFSAII (Michael W. Deem and Ramdas Pophale) SiO2 
 PCOD9209666
Probable space group: C 2/M
;
_chemical_formula_sum "Si O2"
_cell_formula_units_Z 40
_cell_length_a 17.545867
_cell_length_b 14.189364
_cell_length_c 15.120487
_cell_angle_alpha 90.000000
_cell_angle_beta 147.937304
_cell_angle_gamma 90.000000
_cell_volume 1998.355949
_symmetry_space_group_name_H-M "C 2/M"
_symmetry_group_IT_number 12
_symmetry_cell_setting 'monoclinic'
loop_
_space_group_symop_operation_xyz
x,y,z
-x,y,-z
-x,-y,-z
x,-y,z
1/2+x,1/2+y,z
1/2-x,1/2+y,-z
1/2-x,1/2-y,-z
1/2+x,1/2-y,z
loop_
_atom_site_type_symbol
_atom_site_label
_atom_site_fract_x
_atom_site_fract_y
_atom_site_fract_z
Si Si1 0.629241 0.238170 0.056528
Si Si2 0.013378 0.769106 0.272406
Si Si3 0.781062 0.607033 0.472721
Si Si4 0.663237 0.893780 0.675069
Si Si5 0.386734 0.388513 0.308316
O O1 0.738507 0.325443 0.173006
O O2 0.727177 0.147355 0.175360
O O3 0.500000 0.245783 0.000000
O O4 0.570306 0.243593 0.899221
O O5 0.081192 0.671436 0.372907
O O6 0.145147 0.838806 0.378252
O O7 0.928932 0.824808 0.265406
O O8 0.793865 0.500000 0.518742
O O9 0.766840 0.603003 0.353166
O O10 0.500000 0.860421 0.500000
O O11 0.654730 0.000000 0.703227
O O12 0.500000 0.372435 0.500000
O O13 0.389381 0.500000 0.290825
#
# Coordination Sequence:
#
# PCOD9209666 Si02
#       5
#     8   8   8   8   8
#     4  12  24  41  66  99 134 166 209 273 328 381
#     4  11  23  41  65  95 129 171 211 270 321 379
#     4  10  21  38  63  94 128 168 213 261 322 385
#     4  10  21  39  64  94 129 169 212 262 322 388
#     4  11  26  46  68  91 127 178 223 262 315 387
#
# _framework density 20.016454
#
# number of rings (size 3 to 8) (size 9 to 14) (size 15 to 20)
#    0.000    1.200    2.000    4.200    2.800    3.200 
#    0.000    2.000    0.000    0.000    0.000    0.000 
#    0.000    0.000    0.000    0.000    0.000    0.000 
#
# Total GULP energy -111750.530576 kJ/mol
# GULP energy per Si atom -5587.526529 kJ/mol
# Density = 1.997090 g / cm^3
# Si number density = 20.016454 Si / 1000 Ang^3
#
#
#
# Elastic Constant Matrix: (Units=GPa)
#
#
# Indices 1 2 3 4 5 6 
#
# 1 61.4749 12.1057 28.5213 0.0000 4.8361 0.0000
# 2 12.1057 141.9894 66.8314 0.0000 -3.7693 0.0000
# 3 28.5213 66.8314 118.1059 -0.0001 -11.5182 -0.0001
# 4 0.0000 0.0000 -0.0001 0.3529 -0.0001 4.1287
# 5 4.8361 -3.7693 -11.5182 -0.0001 37.2820 -0.0001
# 6 0.0000 0.0000 -0.0001 4.1287 -0.0001 24.6339
#
#
#
# Elastic Compliance Matrix: (Units=1/GPa)
#
#
# Indices 1 2 3 4 5 6 
#
# 1 0.018947 0.000841 -0.005447 0.000000 -0.004056 0.000000
# 2 0.000841 0.009656 -0.005756 0.000000 -0.000911 0.000000
# 3 -0.005447 -0.005756 0.013457 -0.000001 0.004282 0.000000
# 4 0.000000 0.000000 -0.000001 -2.949361 -0.000004 0.494323
# 5 -0.004056 -0.000911 0.004282 -0.000004 0.028579 0.000001
# 6 0.000000 0.000000 0.000000 0.494323 0.000001 -0.042256
#
#
# Mechanical properties :
#
#
# Convention : Reuss Voigt Hill
#
# Bulk Modulus (GPa) = 46.86835 59.60965 53.23900
# Shear Modulus (GPa) = -1.72823 26.72789 12.49983
#
# Velocity S-wave (km/s) = -0.93020 3.65813 2.50167
# Velocity P-wave (km/s) = 4.72356 6.90562 5.91606
#
# Compressibility (1/GPa) = 0.02133636
#
# Stress axis : x y z
#
# Youngs Moduli (GPa) = 52.77791 103.56181 74.31138
#
# Poissons Ratio (x) = -0.08705 0.40475
# Poissons Ratio (y) = -0.04436 0.42772
# Poissons Ratio (z) = 0.28747 0.59608
#
# Static dielectric constant tensor:
#      x y z
#    x 1.776240 0.000000 -0.001950 
#    y 0.000000 1.712840 0.000000 
#    z -0.001950 0.000000 1.687150 
# 
# From -- ./inp_files/58945.got.cif
#   From: 2010.05.17/outbox.cif.g08.bks.cpg/sg12_30_cif.got.tgz:58945.got - 2010.06.03 13:09:07.
