data_PCOD9209029
_publ_section_title
;
Structure prediction by ZEFSAII (Michael W. Deem and Ramdas Pophale) SiO2 
 PCOD9209029
Probable space group: C 2/M
;
_chemical_formula_sum "Si O2"
_cell_formula_units_Z 40
_cell_length_a 19.604633
_cell_length_b 17.383108
_cell_length_c 15.929509
_cell_angle_alpha 90.000000
_cell_angle_beta 159.714330
_cell_angle_gamma 90.000000
_cell_volume 1882.104426
_symmetry_space_group_name_H-M "C 2/M"
_symmetry_group_IT_number 12
_symmetry_cell_setting 'monoclinic'
loop_
_space_group_symop_operation_xyz
x,y,z
-x,y,-z
-x,-y,-z
x,-y,z
1/2+x,1/2+y,z
1/2-x,1/2+y,-z
1/2-x,1/2-y,-z
1/2+x,1/2-y,z
loop_
_atom_site_type_symbol
_atom_site_label
_atom_site_fract_x
_atom_site_fract_y
_atom_site_fract_z
Si Si1 0.365016 0.586878 0.925230
Si Si2 0.661306 0.414940 0.424833
Si Si3 0.441077 0.620655 0.341468
Si Si4 0.045702 0.667124 0.825668
Si Si5 0.159711 0.708997 0.780594
O O1 0.282332 0.500000 0.822587
O O2 0.501208 0.588708 0.165756
O O3 0.500000 0.600488 0.000000
O O4 0.209990 0.654753 0.761057
O O5 0.754093 0.500000 0.525241
O O6 0.559049 0.407864 0.397233
O O7 0.829761 0.351908 0.606521
O O8 0.500000 0.589703 0.500000
O O9 0.468247 0.713868 0.376037
O O10 0.208510 0.611997 0.056074
O O11 0.070950 0.660785 0.754855
O O12 0.131658 0.751671 0.948186
#
# Coordination Sequence:
#
# PCOD9209029 Si02
#       5
#     8   8   8   8   8
#     4  10  21  38  60  91 123 156 198 243 301 356
#     4  11  23  39  63  87 121 162 194 248 299 350
#     4  10  22  40  61  91 120 156 202 244 298 347
#     4   9  20  39  60  91 115 158 204 235 297 354
#     4   9  19  39  59  87 116 160 192 248 290 342
#
# _framework density 21.252804000000001
#
# number of rings (size 3 to 8) (size 9 to 14) (size 15 to 20)
#    1.200    1.000    2.000    0.000    0.000    9.200 
#    0.000    1.000    0.000    4.200    0.000    0.000 
#    0.000    0.000    0.000    0.000    0.000    0.000 
#
# Total GULP energy -111504.024768 kJ/mol
# GULP energy per Si atom -5575.201238 kJ/mol
# Density = 2.120443 g / cm^3
# Si number density = 21.252804 Si / 1000 Ang^3
#
#
#
# Elastic Constant Matrix: (Units=GPa)
#
#
# Indices 1 2 3 4 5 6 
#
# 1 127.7818 33.1486 19.6902 -0.0002 -9.1960 -0.0004
# 2 33.1486 83.3392 3.3191 0.0000 14.3078 -0.0001
# 3 19.6902 3.3191 53.6470 -0.0006 6.2430 -0.0006
# 4 -0.0002 0.0000 -0.0006 -1.0189 -0.0003 15.8554
# 5 -9.1960 14.3078 6.2430 -0.0003 27.9584 -0.0004
# 6 -0.0004 -0.0001 -0.0006 15.8554 -0.0004 80.6406
#
#
#
# Elastic Compliance Matrix: (Units=1/GPa)
#
#
# Indices 1 2 3 4 5 6 
#
# 1 0.010319 -0.005132 -0.004282 0.000000 0.006976 0.000000
# 2 -0.005132 0.015707 0.002098 0.000000 -0.010194 0.000000
# 3 -0.004282 0.002098 0.020914 -0.000002 -0.007152 0.000000
# 4 0.000000 0.000000 -0.000002 -0.241757 -0.000001 0.047534
# 5 0.006976 -0.010194 -0.007152 -0.000001 0.044876 0.000000
# 6 0.000000 0.000000 0.000000 0.047534 0.000000 0.003055
#
#
# Mechanical properties :
#
#
# Convention : Reuss Voigt Hill
#
# Bulk Modulus (GPa) = 30.95049 41.89817 36.42433
# Shear Modulus (GPa) = -41.15728 35.42335 -2.86696
#
# Velocity S-wave (km/s) = -4.40541 4.08703 -1.16272
# Velocity P-wave (km/s) = 3.35890 6.48296 3.92087
#
# Compressibility (1/GPa) = 0.03230967
#
# Stress axis : x y z
#
# Youngs Moduli (GPa) = 96.90973 63.66629 47.81398
#
# Poissons Ratio (x) = 0.32671 0.20473
# Poissons Ratio (y) = 0.49730 -0.10031
# Poissons Ratio (z) = 0.41494 -0.13357
#
# Static dielectric constant tensor:
#      x y z
#    x 1.725780 0.000000 -0.057440 
#    y 0.000000 1.810420 0.000000 
#    z -0.057440 0.000000 1.791610 
# 
# From -- ./inp_files/285680.got.cif
#   From: 2010.05.17/outbox.cif.g08.bks.cpg/sg12_143_cif.got.tgz:285680.got - 2010.06.03 13:09:07.
