data_PCOD9209133
_publ_section_title
;
Structure prediction by ZEFSAII (Michael W. Deem and Ramdas Pophale) SiO2 
 PCOD9209133
Probable space group: C 2/M
;
_chemical_formula_sum "Si O2"
_cell_formula_units_Z 64
_cell_length_a 17.916269
_cell_length_b 14.129759
_cell_length_c 21.618912
_cell_angle_alpha 90.000000
_cell_angle_beta 149.464037
_cell_angle_gamma 90.000000
_cell_volume 2780.657375
_symmetry_space_group_name_H-M "C 2/M"
_symmetry_group_IT_number 12
_symmetry_cell_setting 'monoclinic'
loop_
_space_group_symop_operation_xyz
x,y,z
-x,y,-z
-x,-y,-z
x,-y,z
1/2+x,1/2+y,z
1/2-x,1/2+y,-z
1/2-x,1/2-y,-z
1/2+x,1/2-y,z
loop_
_atom_site_type_symbol
_atom_site_label
_atom_site_fract_x
_atom_site_fract_y
_atom_site_fract_z
Si Si1 0.923727 0.886639 0.379708
Si Si2 0.030837 0.691007 0.221591
Si Si3 0.461138 0.897934 0.543797
Si Si4 0.685580 0.286564 0.517772
Si Si5 0.580355 0.884923 0.122827
Si Si6 0.749459 0.890896 0.912265
Si Si7 0.455774 0.608291 0.805432
Si Si8 0.206265 0.110689 0.185582
O O1 0.754206 0.856434 0.248838
O O2 0.000000 0.857574 0.500000
O O3 0.034322 0.844709 0.407900
O O4 0.924489 0.000000 0.378551
O O5 0.188464 0.653286 0.357590
O O6 0.010465 0.660054 0.135420
O O7 0.048756 0.803744 0.243272
O O8 0.894770 0.658415 0.165415
O O9 0.500000 0.905074 0.500000
O O10 0.357815 0.809926 0.478461
O O11 0.617914 0.881762 0.687283
O O12 0.402496 0.000000 0.523192
O O13 0.750000 0.250000 0.500000
O O14 0.573588 0.000000 0.124093
O O15 0.500000 0.861615 0.000000
O O16 0.827135 0.849484 0.905921
O O17 0.709508 0.000000 0.869617
O O18 0.875276 0.893782 0.053007
O O19 0.412933 0.500000 0.758150
O O20 0.361312 0.641643 0.797954
O O21 0.160188 0.000000 0.152372
#
# Coordination Sequence:
#
# PCOD9209133 Si02
#       8
#     8   8   8   8   8   8   8   8
#     4  10  21  43  74 101 131 176 231 284 338 404
#     4  12  24  41  64  97 131 179 220 276 340 402
#     4  10  21  38  61  87 121 165 212 264 323 386
#     4  12  26  41  63  96 137 175 220 278 332 404
#     4  10  23  45  73 105 135 173 227 286 348 410
#     4  10  21  39  62  89 125 162 209 268 328 397
#     4  10  22  40  61  90 127 170 216 264 321 389
#     4   9  18  35  61  88 115 157 210 263 319 384
#
# _framework density 23.01614
#
# number of rings (size 3 to 8) (size 9 to 14) (size 15 to 20)
#    0.000    1.625    1.250    3.000    1.750    5.000 
#    4.500    0.000    0.000    0.000    0.000    0.000 
#    0.000    0.000    0.000    0.000    0.000    0.000 
#
# Total GULP energy -178723.625046 kJ/mol
# GULP energy per Si atom -5585.113283 kJ/mol
# Density = 2.296375 g / cm^3
# Si number density = 23.016140 Si / 1000 Ang^3
#
#
#
# Elastic Constant Matrix: (Units=GPa)
#
#
# Indices 1 2 3 4 5 6 
#
# 1 98.8079 31.8488 11.4200 -0.0005 14.5391 0.0000
# 2 31.8488 80.4164 17.0371 -0.0009 15.3175 0.0001
# 3 11.4200 17.0371 98.2658 -0.0019 7.8502 0.0003
# 4 -0.0005 -0.0009 -0.0019 21.1825 0.0000 6.4222
# 5 14.5391 15.3175 7.8502 0.0000 39.5460 0.0001
# 6 0.0000 0.0001 0.0003 6.4222 0.0001 34.9753
#
#
#
# Elastic Compliance Matrix: (Units=1/GPa)
#
#
# Indices 1 2 3 4 5 6 
#
# 1 0.011891 -0.004100 -0.000456 0.000000 -0.002693 0.000000
# 2 -0.004100 0.015215 -0.001840 0.000000 -0.004021 0.000000
# 3 -0.000456 -0.001840 0.010647 0.000001 -0.001233 0.000000
# 4 0.000000 0.000000 0.000001 0.049992 0.000000 -0.009180
# 5 -0.002693 -0.004021 -0.001233 0.000000 0.028079 0.000000
# 6 0.000000 0.000000 0.000000 -0.009180 0.000000 0.030277
#
#
# Mechanical properties :
#
#
# Convention : Reuss Voigt Hill
#
# Bulk Modulus (GPa) = 40.06279 44.23351 42.14815
# Shear Modulus (GPa) = 29.90190 33.61973 31.76081
#
# Velocity S-wave (km/s) = 3.60831 3.82606 3.71878
# Velocity P-wave (km/s) = 5.89950 6.22724 6.06558
#
# Compressibility (1/GPa) = 0.02496082
#
# Stress axis : x y z
#
# Youngs Moduli (GPa) = 84.09608 65.72585 93.92288
#
# Poissons Ratio (x) = 0.26947 0.04282
# Poissons Ratio (y) = 0.34478 0.17284
# Poissons Ratio (z) = 0.03834 0.12095
#
# Static dielectric constant tensor:
#      x y z
#    x 1.850880 0.000000 -0.054180 
#    y 0.000000 1.936460 0.000000 
#    z -0.054180 0.000000 1.983490 
# 
# From -- ./inp_files/344111.got.cif
#   From: 2010.05.17/outbox.cif.g08.bks.cpg/sg12_173_cif.got.tgz:344111.got - 2010.06.03 13:09:07.
