data_PCOD9209166
_publ_section_title
;
Structure prediction by ZEFSAII (Michael W. Deem and Ramdas Pophale) SiO2 
 PCOD9209166
Probable space group: C 2/M
;
_chemical_formula_sum "Si O2"
_cell_formula_units_Z 40
_cell_length_a 14.800663
_cell_length_b 27.422362
_cell_length_c 9.236246
_cell_angle_alpha 90.000000
_cell_angle_beta 148.438076
_cell_angle_gamma 90.000000
_cell_volume 1962.147479
_symmetry_space_group_name_H-M "C 2/M"
_symmetry_group_IT_number 12
_symmetry_cell_setting 'monoclinic'
loop_
_space_group_symop_operation_xyz
x,y,z
-x,y,-z
-x,-y,-z
x,-y,z
1/2+x,1/2+y,z
1/2-x,1/2+y,-z
1/2-x,1/2-y,-z
1/2+x,1/2-y,z
loop_
_atom_site_type_symbol
_atom_site_label
_atom_site_fract_x
_atom_site_fract_y
_atom_site_fract_z
Si Si1 0.946212 0.382898 0.280047
Si Si2 0.698699 0.442307 0.727413
Si Si3 0.109181 0.777412 0.401101
Si Si4 0.175724 0.629052 0.324833
Si Si5 0.273135 0.215848 0.169235
O O1 0.848420 0.334954 0.210166
O O2 0.000000 0.410374 0.500000
O O3 0.113134 0.370737 0.406541
O O4 0.819623 0.413573 0.005615
O O5 0.500000 0.433002 0.500000
O O6 0.729095 0.500000 0.774846
O O7 0.752046 0.421253 0.642567
O O8 0.250000 0.750000 0.500000
O O9 0.186048 0.830771 0.532970
O O10 0.119677 0.743345 0.559065
O O11 0.930930 0.786297 0.072511
O O12 0.000000 0.641539 0.000000
O O13 0.250000 0.250000 0.000000
#
# Coordination Sequence:
#
# PCOD9209166 Si02
#       5
#     8   8   8   8   8
#     4  11  23  39  60  90 125 156 197 252 306 353
#     4  10  22  43  68  90 115 153 199 246 303 369
#     4  12  23  37  57  84 120 163 207 246 292 348
#     4  10  21  38  61  88 119 158 206 247 291 359
#     4  12  23  36  55  81 118 160 200 244 295 348
#
# _framework density 20.385826999999999
#
# number of rings (size 3 to 8) (size 9 to 14) (size 15 to 20)
#    0.000    1.000    0.000    9.600    0.000    4.000 
#    0.000    3.000    0.000    2.400    0.000    0.000 
#    0.000    0.000    0.000    0.000    0.000    0.000 
#
# Total GULP energy -111533.515564 kJ/mol
# GULP energy per Si atom -5576.675778 kJ/mol
# Density = 2.033943 g / cm^3
# Si number density = 20.385827 Si / 1000 Ang^3
#
#
#
# Elastic Constant Matrix: (Units=GPa)
#
#
# Indices 1 2 3 4 5 6 
#
# 1 146.4308 45.8730 32.1292 0.0000 -12.4659 0.0000
# 2 45.8730 110.5147 38.8767 0.0000 4.7475 0.0000
# 3 32.1292 38.8767 82.6982 0.0000 11.3349 0.0000
# 4 0.0000 0.0000 0.0000 23.6029 0.0000 7.5252
# 5 -12.4659 4.7475 11.3349 0.0000 37.2828 0.0000
# 6 0.0000 0.0000 0.0000 7.5252 0.0000 37.1055
#
#
#
# Elastic Compliance Matrix: (Units=1/GPa)
#
#
# Indices 1 2 3 4 5 6 
#
# 1 0.008628 -0.002853 -0.002563 0.000000 0.004027 0.000000
# 2 -0.002853 0.011786 -0.004274 0.000000 -0.001155 0.000000
# 3 -0.002563 -0.004274 0.015798 0.000000 -0.005116 0.000000
# 4 0.000000 0.000000 0.000000 0.045296 0.000000 -0.009186
# 5 0.004027 -0.001155 -0.005116 0.000000 0.029871 0.000000
# 6 0.000000 0.000000 0.000000 -0.009186 0.000000 0.028813
#
#
# Mechanical properties :
#
#
# Convention : Reuss Voigt Hill
#
# Bulk Modulus (GPa) = 59.40767 63.71127 61.55947
# Shear Modulus (GPa) = 30.26943 34.44925 32.35934
#
# Velocity S-wave (km/s) = 3.85753 4.11525 3.98847
# Velocity P-wave (km/s) = 7.00326 7.34173 7.17449
#
# Compressibility (1/GPa) = 0.01683284
#
# Stress axis : x y z
#
# Youngs Moduli (GPa) = 115.90061 84.84785 63.29804
#
# Poissons Ratio (x) = 0.24205 0.16223
# Poissons Ratio (y) = 0.33064 0.27053
# Poissons Ratio (z) = 0.29705 0.36263
#
# Static dielectric constant tensor:
#      x y z
#    x 1.957960 0.000000 0.101670 
#    y 0.000000 1.870060 0.000000 
#    z 0.101670 0.000000 1.797410 
# 
# From -- ./inp_files/41400.got.cif
#   From: 2010.05.17/outbox.cif.g08.bks.cpg/sg12_21_cif.got.tgz:41400.got - 2010.06.03 13:09:07.
