data_PCOD9209944
_publ_section_title
;
Structure prediction by ZEFSAII (Michael W. Deem and Ramdas Pophale) SiO2 
 PCOD9209944
Probable space group: C 2/M
;
_chemical_formula_sum "Si O2"
_cell_formula_units_Z 44
_cell_length_a 19.143432
_cell_length_b 21.614835
_cell_length_c 6.143538
_cell_angle_alpha 90.000000
_cell_angle_beta 125.397461
_cell_angle_gamma 90.000000
_cell_volume 2072.190377
_symmetry_space_group_name_H-M "C 2/M"
_symmetry_group_IT_number 12
_symmetry_cell_setting 'monoclinic'
loop_
_space_group_symop_operation_xyz
x,y,z
-x,y,-z
-x,-y,-z
x,-y,z
1/2+x,1/2+y,z
1/2-x,1/2+y,-z
1/2-x,1/2-y,-z
1/2+x,1/2-y,z
loop_
_atom_site_type_symbol
_atom_site_label
_atom_site_fract_x
_atom_site_fract_y
_atom_site_fract_z
Si Si1 0.179050 0.098475 0.140314
Si Si2 0.780848 0.641677 0.940655
Si Si3 0.834806 0.212056 0.592978
Si Si4 0.583486 0.817782 0.500340
Si Si5 0.149332 0.571378 0.320426
Si Si6 0.961975 0.000000 0.181121
O O1 0.150609 0.165281 0.181436
O O2 0.248815 0.072231 0.436891
O O3 0.236140 0.096696 0.028132
O O4 0.096543 0.060077 0.940169
O O5 0.701626 0.671935 0.671950
O O6 0.847547 0.606239 0.905416
O O7 0.835707 0.688058 0.188868
O O8 0.750000 0.250000 0.500000
O O9 0.907106 0.260310 0.649293
O O10 0.500000 0.818138 0.500000
O O11 0.599844 0.881907 0.395799
O O12 0.119726 0.500000 0.266328
O O13 0.000000 0.000000 0.500000
O O14 0.000000 0.000000 0.000000
#
# Coordination Sequence:
#
# PCOD9209944 Si02
#       6
#     8   8   8   8   8   4
#     4  10  23  41  70  96 133 181 240 288 357 433
#     4  10  21  38  69  93 125 175 236 283 355 428
#     4  11  20  42  68  97 126 176 239 288 346 443
#     4  11  24  41  62  98 137 175 223 301 368 427
#     4  10  21  39  68  96 129 176 238 280 353 439
#     4  12  30  50  72 108 161 192 243 308 378 442
#
# _framework density 21.233568999999999
#
# number of rings (size 3 to 8) (size 9 to 14) (size 15 to 20)
#    0.000    1.455    6.364    0.545    6.364    1.818 
#    3.273    0.909    0.000    0.000    0.000    0.000 
#    0.000    0.000    0.000    0.000    0.000    0.000 
#
# Total GULP energy -122529.574607 kJ/mol
# GULP energy per Si atom -5569.526119 kJ/mol
# Density = 2.118524 g / cm^3
# Si number density = 21.233569 Si / 1000 Ang^3
#
#
#
# Elastic Constant Matrix: (Units=GPa)
#
#
# Indices 1 2 3 4 5 6 
#
# 1 145.2425 55.8876 27.9333 0.0000 -19.3478 0.0000
# 2 55.8876 133.8489 15.7138 0.0000 -13.5664 0.0000
# 3 27.9333 15.7138 53.9372 0.0000 -15.0416 0.0000
# 4 0.0000 0.0000 0.0000 20.3797 0.0000 7.6908
# 5 -19.3478 -13.5664 -15.0416 0.0000 27.2081 0.0000
# 6 0.0000 0.0000 0.0000 7.6908 0.0000 11.7641
#
#
#
# Elastic Compliance Matrix: (Units=1/GPa)
#
#
# Indices 1 2 3 4 5 6 
#
# 1 0.009078 -0.003118 -0.002869 0.000000 0.003315 0.000000
# 2 -0.003118 0.009032 -0.000448 0.000000 0.002039 0.000000
# 3 -0.002869 -0.000448 0.023084 0.000000 0.010498 0.000000
# 4 0.000000 0.000000 0.000000 0.065139 0.000000 -0.042585
# 5 0.003315 0.002039 0.010498 0.000000 0.045931 0.000000
# 6 0.000000 0.000000 0.000000 -0.042585 0.000000 0.112845
#
#
# Mechanical properties :
#
#
# Convention : Reuss Voigt Hill
#
# Bulk Modulus (GPa) = 35.30439 59.12198 47.21318
# Shear Modulus (GPa) = 17.39615 27.43664 22.41640
#
# Velocity S-wave (km/s) = 2.86540 3.59853 3.25269
# Velocity P-wave (km/s) = 5.25454 6.72086 6.03242
#
# Compressibility (1/GPa) = 0.02832509
#
# Stress axis : x y z
#
# Youngs Moduli (GPa) = 110.15691 110.71577 43.32013
#
# Poissons Ratio (x) = 0.34518 0.12427
# Poissons Ratio (y) = 0.34343 0.01942
# Poissons Ratio (z) = 0.31600 0.04962
#
# Static dielectric constant tensor:
#      x y z
#    x 1.741230 0.000000 0.179330 
#    y 0.000000 1.696520 0.000000 
#    z 0.179330 0.000000 2.047130 
# 
# From -- ./inp_files/17006.got.cif
#   From: 2010.05.17/outbox.cif.g08.bks.cpg/sg12_9_cif.got.tgz:17006.got - 2010.06.03 13:09:07.
