data_PCOD9209939
_publ_section_title
;
Structure prediction by ZEFSAII (Michael W. Deem and Ramdas Pophale) SiO2 
 PCOD9209939
Probable space group: C 2/M
;
_chemical_formula_sum "Si O2"
_cell_formula_units_Z 52
_cell_length_a 11.764456
_cell_length_b 23.081161
_cell_length_c 11.618443
_cell_angle_alpha 90.000000
_cell_angle_beta 127.469677
_cell_angle_gamma 90.000000
_cell_volume 2503.919461
_symmetry_space_group_name_H-M "C 2/M"
_symmetry_group_IT_number 12
_symmetry_cell_setting 'monoclinic'
loop_
_space_group_symop_operation_xyz
x,y,z
-x,y,-z
-x,-y,-z
x,-y,z
1/2+x,1/2+y,z
1/2-x,1/2+y,-z
1/2-x,1/2-y,-z
1/2+x,1/2-y,z
loop_
_atom_site_type_symbol
_atom_site_label
_atom_site_fract_x
_atom_site_fract_y
_atom_site_fract_z
Si Si1 0.394735 0.000000 0.237019
Si Si2 0.385697 0.691255 0.828410
Si Si3 0.161980 0.500000 0.243902
Si Si4 0.705937 0.500000 0.919836
Si Si5 0.329416 0.294986 0.366977
Si Si6 0.570764 0.619490 0.758249
Si Si7 0.289420 0.402253 0.479942
Si Si8 0.856433 0.391391 0.368970
O O1 0.409446 0.944214 0.324826
O O2 0.504257 0.000000 0.198906
O O3 0.247019 0.000000 0.078731
O O4 0.285464 0.744425 0.725136
O O5 0.481492 0.661149 0.788597
O O6 0.260443 0.644115 0.775754
O O7 0.500000 0.704595 0.000000
O O8 0.184161 0.500000 0.121759
O O9 0.233226 0.444081 0.347140
O O10 0.634083 0.563243 0.858640
O O11 0.500000 0.281276 0.500000
O O12 0.331826 0.337250 0.256519
O O13 0.270306 0.335268 0.433399
O O14 0.457736 0.591484 0.600578
O O15 0.219205 0.413388 0.560736
O O16 0.000000 0.358470 0.500000
#
# Coordination Sequence:
#
# PCOD9209939 Si02
#       8
#     4   8   4   4   8   8   8   8
#     4  12  25  41  61 101 138 168 222 260 342 403
#     4  11  25  43  63  98 134 177 221 267 335 398
#     4  12  21  40  65  96 134 167 218 275 326 400
#     4  12  24  42  65  96 139 181 205 272 337 408
#     4  10  22  43  66  95 129 168 226 280 322 385
#     4  10  23  42  66  96 129 172 222 271 331 389
#     4  10  21  38  68  99 121 165 226 277 322 378
#     4  11  22  41  68  92 132 175 215 276 322 388
#
# _framework density 20.767441000000002
#
# number of rings (size 3 to 8) (size 9 to 14) (size 15 to 20)
#    0.000    1.231    3.077    2.769    0.000    9.846 
#    2.769    3.846    0.000    0.000    0.000    0.000 
#    0.000    0.000    0.000    0.000    0.000    0.000 
#
# Total GULP energy -144900.786335 kJ/mol
# GULP energy per Si atom -5573.107167 kJ/mol
# Density = 2.072017 g / cm^3
# Si number density = 20.767441 Si / 1000 Ang^3
#
#
#
# Elastic Constant Matrix: (Units=GPa)
#
#
# Indices 1 2 3 4 5 6 
#
# 1 63.9506 31.1951 24.0885 0.0000 0.6173 0.0000
# 2 31.1951 117.8397 53.7966 0.0000 9.6849 0.0000
# 3 24.0885 53.7966 122.2429 0.0000 2.3706 0.0000
# 4 0.0000 0.0000 0.0000 58.0264 0.0000 -5.3810
# 5 0.6173 9.6849 2.3706 0.0000 20.2493 0.0000
# 6 0.0000 0.0000 0.0000 -5.3810 0.0000 34.2759
#
#
#
# Elastic Compliance Matrix: (Units=1/GPa)
#
#
# Indices 1 2 3 4 5 6 
#
# 1 0.018334 -0.004161 -0.001814 0.000000 0.001643 0.000000
# 2 -0.004161 0.011998 -0.004361 0.000000 -0.005101 0.000000
# 3 -0.001814 -0.004361 0.010439 0.000000 0.000919 0.000000
# 4 0.000000 0.000000 0.000000 0.017488 0.000000 0.002745
# 5 0.001643 -0.005101 0.000919 0.000000 0.051666 0.000000
# 6 0.000000 0.000000 0.000000 0.002745 0.000000 0.029606
#
#
# Mechanical properties :
#
#
# Convention : Reuss Voigt Hill
#
# Bulk Modulus (GPa) = 49.75098 58.02151 53.88625
# Shear Modulus (GPa) = 29.95764 35.50717 32.73241
#
# Velocity S-wave (km/s) = 3.80218 4.13940 3.97437
# Velocity P-wave (km/s) = 6.57904 7.13060 6.86037
#
# Compressibility (1/GPa) = 0.02010011
#
# Stress axis : x y z
#
# Youngs Moduli (GPa) = 54.54384 83.34929 95.79214
#
# Poissons Ratio (x) = 0.34678 0.17374
# Poissons Ratio (y) = 0.22693 0.41777
# Poissons Ratio (z) = 0.09893 0.36350
#
# Static dielectric constant tensor:
#      x y z
#    x 1.793650 0.000000 0.025730 
#    y 0.000000 1.796340 0.000000 
#    z 0.025730 0.000000 1.762050 
# 
# From -- ./inp_files/136050.got.cif
#   From: 2010.05.17/outbox.cif.g08.bks.cpg/sg12_69_cif.got.tgz:136050.got - 2010.06.03 13:09:07.
