data_PCOD9209915
_publ_section_title
;
Structure prediction by ZEFSAII (Michael W. Deem and Ramdas Pophale) SiO2 
 PCOD9209915
Probable space group: C 2/M
;
_chemical_formula_sum "Si O2"
_cell_formula_units_Z 64
_cell_length_a 25.066830
_cell_length_b 27.239167
_cell_length_c 9.319926
_cell_angle_alpha 90.000000
_cell_angle_beta 33.174943
_cell_angle_gamma 90.000000
_cell_volume 3482.166984
_symmetry_space_group_name_H-M "C 2/M"
_symmetry_group_IT_number 12
_symmetry_cell_setting 'monoclinic'
loop_
_space_group_symop_operation_xyz
x,y,z
-x,y,-z
-x,-y,-z
x,-y,z
1/2+x,1/2+y,z
1/2-x,1/2+y,-z
1/2-x,1/2-y,-z
1/2+x,1/2-y,z
loop_
_atom_site_type_symbol
_atom_site_label
_atom_site_fract_x
_atom_site_fract_y
_atom_site_fract_z
Si Si1 0.903262 0.057891 0.121387
Si Si2 0.726483 0.814324 0.937767
Si Si3 0.408628 0.888015 0.604050
Si Si4 0.755932 0.405981 0.310362
Si Si5 0.731420 0.446025 0.070030
Si Si6 0.525532 0.942772 0.110213
Si Si7 0.591145 0.613232 0.187135
Si Si8 0.388632 0.281446 0.786883
O O1 0.815081 0.087267 0.395657
O O2 0.877748 0.000000 0.166840
O O3 0.922977 0.081461 0.922351
O O4 0.000000 0.061988 0.000000
O O5 0.661540 0.841539 0.207834
O O6 0.669151 0.765270 0.024511
O O7 0.736618 0.852816 0.784428
O O8 0.828892 0.799072 0.779320
O O9 0.500000 0.879672 0.500000
O O10 0.345473 0.934086 0.801786
O O11 0.452176 0.905341 0.355429
O O12 0.708386 0.438109 0.288523
O O13 0.863735 0.425335 0.107280
O O14 0.705675 0.500000 0.081175
O O15 0.678925 0.408884 0.082213
O O16 0.514930 0.000000 0.182219
O O17 0.500000 0.941628 0.000000
O O18 0.500000 0.610729 0.500000
O O19 0.609256 0.670658 0.116959
O O20 0.500000 0.268510 0.500000
#
# Coordination Sequence:
#
# PCOD9209915 Si02
#       8
#     8   8   8   8   8   8   8   8
#     4  11  25  41  62  89 129 172 203 243 307 377
#     4  10  21  40  64  97 120 159 207 260 316 370
#     4  11  20  36  58  86 117 158 210 254 300 360
#     4  11  22  40  60  89 127 161 207 253 308 373
#     4  11  21  34  58  87 119 156 206 257 302 361
#     4  11  24  37  55  84 128 173 207 249 305 367
#     4  11  23  41  63  93 120 158 209 260 309 367
#     4  10  21  38  67  95 122 155 206 266 321 362
#
# _framework density 18.379359999999998
#
# number of rings (size 3 to 8) (size 9 to 14) (size 15 to 20)
#    0.000    1.250    5.000    3.000    3.500    2.500 
#    0.000    0.625    0.000    0.750    0.000    0.000 
#    0.000    0.000    0.000    0.000    0.000    0.000 
#
# Total GULP energy -178474.141719 kJ/mol
# GULP energy per Si atom -5577.316929 kJ/mol
# Density = 1.833753 g / cm^3
# Si number density = 18.379360 Si / 1000 Ang^3
#
#
#
# Elastic Constant Matrix: (Units=GPa)
#
#
# Indices 1 2 3 4 5 6 
#
# 1 82.6871 32.7963 34.1319 0.0000 -5.6577 0.0000
# 2 32.7963 113.6872 44.8669 0.0000 -2.0464 0.0000
# 3 34.1319 44.8669 93.1962 0.0000 1.7891 0.0000
# 4 0.0000 0.0000 0.0000 -5.1825 0.0000 12.3771
# 5 -5.6577 -2.0464 1.7891 0.0000 28.8698 0.0000
# 6 0.0000 0.0000 0.0000 12.3771 0.0000 14.6504
#
#
#
# Elastic Compliance Matrix: (Units=1/GPa)
#
#
# Indices 1 2 3 4 5 6 
#
# 1 0.015126 -0.002592 -0.004351 0.000000 0.003050 0.000000
# 2 -0.002592 0.011338 -0.004520 0.000000 0.000576 0.000000
# 3 -0.004351 -0.004520 0.014539 0.000000 -0.002074 0.000000
# 4 0.000000 0.000000 0.000000 -0.063942 0.000000 0.054021
# 5 0.003050 0.000576 -0.002074 0.000000 0.035405 0.000000
# 6 0.000000 0.000000 0.000000 0.054021 0.000000 0.022619
#
#
# Mechanical properties :
#
#
# Convention : Reuss Voigt Hill
#
# Bulk Modulus (GPa) = 55.31444 57.01785 56.16614
# Shear Modulus (GPa) = 78.07902 19.51923 48.79913
#
# Velocity S-wave (km/s) = 6.52489 3.26240 5.15836
# Velocity P-wave (km/s) = 9.32345 6.72912 8.13043
#
# Compressibility (1/GPa) = 0.01807846
#
# Stress axis : x y z
#
# Youngs Moduli (GPa) = 66.10989 88.19887 68.77856
#
# Poissons Ratio (x) = 0.22859 0.29923
# Poissons Ratio (y) = 0.17134 0.31090
# Poissons Ratio (z) = 0.28762 0.39868
#
# Static dielectric constant tensor:
#      x y z
#    x 1.608910 0.000000 0.008960 
#    y 0.000000 1.656320 0.000000 
#    z 0.008960 0.000000 1.617990 
# 
# From -- ./inp_files/100209.got.cif
#   From: 2010.05.17/outbox.cif.g08.bks.cpg/sg12_51_cif.got.tgz:100209.got - 2010.06.03 13:09:07.
