data_PCOD9209821
_publ_section_title
;
Structure prediction by ZEFSAII (Michael W. Deem and Ramdas Pophale) SiO2 
 PCOD9209821
Probable space group: C 2/M
;
_chemical_formula_sum "Si O2"
_cell_formula_units_Z 28
_cell_length_a 30.911987
_cell_length_b 9.813860
_cell_length_c 5.315727
_cell_angle_alpha 90.000000
_cell_angle_beta 117.801155
_cell_angle_gamma 90.000000
_cell_volume 1426.469295
_symmetry_space_group_name_H-M "C 2/M"
_symmetry_group_IT_number 12
_symmetry_cell_setting 'monoclinic'
loop_
_space_group_symop_operation_xyz
x,y,z
-x,y,-z
-x,-y,-z
x,-y,z
1/2+x,1/2+y,z
1/2-x,1/2+y,-z
1/2-x,1/2-y,-z
1/2+x,1/2-y,z
loop_
_atom_site_type_symbol
_atom_site_label
_atom_site_fract_x
_atom_site_fract_y
_atom_site_fract_z
Si Si1 0.286840 0.154014 0.447629
Si Si2 0.386904 0.767665 0.922935
Si Si3 0.850368 0.846648 0.331645
Si Si4 0.967310 0.500000 0.161474
O O1 0.250000 0.250000 0.500000
O O2 0.306816 0.237405 0.259144
O O3 0.269208 0.000000 0.353148
O O4 0.336632 0.148218 0.746763
O O5 0.378476 0.682027 0.151131
O O6 0.432265 0.868110 0.064232
O O7 0.386083 0.677794 0.667097
O O8 0.831225 0.000000 0.287418
O O9 0.000000 0.500000 0.500000
O O10 0.000000 0.500000 0.000000
#
# Coordination Sequence:
#
# PCOD9209821 Si02
#       4
#     8   8   8   4
#     4  10  22  38  64  94 136 173 223 265 325 388
#     4  10  22  40  63  95 131 160 218 277 314 389
#     4  10  21  38  65  90 134 178 210 260 334 381
#     4  12  24  42  74 100 128 170 226 278 344 381
#
# _framework density 19.628882000000001
#
# number of rings (size 3 to 8) (size 9 to 14) (size 15 to 20)
#    1.714    0.000    1.429    3.429    2.000    1.143 
#    0.000    0.000    0.000   17.143    0.000    0.000 
#    0.000    0.000    0.000    0.000    0.000    0.000 
#
# Total GULP energy -78004.037171 kJ/mol
# GULP energy per Si atom -5571.716941 kJ/mol
# Density = 1.958421 g / cm^3
# Si number density = 19.628882 Si / 1000 Ang^3
#
#
#
# Elastic Constant Matrix: (Units=GPa)
#
#
# Indices 1 2 3 4 5 6 
#
# 1 79.1082 35.6387 48.6189 0.0000 2.6332 0.0000
# 2 35.6387 153.7220 29.9771 0.0000 -2.6660 0.0000
# 3 48.6189 29.9771 116.0460 0.0000 -14.8301 0.0000
# 4 0.0000 0.0000 0.0000 10.8902 0.0000 -2.2733
# 5 2.6332 -2.6660 -14.8301 0.0000 41.8259 0.0000
# 6 0.0000 0.0000 0.0000 -2.2733 0.0000 38.8374
#
#
#
# Elastic Compliance Matrix: (Units=1/GPa)
#
#
# Indices 1 2 3 4 5 6 
#
# 1 0.018793 -0.002939 -0.007636 0.000000 -0.004078 0.000000
# 2 -0.002939 0.007311 -0.000602 0.000000 0.000438 0.000000
# 3 -0.007636 -0.000602 0.012599 0.000000 0.004910 0.000000
# 4 0.000000 0.000000 0.000000 0.092961 0.000000 0.005441
# 5 -0.004078 0.000438 0.004910 0.000000 0.025934 0.000000
# 6 0.000000 0.000000 0.000000 0.005441 0.000000 0.026067
#
#
# Mechanical properties :
#
#
# Convention : Reuss Voigt Hill
#
# Bulk Modulus (GPa) = 61.15446 64.14952 62.65199
# Shear Modulus (GPa) = 23.64415 33.95347 28.79881
#
# Velocity S-wave (km/s) = 3.47444 4.16356 3.83451
# Velocity P-wave (km/s) = 6.87885 7.47434 7.18277
#
# Compressibility (1/GPa) = 0.01635204
#
# Stress axis : x y z
#
# Youngs Moduli (GPa) = 53.21030 136.77159 79.37042
#
# Poissons Ratio (x) = 0.40193 0.60605
# Poissons Ratio (y) = 0.15637 0.04774
# Poissons Ratio (z) = 0.40630 0.08227
#
# Static dielectric constant tensor:
#      x y z
#    x 1.657800 0.000000 -0.001020 
#    y 0.000000 1.680760 0.000000 
#    z -0.001020 0.000000 1.723170 
# 
# From -- ./inp_files/30140.got.cif
#   From: 2010.05.17/outbox.cif.g08.bks.cpg/sg12_16_cif.got.tgz:30140.got - 2010.06.03 13:09:07.
