data_PCOD9209500
_publ_section_title
;
Structure prediction by ZEFSAII (Michael W. Deem and Ramdas Pophale) SiO2 
 PCOD9209500
Probable space group: C 2/M
;
_chemical_formula_sum "Si O2"
_cell_formula_units_Z 34
_cell_length_a 10.234221
_cell_length_b 7.600347
_cell_length_c 18.805496
_cell_angle_alpha 90.000000
_cell_angle_beta 81.224361
_cell_angle_gamma 90.000000
_cell_volume 1445.635726
_symmetry_space_group_name_H-M "C 2/M"
_symmetry_group_IT_number 12
_symmetry_cell_setting 'monoclinic'
loop_
_space_group_symop_operation_xyz
x,y,z
-x,y,-z
-x,-y,-z
x,-y,z
1/2+x,1/2+y,z
1/2-x,1/2+y,-z
1/2-x,1/2-y,-z
1/2+x,1/2-y,z
loop_
_atom_site_type_symbol
_atom_site_label
_atom_site_fract_x
_atom_site_fract_y
_atom_site_fract_z
Si Si1 0.528747 0.714274 0.707884
Si Si2 0.365958 0.699074 0.935025
Si Si3 0.890754 0.789095 0.454697
Si Si4 0.745751 0.204300 0.205944
Si Si5 0.500000 0.000000 0.000000
O O1 0.526734 0.500000 0.709761
O O2 0.586980 0.774114 0.627512
O O3 0.380111 0.779320 0.731420
O O4 0.625074 0.772210 0.763937
O O5 0.410767 0.500000 0.942944
O O6 0.301647 0.707620 0.862680
O O7 0.250000 0.750000 0.000000
O O8 0.475203 0.844740 0.941762
O O9 0.750000 0.750000 0.500000
O O10 0.000000 0.719064 0.500000
O O11 0.905553 0.000000 0.449791
O O12 0.769683 0.000000 0.186646
#
# Coordination Sequence:
#
# PCOD9209500 Si02
#       5
#     8   8   8   8   2
#     4  10  23  41  62  93 131 171 218 276 339 401
#     4  12  26  46  71 101 137 180 230 289 340 412
#     4  10  21  38  62  92 128 169 219 272 330 399
#     4  11  24  42  64  95 131 173 224 278 338 409
#     4  12  26  48  72 100 136 180 234 274 358 402
#
# _framework density 23.519062999999999
#
# number of rings (size 3 to 8) (size 9 to 14) (size 15 to 20)
#    0.000    1.176    2.353    2.471    3.294    3.294 
#    0.000    0.000    0.000    0.000    0.000    0.000 
#    0.000    0.000    0.000    0.000    0.000    0.000 
#
# Total GULP energy -94926.021802 kJ/mol
# GULP energy per Si atom -5583.883635 kJ/mol
# Density = 2.346553 g / cm^3
# Si number density = 23.519063 Si / 1000 Ang^3
#
#
#
# Elastic Constant Matrix: (Units=GPa)
#
#
# Indices 1 2 3 4 5 6 
#
# 1 86.5150 -1.9954 -0.3281 0.0000 13.3822 0.0000
# 2 -1.9954 146.2189 8.9085 0.0000 23.4592 0.0000
# 3 -0.3281 8.9085 104.3648 0.0000 9.8720 0.0000
# 4 0.0000 0.0000 0.0000 20.0345 0.0000 -13.6320
# 5 13.3822 23.4592 9.8720 0.0000 48.6347 0.0000
# 6 0.0000 0.0000 0.0000 -13.6320 0.0000 -0.4176
#
#
#
# Elastic Compliance Matrix: (Units=1/GPa)
#
#
# Indices 1 2 3 4 5 6 
#
# 1 0.012161 0.000752 0.000331 0.000000 -0.003776 0.000000
# 2 0.000752 0.007468 -0.000280 0.000000 -0.003752 0.000000
# 3 0.000331 -0.000280 0.009791 0.000000 -0.001943 0.000000
# 4 0.000000 0.000000 0.000000 0.002151 0.000000 -0.070196
# 5 -0.003776 -0.003752 -0.001943 0.000000 0.023805 0.000000
# 6 0.000000 0.000000 0.000000 -0.070196 0.000000 -0.103165
#
#
# Mechanical properties :
#
#
# Convention : Reuss Voigt Hill
#
# Bulk Modulus (GPa) = 32.23136 38.91874 35.57505
# Shear Modulus (GPa) = -128.03196 35.68454 -46.17371
#
# Velocity S-wave (km/s) = -7.38618 3.89943 -4.43566
# Velocity P-wave (km/s) = 7.68159 6.07106 3.32785
#
# Compressibility (1/GPa) = 0.03102569
#
# Stress axis : x y z
#
# Youngs Moduli (GPa) = 82.22761 133.89715 102.13925
#
# Poissons Ratio (x) = -0.10064 -0.03384
# Poissons Ratio (y) = -0.06180 0.02862
# Poissons Ratio (z) = -0.02724 0.03752
#
# Static dielectric constant tensor:
#      x y z
#    x 1.913950 0.000000 -0.028100 
#    y 0.000000 1.936840 0.000000 
#    z -0.028100 0.000000 1.882960 
# 
# From -- ./inp_files/260796.got.cif
#   From: 2010.05.17/outbox.cif.g08.bks.cpg/sg12_131_cif.got.tgz:260796.got - 2010.06.03 13:09:07.
