data_PCOD9209233
_publ_section_title
;
Structure prediction by ZEFSAII (Michael W. Deem and Ramdas Pophale) SiO2 
 PCOD9209233
Probable space group: C 2/M
;
_chemical_formula_sum "Si O2"
_cell_formula_units_Z 56
_cell_length_a 18.172249
_cell_length_b 12.282922
_cell_length_c 15.134000
_cell_angle_alpha 90.000000
_cell_angle_beta 119.646293
_cell_angle_gamma 90.000000
_cell_volume 2935.834926
_symmetry_space_group_name_H-M "C 2/M"
_symmetry_group_IT_number 12
_symmetry_cell_setting 'monoclinic'
loop_
_space_group_symop_operation_xyz
x,y,z
-x,y,-z
-x,-y,-z
x,-y,z
1/2+x,1/2+y,z
1/2-x,1/2+y,-z
1/2-x,1/2-y,-z
1/2+x,1/2-y,z
loop_
_atom_site_type_symbol
_atom_site_label
_atom_site_fract_x
_atom_site_fract_y
_atom_site_fract_z
Si Si1 0.984109 0.371440 0.336155
Si Si2 0.217647 0.375113 0.083458
Si Si3 0.827000 0.617645 0.362276
Si Si4 0.116402 0.252621 0.874800
Si Si5 0.168006 0.673679 0.438268
Si Si6 0.471552 0.626524 0.880821
Si Si7 0.818199 0.292162 0.750996
O O1 0.008621 0.500000 0.343845
O O2 0.921367 0.360880 0.382279
O O3 0.928632 0.333822 0.219932
O O4 0.068040 0.296745 0.386668
O O5 0.231476 0.500000 0.066218
O O6 0.303160 0.305870 0.121299
O O7 0.188082 0.366375 0.166877
O O8 0.149299 0.319740 0.978679
O O9 0.800724 0.500000 0.307769
O O10 0.825039 0.607815 0.466680
O O11 0.764547 0.714736 0.300279
O O12 0.050919 0.161637 0.868551
O O13 0.250000 0.750000 0.500000
O O14 0.174840 0.644402 0.338279
O O15 0.447792 0.500000 0.852971
O O16 0.396345 0.708934 0.810862
O O17 0.500000 0.639040 0.000000
#
# Coordination Sequence:
#
# PCOD9209233 Si02
#       7
#     8   8   8   8   8   8   8
#     4  11  21  37  65  92 120 157 204 254 303 356
#     4  11  24  40  61  89 126 165 199 243 302 366
#     4  10  21  38  61  90 117 154 205 257 302 350
#     4  11  22  42  61  89 125 159 207 244 297 361
#     4  10  22  37  59  86 124 159 196 250 310 355
#     4  11  22  38  62  89 119 161 203 247 301 356
#     4  11  21  40  58  89 124 158 197 251 301 365
#
# _framework density 19.074642000000001
#
# number of rings (size 3 to 8) (size 9 to 14) (size 15 to 20)
#    0.000    1.286    4.286    2.143    0.000    2.286 
#    0.000    0.714    0.000    0.000    0.000    3.000 
#    0.000    0.000    0.000    0.000    0.000    0.000 
#
# Total GULP energy -155971.596424 kJ/mol
# GULP energy per Si atom -5570.414158 kJ/mol
# Density = 1.903123 g / cm^3
# Si number density = 19.074642 Si / 1000 Ang^3
#
#
#
# Elastic Constant Matrix: (Units=GPa)
#
#
# Indices 1 2 3 4 5 6 
#
# 1 106.7207 24.4644 36.9012 0.0000 -4.1742 0.0000
# 2 24.4644 56.1987 27.4147 0.0000 0.9993 0.0000
# 3 36.9012 27.4147 79.1526 0.0000 -4.9042 0.0000
# 4 0.0000 0.0000 0.0000 -2.5082 0.0000 6.3377
# 5 -4.1742 0.9993 -4.9042 0.0000 43.7068 0.0000
# 6 0.0000 0.0000 0.0000 6.3377 0.0000 -2.2455
#
#
#
# Elastic Compliance Matrix: (Units=1/GPa)
#
#
# Indices 1 2 3 4 5 6 
#
# 1 0.011568 -0.002934 -0.004335 0.000000 0.000686 0.000000
# 2 -0.002934 0.022233 -0.006426 0.000000 -0.001510 0.000000
# 3 -0.004335 -0.006426 0.016982 0.000000 0.001638 0.000000
# 4 0.000000 0.000000 0.000000 0.065022 0.000000 0.183519
# 5 0.000686 -0.001510 0.001638 0.000000 0.023164 0.000000
# 6 0.000000 0.000000 0.000000 0.183519 0.000000 0.072630
#
#
# Mechanical properties :
#
#
# Convention : Reuss Voigt Hill
#
# Bulk Modulus (GPa) = 42.74602 46.62585 44.68593
# Shear Modulus (GPa) = 20.26044 18.01006 19.13525
#
# Velocity S-wave (km/s) = 3.26262 3.07610 3.17073
# Velocity P-wave (km/s) = 6.05405 6.09208 6.07309
#
# Compressibility (1/GPa) = 0.02339399
#
# Stress axis : x y z
#
# Youngs Moduli (GPa) = 86.44257 44.97868 58.88611
#
# Poissons Ratio (x) = 0.13195 0.25525
# Poissons Ratio (y) = 0.25359 0.37842
# Poissons Ratio (z) = 0.37470 0.28904
#
# Static dielectric constant tensor:
#      x y z
#    x 1.665070 0.000000 -0.001680 
#    y 0.000000 1.627760 0.000000 
#    z -0.001680 0.000000 1.670640 
# 
# From -- ./inp_files/223906.got.cif
#   From: 2010.05.17/outbox.cif.g08.bks.cpg/sg12_112_cif.got.tgz:223906.got - 2010.06.03 13:09:07.
