data_PCOD9209750
_publ_section_title
;
Structure prediction by ZEFSAII (Michael W. Deem and Ramdas Pophale) SiO2 
 PCOD9209750
Probable space group: C 2/M
;
_chemical_formula_sum "Si O2"
_cell_formula_units_Z 64
_cell_length_a 12.318343
_cell_length_b 14.509664
_cell_length_c 28.841360
_cell_angle_alpha 90.000000
_cell_angle_beta 36.800709
_cell_angle_gamma 90.000000
_cell_volume 3087.994365
_symmetry_space_group_name_H-M "C 2/M"
_symmetry_group_IT_number 12
_symmetry_cell_setting 'monoclinic'
loop_
_space_group_symop_operation_xyz
x,y,z
-x,y,-z
-x,-y,-z
x,-y,z
1/2+x,1/2+y,z
1/2-x,1/2+y,-z
1/2-x,1/2-y,-z
1/2+x,1/2-y,z
loop_
_atom_site_type_symbol
_atom_site_label
_atom_site_fract_x
_atom_site_fract_y
_atom_site_fract_z
Si Si1 0.827251 0.762674 0.675001
Si Si2 0.572744 0.802295 0.839725
Si Si3 0.293799 0.762838 0.587868
Si Si4 0.183564 0.106609 0.965962
Si Si5 0.089332 0.606107 0.612790
Si Si6 0.640644 0.394100 0.564350
Si Si7 0.537252 0.601715 0.120323
Si Si8 0.851846 0.392140 0.087144
O O1 0.705361 0.821370 0.751479
O O2 0.738234 0.721340 0.659815
O O3 0.921991 0.675836 0.667165
O O4 0.978808 0.830557 0.601317
O O5 0.366510 0.833592 0.898125
O O6 0.581885 0.692043 0.840580
O O7 0.634024 0.844229 0.867920
O O8 0.500000 0.772739 0.500000
O O9 0.228192 0.659822 0.598183
O O10 0.191402 0.840503 0.593382
O O11 0.221028 0.000000 0.939508
O O12 0.144914 0.106413 0.034515
O O13 0.000000 0.133679 0.000000
O O14 0.052358 0.500000 0.637276
O O15 0.189457 0.608474 0.528553
O O16 0.589282 0.500000 0.588513
O O17 0.451235 0.500000 0.151309
O O18 0.666555 0.610975 0.121108
O O19 0.895648 0.500000 0.080377
O O20 0.000000 0.354738 0.000000
#
# Coordination Sequence:
#
# PCOD9209750 Si02
#       8
#     8   8   8   8   8   8   8   8
#     4  11  24  41  58  94 134 162 206 270 324 378
#     4  12  25  38  68  96 130 168 213 265 344 389
#     4  11  19  38  64  89 127 170 217 260 303 381
#     4  10  22  42  66  95 129 163 211 269 321 389
#     4  10  21  39  64  91 124 171 219 263 312 371
#     4  10  21  38  64  93 122 166 220 267 313 370
#     4  10  23  41  63  92 123 165 217 261 311 387
#     4  10  21  41  69  96 122 158 216 272 314 383
#
# _framework density 20.725425999999999
#
# number of rings (size 3 to 8) (size 9 to 14) (size 15 to 20)
#    0.000    1.500    3.750    1.500    1.750    5.000 
#    0.000    1.250    0.000    0.000    0.000    0.000 
#    0.000    0.000    0.000    0.000    0.000    0.000 
#
# Total GULP energy -178461.227125 kJ/mol
# GULP energy per Si atom -5576.913348 kJ/mol
# Density = 2.067825 g / cm^3
# Si number density = 20.725426 Si / 1000 Ang^3
#
#
#
# Elastic Constant Matrix: (Units=GPa)
#
#
# Indices 1 2 3 4 5 6 
#
# 1 -404.0486 -363.4501 -321.4600 0.0042 -193.7928 -0.0027
# 2 -363.4501 -173.0850 -246.2007 0.0036 -171.7992 -0.0023
# 3 -321.4600 -246.2007 -167.2022 0.0032 -132.3348 -0.0022
# 4 0.0042 0.0036 0.0032 35.5426 0.0022 -8.0569
# 5 -193.7928 -171.7992 -132.3348 0.0022 -74.0013 -0.0013
# 6 -0.0027 -0.0023 -0.0022 -8.0569 -0.0013 28.9900
#
#
#
# Elastic Compliance Matrix: (Units=1/GPa)
#
#
# Indices 1 2 3 4 5 6 
#
# 1 0.014227 -0.005323 -0.000464 0.000000 -0.024071 0.000000
# 2 -0.005323 0.007801 -0.004931 0.000000 0.004647 0.000000
# 3 -0.000464 -0.004931 0.018899 0.000000 -0.021135 0.000000
# 4 0.000000 0.000000 0.000000 0.030027 -0.000001 0.008345
# 5 -0.024071 0.004647 -0.021135 -0.000001 0.076529 0.000000
# 6 0.000000 0.000000 0.000000 0.008345 0.000000 0.036814
#
#
# Mechanical properties :
#
#
# Convention : Reuss Voigt Hill
#
# Bulk Modulus (GPa) = 51.30320 -289.61747 -119.15713
# Shear Modulus (GPa) = 23.55932 10.55791 17.05862
#
# Velocity S-wave (km/s) = 3.37521 2.25948 2.87204
# Velocity P-wave (km/s) = 6.32431 11.54281 6.82787
#
# Compressibility (1/GPa) = 0.01949196
#
# Stress axis : x y z
#
# Youngs Moduli (GPa) = 70.28795 128.19269 52.91165
#
# Poissons Ratio (x) = 0.68235 0.02454
# Poissons Ratio (y) = 0.37413 0.26091
# Poissons Ratio (z) = 0.03260 0.63212
#
# Static dielectric constant tensor:
#      x y z
#    x 1.789520 0.000000 -0.049600 
#    y 0.000000 1.740490 0.000000 
#    z -0.049600 0.000000 1.937140 
# 
# From -- ./inp_files/358423.got.cif
#   From: 2010.05.17/outbox.cif.g08.bks.cpg/sg12_180_cif.got.tgz:358423.got - 2010.06.03 13:09:07.
