data_PCOD9209759
_publ_section_title
;
Structure prediction by ZEFSAII (Michael W. Deem and Ramdas Pophale) SiO2 
 PCOD9209759
Probable space group: C 2/M
;
_chemical_formula_sum "Si O2"
_cell_formula_units_Z 64
_cell_length_a 19.229450
_cell_length_b 8.825765
_cell_length_c 29.756429
_cell_angle_alpha 90.000000
_cell_angle_beta 40.392237
_cell_angle_gamma 90.000000
_cell_volume 3272.549628
_symmetry_space_group_name_H-M "C 2/M"
_symmetry_group_IT_number 12
_symmetry_cell_setting 'monoclinic'
loop_
_space_group_symop_operation_xyz
x,y,z
-x,y,-z
-x,-y,-z
x,-y,z
1/2+x,1/2+y,z
1/2-x,1/2+y,-z
1/2-x,1/2-y,-z
1/2+x,1/2-y,z
loop_
_atom_site_type_symbol
_atom_site_label
_atom_site_fract_x
_atom_site_fract_y
_atom_site_fract_z
Si Si1 0.227482 0.318598 0.674740
Si Si2 0.082094 0.680742 0.595094
Si Si3 0.266472 0.819695 0.563599
Si Si4 0.654678 0.682854 0.291412
Si Si5 0.130915 0.679832 0.060757
Si Si6 0.599258 0.675314 0.984898
Si Si7 0.789346 0.818986 0.834558
Si Si8 0.991577 0.819289 0.794158
O O1 0.226169 0.500000 0.673859
O O2 0.286884 0.254566 0.601666
O O3 0.283120 0.271298 0.694085
O O4 0.106561 0.256796 0.732171
O O5 0.081122 0.500000 0.602014
O O6 0.156073 0.755520 0.596958
O O7 0.142075 0.713789 0.518289
O O8 0.962963 0.745497 0.652676
O O9 0.257302 0.000000 0.572985
O O10 0.643954 0.500000 0.296798
O O11 0.716366 0.723138 0.214998
O O12 0.136067 0.500000 0.064287
O O13 0.065707 0.755378 0.133192
O O14 0.250000 0.750000 0.000000
O O15 0.079843 0.723037 0.038113
O O16 0.613032 0.500000 0.991961
O O17 0.704725 0.732063 0.906974
O O18 0.500000 0.685698 0.000000
O O19 0.909130 0.788265 0.793987
O O20 0.770562 0.000000 0.848576
O O21 0.004376 0.000000 0.791237
#
# Coordination Sequence:
#
# PCOD9209759 Si02
#       8
#     8   8   8   8   8   8   8   8
#     4  11  24  40  60  91 126 165 207 249 298 359
#     4  10  21  38  64  94 121 157 205 253 305 363
#     4  10  21  39  63  91 124 161 203 252 303 361
#     4  10  23  41  60  88 126 163 203 248 304 364
#     4  12  24  41  65  92 123 160 204 254 306 365
#     4  11  25  42  62  92 124 158 203 253 307 366
#     4  10  22  41  63  86 116 161 205 247 305 366
#     4  11  23  40  64  91 121 160 204 255 308 361
#
# _framework density 19.556616999999999
#
# number of rings (size 3 to 8) (size 9 to 14) (size 15 to 20)
#    0.000    1.375    1.250    3.750    1.750    6.000 
#    0.000    2.500    0.000    0.000    0.000    0.000 
#    0.000    0.000    0.000    0.000    0.000    0.000 
#
# Total GULP energy -178975.862367 kJ/mol
# GULP energy per Si atom -5592.995699 kJ/mol
# Density = 1.951210 g / cm^3
# Si number density = 19.556617 Si / 1000 Ang^3
#
#
#
# Elastic Constant Matrix: (Units=GPa)
#
#
# Indices 1 2 3 4 5 6 
#
# 1 79.3697 25.2222 15.0054 0.0000 27.3279 0.0004
# 2 25.2222 35.9890 12.5764 -0.0002 9.5857 0.0012
# 3 15.0054 12.5764 48.3225 0.0000 15.3042 0.0001
# 4 0.0000 -0.0002 0.0000 34.9168 0.0000 2.2572
# 5 27.3279 9.5857 15.3042 0.0000 36.2995 0.0000
# 6 0.0004 0.0012 0.0001 2.2572 0.0000 29.1913
#
#
#
# Elastic Compliance Matrix: (Units=1/GPa)
#
#
# Indices 1 2 3 4 5 6 
#
# 1 0.020377 -0.011111 0.000570 0.000000 -0.012647 0.000000
# 2 -0.011111 0.037587 -0.006737 0.000000 0.001280 -0.000001
# 3 0.000570 -0.006737 0.025209 0.000000 -0.009278 0.000000
# 4 0.000000 0.000000 0.000000 0.028783 0.000000 -0.002226
# 5 -0.012647 0.001280 -0.009278 0.000000 0.040643 0.000000
# 6 0.000000 -0.000001 0.000000 -0.002226 0.000000 0.034429
#
#
# Mechanical properties :
#
#
# Convention : Reuss Voigt Hill
#
# Bulk Modulus (GPa) = 20.56985 29.92103 25.24544
# Shear Modulus (GPa) = 21.02673 27.47331 24.25002
#
# Velocity S-wave (km/s) = 3.28254 3.75214 3.52517
# Velocity P-wave (km/s) = 4.99076 5.83989 5.43194
#
# Compressibility (1/GPa) = 0.04861485
#
# Stress axis : x y z
#
# Youngs Moduli (GPa) = 49.07499 26.60492 39.66776
#
# Poissons Ratio (x) = 0.29562 -0.02259
# Poissons Ratio (y) = 0.54530 0.26726
# Poissons Ratio (z) = -0.02795 0.17925
#
# Static dielectric constant tensor:
#      x y z
#    x 1.686640 0.000000 0.018000 
#    y 0.000000 1.654300 0.000000 
#    z 0.018000 0.000000 1.661630 
# 
# From -- ./inp_files/378060.got.cif
#   From: 2010.05.17/outbox.cif.g08.bks.cpg/sg12_190_cif.got.tgz:378060.got - 2010.06.03 13:09:07.
