data_PCOD9209427
_publ_section_title
;
Structure prediction by ZEFSAII (Michael W. Deem and Ramdas Pophale) SiO2 
 PCOD9209427
Probable space group: C 2/M
;
_chemical_formula_sum "Si O2"
_cell_formula_units_Z 56
_cell_length_a 23.976248
_cell_length_b 8.801699
_cell_length_c 16.043545
_cell_angle_alpha 90.000000
_cell_angle_beta 122.603093
_cell_angle_gamma 90.000000
_cell_volume 2852.189964
_symmetry_space_group_name_H-M "C 2/M"
_symmetry_group_IT_number 12
_symmetry_cell_setting 'monoclinic'
loop_
_space_group_symop_operation_xyz
x,y,z
-x,y,-z
-x,-y,-z
x,-y,z
1/2+x,1/2+y,z
1/2-x,1/2+y,-z
1/2-x,1/2-y,-z
1/2+x,1/2-y,z
loop_
_atom_site_type_symbol
_atom_site_label
_atom_site_fract_x
_atom_site_fract_y
_atom_site_fract_z
Si Si1 0.451363 0.318255 0.536693
Si Si2 0.692812 0.821076 0.843104
Si Si3 0.558393 0.182997 0.293169
Si Si4 0.795323 0.817963 0.609689
Si Si5 0.818677 0.317839 0.357918
Si Si6 0.844623 0.175722 0.020154
Si Si7 0.473207 0.181510 0.065834
O O1 0.500000 0.271255 0.500000
O O2 0.454183 0.500000 0.546228
O O3 0.467301 0.244808 0.638839
O O4 0.377155 0.266140 0.453495
O O5 0.678652 0.776558 0.737090
O O6 0.770905 0.803861 0.924887
O O7 0.676542 0.000000 0.840485
O O8 0.656261 0.725478 0.884103
O O9 0.632677 0.243430 0.337166
O O10 0.513138 0.235273 0.179409
O O11 0.559349 0.000000 0.297372
O O12 0.750000 0.750000 0.500000
O O13 0.753047 0.786383 0.659475
O O14 0.801453 0.000000 0.605221
O O15 0.829143 0.500000 0.373897
O O16 0.862559 0.000000 0.026790
O O17 0.897136 0.276262 0.014569
O O18 0.480641 0.000000 0.070834
O O19 0.500000 0.243244 0.000000
#
# Coordination Sequence:
#
# PCOD9209427 Si02
#       7
#     8   8   8   8   8   8   8
#     4  11  25  42  61  90 126 160 201 253 304 361
#     4   9  20  39  61  88 121 158 197 245 301 359
#     4  11  24  42  64  89 119 163 206 248 304 362
#     4  11  22  38  62  90 121 155 196 245 295 353
#     4  10  22  39  62  89 119 158 201 243 297 363
#     4  10  21  38  62  90 120 155 200 250 302 356
#     4  10  24  44  63  87 121 161 205 250 302 363
#
# _framework density 19.634035999999998
#
# number of rings (size 3 to 8) (size 9 to 14) (size 15 to 20)
#    0.000    1.714    1.429    1.714    4.000    4.286 
#    0.000    0.000    0.000    0.000    0.000    0.000 
#    0.000    0.000    0.000    0.000    0.000    0.000 
#
# Total GULP energy -156458.607844 kJ/mol
# GULP energy per Si atom -5587.807423 kJ/mol
# Density = 1.958935 g / cm^3
# Si number density = 19.634036 Si / 1000 Ang^3
#
#
#
# Elastic Constant Matrix: (Units=GPa)
#
#
# Indices 1 2 3 4 5 6 
#
# 1 65.5827 18.3912 8.6485 0.0000 -23.5998 0.0000
# 2 18.3912 24.2793 28.7841 0.0000 -7.8707 0.0000
# 3 8.6485 28.7841 84.0365 0.0000 -29.3487 0.0000
# 4 0.0000 0.0000 0.0000 15.5025 0.0000 -3.8893
# 5 -23.5998 -7.8707 -29.3487 0.0000 27.2386 0.0000
# 6 0.0000 0.0000 0.0000 -3.8893 0.0000 33.5764
#
#
#
# Elastic Compliance Matrix: (Units=1/GPa)
#
#
# Indices 1 2 3 4 5 6 
#
# 1 0.059999 -0.076682 0.048912 0.000000 0.082527 0.000000
# 2 -0.076682 0.168725 -0.089907 0.000000 -0.114556 0.000000
# 3 0.048912 -0.089907 0.069564 0.000000 0.091352 0.000000
# 4 0.000000 0.000000 0.000000 0.066436 0.000000 0.007696
# 5 0.082527 -0.114556 0.091352 0.000000 0.173542 0.000000
# 6 0.000000 0.000000 0.000000 0.007696 0.000000 0.030674
#
#
# Mechanical properties :
#
#
# Convention : Reuss Voigt Hill
#
# Bulk Modulus (GPa) = 15.88981 31.72733 23.80857
# Shear Modulus (GPa) = 6.05860 23.13515 14.59687
#
# Velocity S-wave (km/s) = 1.75854 3.43639 2.72958
# Velocity P-wave (km/s) = 3.49769 5.65150 4.69964
#
# Compressibility (1/GPa) = 0.06293343
#
# Stress axis : x y z
#
# Youngs Moduli (GPa) = 16.66702 5.92680 14.37517
#
# Poissons Ratio (x) = 0.45448 -0.70312
# Poissons Ratio (y) = 1.27806 1.29243
# Poissons Ratio (z) = -0.81521 0.53286
#
# Static dielectric constant tensor:
#      x y z
#    x 1.679140 0.000000 -0.016810 
#    y 0.000000 1.661120 0.000000 
#    z -0.016810 0.000000 1.676150 
# 
# From -- ./inp_files/238959.got.cif
#   From: 2010.05.17/outbox.cif.g08.bks.cpg/sg12_120_cif.got.tgz:238959.got - 2010.06.03 13:09:07.
