data_PCOD9209211
_publ_section_title
;
Structure prediction by ZEFSAII (Michael W. Deem and Ramdas Pophale) SiO2 
 PCOD9209211
Probable space group: C 2/M
;
_chemical_formula_sum "Si O2"
_cell_formula_units_Z 40
_cell_length_a 9.704226
_cell_length_b 17.297218
_cell_length_c 14.258396
_cell_angle_alpha 90.000000
_cell_angle_beta 54.020252
_cell_angle_gamma 90.000000
_cell_volume 1936.765170
_symmetry_space_group_name_H-M "C 2/M"
_symmetry_group_IT_number 12
_symmetry_cell_setting 'monoclinic'
loop_
_space_group_symop_operation_xyz
x,y,z
-x,y,-z
-x,-y,-z
x,-y,z
1/2+x,1/2+y,z
1/2-x,1/2+y,-z
1/2-x,1/2-y,-z
1/2+x,1/2-y,z
loop_
_atom_site_type_symbol
_atom_site_label
_atom_site_fract_x
_atom_site_fract_y
_atom_site_fract_z
Si Si1 0.428758 0.702995 0.924147
Si Si2 0.833910 0.589807 0.007363
Si Si3 0.951069 0.248393 0.412076
Si Si4 0.534660 0.157087 0.768164
Si Si5 0.593724 0.413531 0.361719
O O1 0.551190 0.761038 0.818313
O O2 0.500000 0.688530 0.000000
O O3 0.250000 0.750000 0.000000
O O4 0.351298 0.627531 0.904622
O O5 0.824254 0.500000 0.030834
O O6 0.890925 0.607692 0.878047
O O7 0.000000 0.620349 0.000000
O O8 0.750000 0.250000 0.500000
O O9 0.009755 0.315310 0.318169
O O10 0.000000 0.259319 0.500000
O O11 0.013055 0.164420 0.351178
O O12 0.708447 0.108901 0.703631
O O13 0.500000 0.417677 0.500000
O O14 0.579418 0.500000 0.325257
#
# Coordination Sequence:
#
# PCOD9209211 Si02
#       5
#     8   8   8   8   8
#     4  10  22  37  60  90 119 158 206 258 309 372
#     4  10  23  41  62  92 125 161 209 263 315 374
#     4  11  22  38  59  94 124 165 211 258 299 368
#     4  11  21  37  65  90 121 165 209 248 314 363
#     4  10  21  38  61  89 120 162 210 255 300 361
#
# _framework density 20.652995000000001
#
# number of rings (size 3 to 8) (size 9 to 14) (size 15 to 20)
#    0.000    1.600    4.000    3.000    8.400    0.400 
#    0.000    0.000    0.000    7.800    0.000    0.000 
#    0.000    0.000    0.000    0.000    0.000    0.000 
#
# Total GULP energy -111458.070746 kJ/mol
# GULP energy per Si atom -5572.903537 kJ/mol
# Density = 2.060599 g / cm^3
# Si number density = 20.652995 Si / 1000 Ang^3
#
#
#
# Elastic Constant Matrix: (Units=GPa)
#
#
# Indices 1 2 3 4 5 6 
#
# 1 106.8562 22.2365 17.1256 0.0000 9.8961 0.0000
# 2 22.2365 62.2002 5.8370 0.0000 -0.6169 0.0000
# 3 17.1256 5.8370 87.2662 0.0000 4.6600 0.0000
# 4 0.0000 0.0000 0.0000 16.6200 0.0000 -2.8819
# 5 9.8961 -0.6169 4.6600 0.0000 32.3002 0.0000
# 6 0.0000 0.0000 0.0000 -2.8819 0.0000 33.2472
#
#
#
# Elastic Compliance Matrix: (Units=1/GPa)
#
#
# Indices 1 2 3 4 5 6 
#
# 1 0.010684 -0.003692 -0.001684 0.000000 -0.003101 0.000000
# 2 -0.003692 0.017462 -0.000526 0.000000 0.001541 0.000000
# 3 -0.001684 -0.000526 0.011889 0.000000 -0.001209 0.000000
# 4 0.000000 0.000000 0.000000 0.061087 0.000000 0.005295
# 5 -0.003101 0.001541 -0.001209 0.000000 0.032113 0.000000
# 6 0.000000 0.000000 0.000000 0.005295 0.000000 0.030537
#
#
# Mechanical properties :
#
#
# Convention : Reuss Voigt Hill
#
# Bulk Modulus (GPa) = 35.42200 38.52454 36.97327
# Shear Modulus (GPa) = 27.02909 30.50839 28.76874
#
# Velocity S-wave (km/s) = 3.62156 3.84759 3.73628
# Velocity P-wave (km/s) = 5.88862 6.19938 6.04600
#
# Compressibility (1/GPa) = 0.02823104
#
# Stress axis : x y z
#
# Youngs Moduli (GPa) = 93.59988 57.26833 84.10837
#
# Poissons Ratio (x) = 0.21144 0.14165
# Poissons Ratio (y) = 0.34558 0.04421
# Poissons Ratio (z) = 0.15763 0.03010
#
# Static dielectric constant tensor:
#      x y z
#    x 1.729970 0.000000 -0.064390 
#    y 0.000000 1.848420 0.000000 
#    z -0.064390 0.000000 1.611000 
# 
# From -- ./inp_files/195310.got.cif
#   From: 2010.05.17/outbox.cif.g08.bks.cpg/sg12_98_cif.got.tgz:195310.got - 2010.06.03 13:09:07.
