data_PCOD9209872
_publ_section_title
;
Structure prediction by ZEFSAII (Michael W. Deem and Ramdas Pophale) SiO2 
 PCOD9209872
Probable space group: C 2/M
;
_chemical_formula_sum "Si O2"
_cell_formula_units_Z 52
_cell_length_a 10.258445
_cell_length_b 14.585834
_cell_length_c 33.283541
_cell_angle_alpha 90.000000
_cell_angle_beta 148.232593
_cell_angle_gamma 90.000000
_cell_volume 2621.910153
_symmetry_space_group_name_H-M "C 2/M"
_symmetry_group_IT_number 12
_symmetry_cell_setting 'monoclinic'
loop_
_space_group_symop_operation_xyz
x,y,z
-x,y,-z
-x,-y,-z
x,-y,z
1/2+x,1/2+y,z
1/2-x,1/2+y,-z
1/2-x,1/2-y,-z
1/2+x,1/2-y,z
loop_
_atom_site_type_symbol
_atom_site_label
_atom_site_fract_x
_atom_site_fract_y
_atom_site_fract_z
Si Si1 0.436780 0.500000 0.417011
Si Si2 0.161269 0.640760 0.292948
Si Si3 0.377666 0.650014 0.815876
Si Si4 0.948805 0.500000 0.080821
Si Si5 0.157044 0.859773 0.284581
Si Si6 0.092723 0.500000 0.406112
Si Si7 0.183319 0.334615 0.012219
Si Si8 0.339719 0.869111 0.799918
O O1 0.369618 0.588222 0.372529
O O2 0.253656 0.500000 0.407519
O O3 0.712917 0.500000 0.506607
O O4 0.194496 0.750836 0.300080
O O5 0.148821 0.608696 0.243822
O O6 0.897927 0.620416 0.244575
O O7 0.428839 0.619520 0.783716
O O8 0.573712 0.626523 0.901338
O O9 0.378555 0.760608 0.814674
O O10 0.970551 0.421748 0.122475
O O11 0.933994 0.417865 0.043230
O O12 0.409506 0.913263 0.358576
O O13 0.933701 0.890098 0.254574
O O14 0.250000 0.250000 0.000000
O O15 0.000000 0.303257 0.000000
#
# Coordination Sequence:
#
# PCOD9209872 Si02
#       8
#     4   8   8   4   8   4   8   8
#     4  11  23  42  63 100 138 165 210 269 316 386
#     4  10  22  41  68  97 126 169 215 266 323 381
#     4  10  21  41  65  89 128 169 212 265 318 391
#     4  12  23  42  63  90 124 170 212 268 330 384
#     4  10  21  40  68  97 123 169 219 258 320 388
#     4  11  23  40  67  98 135 170 211 263 317 385
#     4  12  27  43  63  93 134 170 216 274 337 383
#     4  10  21  38  66  91 124 161 219 271 310 375
#
# _framework density 19.832868999999999
#
# number of rings (size 3 to 8) (size 9 to 14) (size 15 to 20)
#    0.000    1.385    3.077    2.077    4.308    1.846 
#    0.000    4.231    0.000    0.000    0.000    0.000 
#    0.000    0.000    0.000    0.000    0.000    0.000 
#
# Total GULP energy -144789.387615 kJ/mol
# GULP energy per Si atom -5568.822601 kJ/mol
# Density = 1.978773 g / cm^3
# Si number density = 19.832869 Si / 1000 Ang^3
#
#
#
# Elastic Constant Matrix: (Units=GPa)
#
#
# Indices 1 2 3 4 5 6 
#
# 1 76.2987 30.7125 12.1723 0.0000 -20.8692 0.0000
# 2 30.7125 91.5811 12.1349 0.0000 -11.3184 0.0000
# 3 12.1723 12.1349 86.6026 -0.0001 -22.4124 0.0002
# 4 0.0000 0.0000 -0.0001 27.7835 0.0000 -5.9066
# 5 -20.8692 -11.3184 -22.4124 0.0000 32.3893 0.0001
# 6 0.0000 0.0000 0.0002 -5.9066 0.0001 17.9558
#
#
#
# Elastic Compliance Matrix: (Units=1/GPa)
#
#
# Indices 1 2 3 4 5 6 
#
# 1 0.017722 -0.004778 0.000855 0.000000 0.010340 0.000000
# 2 -0.004778 0.012735 -0.000923 0.000000 0.000732 0.000000
# 3 0.000855 -0.000923 0.014149 0.000000 0.010019 0.000000
# 4 0.000000 0.000000 0.000000 0.038699 0.000000 0.012730
# 5 0.010340 0.000732 0.010019 0.000000 0.044725 0.000000
# 6 0.000000 0.000000 0.000000 0.012730 0.000000 0.059880
#
#
# Mechanical properties :
#
#
# Convention : Reuss Voigt Hill
#
# Bulk Modulus (GPa) = 28.64390 40.50242 34.57316
# Shear Modulus (GPa) = 23.89594 28.92324 26.40959
#
# Velocity S-wave (km/s) = 3.47488 3.82298 3.65308
# Velocity P-wave (km/s) = 5.52935 6.32084 5.93830
#
# Compressibility (1/GPa) = 0.03491145
#
# Stress axis : x y z
#
# Youngs Moduli (GPa) = 56.42784 78.52601 70.67611
#
# Poissons Ratio (x) = 0.37523 -0.06041
# Poissons Ratio (y) = 0.26964 0.06525
# Poissons Ratio (z) = -0.04823 0.07250
#
# Static dielectric constant tensor:
#      x y z
#    x 1.690830 0.000000 0.015040 
#    y 0.000000 1.719910 0.000000 
#    z 0.015040 0.000000 1.685410 
# 
# From -- ./inp_files/372673.got.cif
#   From: 2010.05.17/outbox.cif.g08.bks.cpg/sg12_187_cif.got.tgz:372673.got - 2010.06.03 13:09:07.
