data_PCOD9209988
_publ_section_title
;
Structure prediction by ZEFSAII (Michael W. Deem and Ramdas Pophale) SiO2 
 PCOD9209988
Probable space group: C 2/M
;
_chemical_formula_sum "Si O2"
_cell_formula_units_Z 48
_cell_length_a 25.703270
_cell_length_b 8.588986
_cell_length_c 12.791265
_cell_angle_alpha 90.000000
_cell_angle_beta 70.589385
_cell_angle_gamma 90.000000
_cell_volume 2663.358641
_symmetry_space_group_name_H-M "C 2/M"
_symmetry_group_IT_number 12
_symmetry_cell_setting 'monoclinic'
loop_
_space_group_symop_operation_xyz
x,y,z
-x,y,-z
-x,-y,-z
x,-y,z
1/2+x,1/2+y,z
1/2-x,1/2+y,-z
1/2-x,1/2-y,-z
1/2+x,1/2-y,z
loop_
_atom_site_type_symbol
_atom_site_label
_atom_site_fract_x
_atom_site_fract_y
_atom_site_fract_z
Si Si1 0.500560 0.813350 0.377472
Si Si2 0.188110 0.688320 0.755668
Si Si3 0.692010 0.813340 0.995425
Si Si4 0.615083 0.686712 0.623748
Si Si5 0.811363 0.189211 0.621693
Si Si6 0.616486 0.686855 0.225266
O O1 0.500000 0.763949 0.500000
O O2 0.444954 0.754033 0.360622
O O3 0.555046 0.745959 0.287216
O O4 0.502393 0.000000 0.372994
O O5 0.186027 0.500000 0.751536
O O6 0.140557 0.757592 0.715537
O O7 0.248070 0.740358 0.672515
O O8 0.184494 0.733541 0.879651
O O9 0.643873 0.751874 0.102229
O O10 0.693755 0.000000 0.997810
O O11 0.750000 0.750000 0.000000
O O12 0.612406 0.500000 0.622453
O O13 0.656567 0.740536 0.503343
O O14 0.845427 0.237513 0.701746
O O15 0.810871 0.000000 0.621819
O O16 0.617056 0.500000 0.221840
#
# Coordination Sequence:
#
# PCOD9209988 Si02
#       6
#     8   8   8   8   8   8
#     4  11  23  39  60  88 119 155 198 243 292 353
#     4  10  21  39  58  83 122 161 194 239 295 350
#     4  11  22  38  61  88 120 158 200 245 293 348
#     4  11  22  37  59  88 120 157 198 242 293 353
#     4   9  18  34  57  86 120 154 188 234 297 350
#     4  11  21  38  62  89 120 153 196 248 295 348
#
# _framework density 18.022358000000001
#
# number of rings (size 3 to 8) (size 9 to 14) (size 15 to 20)
#    0.000    1.500    3.333    2.500    0.000    2.000 
#    0.000    1.667    0.000    5.000    0.000    0.000 
#    0.000    0.000    0.000    0.000    0.000    0.000 
#
# Total GULP energy -134120.231868 kJ/mol
# GULP energy per Si atom -5588.342995 kJ/mol
# Density = 1.798134 g / cm^3
# Si number density = 18.022358 Si / 1000 Ang^3
#
#
#
# Elastic Constant Matrix: (Units=GPa)
#
#
# Indices 1 2 3 4 5 6 
#
# 1 166.4879 36.0583 80.8303 0.0000 1.1225 0.0000
# 2 36.0583 40.6072 33.2217 0.0000 -0.2444 0.0000
# 3 80.8303 33.2217 115.2768 0.0000 -9.2717 0.0000
# 4 0.0000 0.0000 0.0000 26.7856 0.0000 -1.0045
# 5 1.1225 -0.2444 -9.2717 0.0000 34.6251 0.0000
# 6 0.0000 0.0000 0.0000 -1.0045 0.0000 24.8239
#
#
#
# Elastic Compliance Matrix: (Units=1/GPa)
#
#
# Indices 1 2 3 4 5 6 
#
# 1 0.009684 -0.003834 -0.005839 0.000000 -0.001904 0.000000
# 2 -0.003834 0.033923 -0.007214 0.000000 -0.001568 0.000000
# 3 -0.005839 -0.007214 0.015186 0.000000 0.004205 0.000000
# 4 0.000000 0.000000 0.000000 0.037390 0.000000 0.001513
# 5 -0.001904 -0.001568 0.004205 0.000000 0.030057 0.000000
# 6 0.000000 0.000000 0.000000 0.001513 0.000000 0.040345
#
#
# Mechanical properties :
#
#
# Convention : Reuss Voigt Hill
#
# Bulk Modulus (GPa) = 39.96829 69.17697 54.57263
# Shear Modulus (GPa) = 23.95780 28.73103 26.34442
#
# Velocity S-wave (km/s) = 3.64996 3.99706 3.82745
# Velocity P-wave (km/s) = 6.32362 7.73106 7.06249
#
# Compressibility (1/GPa) = 0.02501983
#
# Stress axis : x y z
#
# Youngs Moduli (GPa) = 103.25836 29.47823 65.85000
#
# Poissons Ratio (x) = 0.11303 0.38448
# Poissons Ratio (y) = 0.39591 0.47504
# Poissons Ratio (z) = 0.60290 0.21266
#
# Static dielectric constant tensor:
#      x y z
#    x 1.583560 0.000000 0.002190 
#    y 0.000000 1.609410 0.000000 
#    z 0.002190 0.000000 1.605810 
# 
# From -- ./inp_files/172875.got.cif
#   From: 2010.05.17/outbox.cif.g08.bks.cpg/sg12_87_cif.got.tgz:172875.got - 2010.06.03 13:09:07.
