data_PCOD9209515
_publ_section_title
;
Structure prediction by ZEFSAII (Michael W. Deem and Ramdas Pophale) SiO2 
 PCOD9209515
Probable space group: C 2/M
;
_chemical_formula_sum "Si O2"
_cell_formula_units_Z 40
_cell_length_a 35.745809
_cell_length_b 11.591660
_cell_length_c 5.198107
_cell_angle_alpha 90.000000
_cell_angle_beta 89.837455
_cell_angle_gamma 90.000000
_cell_volume 2153.843937
_symmetry_space_group_name_H-M "C 2/M"
_symmetry_group_IT_number 12
_symmetry_cell_setting 'monoclinic'
loop_
_space_group_symop_operation_xyz
x,y,z
-x,y,-z
-x,-y,-z
x,-y,z
1/2+x,1/2+y,z
1/2-x,1/2+y,-z
1/2-x,1/2-y,-z
1/2+x,1/2-y,z
loop_
_atom_site_type_symbol
_atom_site_label
_atom_site_fract_x
_atom_site_fract_y
_atom_site_fract_z
Si Si1 0.606635 0.756639 0.239796
Si Si2 0.275620 0.738244 0.249640
Si Si3 0.131239 0.000000 0.304801
Si Si4 0.819348 0.000000 0.196555
Si Si5 0.975416 0.637892 0.749880
Si Si6 0.646780 0.137364 0.739396
O O1 0.609367 0.618663 0.259877
O O2 0.564057 0.798667 0.246956
O O3 0.628941 0.812120 0.479054
O O4 0.626386 0.801539 0.979800
O O5 0.250000 0.750000 0.500000
O O6 0.295236 0.613846 0.242717
O O7 0.309460 0.829953 0.252113
O O8 0.250000 0.750000 0.000000
O O9 0.147781 0.000000 0.592246
O O10 0.164422 0.000000 0.092169
O O11 0.968089 0.500000 0.747023
O O12 0.000000 0.666286 0.500000
O O13 0.000000 0.664058 0.000000
O O14 0.641340 0.000000 0.751690
#
# Coordination Sequence:
#
# PCOD9209515 Si02
#       6
#     8   8   4   4   8   8
#     4  12  23  43  66  95 126 169 212 259 309 380
#     4  12  26  42  62  91 122 165 209 267 319 371
#     4  12  22  44  66  93 124 176 220 256 300 385
#     4  12  24  46  64  87 130 172 222 258 316 387
#     4  10  21  38  62  93 127 163 203 255 319 376
#     4  12  25  42  64  94 125 161 213 266 320 370
#
# _framework density 18.571448
#
# number of rings (size 3 to 8) (size 9 to 14) (size 15 to 20)
#    0.000    0.400    4.000    5.400    2.800    1.600 
#    0.000    1.000    0.000    0.000    0.000    0.000 
#    0.000    0.000    0.000    0.000    0.000    0.000 
#
# Total GULP energy -111934.398087 kJ/mol
# GULP energy per Si atom -5596.719904 kJ/mol
# Density = 1.852918 g / cm^3
# Si number density = 18.571448 Si / 1000 Ang^3
#
#
#
# Elastic Constant Matrix: (Units=GPa)
#
#
# Indices 1 2 3 4 5 6 
#
# 1 129.4186 39.1865 44.0275 0.0000 -11.1313 0.0000
# 2 39.1865 118.6734 18.7253 0.0000 -0.4934 0.0000
# 3 44.0275 18.7253 126.0149 0.0000 -1.6915 0.0000
# 4 0.0000 0.0000 0.0000 34.1196 0.0000 -0.6719
# 5 -11.1313 -0.4934 -1.6915 0.0000 17.6800 0.0000
# 6 0.0000 0.0000 0.0000 -0.6719 0.0000 48.1832
#
#
#
# Elastic Compliance Matrix: (Units=1/GPa)
#
#
# Indices 1 2 3 4 5 6 
#
# 1 0.010139 -0.002843 -0.003039 0.000000 0.006013 0.000000
# 2 -0.002843 0.009426 -0.000428 0.000000 -0.001568 0.000000
# 3 -0.003039 -0.000428 0.009047 0.000000 -0.001060 0.000000
# 4 0.000000 0.000000 0.000000 0.029317 0.000000 0.000409
# 5 0.006013 -0.001568 -0.001060 0.000000 0.060202 0.000000
# 6 0.000000 0.000000 0.000000 0.000409 0.000000 0.020760
#
#
# Mechanical properties :
#
#
# Convention : Reuss Voigt Hill
#
# Bulk Modulus (GPa) = 62.53731 64.22061 63.37896
# Shear Modulus (GPa) = 31.87912 38.14106 35.01009
#
# Velocity S-wave (km/s) = 4.14764 4.53675 4.34655
# Velocity P-wave (km/s) = 7.52889 7.88024 7.70657
#
# Compressibility (1/GPa) = 0.01599045
#
# Stress axis : x y z
#
# Youngs Moduli (GPa) = 98.62991 106.08450 110.53603
#
# Poissons Ratio (x) = 0.30164 0.33593
# Poissons Ratio (y) = 0.28044 0.04735
# Poissons Ratio (z) = 0.29975 0.04544
#
# Static dielectric constant tensor:
#      x y z
#    x 1.602620 0.000000 0.004030 
#    y 0.000000 1.624120 0.000000 
#    z 0.004030 0.000000 1.622890 
# 
# From -- ./inp_files/30613.got.cif
#   From: 2010.05.17/outbox.cif.g08.bks.cpg/sg12_16_cif.got.tgz:30613.got - 2010.06.03 13:09:07.
