data_PCOD9209834
_publ_section_title
;
Structure prediction by ZEFSAII (Michael W. Deem and Ramdas Pophale) SiO2 
 PCOD9209834
Probable space group: C 2/M
;
_chemical_formula_sum "Si O2"
_cell_formula_units_Z 48
_cell_length_a 14.681296
_cell_length_b 34.260737
_cell_length_c 4.958824
_cell_angle_alpha 90.000000
_cell_angle_beta 112.744695
_cell_angle_gamma 90.000000
_cell_volume 2300.288062
_symmetry_space_group_name_H-M "C 2/M"
_symmetry_group_IT_number 12
_symmetry_cell_setting 'monoclinic'
loop_
_space_group_symop_operation_xyz
x,y,z
-x,y,-z
-x,-y,-z
x,-y,z
1/2+x,1/2+y,z
1/2-x,1/2+y,-z
1/2-x,1/2-y,-z
1/2+x,1/2-y,z
loop_
_atom_site_type_symbol
_atom_site_label
_atom_site_fract_x
_atom_site_fract_y
_atom_site_fract_z
Si Si1 0.607141 0.340272 0.675594
Si Si2 0.187141 0.411718 0.830017
Si Si3 0.391868 0.607838 0.823794
Si Si4 0.932386 0.335508 0.161552
Si Si5 0.772454 0.722414 0.778079
Si Si6 0.610056 0.045185 0.244356
O O1 0.500000 0.322047 0.500000
O O2 0.613968 0.378468 0.491803
O O3 0.693875 0.312361 0.688947
O O4 0.609768 0.353393 0.988275
O O5 0.295303 0.413760 0.820001
O O6 0.148257 0.367622 0.836502
O O7 0.116629 0.431881 0.530866
O O8 0.179048 0.434323 0.101464
O O9 0.500000 0.589589 0.000000
O O10 0.000000 0.325825 0.500000
O O11 0.876988 0.298839 0.957861
O O12 0.000000 0.353191 0.000000
O O13 0.750000 0.750000 0.500000
O O14 0.750000 0.750000 0.000000
O O15 0.637044 0.000000 0.316974
O O16 0.500000 0.046612 0.000000
#
# Coordination Sequence:
#
# PCOD9209834 Si02
#       6
#     8   8   8   8   8   8
#     4  10  21  40  62  84 115 155 210 265 315 373
#     4  12  22  40  70  93 130 171 211 263 323 373
#     4  10  21  38  65  94 117 152 208 271 312 358
#     4  12  26  42  65  96 131 167 219 273 329 391
#     4  12  26  42  63  88 127 170 211 269 331 391
#     4  11  24  41  62  97 136 174 214 251 305 386
#
# _framework density 20.866952999999999
#
# number of rings (size 3 to 8) (size 9 to 14) (size 15 to 20)
#    0.000    0.833    1.667    6.500    2.333    3.333 
#    0.000    0.000    0.000    3.000    0.000    0.000 
#    0.000    0.000    0.000    0.000    0.000    0.000 
#
# Total GULP energy -134139.086553 kJ/mol
# GULP energy per Si atom -5589.128606 kJ/mol
# Density = 2.081946 g / cm^3
# Si number density = 20.866953 Si / 1000 Ang^3
#
#
#
# Elastic Constant Matrix: (Units=GPa)
#
#
# Indices 1 2 3 4 5 6 
#
# 1 115.2257 15.1973 27.2229 0.0000 6.5342 0.0000
# 2 15.1973 69.7062 38.4098 0.0000 4.4499 0.0000
# 3 27.2229 38.4098 112.5347 0.0000 -16.0807 0.0000
# 4 0.0000 0.0000 0.0000 24.3626 0.0000 7.0874
# 5 6.5342 4.4499 -16.0807 0.0000 40.6383 0.0000
# 6 0.0000 0.0000 0.0000 7.0874 0.0000 1.0985
#
#
#
# Elastic Compliance Matrix: (Units=1/GPa)
#
#
# Indices 1 2 3 4 5 6 
#
# 1 0.009468 -0.000561 -0.002446 0.000000 -0.002429 0.000000
# 2 -0.000561 0.018545 -0.006859 0.000000 -0.004654 0.000000
# 3 -0.002446 -0.006859 0.012701 0.000000 0.006170 0.000000
# 4 0.000000 0.000000 0.000000 -0.046802 0.000000 0.301975
# 5 -0.002429 -0.004654 0.006170 0.000000 0.027949 0.000000
# 6 0.000000 0.000000 0.000000 0.301975 0.000000 -1.038019
#
#
# Mechanical properties :
#
#
# Convention : Reuss Voigt Hill
#
# Bulk Modulus (GPa) = 47.66183 51.01407 49.33795
# Shear Modulus (GPa) = -5.05340 27.66232 11.30446
#
# Velocity S-wave (km/s) = -1.55788 3.64490 2.33006
# Velocity P-wave (km/s) = 4.43333 6.49724 5.56186
#
# Compressibility (1/GPa) = 0.02098115
#
# Stress axis : x y z
#
# Youngs Moduli (GPa) = 105.61614 53.92313 78.73682
#
# Poissons Ratio (x) = 0.03028 0.19258
# Poissons Ratio (y) = 0.05930 0.54005
# Poissons Ratio (z) = 0.25832 0.36986
#
# Static dielectric constant tensor:
#      x y z
#    x 1.777240 0.000000 0.041030 
#    y 0.000000 1.721220 0.000000 
#    z 0.041030 0.000000 1.712380 
# 
# From -- ./inp_files/13250.got.cif
#   From: 2010.05.17/outbox.cif.g08.bks.cpg/sg12_7_cif.got.tgz:13250.got - 2010.06.03 13:09:07.
