data_PCOD9209214
_publ_section_title
;
Structure prediction by ZEFSAII (Michael W. Deem and Ramdas Pophale) SiO2 
 PCOD9209214
Probable space group: C 2/M
;
_chemical_formula_sum "Si O2"
_cell_formula_units_Z 48
_cell_length_a 25.689202
_cell_length_b 8.792047
_cell_length_c 12.566948
_cell_angle_alpha 90.000000
_cell_angle_beta 70.784672
_cell_angle_gamma 90.000000
_cell_volume 2680.248537
_symmetry_space_group_name_H-M "C 2/M"
_symmetry_group_IT_number 12
_symmetry_cell_setting 'monoclinic'
loop_
_space_group_symop_operation_xyz
x,y,z
-x,y,-z
-x,-y,-z
x,-y,z
1/2+x,1/2+y,z
1/2-x,1/2+y,-z
1/2-x,1/2-y,-z
1/2+x,1/2-y,z
loop_
_atom_site_type_symbol
_atom_site_label
_atom_site_fract_x
_atom_site_fract_y
_atom_site_fract_z
Si Si1 0.438253 0.818388 0.370849
Si Si2 0.251652 0.316818 0.380463
Si Si3 0.055302 0.180793 0.253568
Si Si4 0.134252 0.317723 0.370150
Si Si5 0.628259 0.682655 0.783199
Si Si6 0.058811 0.318349 0.016259
O O1 0.499756 0.754591 0.338961
O O2 0.402177 0.787348 0.499863
O O3 0.409109 0.742585 0.288895
O O4 0.440474 0.000000 0.353115
O O5 0.250366 0.500000 0.390297
O O6 0.250000 0.250000 0.500000
O O7 0.196799 0.270720 0.353850
O O8 0.308698 0.274212 0.285246
O O9 0.106464 0.233979 0.290418
O O10 0.060655 0.241330 0.129921
O O11 0.050119 0.000000 0.257386
O O12 0.132970 0.500000 0.352677
O O13 0.624280 0.500000 0.791453
O O14 0.605412 0.755398 0.906296
O O15 0.063212 0.500000 0.024856
O O16 0.000000 0.284907 0.000000
#
# Coordination Sequence:
#
# PCOD9209214 Si02
#       6
#     8   8   8   8   8   8
#     4  11  21  36  60  88 121 160 197 236 293 358
#     4  10  21  38  61  89 121 158 197 242 290 345
#     4  12  25  39  59  88 122 155 196 250 302 347
#     4  10  22  40  60  85 122 163 200 237 288 356
#     4  11  22  36  60  93 123 150 194 250 295 338
#     4  11  23  40  63  86 115 157 201 240 292 359
#
# _framework density 17.908788000000001
#
# number of rings (size 3 to 8) (size 9 to 14) (size 15 to 20)
#    0.000    1.167    3.333    3.500    0.000    5.333 
#    0.000    0.833    0.000    0.000    0.000    0.000 
#    0.000    0.000    0.000    0.000    0.000    0.000 
#
# Total GULP energy -134198.819544 kJ/mol
# GULP energy per Si atom -5591.617481 kJ/mol
# Density = 1.786803 g / cm^3
# Si number density = 17.908788 Si / 1000 Ang^3
#
#
#
# Elastic Constant Matrix: (Units=GPa)
#
#
# Indices 1 2 3 4 5 6 
#
# 1 136.4022 30.8179 36.0540 0.0000 -9.1505 0.0000
# 2 30.8179 39.3942 27.7878 0.0000 -4.2993 0.0000
# 3 36.0540 27.7878 60.3703 0.0000 -14.1809 0.0000
# 4 0.0000 0.0000 0.0000 28.8061 0.0000 1.3560
# 5 -9.1505 -4.2993 -14.1809 0.0000 32.1985 0.0000
# 6 0.0000 0.0000 0.0000 1.3560 0.0000 25.3926
#
#
#
# Elastic Compliance Matrix: (Units=1/GPa)
#
#
# Indices 1 2 3 4 5 6 
#
# 1 0.009333 -0.005041 -0.003111 0.000000 0.000609 0.000000
# 2 -0.005041 0.040555 -0.016420 0.000000 -0.003249 0.000000
# 3 -0.003111 -0.016420 0.028172 0.000000 0.009331 0.000000
# 4 0.000000 0.000000 0.000000 0.034802 0.000000 -0.001858
# 5 0.000609 -0.003249 0.009331 0.000000 0.034906 0.000000
# 6 0.000000 0.000000 0.000000 -0.001858 0.000000 0.039481
#
#
# Mechanical properties :
#
#
# Convention : Reuss Voigt Hill
#
# Bulk Modulus (GPa) = 34.58063 47.27623 40.92843
# Shear Modulus (GPa) = 20.32257 26.71325 23.51791
#
# Velocity S-wave (km/s) = 3.37231 3.86635 3.62775
# Velocity P-wave (km/s) = 5.87490 6.81081 6.36010
#
# Compressibility (1/GPa) = 0.02891792
#
# Stress axis : x y z
#
# Youngs Moduli (GPa) = 107.14446 24.65761 35.49633
#
# Poissons Ratio (x) = 0.12429 0.11042
# Poissons Ratio (y) = 0.54008 0.58285
# Poissons Ratio (z) = 0.33329 0.40488
#
# Static dielectric constant tensor:
#      x y z
#    x 1.601920 0.000000 -0.012030 
#    y 0.000000 1.597110 0.000000 
#    z -0.012030 0.000000 1.581650 
# 
# From -- ./inp_files/172851.got.cif
#   From: 2010.05.17/outbox.cif.g08.bks.cpg/sg12_87_cif.got.tgz:172851.got - 2010.06.03 13:09:07.
