data_PCOD9209456
_publ_section_title
;
Structure prediction by ZEFSAII (Michael W. Deem and Ramdas Pophale) SiO2 
 PCOD9209456
Probable space group: C 2/M
;
_chemical_formula_sum "Si O2"
_cell_formula_units_Z 64
_cell_length_a 19.152297
_cell_length_b 8.787111
_cell_length_c 33.002786
_cell_angle_alpha 90.000000
_cell_angle_beta 142.834061
_cell_angle_gamma 90.000000
_cell_volume 3355.403427
_symmetry_space_group_name_H-M "C 2/M"
_symmetry_group_IT_number 12
_symmetry_cell_setting 'monoclinic'
loop_
_space_group_symop_operation_xyz
x,y,z
-x,y,-z
-x,-y,-z
x,-y,z
1/2+x,1/2+y,z
1/2-x,1/2+y,-z
1/2-x,1/2-y,-z
1/2+x,1/2-y,z
loop_
_atom_site_type_symbol
_atom_site_label
_atom_site_fract_x
_atom_site_fract_y
_atom_site_fract_z
Si Si1 0.471984 0.681890 0.778174
Si Si2 0.260199 0.817894 0.630842
Si Si3 0.435371 0.677996 0.850217
Si Si4 0.042185 0.179307 0.583933
Si Si5 0.840921 0.318845 0.193757
Si Si6 0.342043 0.176875 0.286393
Si Si7 0.086826 0.680660 0.076341
Si Si8 0.708661 0.819536 0.523551
O O1 0.456514 0.500000 0.770976
O O2 0.357888 0.756653 0.706227
O O3 0.489984 0.729232 0.833173
O O4 0.578747 0.731400 0.800209
O O5 0.134571 0.778993 0.591816
O O6 0.274985 0.747553 0.593199
O O7 0.267363 0.000000 0.631722
O O8 0.461894 0.500000 0.869869
O O9 0.296988 0.687844 0.778740
O O10 0.463349 0.772605 0.903089
O O11 0.104920 0.214678 0.655488
O O12 0.924164 0.272379 0.530075
O O13 0.015570 0.000000 0.567574
O O14 0.849524 0.500000 0.191869
O O15 0.879884 0.287047 0.258095
O O16 0.708416 0.267183 0.128399
O O17 0.371756 0.000000 0.309321
O O18 0.108001 0.500000 0.085136
O O19 0.000000 0.720372 0.000000
O O20 0.750000 0.750000 0.500000
O O21 0.721582 0.000000 0.528045
#
# Coordination Sequence:
#
# PCOD9209456 Si02
#       8
#     8   8   8   8   8   8   8   8
#     4  11  22  38  61  90 124 158 198 247 298 351
#     4  11  24  42  63  89 121 156 198 245 298 363
#     4   9  19  36  59  88 121 156 197 242 290 348
#     4  11  23  39  62  89 118 154 197 243 298 361
#     4  10  22  38  58  87 123 160 199 244 296 350
#     4   9  18  35  57  83 115 153 196 242 290 346
#     4  10  21  38  62  91 122 158 202 247 293 351
#     4  12  27  45  64  85 116 156 200 253 307 361
#
# _framework density 19.073712
#
# number of rings (size 3 to 8) (size 9 to 14) (size 15 to 20)
#    0.000    1.625    1.250    4.125    1.750    7.500 
#    0.000    0.625    0.000    0.000    0.000    0.000 
#    0.000    0.000    0.000    0.000    0.000    0.000 
#
# Total GULP energy -178840.211193 kJ/mol
# GULP energy per Si atom -5588.756600 kJ/mol
# Density = 1.903030 g / cm^3
# Si number density = 19.073712 Si / 1000 Ang^3
#
#
#
# Elastic Constant Matrix: (Units=GPa)
#
#
# Indices 1 2 3 4 5 6 
#
# 1 121.2801 40.2195 26.6950 -0.0001 -23.5624 0.0002
# 2 40.2195 64.6473 29.6299 -0.0001 -12.9032 0.0003
# 3 26.6950 29.6299 65.5099 0.0000 -23.8769 0.0001
# 4 -0.0001 -0.0001 0.0000 29.0955 0.0000 0.5949
# 5 -23.5624 -12.9032 -23.8769 0.0000 26.5777 0.0000
# 6 0.0002 0.0003 0.0001 0.5949 0.0000 29.8855
#
#
#
# Elastic Compliance Matrix: (Units=1/GPa)
#
#
# Indices 1 2 3 4 5 6 
#
# 1 0.011640 -0.006053 0.001018 0.000000 0.008295 0.000000
# 2 -0.006053 0.022756 -0.008557 0.000000 -0.002006 0.000000
# 3 0.001018 -0.008557 0.026072 0.000000 0.020171 0.000000
# 4 0.000000 0.000000 0.000000 0.034384 0.000000 -0.000684
# 5 0.008295 -0.002006 0.020171 0.000000 0.062127 0.000000
# 6 0.000000 0.000000 0.000000 -0.000684 0.000000 0.033475
#
#
# Mechanical properties :
#
#
# Convention : Reuss Voigt Hill
#
# Bulk Modulus (GPa) = 30.04395 49.39180 39.71788
# Shear Modulus (GPa) = 21.85966 27.43794 24.64880
#
# Velocity S-wave (km/s) = 3.38903 3.79690 3.59875
# Velocity P-wave (km/s) = 5.57671 6.72111 6.17548
#
# Compressibility (1/GPa) = 0.03328457
#
# Stress axis : x y z
#
# Youngs Moduli (GPa) = 85.90930 43.94513 38.35498
#
# Poissons Ratio (x) = 0.26598 -0.03903
# Poissons Ratio (y) = 0.51997 0.32820
# Poissons Ratio (z) = -0.08743 0.37604
#
# Static dielectric constant tensor:
#      x y z
#    x 1.670450 0.000000 -0.008280 
#    y 0.000000 1.635880 0.000000 
#    z -0.008280 0.000000 1.647410 
# 
# From -- ./inp_files/378532.got.cif
#   From: 2010.05.17/outbox.cif.g08.bks.cpg/sg12_190_cif.got.tgz:378532.got - 2010.06.03 13:09:07.
