data_PCOD9209727
_publ_section_title
;
Structure prediction by ZEFSAII (Michael W. Deem and Ramdas Pophale) SiO2 
 PCOD9209727
Probable space group: C 2/M
;
_chemical_formula_sum "Si O2"
_cell_formula_units_Z 48
_cell_length_a 18.780008
_cell_length_b 15.844120
_cell_length_c 16.041732
_cell_angle_alpha 90.000000
_cell_angle_beta 27.662102
_cell_angle_gamma 90.000000
_cell_volume 2216.016364
_symmetry_space_group_name_H-M "C 2/M"
_symmetry_group_IT_number 12
_symmetry_cell_setting 'monoclinic'
loop_
_space_group_symop_operation_xyz
x,y,z
-x,y,-z
-x,-y,-z
x,-y,z
1/2+x,1/2+y,z
1/2-x,1/2+y,-z
1/2-x,1/2-y,-z
1/2+x,1/2-y,z
loop_
_atom_site_type_symbol
_atom_site_label
_atom_site_fract_x
_atom_site_fract_y
_atom_site_fract_z
Si Si1 0.226710 0.000000 0.244310
Si Si2 0.523503 0.668575 0.761633
Si Si3 0.931682 0.500000 0.185629
Si Si4 0.401533 0.176230 0.528018
Si Si5 0.133476 0.360324 0.617424
Si Si6 0.870397 0.779577 0.079909
Si Si7 0.392550 0.664872 0.721205
O O1 0.275630 0.000000 0.291084
O O2 0.135644 0.080785 0.302899
O O3 0.401466 0.000000 0.029154
O O4 0.684434 0.622887 0.578692
O O5 0.582348 0.766056 0.696170
O O6 0.411874 0.649464 0.799816
O O7 0.444604 0.659772 0.933345
O O8 0.929943 0.419895 0.247014
O O9 0.500000 0.138333 0.500000
O O10 0.423559 0.130799 0.418037
O O11 0.232074 0.178810 0.741126
O O12 0.462539 0.273467 0.451197
O O13 0.755522 0.721053 0.147245
O O14 0.000000 0.732409 0.000000
#
# Coordination Sequence:
#
# PCOD9209727 Si02
#       7
#     4   8   4   8   8   8   8
#     4  11  26  43  59  93 130 173 209 249 314 384
#     4  10  21  38  64  90 123 166 211 265 306 363
#     4  11  26  41  64  90 134 172 203 253 322 389
#     4   9  20  39  63  94 120 160 214 262 310 359
#     4  10  21  40  61  91 126 166 210 254 319 373
#     4  11  20  34  63  93 120 154 208 271 307 356
#     4  10  23  39  60  90 131 164 210 256 312 377
#
# _framework density 21.660489999999999
#
# number of rings (size 3 to 8) (size 9 to 14) (size 15 to 20)
#    0.000    1.833    1.667    1.500    4.667    7.333 
#    0.000    5.000    0.000    3.000    0.000    0.000 
#    0.000    0.000    0.000    0.000    0.000    0.000 
#
# Total GULP energy -133881.015625 kJ/mol
# GULP energy per Si atom -5578.375651 kJ/mol
# Density = 2.161119 g / cm^3
# Si number density = 21.660490 Si / 1000 Ang^3
#
#
#
# Elastic Constant Matrix: (Units=GPa)
#
#
# Indices 1 2 3 4 5 6 
#
# 1 151.7297 26.9245 26.8065 -0.0011 8.6619 0.0011
# 2 26.9245 27.2056 2.2281 -0.0013 2.3756 0.0004
# 3 26.8065 2.2281 96.5715 -0.0002 9.8894 0.0007
# 4 -0.0011 -0.0013 -0.0002 -20.6078 -0.0003 24.9314
# 5 8.6619 2.3756 9.8894 -0.0003 30.4032 -0.0004
# 6 0.0011 0.0004 0.0007 24.9314 -0.0004 22.9551
#
#
#
# Elastic Compliance Matrix: (Units=1/GPa)
#
#
# Indices 1 2 3 4 5 6 
#
# 1 0.008453 -0.008101 -0.002046 0.000000 -0.001110 0.000000
# 2 -0.008101 0.044805 0.001383 -0.000001 -0.001643 0.000001
# 3 -0.002046 0.001383 0.011216 0.000000 -0.003174 0.000000
# 4 0.000000 -0.000001 0.000000 -0.020971 0.000000 0.022776
# 5 -0.001110 -0.001643 -0.003174 0.000000 0.034368 0.000000
# 6 0.000000 0.000001 0.000000 0.022776 0.000000 0.018826
#
#
# Mechanical properties :
#
#
# Convention : Reuss Voigt Hill
#
# Bulk Modulus (GPa) = 21.30099 43.04725 32.17412
# Shear Modulus (GPa) = 38.49884 21.18662 29.84273
#
# Velocity S-wave (km/s) = 4.22047 3.13089 3.71583
# Velocity P-wave (km/s) = 5.79700 5.74341 5.77026
#
# Compressibility (1/GPa) = 0.04694618
#
# Stress axis : x y z
#
# Youngs Moduli (GPa) = 118.30065 22.31898 89.15853
#
# Poissons Ratio (x) = 0.18081 0.18240
# Poissons Ratio (y) = 0.95838 -0.12333
# Poissons Ratio (z) = 0.24202 -0.03087
#
# Static dielectric constant tensor:
#      x y z
#    x 1.834190 0.000000 -0.019820 
#    y 0.000000 1.817990 0.000000 
#    z -0.019820 0.000000 1.848990 
# 
# From -- ./inp_files/226774.got.cif
#   From: 2010.05.17/outbox.cif.g08.bks.cpg/sg12_114_cif.got.tgz:226774.got - 2010.06.03 13:09:07.
