data_PCOD9209863
_publ_section_title
;
Structure prediction by ZEFSAII (Michael W. Deem and Ramdas Pophale) SiO2 
 PCOD9209863
Probable space group: C 2/M
;
_chemical_formula_sum "Si O2"
_cell_formula_units_Z 32
_cell_length_a 8.515048
_cell_length_b 17.678417
_cell_length_c 11.292701
_cell_angle_alpha 90.000000
_cell_angle_beta 54.646519
_cell_angle_gamma 90.000000
_cell_volume 1386.450525
_symmetry_space_group_name_H-M "C 2/M"
_symmetry_group_IT_number 12
_symmetry_cell_setting 'monoclinic'
loop_
_space_group_symop_operation_xyz
x,y,z
-x,y,-z
-x,-y,-z
x,-y,z
1/2+x,1/2+y,z
1/2-x,1/2+y,-z
1/2-x,1/2-y,-z
1/2+x,1/2-y,z
loop_
_atom_site_type_symbol
_atom_site_label
_atom_site_fract_x
_atom_site_fract_y
_atom_site_fract_z
Si Si1 0.934738 0.802306 0.900167
Si Si2 0.105396 0.410479 0.619471
Si Si3 0.801001 0.588592 0.148409
Si Si4 0.689887 0.811513 0.372622
O O1 0.868305 0.866488 0.839563
O O2 0.127453 0.768047 0.755938
O O3 0.750000 0.750000 0.000000
O O4 0.000000 0.830354 0.000000
O O5 0.090414 0.500000 0.599400
O O6 0.180016 0.403179 0.719429
O O7 0.231167 0.365967 0.466766
O O8 0.900168 0.367997 0.687589
O O9 0.780428 0.500000 0.130996
O O10 0.000000 0.614854 0.000000
O O11 0.500000 0.765947 0.500000
#
# Coordination Sequence:
#
# PCOD9209863 Si02
#       4
#     8   8   8   8
#     4  12  26  44  67  92 131 183 229 280 338 394
#     4   8  16  35  67 101 139 173 212 274 340 410
#     4  10  21  38  66 102 138 174 217 273 341 406
#     4   8  19  38  65  95 134 173 218 272 328 401
#
# _framework density 23.080522999999999
#
# number of rings (size 3 to 8) (size 9 to 14) (size 15 to 20)
#    1.500    0.750    0.000    3.750    0.000    3.500 
#    0.000    3.750    0.000    0.000    0.000    0.000 
#    0.000    0.000    0.000    0.000    0.000    0.000 
#
# Total GULP energy -89317.743270 kJ/mol
# GULP energy per Si atom -5582.358954 kJ/mol
# Density = 2.302799 g / cm^3
# Si number density = 23.080523 Si / 1000 Ang^3
#
#
#
# Elastic Constant Matrix: (Units=GPa)
#
#
# Indices 1 2 3 4 5 6 
#
# 1 119.2184 38.1884 76.8349 0.0000 15.5665 0.0000
# 2 38.1884 70.3157 28.1375 0.0000 -9.3465 0.0000
# 3 76.8349 28.1375 132.8435 0.0000 -22.3803 0.0000
# 4 0.0000 0.0000 0.0000 20.0008 0.0000 -2.9620
# 5 15.5665 -9.3465 -22.3803 0.0000 60.8634 0.0000
# 6 0.0000 0.0000 0.0000 -2.9620 0.0000 19.6815
#
#
#
# Elastic Compliance Matrix: (Units=1/GPa)
#
#
# Indices 1 2 3 4 5 6 
#
# 1 0.019464 -0.007366 -0.011435 0.000000 -0.010314 0.000000
# 2 -0.007366 0.018416 0.001230 0.000000 0.005164 0.000000
# 3 -0.011435 0.001230 0.015357 0.000000 0.008761 0.000000
# 4 0.000000 0.000000 0.000000 0.051138 0.000000 0.007696
# 5 -0.010314 0.005164 0.008761 0.000000 0.023083 0.000000
# 6 0.000000 0.000000 0.000000 0.007696 0.000000 0.051967
#
#
# Mechanical properties :
#
#
# Convention : Reuss Voigt Hill
#
# Bulk Modulus (GPa) = 55.26561 67.63325 61.44943
# Shear Modulus (GPa) = 22.66546 32.05692 27.36119
#
# Velocity S-wave (km/s) = 3.13711 3.73086 3.44680
# Velocity P-wave (km/s) = 6.09251 6.92285 6.52091
#
# Compressibility (1/GPa) = 0.01809444
#
# Stress axis : x y z
#
# Youngs Moduli (GPa) = 51.37662 54.29934 65.11645
#
# Poissons Ratio (x) = 0.39997 0.74462
# Poissons Ratio (y) = 0.37844 -0.08007
# Poissons Ratio (z) = 0.58750 -0.06677
#
# Static dielectric constant tensor:
#      x y z
#    x 1.888200 0.000000 -0.030720 
#    y 0.000000 1.843910 0.000000 
#    z -0.030720 0.000000 1.894120 
# 
# From -- ./inp_files/118407.got.cif
#   From: 2010.05.17/outbox.cif.g08.bks.cpg/sg12_60_cif.got.tgz:118407.got - 2010.06.03 13:09:07.
