data_PCOD9209437
_publ_section_title
;
Structure prediction by ZEFSAII (Michael W. Deem and Ramdas Pophale) SiO2 
 PCOD9209437
Probable space group: C 2/M
;
_chemical_formula_sum "Si O2"
_cell_formula_units_Z 44
_cell_length_a 5.097900
_cell_length_b 17.312367
_cell_length_c 26.999520
_cell_angle_alpha 90.000000
_cell_angle_beta 121.628457
_cell_angle_gamma 90.000000
_cell_volume 2028.950319
_symmetry_space_group_name_H-M "C 2/M"
_symmetry_group_IT_number 12
_symmetry_cell_setting 'monoclinic'
loop_
_space_group_symop_operation_xyz
x,y,z
-x,y,-z
-x,-y,-z
x,-y,z
1/2+x,1/2+y,z
1/2-x,1/2+y,-z
1/2-x,1/2-y,-z
1/2+x,1/2-y,z
loop_
_atom_site_type_symbol
_atom_site_label
_atom_site_fract_x
_atom_site_fract_y
_atom_site_fract_z
Si Si1 0.764059 0.694135 0.788009
Si Si2 0.943146 0.411183 0.726337
Si Si3 0.406171 0.589484 0.150558
Si Si4 0.000000 0.194316 0.500000
Si Si5 0.630347 0.409995 0.962043
Si Si6 0.612681 0.805103 0.372981
O O1 0.506313 0.750005 0.785222
O O2 0.701978 0.632154 0.738479
O O3 0.835320 0.639815 0.842208
O O4 0.858839 0.500000 0.710626
O O5 0.965599 0.364603 0.677818
O O6 0.270314 0.409183 0.787935
O O7 0.304080 0.500000 0.137323
O O8 0.451899 0.622247 0.100100
O O9 0.750000 0.250000 0.500000
O O10 0.817450 0.155154 0.436773
O O11 0.523424 0.500000 0.950602
O O12 0.500000 0.375001 0.000000
O O13 0.000000 0.409415 0.000000
O O14 0.322577 0.762209 0.368889
#
# Coordination Sequence:
#
# PCOD9209437 Si02
#       6
#     8   8   8   4   8   8
#     4  12  24  41  61  86 119 161 207 245 298 367
#     4  11  24  40  60  94 130 162 200 254 316 367
#     4  10  23  41  64  93 126 157 200 259 313 362
#     4   8  16  34  59  86 117 158 208 254 288 344
#     4   9  19  35  59  88 115 150 199 250 300 358
#     4  10  21  38  62  90 122 163 210 251 297 355
#
# _framework density 21.686088999999999
#
# number of rings (size 3 to 8) (size 9 to 14) (size 15 to 20)
#    0.000    1.818    1.818    1.636    5.091    0.000 
#    0.000    0.455    0.000    3.273    0.000    7.636 
#    0.000    0.000    0.000    0.000    0.000    0.000 
#
# Total GULP energy -122815.265866 kJ/mol
# GULP energy per Si atom -5582.512085 kJ/mol
# Density = 2.163673 g / cm^3
# Si number density = 21.686089 Si / 1000 Ang^3
#
#
#
# Elastic Constant Matrix: (Units=GPa)
#
#
# Indices 1 2 3 4 5 6 
#
# 1 126.5917 24.0374 28.1754 0.0000 -20.7997 0.0000
# 2 24.0374 81.3447 23.0487 0.0000 -10.4175 0.0000
# 3 28.1754 23.0487 157.4098 0.0000 -22.4396 0.0000
# 4 0.0000 0.0000 0.0000 22.6338 0.0000 -13.9836
# 5 -20.7997 -10.4175 -22.4396 0.0000 35.0954 0.0000
# 6 0.0000 0.0000 0.0000 -13.9836 0.0000 -8.4521
#
#
#
# Elastic Compliance Matrix: (Units=1/GPa)
#
#
# Indices 1 2 3 4 5 6 
#
# 1 0.009149 -0.001936 -0.000730 0.000000 0.004381 0.000000
# 2 -0.001936 0.013503 -0.001345 0.000000 0.002001 0.000000
# 3 -0.000730 -0.001345 0.007220 0.000000 0.003785 0.000000
# 4 0.000000 0.000000 0.000000 0.021849 0.000000 -0.036148
# 5 0.004381 0.002001 0.003785 0.000000 0.034104 0.000000
# 6 0.000000 0.000000 0.000000 -0.036148 0.000000 -0.058509
#
#
# Mechanical properties :
#
#
# Convention : Reuss Voigt Hill
#
# Bulk Modulus (GPa) = 45.76602 57.31881 51.54242
# Shear Modulus (GPa) = 117.31237 29.19439 73.25338
#
# Velocity S-wave (km/s) = 7.36296 3.67308 5.81827
# Velocity P-wave (km/s) = 9.66612 6.66912 8.30394
#
# Compressibility (1/GPa) = 0.02185027
#
# Stress axis : x y z
#
# Youngs Moduli (GPa) = 109.29868 74.05862 138.50482
#
# Poissons Ratio (x) = 0.14336 0.10106
# Poissons Ratio (y) = 0.21158 0.18635
# Poissons Ratio (z) = 0.07975 0.09964
#
# Static dielectric constant tensor:
#      x y z
#    x 1.866060 0.000000 0.047750 
#    y 0.000000 1.795750 0.000000 
#    z 0.047750 0.000000 1.873930 
# 
# From -- ./inp_files/331072.got.cif
#   From: 2010.05.17/outbox.cif.g08.bks.cpg/sg12_166_cif.got.tgz:331072.got - 2010.06.03 13:09:07.
