data_PCOD9209258
_publ_section_title
;
Structure prediction by ZEFSAII (Michael W. Deem and Ramdas Pophale) SiO2 
 PCOD9209258
Probable space group: C 2/M
;
_chemical_formula_sum "Si O2"
_cell_formula_units_Z 40
_cell_length_a 26.073394
_cell_length_b 14.277336
_cell_length_c 6.162169
_cell_angle_alpha 90.000000
_cell_angle_beta 115.987489
_cell_angle_gamma 90.000000
_cell_volume 2061.981570
_symmetry_space_group_name_H-M "C 2/M"
_symmetry_group_IT_number 12
_symmetry_cell_setting 'monoclinic'
loop_
_space_group_symop_operation_xyz
x,y,z
-x,y,-z
-x,-y,-z
x,-y,z
1/2+x,1/2+y,z
1/2-x,1/2+y,-z
1/2-x,1/2-y,-z
1/2+x,1/2-y,z
loop_
_atom_site_type_symbol
_atom_site_label
_atom_site_fract_x
_atom_site_fract_y
_atom_site_fract_z
Si Si1 0.628259 0.395805 0.597064
Si Si2 0.683824 0.766310 0.420710
Si Si3 0.597083 0.110220 0.485846
Si Si4 0.975399 0.000000 0.709789
Si Si5 0.500000 0.802145 0.000000
Si Si6 0.403566 0.745980 0.120529
O O1 0.653697 0.500000 0.660905
O O2 0.663733 0.322789 0.524727
O O3 0.567217 0.411159 0.371758
O O4 0.613353 0.350933 0.799138
O O5 0.750000 0.750000 0.500000
O O6 0.658293 0.855785 0.502626
O O7 0.648732 0.769985 0.132936
O O8 0.546397 0.137379 0.222875
O O9 0.588515 0.174315 0.682298
O O10 0.595921 0.000000 0.527693
O O11 0.000000 0.000000 0.500000
O O12 0.000000 0.000000 0.000000
O O13 0.538484 0.742663 0.907479
#
# Coordination Sequence:
#
# PCOD9209258 Si02
#       6
#     8   8   8   4   4   8
#     4   9  23  41  58  91 125 165 211 260 321 383
#     4  10  23  43  64  86 121 163 211 266 322 382
#     4  10  22  40  61  91 121 158 201 253 315 381
#     4  10  24  40  64  98 136 178 218 269 328 401
#     4  10  21  38  61  90 128 162 195 250 317 386
#     4  10  22  40  61  88 125 160 207 256 319 382
#
# _framework density 19.398816
#
# number of rings (size 3 to 8) (size 9 to 14) (size 15 to 20)
#    0.600    1.600    0.000    0.900    2.800   14.400 
#    7.200    2.500    0.000    0.000    0.000    0.000 
#    0.000    0.000    0.000    0.000    0.000    0.000 
#
# Total GULP energy -111416.996618 kJ/mol
# GULP energy per Si atom -5570.849831 kJ/mol
# Density = 1.935466 g / cm^3
# Si number density = 19.398816 Si / 1000 Ang^3
#
#
#
# Elastic Constant Matrix: (Units=GPa)
#
#
# Indices 1 2 3 4 5 6 
#
# 1 148.4880 23.4873 44.1467 0.0000 2.5388 0.0000
# 2 23.4873 91.5726 16.8570 0.0000 -9.8328 0.0000
# 3 44.1467 16.8570 67.4575 0.0000 -13.1612 0.0000
# 4 0.0000 0.0000 0.0000 13.5448 0.0000 6.5255
# 5 2.5388 -9.8328 -13.1612 0.0000 24.9874 0.0000
# 6 0.0000 0.0000 0.0000 6.5255 0.0000 9.7973
#
#
#
# Elastic Compliance Matrix: (Units=1/GPa)
#
#
# Indices 1 2 3 4 5 6 
#
# 1 0.008996 -0.001654 -0.006441 0.000000 -0.004958 0.000000
# 2 -0.001654 0.012007 -0.001074 0.000000 0.004327 0.000000
# 3 -0.006441 -0.001074 0.021570 0.000000 0.011593 0.000000
# 4 0.000000 0.000000 0.000000 0.108714 0.000000 -0.072409
# 5 -0.004958 0.004327 0.011593 0.000000 0.048333 0.000000
# 6 0.000000 0.000000 0.000000 -0.072409 0.000000 0.150298
#
#
# Mechanical properties :
#
#
# Convention : Reuss Voigt Hill
#
# Bulk Modulus (GPa) = 41.26314 52.94443 47.10379
# Shear Modulus (GPa) = 13.28611 24.53437 18.91024
#
# Velocity S-wave (km/s) = 2.61988 3.56017 3.12559
# Velocity P-wave (km/s) = 5.51986 6.65219 6.11230
#
# Compressibility (1/GPa) = 0.02423471
#
# Stress axis : x y z
#
# Youngs Moduli (GPa) = 111.16111 83.28594 46.36141
#
# Poissons Ratio (x) = 0.13775 0.29862
# Poissons Ratio (y) = 0.18386 0.04978
# Poissons Ratio (z) = 0.71601 0.08942
#
# Static dielectric constant tensor:
#      x y z
#    x 1.682400 0.000000 -0.017820 
#    y 0.000000 1.680780 0.000000 
#    z -0.017820 0.000000 1.698070 
# 
# From -- ./inp_files/24396.got.cif
#   From: 2010.05.17/outbox.cif.g08.bks.cpg/sg12_13_cif.got.tgz:24396.got - 2010.06.03 13:09:07.
