data_PCOD9209631
_publ_section_title
;
Structure prediction by ZEFSAII (Michael W. Deem and Ramdas Pophale) SiO2 
 PCOD9209631
Probable space group: C 2/M
;
_chemical_formula_sum "Si O2"
_cell_formula_units_Z 38
_cell_length_a 7.912969
_cell_length_b 31.292456
_cell_length_c 7.931033
_cell_angle_alpha 90.000000
_cell_angle_beta 84.146729
_cell_angle_gamma 90.000000
_cell_volume 1953.613629
_symmetry_space_group_name_H-M "C 2/M"
_symmetry_group_IT_number 12
_symmetry_cell_setting 'monoclinic'
loop_
_space_group_symop_operation_xyz
x,y,z
-x,y,-z
-x,-y,-z
x,-y,z
1/2+x,1/2+y,z
1/2-x,1/2+y,-z
1/2-x,1/2-y,-z
1/2+x,1/2-y,z
loop_
_atom_site_type_symbol
_atom_site_label
_atom_site_fract_x
_atom_site_fract_y
_atom_site_fract_z
Si Si1 0.836771 0.849529 0.397834
Si Si2 0.166693 0.087980 0.897354
Si Si3 0.027024 0.224321 0.194518
Si Si4 0.500000 0.500000 0.000000
Si Si5 0.000000 0.374436 0.000000
Si Si6 0.616563 0.189347 0.706053
O O1 0.804893 0.890709 0.286641
O O2 0.685043 0.833581 0.531748
O O3 0.000000 0.857844 0.500000
O O4 0.892289 0.810552 0.271994
O O5 0.331493 0.097689 0.991849
O O6 0.882691 0.038371 0.097047
O O7 0.000000 0.109866 0.000000
O O8 0.212503 0.205837 0.215804
O O9 0.995535 0.268168 0.297993
O O10 0.000000 0.232663 0.000000
O O11 0.023692 0.344170 0.836050
#
# Coordination Sequence:
#
# PCOD9209631 Si02
#       6
#     8   8   8   2   4   8
#     4  10  21  38  63  92 134 173 217 268 323 372
#     4  10  22  46  71  98 125 161 209 266 334 403
#     4  11  21  37  56  83 131 179 231 264 297 361
#     4   8  24  46  80  98 116 162 204 268 350 396
#     4  12  24  41  69  96 130 172 223 259 324 388
#     4  11  24  36  55  94 127 184 219 263 308 354
#
# _framework density 19.451132999999999
#
# number of rings (size 3 to 8) (size 9 to 14) (size 15 to 20)
#    0.632    0.842    1.053    5.684    2.947    1.263 
#    0.000    0.526    0.000    1.263    0.000    0.000 
#    0.000    0.000    0.000    0.000    0.000    0.000 
#
# Total GULP energy -105973.445246 kJ/mol
# GULP energy per Si atom -5577.549750 kJ/mol
# Density = 1.940686 g / cm^3
# Si number density = 19.451133 Si / 1000 Ang^3
#
#
#
# Elastic Constant Matrix: (Units=GPa)
#
#
# Indices 1 2 3 4 5 6 
#
# 1 103.3717 30.5110 21.9282 0.0000 -5.4313 0.0000
# 2 30.5110 148.5113 54.6326 0.0000 -6.2634 0.0000
# 3 21.9282 54.6326 96.4781 0.0000 -12.1874 0.0000
# 4 0.0000 0.0000 0.0000 17.3345 0.0000 -17.6413
# 5 -5.4313 -6.2634 -12.1874 0.0000 26.0295 0.0000
# 6 0.0000 0.0000 0.0000 -17.6413 0.0000 26.2563
#
#
#
# Elastic Compliance Matrix: (Units=1/GPa)
#
#
# Indices 1 2 3 4 5 6 
#
# 1 0.010494 -0.001621 -0.001318 0.000000 0.001183 0.000000
# 2 -0.001621 0.008757 -0.004641 0.000000 -0.000404 0.000000
# 3 -0.001318 -0.004641 0.013942 0.000000 0.005136 0.000000
# 4 0.000000 0.000000 0.000000 0.182429 0.000000 0.122571
# 5 0.001183 -0.000404 0.005136 0.000000 0.040972 0.000000
# 6 0.000000 0.000000 0.000000 0.122571 0.000000 0.120440
#
#
# Mechanical properties :
#
#
# Convention : Reuss Voigt Hill
#
# Bulk Modulus (GPa) = 55.45745 62.50054 58.97900
# Shear Modulus (GPa) = 12.55635 30.01001 21.28318
#
# Velocity S-wave (km/s) = 2.54349 3.93216 3.31144
# Velocity P-wave (km/s) = 6.09909 7.26758 6.70882
#
# Compressibility (1/GPa) = 0.01803184
#
# Stress axis : x y z
#
# Youngs Moduli (GPa) = 95.29229 114.19497 71.72789
#
# Poissons Ratio (x) = 0.18515 0.09451
# Poissons Ratio (y) = 0.15450 0.33291
# Poissons Ratio (z) = 0.12556 0.53002
#
# Static dielectric constant tensor:
#      x y z
#    x 1.754450 0.000000 0.013270 
#    y 0.000000 1.626000 0.000000 
#    z 0.013270 0.000000 1.699240 
# 
# From -- ./inp_files/41062.got.cif
#   From: 2010.05.17/outbox.cif.g08.bks.cpg/sg12_21_cif.got.tgz:41062.got - 2010.06.03 13:09:07.
