data_PCOD9209352
_publ_section_title
;
Structure prediction by ZEFSAII (Michael W. Deem and Ramdas Pophale) SiO2 
 PCOD9209352
Probable space group: C 2/M
;
_chemical_formula_sum "Si O2"
_cell_formula_units_Z 64
_cell_length_a 33.333681
_cell_length_b 8.486743
_cell_length_c 25.390150
_cell_angle_alpha 90.000000
_cell_angle_beta 26.633895
_cell_angle_gamma 90.000000
_cell_volume 3219.931847
_symmetry_space_group_name_H-M "C 2/M"
_symmetry_group_IT_number 12
_symmetry_cell_setting 'monoclinic'
loop_
_space_group_symop_operation_xyz
x,y,z
-x,y,-z
-x,-y,-z
x,-y,z
1/2+x,1/2+y,z
1/2-x,1/2+y,-z
1/2-x,1/2-y,-z
1/2+x,1/2-y,z
loop_
_atom_site_type_symbol
_atom_site_label
_atom_site_fract_x
_atom_site_fract_y
_atom_site_fract_z
Si Si1 0.430054 0.185461 0.035090
Si Si2 0.709649 0.190000 0.178530
Si Si3 0.772758 0.312795 0.415454
Si Si4 0.969074 0.185642 0.181776
Si Si5 0.134855 0.190787 0.487602
Si Si6 0.734128 0.810827 0.270079
Si Si7 0.614960 0.692274 0.091185
Si Si8 0.070799 0.809760 0.258542
O O1 0.332118 0.241317 0.166552
O O2 0.428477 0.000000 0.023781
O O3 0.500000 0.209210 0.000000
O O4 0.464364 0.282005 0.944654
O O5 0.709085 0.240618 0.240064
O O6 0.625458 0.246737 0.243875
O O7 0.711445 0.000000 0.176187
O O8 0.799726 0.245706 0.042786
O O9 0.764043 0.500000 0.426806
O O10 0.750000 0.250000 0.500000
O O11 0.874944 0.268934 0.282908
O O12 0.703647 0.253256 0.452148
O O13 0.022897 0.240018 0.170460
O O14 0.951644 0.000000 0.207343
O O15 0.166994 0.252514 0.393504
O O16 0.033019 0.238372 0.618734
O O17 0.137794 0.000000 0.483404
O O18 0.738704 0.000000 0.265542
O O19 0.615757 0.500000 0.089496
O O20 0.615293 0.743751 0.151303
O O21 0.073574 0.000000 0.256183
#
# Coordination Sequence:
#
# PCOD9209352 Si02
#       8
#     8   8   8   8   8   8   8   8
#     4  11  23  38  57  85 120 155 194 244 297 350
#     4  10  21  39  60  87 121 153 193 250 307 353
#     4  11  23  40  61  88 122 162 205 250 302 356
#     4  11  21  37  61  88 120 158 197 243 297 357
#     4  10  23  42  60  84 122 161 201 250 303 357
#     4  11  23  40  62  87 118 159 202 245 299 361
#     4   9  18  37  61  86 121 156 191 241 303 361
#     4  10  21  38  62  87 112 155 204 244 299 363
#
# _framework density 19.876197000000001
#
# number of rings (size 3 to 8) (size 9 to 14) (size 15 to 20)
#    0.000    1.625    1.250    3.375    0.000    9.000 
#    0.000    5.000    0.000    0.000    0.000    0.000 
#    0.000    0.000    0.000    0.000    0.000    0.000 
#
# Total GULP energy -178859.897491 kJ/mol
# GULP energy per Si atom -5589.371797 kJ/mol
# Density = 1.983096 g / cm^3
# Si number density = 19.876197 Si / 1000 Ang^3
#
#
#
# Elastic Constant Matrix: (Units=GPa)
#
#
# Indices 1 2 3 4 5 6 
#
# 1 130.4091 24.3279 45.6361 -0.0067 -0.5049 -0.0038
# 2 24.3279 15.2721 6.4155 -0.0112 -1.3448 0.0044
# 3 45.6361 6.4155 86.1159 -0.0039 5.4066 0.0021
# 4 -0.0067 -0.0112 -0.0039 30.9367 0.0053 0.7935
# 5 -0.5049 -1.3448 5.4066 0.0053 36.5533 -0.0012
# 6 -0.0038 0.0044 0.0021 0.7935 -0.0012 27.3787
#
#
#
# Elastic Compliance Matrix: (Units=1/GPa)
#
#
# Indices 1 2 3 4 5 6 
#
# 1 0.013055 -0.018430 -0.005566 -0.000005 0.000326 0.000005
# 2 -0.018430 0.093999 0.002587 0.000030 0.002821 -0.000019
# 3 -0.005566 0.002587 0.014503 0.000002 -0.002127 -0.000002
# 4 -0.000005 0.000030 0.000002 0.032348 -0.000004 -0.000937
# 5 0.000326 0.002821 -0.002127 -0.000004 0.027780 0.000001
# 6 0.000005 -0.000019 -0.000002 -0.000937 0.000001 0.036552
#
#
# Mechanical properties :
#
#
# Convention : Reuss Voigt Hill
#
# Bulk Modulus (GPa) = 12.70019 42.72845 27.71432
# Shear Modulus (GPa) = 17.40332 29.33490 23.36911
#
# Velocity S-wave (km/s) = 2.96224 3.84589 3.43262
# Velocity P-wave (km/s) = 4.25480 6.42379 5.44832
#
# Compressibility (1/GPa) = 0.07873898
#
# Stress axis : x y z
#
# Youngs Moduli (GPa) = 76.59717 10.63842 68.95277
#
# Poissons Ratio (x) = 0.19606 0.38379
# Poissons Ratio (y) = 1.41167 -0.17837
# Poissons Ratio (z) = 0.42634 -0.02752
#
# Static dielectric constant tensor:
#      x y z
#    x 1.692730 0.000000 0.002970 
#    y 0.000000 1.686920 0.000010 
#    z 0.002970 0.000010 1.687030 
# 
# From -- ./inp_files/353315.got.cif
#   From: 2010.05.17/outbox.cif.g08.bks.cpg/sg12_177_cif.got.tgz:353315.got - 2010.06.03 13:09:07.
