data_PCOD9209887
_publ_section_title
;
Structure prediction by ZEFSAII (Michael W. Deem and Ramdas Pophale) SiO2 
 PCOD9209887
Probable space group: C 2/M
;
_chemical_formula_sum "Si O2"
_cell_formula_units_Z 44
_cell_length_a 21.317306
_cell_length_b 15.150873
_cell_length_c 15.976872
_cell_angle_alpha 90.000000
_cell_angle_beta 158.291350
_cell_angle_gamma 90.000000
_cell_volume 1908.669925
_symmetry_space_group_name_H-M "C 2/M"
_symmetry_group_IT_number 12
_symmetry_cell_setting 'monoclinic'
loop_
_space_group_symop_operation_xyz
x,y,z
-x,y,-z
-x,-y,-z
x,-y,z
1/2+x,1/2+y,z
1/2-x,1/2+y,-z
1/2-x,1/2-y,-z
1/2+x,1/2-y,z
loop_
_atom_site_type_symbol
_atom_site_label
_atom_site_fract_x
_atom_site_fract_y
_atom_site_fract_z
Si Si1 0.705088 0.403675 0.733333
Si Si2 0.347227 0.312242 0.182241
Si Si3 0.234869 0.000000 0.994289
Si Si4 0.845648 0.000000 0.911908
Si Si5 0.798957 0.808688 0.431726
Si Si6 0.133164 0.500000 0.481033
Si Si7 0.624258 0.645774 0.282487
O O1 0.500000 0.406651 0.500000
O O2 0.772042 0.500000 0.840066
O O3 0.752426 0.324306 0.854084
O O4 0.752627 0.385144 0.696643
O O5 0.537519 0.273768 0.418153
O O6 0.250000 0.250000 0.000000
O O7 0.349234 0.411928 0.147657
O O8 0.433973 0.000000 0.224640
O O9 0.221165 0.000000 0.077033
O O10 0.293958 0.000000 0.333605
O O11 0.965845 0.086834 0.056578
O O12 0.656243 0.737048 0.274081
O O13 0.870140 0.837472 0.610728
O O14 0.212996 0.585418 0.536114
#
# Coordination Sequence:
#
# PCOD9209887 Si02
#       7
#     8   8   4   4   8   4   8
#     4   9  19  35  63  96 130 168 222 272 328 399
#     4  11  22  39  64 101 138 177 225 281 338 407
#     4  12  23  42  67  96 138 177 235 277 343 395
#     4  11  23  43  68  97 129 183 228 284 338 408
#     4  10  21  38  66  96 130 175 220 277 342 410
#     4  11  25  41  64  92 135 174 231 284 333 398
#     4  10  21  40  64  96 132 173 221 273 348 413
#
# _framework density 23.052702
#
# number of rings (size 3 to 8) (size 9 to 14) (size 15 to 20)
#    0.000    1.636    2.727    2.455    3.818    1.455 
#    3.273    3.636    0.000    1.091    0.000    0.000 
#    0.000    0.000    0.000    0.000    0.000    0.364 
#
# Total GULP energy -122836.914759 kJ/mol
# GULP energy per Si atom -5583.496125 kJ/mol
# Density = 2.300023 g / cm^3
# Si number density = 23.052702 Si / 1000 Ang^3
#
#
#
# Elastic Constant Matrix: (Units=GPa)
#
#
# Indices 1 2 3 4 5 6 
#
# 1 130.7885 34.0623 13.1902 -0.0001 -16.5537 0.0000
# 2 34.0623 78.7991 12.7098 -0.0001 -15.9916 -0.0001
# 3 13.1902 12.7098 58.0564 -0.0002 -2.7440 -0.0001
# 4 -0.0001 -0.0001 -0.0002 7.8986 -0.0001 -11.8439
# 5 -16.5537 -15.9916 -2.7440 -0.0001 33.9102 0.0000
# 6 0.0000 -0.0001 -0.0001 -11.8439 0.0000 37.5405
#
#
#
# Elastic Compliance Matrix: (Units=1/GPa)
#
#
# Indices 1 2 3 4 5 6 
#
# 1 0.008929 -0.003095 -0.001219 0.000000 0.002801 0.000000
# 2 -0.003095 0.015565 -0.002438 0.000000 0.005632 0.000000
# 3 -0.001219 -0.002438 0.018022 0.000001 -0.000286 0.000000
# 4 0.000000 0.000000 0.000001 0.240273 0.000001 0.075805
# 5 0.002801 0.005632 -0.000286 0.000001 0.033490 0.000000
# 6 0.000000 0.000000 0.000000 0.075805 0.000000 0.050554
#
#
# Mechanical properties :
#
#
# Convention : Reuss Voigt Hill
#
# Bulk Modulus (GPa) = 34.46838 43.06319 38.76579
# Shear Modulus (GPa) = 12.82030 29.71531 21.26781
#
# Velocity S-wave (km/s) = 2.36080 3.59418 3.04068
# Velocity P-wave (km/s) = 4.73451 5.99542 5.40188
#
# Compressibility (1/GPa) = 0.02901209
#
# Stress axis : x y z
#
# Youngs Moduli (GPa) = 111.98987 64.24869 55.48849
#
# Poissons Ratio (x) = 0.19884 0.06763
# Poissons Ratio (y) = 0.34660 0.13529
# Poissons Ratio (z) = 0.13649 0.15664
#
# Static dielectric constant tensor:
#      x y z
#    x 1.919050 0.000000 -0.042790 
#    y 0.000000 1.874510 0.000000 
#    z -0.042790 0.000000 1.889350 
# 
# From -- ./inp_files/226661.got.cif
#   From: 2010.05.17/outbox.cif.g08.bks.cpg/sg12_114_cif.got.tgz:226661.got - 2010.06.03 13:09:07.
