data_PCOD9209504
_publ_section_title
;
Structure prediction by ZEFSAII (Michael W. Deem and Ramdas Pophale) SiO2 
 PCOD9209504
Probable space group: C 2/M
;
_chemical_formula_sum "Si O2"
_cell_formula_units_Z 56
_cell_length_a 11.652225
_cell_length_b 14.212506
_cell_length_c 23.734280
_cell_angle_alpha 90.000000
_cell_angle_beta 144.880484
_cell_angle_gamma 90.000000
_cell_volume 2261.193880
_symmetry_space_group_name_H-M "C 2/M"
_symmetry_group_IT_number 12
_symmetry_cell_setting 'monoclinic'
loop_
_space_group_symop_operation_xyz
x,y,z
-x,y,-z
-x,-y,-z
x,-y,z
1/2+x,1/2+y,z
1/2-x,1/2+y,-z
1/2-x,1/2-y,-z
1/2+x,1/2-y,z
loop_
_atom_site_type_symbol
_atom_site_label
_atom_site_fract_x
_atom_site_fract_y
_atom_site_fract_z
Si Si1 0.773378 0.102088 0.887256
Si Si2 0.856491 0.392129 0.504747
Si Si3 0.426372 0.393435 0.823586
Si Si4 0.576667 0.610400 0.712985
Si Si5 0.759632 0.309020 0.902759
Si Si6 0.261987 0.397116 0.413054
Si Si7 0.801475 0.754212 0.341032
O O1 0.694596 0.199419 0.880112
O O2 0.806857 0.114139 0.833716
O O3 0.679214 0.000000 0.862158
O O4 0.000000 0.096087 0.000000
O O5 0.937474 0.500000 0.532303
O O6 0.665418 0.384406 0.387358
O O7 0.782645 0.385032 0.539629
O O8 0.007868 0.305539 0.561252
O O9 0.411328 0.500000 0.798209
O O10 0.658247 0.363742 0.914397
O O11 0.329065 0.324183 0.740723
O O12 0.625718 0.500000 0.725145
O O13 0.678851 0.647515 0.811304
O O14 0.644013 0.671365 0.686133
O O15 0.000000 0.313694 0.000000
O O16 0.500000 0.398337 0.500000
O O17 0.183757 0.500000 0.364696
O O18 0.192529 0.312885 0.346105
#
# Coordination Sequence:
#
# PCOD9209504 Si02
#       7
#     8   8   8   8   8   8   8
#     4   9  20  43  72  99 130 168 219 282 338 392
#     4  10  23  43  67  94 135 179 222 276 335 392
#     4  11  25  44  68 100 136 174 222 277 336 403
#     4  11  23  42  65  98 135 175 225 277 327 394
#     4  11  25  46  73  97 135 180 223 272 342 405
#     4  10  21  38  62  92 130 175 221 273 326 383
#     4  12  23  39  67  99 132 176 222 270 334 400
#
# _framework density 24.765678999999999
#
# number of rings (size 3 to 8) (size 9 to 14) (size 15 to 20)
#    0.000    1.429    2.857    1.714    2.000    3.429 
#    0.000    1.429    0.000    4.286    0.000    0.000 
#    0.000    0.000    0.000    0.000    0.000    0.000 
#
# Total GULP energy -156819.456311 kJ/mol
# GULP energy per Si atom -5600.694868 kJ/mol
# Density = 2.470931 g / cm^3
# Si number density = 24.765679 Si / 1000 Ang^3
#
#
#
# Elastic Constant Matrix: (Units=GPa)
#
#
# Indices 1 2 3 4 5 6 
#
# 1 82.6582 38.9885 3.5053 0.0000 -12.6221 0.0000
# 2 38.9885 211.1019 43.3529 0.0001 -12.8324 -0.0004
# 3 3.5053 43.3529 101.3482 0.0007 -6.0080 -0.0022
# 4 0.0000 0.0001 0.0007 4.7583 0.0002 93.6097
# 5 -12.6221 -12.8324 -6.0080 0.0002 29.6464 -0.0006
# 6 0.0000 -0.0004 -0.0022 93.6097 -0.0006 -249.9748
#
#
#
# Elastic Compliance Matrix: (Units=1/GPa)
#
#
# Indices 1 2 3 4 5 6 
#
# 1 0.013993 -0.002454 0.000866 0.000000 0.005071 0.000000
# 2 -0.002454 0.005722 -0.002306 0.000000 0.000965 0.000000
# 3 0.000866 -0.002306 0.010917 0.000000 0.001583 0.000000
# 4 0.000000 0.000000 0.000000 0.025117 0.000000 0.009406
# 5 0.005071 0.000965 0.001583 0.000000 0.036628 0.000000
# 6 0.000000 0.000000 0.000000 0.009406 0.000000 -0.000478
#
#
# Mechanical properties :
#
#
# Convention : Reuss Voigt Hill
#
# Bulk Modulus (GPa) = 43.77152 62.97799 53.37475
# Shear Modulus (GPa) = 46.59709 -22.49659 12.05025
#
# Velocity S-wave (km/s) = 4.34235 -3.01720 2.20823
# Velocity P-wave (km/s) = 6.54630 3.65332 5.30098
#
# Compressibility (1/GPa) = 0.02284591
#
# Stress axis : x y z
#
# Youngs Moduli (GPa) = 71.46345 174.74972 91.59871
#
# Poissons Ratio (x) = 0.42885 -0.07936
# Poissons Ratio (y) = 0.17538 0.21121
# Poissons Ratio (z) = -0.06192 0.40293
#
# Static dielectric constant tensor:
#      x y z
#    x 2.096470 0.000000 0.047700 
#    y 0.000000 1.958660 0.000000 
#    z 0.047700 0.000000 2.004030 
# 
# From -- ./inp_files/361463.got.cif
#   From: 2010.05.17/outbox.cif.g08.bks.cpg/sg12_181_cif.got.tgz:361463.got - 2010.06.03 13:09:07.
