data_PCOD9209994
_publ_section_title
;
Structure prediction by ZEFSAII (Michael W. Deem and Ramdas Pophale) SiO2 
 PCOD9209994
Probable space group: C 2/M
;
_chemical_formula_sum "Si O2"
_cell_formula_units_Z 48
_cell_length_a 31.992140
_cell_length_b 14.197296
_cell_length_c 6.044280
_cell_angle_alpha 90.000000
_cell_angle_beta 121.027728
_cell_angle_gamma 90.000000
_cell_volume 2352.516855
_symmetry_space_group_name_H-M "C 2/M"
_symmetry_group_IT_number 12
_symmetry_cell_setting 'monoclinic'
loop_
_space_group_symop_operation_xyz
x,y,z
-x,y,-z
-x,-y,-z
x,-y,z
1/2+x,1/2+y,z
1/2-x,1/2+y,-z
1/2-x,1/2-y,-z
1/2+x,1/2-y,z
loop_
_atom_site_type_symbol
_atom_site_label
_atom_site_fract_x
_atom_site_fract_y
_atom_site_fract_z
Si Si1 0.692464 0.755394 0.860160
Si Si2 0.483582 0.888090 0.703921
Si Si3 0.557367 0.607069 0.616860
Si Si4 0.621540 0.109753 0.411525
Si Si5 0.376942 0.248712 0.949232
Si Si6 0.132160 0.107279 0.463664
O O1 0.667284 0.831831 0.629816
O O2 0.668925 0.653842 0.738716
O O3 0.750000 0.750000 0.000000
O O4 0.670149 0.778279 0.037526
O O5 0.500000 0.854312 0.500000
O O6 0.424814 0.877682 0.553953
O O7 0.496160 0.000000 0.742783
O O8 0.500000 0.852135 0.000000
O O9 0.500000 0.611463 0.500000
O O10 0.572954 0.500000 0.734307
O O11 0.577886 0.613302 0.422268
O O12 0.582412 0.695527 0.802354
O O13 0.606386 0.157009 0.138066
O O14 0.631752 0.000000 0.416447
O O15 0.363294 0.327808 0.734237
O O16 0.143453 0.000000 0.449597
#
# Coordination Sequence:
#
# PCOD9209994 Si02
#       6
#     8   8   8   8   8   8
#     4  10  23  42  60  84 117 152 197 256 316 375
#     4   9  19  37  61  89 123 166 213 260 310 372
#     4   9  18  35  59  88 123 159 194 237 295 361
#     4  10  23  41  60  87 121 162 207 253 309 374
#     4  10  21  39  58  86 116 155 197 253 302 366
#     4   9  19  37  60  87 115 149 192 240 300 365
#
# _framework density 20.403677999999999
#
# number of rings (size 3 to 8) (size 9 to 14) (size 15 to 20)
#    0.000    2.500    0.000    0.500    2.333    5.333 
#    9.000    4.167    0.000    0.500    0.000    0.000 
#    0.000    0.000    0.000    0.000    0.000    0.000 
#
# Total GULP energy -133745.943942 kJ/mol
# GULP energy per Si atom -5572.747664 kJ/mol
# Density = 2.035724 g / cm^3
# Si number density = 20.403678 Si / 1000 Ang^3
#
#
#
# Elastic Constant Matrix: (Units=GPa)
#
#
# Indices 1 2 3 4 5 6 
#
# 1 123.1276 40.7820 38.3992 0.0000 4.3871 0.0000
# 2 40.7820 127.4127 34.5781 0.0000 -2.6521 0.0000
# 3 38.3992 34.5781 60.5492 0.0000 -8.9344 0.0000
# 4 0.0000 0.0000 0.0000 20.6750 0.0000 -3.0005
# 5 4.3871 -2.6521 -8.9344 0.0000 33.4136 0.0000
# 6 0.0000 0.0000 0.0000 -3.0005 0.0000 22.1407
#
#
#
# Elastic Compliance Matrix: (Units=1/GPa)
#
#
# Indices 1 2 3 4 5 6 
#
# 1 0.010801 -0.001818 -0.006291 0.000000 -0.003244 0.000000
# 2 -0.001818 0.009610 -0.004360 0.000000 -0.000164 0.000000
# 3 -0.006291 -0.004360 0.024013 0.000000 0.006901 0.000000
# 4 0.000000 0.000000 0.000000 0.049338 0.000000 0.006686
# 5 -0.003244 -0.000164 0.006901 0.000000 0.032186 0.000000
# 6 0.000000 0.000000 0.000000 0.006686 0.000000 0.046072
#
#
# Mechanical properties :
#
#
# Convention : Reuss Voigt Hill
#
# Bulk Modulus (GPa) = 51.31288 59.84535 55.57911
# Shear Modulus (GPa) = 24.57589 28.40119 26.48854
#
# Velocity S-wave (km/s) = 3.47433 3.73495 3.60700
# Velocity P-wave (km/s) = 6.42636 6.92778 6.68177
#
# Compressibility (1/GPa) = 0.01948829
#
# Stress axis : x y z
#
# Youngs Moduli (GPa) = 92.58322 104.05852 41.64446
#
# Poissons Ratio (x) = 0.18913 0.26197
# Poissons Ratio (y) = 0.16827 0.18155
# Poissons Ratio (z) = 0.58241 0.45365
#
# Static dielectric constant tensor:
#      x y z
#    x 1.742400 0.000000 -0.053430 
#    y 0.000000 1.727980 0.000000 
#    z -0.053430 0.000000 1.828580 
# 
# From -- ./inp_files/31591.got.cif
#   From: 2010.05.17/outbox.cif.g08.bks.cpg/sg12_16_cif.got.tgz:31591.got - 2010.06.03 13:09:07.
