data_PCOD9209263
_publ_section_title
;
Structure prediction by ZEFSAII (Michael W. Deem and Ramdas Pophale) SiO2 
 PCOD9209263
Probable space group: C 2/M
;
_chemical_formula_sum "Si O2"
_cell_formula_units_Z 40
_cell_length_a 9.162463
_cell_length_b 28.549109
_cell_length_c 16.001021
_cell_angle_alpha 90.000000
_cell_angle_beta 154.802330
_cell_angle_gamma 90.000000
_cell_volume 1781.966311
_symmetry_space_group_name_H-M "C 2/M"
_symmetry_group_IT_number 12
_symmetry_cell_setting 'monoclinic'
loop_
_space_group_symop_operation_xyz
x,y,z
-x,y,-z
-x,-y,-z
x,-y,z
1/2+x,1/2+y,z
1/2-x,1/2+y,-z
1/2-x,1/2-y,-z
1/2+x,1/2-y,z
loop_
_atom_site_type_symbol
_atom_site_label
_atom_site_fract_x
_atom_site_fract_y
_atom_site_fract_z
Si Si1 0.409573 0.882323 0.049181
Si Si2 0.864003 0.705702 0.734925
Si Si3 0.439949 0.786993 0.336818
Si Si4 0.581926 0.946280 0.791551
Si Si5 0.409178 0.888168 0.364890
O O1 0.562336 0.832546 0.157002
O O2 0.522992 0.920447 0.177307
O O3 0.500000 0.892863 0.000000
O O4 0.999385 0.880898 0.847564
O O5 0.500000 0.695108 0.500000
O O6 0.847730 0.758291 0.762833
O O7 0.127261 0.702459 0.794746
O O8 0.553501 0.835555 0.436001
O O9 0.750000 0.750000 0.500000
O O10 0.468149 0.917020 0.651529
O O11 0.468011 0.000000 0.730860
O O12 0.000000 0.946461 0.000000
O O13 0.500000 0.911262 0.500000
#
# Coordination Sequence:
#
# PCOD9209263 Si02
#       5
#     8   8   8   8   8
#     4  11  25  39  62  98 126 168 208 263 318 373
#     4  10  22  39  61  86 131 168 209 258 314 370
#     4  10  21  38  61  91 123 172 209 255 310 368
#     4   9  20  43  68  91 123 164 210 266 322 374
#     4  11  23  41  65  92 130 165 215 258 311 381
#
# _framework density 22.447113999999999
#
# number of rings (size 3 to 8) (size 9 to 14) (size 15 to 20)
#    0.000    1.800    2.000    1.800    8.400    1.600 
#    0.000    0.000    0.000    4.200    0.000    0.000 
#    0.000    0.000    0.000    0.000    0.000    0.000 
#
# Total GULP energy -111783.015395 kJ/mol
# GULP energy per Si atom -5589.150770 kJ/mol
# Density = 2.239602 g / cm^3
# Si number density = 22.447114 Si / 1000 Ang^3
#
#
#
# Elastic Constant Matrix: (Units=GPa)
#
#
# Indices 1 2 3 4 5 6 
#
# 1 140.2364 39.7659 28.5783 0.0000 -60.9671 0.0000
# 2 39.7659 132.4377 24.5552 0.0000 -43.8002 0.0000
# 3 28.5783 24.5552 71.1745 0.0000 -12.6514 0.0000
# 4 0.0000 0.0000 0.0000 8.6002 0.0000 -5.2441
# 5 -60.9671 -43.8002 -12.6514 0.0000 45.6516 0.0000
# 6 0.0000 0.0000 0.0000 -5.2441 0.0000 22.2138
#
#
#
# Elastic Compliance Matrix: (Units=1/GPa)
#
#
# Indices 1 2 3 4 5 6 
#
# 1 0.019284 0.004567 -0.004167 0.000000 0.028981 0.000000
# 2 0.004567 0.012428 -0.003069 0.000000 0.017172 0.000000
# 3 -0.004167 -0.003069 0.016061 0.000000 -0.004059 0.000000
# 4 0.000000 0.000000 0.000000 0.135830 0.000000 0.032066
# 5 0.028981 0.017172 -0.004059 0.000000 0.075959 0.000000
# 6 0.000000 0.000000 0.000000 0.032066 0.000000 0.052587
#
#
# Mechanical properties :
#
#
# Convention : Reuss Voigt Hill
#
# Bulk Modulus (GPa) = 23.56606 58.84972 41.20789
# Shear Modulus (GPa) = 15.07696 32.02305 23.55001
#
# Velocity S-wave (km/s) = 2.59446 3.78113 3.24255
# Velocity P-wave (km/s) = 4.41546 6.73325 5.69354
#
# Compressibility (1/GPa) = 0.04243392
#
# Stress axis : x y z
#
# Youngs Moduli (GPa) = 51.85561 80.46528 62.26436
#
# Poissons Ratio (x) = -0.36748 0.25948
# Poissons Ratio (y) = -0.23682 0.19108
# Poissons Ratio (z) = 0.21610 0.24694
#
# Static dielectric constant tensor:
#      x y z
#    x 1.907860 0.000000 0.044380 
#    y 0.000000 1.806900 0.000000 
#    z 0.044380 0.000000 1.915920 
# 
# From -- ./inp_files/41421.got.cif
#   From: 2010.05.17/outbox.cif.g08.bks.cpg/sg12_21_cif.got.tgz:41421.got - 2010.06.03 13:09:07.
