data_PCOD9209650
_publ_section_title
;
Structure prediction by ZEFSAII (Michael W. Deem and Ramdas Pophale) SiO2 
 PCOD9209650
Probable space group: C 2/M
;
_chemical_formula_sum "Si O2"
_cell_formula_units_Z 60
_cell_length_a 15.155109
_cell_length_b 28.104880
_cell_length_c 15.184307
_cell_angle_alpha 90.000000
_cell_angle_beta 152.036707
_cell_angle_gamma 90.000000
_cell_volume 3032.643633
_symmetry_space_group_name_H-M "C 2/M"
_symmetry_group_IT_number 12
_symmetry_cell_setting 'monoclinic'
loop_
_space_group_symop_operation_xyz
x,y,z
-x,y,-z
-x,-y,-z
x,-y,z
1/2+x,1/2+y,z
1/2-x,1/2+y,-z
1/2-x,1/2-y,-z
1/2+x,1/2-y,z
loop_
_atom_site_type_symbol
_atom_site_label
_atom_site_fract_x
_atom_site_fract_y
_atom_site_fract_z
Si Si1 0.006889 0.353009 0.405253
Si Si2 0.699623 0.272705 0.360257
Si Si3 0.930075 0.553201 0.093092
Si Si4 0.000000 0.618747 0.000000
Si Si5 0.764650 0.902260 0.487237
Si Si6 0.578097 0.655885 0.973047
Si Si7 0.941636 0.945060 0.127633
Si Si8 0.802161 0.176352 0.374120
O O1 0.122849 0.304254 0.511608
O O2 0.131685 0.385338 0.450549
O O3 0.000000 0.371786 0.500000
O O4 0.803668 0.343798 0.182445
O O5 0.750000 0.250000 0.500000
O O6 0.519894 0.307765 0.183588
O O7 0.697574 0.225811 0.299934
O O8 0.921387 0.500000 0.051994
O O9 0.133802 0.565456 0.310921
O O10 0.897748 0.588093 0.984397
O O11 0.774493 0.557970 0.031883
O O12 0.838703 0.648132 0.811657
O O13 0.933366 0.932344 0.676891
O O14 0.824087 0.855865 0.482439
O O15 0.523784 0.600659 0.904580
O O16 0.500000 0.669376 0.000000
O O17 0.978505 0.000000 0.130486
O O18 0.000000 0.183389 0.500000
#
# Coordination Sequence:
#
# PCOD9209650 Si02
#       8
#     8   8   8   4   8   8   8   8
#     4  12  23  42  66  89 126 168 211 266 321 380
#     4  12  25  43  64  94 128 169 218 264 321 389
#     4  10  21  38  63  93 128 170 212 257 315 378
#     4  10  23  38  62  92 130 166 211 262 310 374
#     4  11  21  42  63  93 131 169 210 262 322 372
#     4  12  25  43  67  92 127 168 211 268 327 381
#     4  11  22  39  66  93 124 165 213 262 320 383
#     4  11  24  40  63  93 131 167 212 260 312 378
#
# _framework density 19.784717000000001
#
# number of rings (size 3 to 8) (size 9 to 14) (size 15 to 20)
#    0.000    0.800    5.333    1.800    0.933    0.800 
#    0.000    0.000    0.000    8.400    0.000    0.000 
#    0.000    0.000    0.000    0.000    0.000    0.000 
#
# Total GULP energy -167352.368007 kJ/mol
# GULP energy per Si atom -5578.412267 kJ/mol
# Density = 1.973969 g / cm^3
# Si number density = 19.784717 Si / 1000 Ang^3
#
#
#
# Elastic Constant Matrix: (Units=GPa)
#
#
# Indices 1 2 3 4 5 6 
#
# 1 45.5001 4.8236 2.4888 0.0001 -11.6811 0.0000
# 2 4.8236 101.8200 31.0237 0.0001 -11.6430 0.0001
# 3 2.4888 31.0237 103.0244 -0.0001 -3.6512 -0.0001
# 4 0.0001 0.0001 -0.0001 20.8981 0.0000 1.5130
# 5 -11.6811 -11.6430 -3.6512 0.0000 31.2366 -0.0001
# 6 0.0000 0.0001 -0.0001 1.5130 -0.0001 29.2972
#
#
#
# Elastic Compliance Matrix: (Units=1/GPa)
#
#
# Indices 1 2 3 4 5 6 
#
# 1 0.024319 -0.000040 -0.000255 0.000000 0.009050 0.000000
# 2 -0.000040 0.011248 -0.003252 0.000000 0.003798 0.000000
# 3 -0.000255 -0.003252 0.010690 0.000000 -0.000058 0.000000
# 4 0.000000 0.000000 0.000000 0.048031 0.000000 -0.002480
# 5 0.009050 0.003798 -0.000058 0.000000 0.036807 0.000000
# 6 0.000000 0.000000 0.000000 -0.002480 0.000000 0.034261
#
#
# Mechanical properties :
#
#
# Convention : Reuss Voigt Hill
#
# Bulk Modulus (GPa) = 25.53288 36.33518 30.93403
# Shear Modulus (GPa) = 26.95372 30.42026 28.68699
#
# Velocity S-wave (km/s) = 3.69501 3.92543 3.81196
# Velocity P-wave (km/s) = 5.58010 6.24103 5.91980
#
# Compressibility (1/GPa) = 0.03916518
#
# Stress axis : x y z
#
# Youngs Moduli (GPa) = 41.11932 88.90372 93.54801
#
# Poissons Ratio (x) = 0.00352 0.02384
# Poissons Ratio (y) = 0.00163 0.30418
# Poissons Ratio (z) = 0.01048 0.28908
#
# Static dielectric constant tensor:
#      x y z
#    x 1.696720 0.000000 -0.021090 
#    y 0.000000 1.704050 0.000000 
#    z -0.021090 0.000000 1.709630 
# 
# From -- ./inp_files/219476.got.cif
#   From: 2010.05.17/outbox.cif.g08.bks.cpg/sg12_110_cif.got.tgz:219476.got - 2010.06.03 13:09:07.
