data_PCOD9209601
_publ_section_title
;
Structure prediction by ZEFSAII (Michael W. Deem and Ramdas Pophale) SiO2 
 PCOD9209601
Probable space group: C 2/M
;
_chemical_formula_sum "Si O2"
_cell_formula_units_Z 64
_cell_length_a 15.719032
_cell_length_b 12.703735
_cell_length_c 27.166970
_cell_angle_alpha 90.000000
_cell_angle_beta 39.595331
_cell_angle_gamma 90.000000
_cell_volume 3457.674031
_symmetry_space_group_name_H-M "C 2/M"
_symmetry_group_IT_number 12
_symmetry_cell_setting 'monoclinic'
loop_
_space_group_symop_operation_xyz
x,y,z
-x,y,-z
-x,-y,-z
x,-y,z
1/2+x,1/2+y,z
1/2-x,1/2+y,-z
1/2-x,1/2-y,-z
1/2+x,1/2-y,z
loop_
_atom_site_type_symbol
_atom_site_label
_atom_site_fract_x
_atom_site_fract_y
_atom_site_fract_z
Si Si1 0.355792 0.875525 0.320370
Si Si2 0.439389 0.624656 0.172843
Si Si3 0.901675 0.878686 0.724451
Si Si4 0.365356 0.623412 0.091535
Si Si5 0.894424 0.748056 0.826858
Si Si6 0.690253 0.242432 0.320638
Si Si7 0.823617 0.212121 0.418648
Si Si8 0.553644 0.886635 0.530545
O O1 0.492901 0.841031 0.232646
O O2 0.235768 0.823529 0.342576
O O3 0.357947 0.814186 0.371095
O O4 0.343122 0.000000 0.330551
O O5 0.466973 0.500000 0.164514
O O6 0.403397 0.647746 0.131637
O O7 0.560090 0.692914 0.143166
O O8 0.306707 0.655474 0.263325
O O9 0.907863 0.833446 0.776806
O O10 0.811657 0.806303 0.729635
O O11 0.047953 0.860861 0.635942
O O12 0.862529 0.000000 0.741088
O O13 0.323232 0.500000 0.109444
O O14 0.249053 0.694210 0.118844
O O15 0.500000 0.633929 0.000000
O O16 0.545804 0.191889 0.396227
O O17 0.750000 0.250000 0.500000
O O18 0.703997 0.144718 0.450702
O O19 0.500000 0.894300 0.500000
O O20 0.550548 0.000000 0.557787
#
# Coordination Sequence:
#
# PCOD9209601 Si02
#       8
#     8   8   8   8   8   8   8   8
#     4  10  22  37  56  79 109 146 191 242 296 351
#     4  10  21  38  63  91 120 160 203 241 291 355
#     4  11  22  36  57  82 112 150 191 243 299 350
#     4  10  21  39  65  96 126 157 196 243 294 348
#     4  10  21  39  61  87 123 155 197 241 289 351
#     4  11  20  38  57  82 111 147 194 247 290 354
#     4  11  22  38  50  74 108 141 191 240 297 354
#     4  11  22  37  54  72 103 143 187 242 294 342
#
# _framework density 18.509553
#
# number of rings (size 3 to 8) (size 9 to 14) (size 15 to 20)
#    0.000    1.500    3.750    1.875    0.000    1.500 
#    0.000    0.625    0.000    1.500    0.000    0.000 
#    0.000    0.000    0.000    0.000    0.000    0.000 
#
# Total GULP energy -178320.631471 kJ/mol
# GULP energy per Si atom -5572.519733 kJ/mol
# Density = 1.846742 g / cm^3
# Si number density = 18.509553 Si / 1000 Ang^3
#
#
#
# Elastic Constant Matrix: (Units=GPa)
#
#
# Indices 1 2 3 4 5 6 
#
# 1 76.8220 37.9726 17.2825 0.0000 -10.4514 0.0000
# 2 37.9726 119.6238 30.3117 0.0000 -5.0227 0.0000
# 3 17.2825 30.3117 54.9838 0.0000 -5.8802 0.0000
# 4 0.0000 0.0000 0.0000 11.1412 0.0000 3.5607
# 5 -10.4514 -5.0227 -5.8802 0.0000 24.0158 0.0000
# 6 0.0000 0.0000 0.0000 3.5607 0.0000 22.1115
#
#
#
# Elastic Compliance Matrix: (Units=1/GPa)
#
#
# Indices 1 2 3 4 5 6 
#
# 1 0.016471 -0.004454 -0.002110 0.000000 0.005720 0.000000
# 2 -0.004454 0.010934 -0.004714 0.000000 -0.000806 0.000000
# 3 -0.002110 -0.004714 0.021817 0.000000 0.003438 0.000000
# 4 0.000000 0.000000 0.000000 0.094627 0.000000 -0.015238
# 5 0.005720 -0.000806 0.003438 0.000000 0.044802 0.000000
# 6 0.000000 0.000000 0.000000 -0.015238 0.000000 0.047679
#
#
# Mechanical properties :
#
#
# Convention : Reuss Voigt Hill
#
# Bulk Modulus (GPa) = 37.50054 46.95145 42.22599
# Shear Modulus (GPa) = 18.67241 22.51122 20.59181
#
# Velocity S-wave (km/s) = 3.17960 3.49118 3.33903
# Velocity P-wave (km/s) = 5.81239 6.45541 6.14232
#
# Compressibility (1/GPa) = 0.02666628
#
# Stress axis : x y z
#
# Youngs Moduli (GPa) = 60.71097 91.45834 45.83607
#
# Poissons Ratio (x) = 0.40733 0.09673
# Poissons Ratio (y) = 0.27039 0.21607
# Poissons Ratio (z) = 0.12812 0.43113
#
# Static dielectric constant tensor:
#      x y z
#    x 1.621700 0.000000 0.037750 
#    y 0.000000 1.753420 0.000000 
#    z 0.037750 0.000000 1.609490 
# 
# From -- ./inp_files/361025.got.cif
#   From: 2010.05.17/outbox.cif.g08.bks.cpg/sg12_181_cif.got.tgz:361025.got - 2010.06.03 13:09:07.
