data_PCOD9209441
_publ_section_title
;
Structure prediction by ZEFSAII (Michael W. Deem and Ramdas Pophale) SiO2 
 PCOD9209441
Probable space group: C 2/M
;
_chemical_formula_sum "Si O2"
_cell_formula_units_Z 36
_cell_length_a 14.791947
_cell_length_b 20.913988
_cell_length_c 10.533448
_cell_angle_alpha 90.000000
_cell_angle_beta 146.314147
_cell_angle_gamma 90.000000
_cell_volume 1807.353688
_symmetry_space_group_name_H-M "C 2/M"
_symmetry_group_IT_number 12
_symmetry_cell_setting 'monoclinic'
loop_
_space_group_symop_operation_xyz
x,y,z
-x,y,-z
-x,-y,-z
x,-y,z
1/2+x,1/2+y,z
1/2-x,1/2+y,-z
1/2-x,1/2-y,-z
1/2+x,1/2-y,z
loop_
_atom_site_type_symbol
_atom_site_label
_atom_site_fract_x
_atom_site_fract_y
_atom_site_fract_z
Si Si1 0.000000 0.260595 0.000000
Si Si2 0.607688 0.429255 0.253449
Si Si3 0.705513 0.195685 0.552874
Si Si4 0.361865 0.810447 0.093255
Si Si5 0.385210 0.573787 0.243845
O O1 0.961808 0.302471 0.078065
O O2 0.160561 0.216223 0.187514
O O3 0.681574 0.500000 0.331464
O O4 0.739520 0.374371 0.423695
O O5 0.494022 0.426404 0.244113
O O6 0.500000 0.420551 0.000000
O O7 0.750000 0.250000 0.500000
O O8 0.517072 0.192426 0.368812
O O9 0.250000 0.750000 0.000000
O O10 0.253203 0.873520 0.946547
O O11 0.500000 0.590487 0.500000
O O12 0.327091 0.500000 0.196051
#
# Coordination Sequence:
#
# PCOD9209441 Si02
#       5
#     4   8   8   8   8
#     4  10  22  40  60  88 128 162 218 256 328 376
#     4  10  21  41  67  92 126 171 212 259 318 382
#     4  10  21  38  62  90 124 166 208 265 311 381
#     4  11  25  38  62  95 126 170 209 272 316 382
#     4  10  23  42  64  92 131 171 213 263 319 382
#
# _framework density 19.918626
#
# number of rings (size 3 to 8) (size 9 to 14) (size 15 to 20)
#    0.000    1.778    1.111    2.667    9.333    0.889 
#    0.000    0.556    0.000    4.000    0.000    0.000 
#    0.000    0.000    0.000    0.000    0.000    0.000 
#
# Total GULP energy -100212.997177 kJ/mol
# GULP energy per Si atom -5567.388732 kJ/mol
# Density = 1.987329 g / cm^3
# Si number density = 19.918626 Si / 1000 Ang^3
#
#
#
# Elastic Constant Matrix: (Units=GPa)
#
#
# Indices 1 2 3 4 5 6 
#
# 1 85.4991 21.0757 27.1519 0.0000 -11.0824 0.0000
# 2 21.0757 161.5599 81.8463 0.0000 21.0178 0.0000
# 3 27.1519 81.8463 146.3294 0.0000 23.9566 0.0000
# 4 0.0000 0.0000 0.0000 17.8330 0.0000 -42.2360
# 5 -11.0824 21.0178 23.9566 0.0000 31.6468 0.0000
# 6 0.0000 0.0000 0.0000 -42.2360 0.0000 -77.6935
#
#
#
# Elastic Compliance Matrix: (Units=1/GPa)
#
#
# Indices 1 2 3 4 5 6 
#
# 1 0.014113 -0.001261 -0.003264 0.000000 0.008251 0.000000
# 2 -0.001261 0.008909 -0.004233 0.000000 -0.003154 0.000000
# 3 -0.003264 -0.004233 0.010883 0.000000 -0.006570 0.000000
# 4 0.000000 0.000000 0.000000 0.024514 0.000000 -0.013326
# 5 0.008251 -0.003154 -0.006570 0.000000 0.041556 0.000000
# 6 0.000000 0.000000 0.000000 -0.013326 0.000000 -0.005627
#
#
# Mechanical properties :
#
#
# Convention : Reuss Voigt Hill
#
# Bulk Modulus (GPa) = 61.01635 72.61513 66.81574
# Shear Modulus (GPa) = 42.61635 11.91157 27.26396
#
# Velocity S-wave (km/s) = 4.63052 2.44808 3.70370
# Velocity P-wave (km/s) = 7.69988 6.67277 7.20465
#
# Compressibility (1/GPa) = 0.01638905
#
# Stress axis : x y z
#
# Youngs Moduli (GPa) = 70.85729 112.25046 91.88905
#
# Poissons Ratio (x) = 0.14151 0.29996
# Poissons Ratio (y) = 0.08933 0.38893
# Poissons Ratio (z) = 0.23130 0.47511
#
# Static dielectric constant tensor:
#      x y z
#    x 1.727880 0.000000 -0.101010 
#    y 0.000000 1.692860 0.000000 
#    z -0.101010 0.000000 1.888740 
# 
# From -- ./inp_files/48397.got.cif
#   From: 2010.05.17/outbox.cif.g08.bks.cpg/sg12_25_cif.got.tgz:48397.got - 2010.06.03 13:09:07.
