data_PCOD9209300
_publ_section_title
;
Structure prediction by ZEFSAII (Michael W. Deem and Ramdas Pophale) SiO2 
 PCOD9209300
Probable space group: C 2/M
;
_chemical_formula_sum "Si O2"
_cell_formula_units_Z 58
_cell_length_a 24.887854
_cell_length_b 19.987994
_cell_length_c 5.580419
_cell_angle_alpha 90.000000
_cell_angle_beta 113.631394
_cell_angle_gamma 90.000000
_cell_volume 2543.237074
_symmetry_space_group_name_H-M "C 2/M"
_symmetry_group_IT_number 12
_symmetry_cell_setting 'monoclinic'
loop_
_space_group_symop_operation_xyz
x,y,z
-x,y,-z
-x,-y,-z
x,-y,z
1/2+x,1/2+y,z
1/2-x,1/2+y,-z
1/2-x,1/2-y,-z
1/2+x,1/2-y,z
loop_
_atom_site_type_symbol
_atom_site_label
_atom_site_fract_x
_atom_site_fract_y
_atom_site_fract_z
Si Si1 0.940608 0.733459 0.763261
Si Si2 0.522544 0.423590 0.292467
Si Si3 0.500000 0.000000 0.500000
Si Si4 0.912063 0.613990 0.433088
Si Si5 0.834128 0.688633 0.917987
Si Si6 0.866031 0.145072 0.481374
Si Si7 0.800857 0.577011 0.512418
Si Si8 0.797792 0.165262 0.864076
O O1 0.953798 0.665933 0.642995
O O2 0.887091 0.713157 0.841788
O O3 0.912539 0.793365 0.561242
O O4 0.000000 0.752847 0.000000
O O5 0.500000 0.392123 0.500000
O O6 0.500897 0.500000 0.255643
O O7 0.592450 0.419119 0.424522
O O8 0.500000 0.395181 0.000000
O O9 0.550242 0.941379 0.632533
O O10 0.867668 0.577456 0.536717
O O11 0.868826 0.661763 0.207421
O O12 0.801817 0.624889 0.745998
O O13 0.792390 0.753521 0.864711
O O14 0.830651 0.151159 0.668247
O O15 0.831321 0.146992 0.169834
O O16 0.782094 0.500000 0.514038
O O17 0.759420 0.618879 0.258049
#
# Coordination Sequence:
#
# PCOD9209300 Si02
#       8
#     8   8   2   8   8   8   8   8
#     4  10  21  40  64  98 138 178 230 290 354 431
#     4  10  21  38  61  92 133 183 228 284 364 441
#     4  12  24  40  70 104 136 190 226 304 358 442
#     4  11  23  44  66  99 139 179 236 288 364 433
#     4  10  23  44  67  99 136 188 238 296 362 444
#     4  11  23  42  67 103 138 179 238 300 356 426
#     4  11  26  45  69 100 139 186 242 307 368 437
#     4  11  25  45  71 102 139 187 244 299 364 429
#
# _framework density 22.805582000000001
#
# number of rings (size 3 to 8) (size 9 to 14) (size 15 to 20)
#    0.000    1.379    2.069    2.483    2.897    2.759 
#    1.241    1.724    0.000    0.000    0.000    0.000 
#    0.000    0.000    0.000    0.000    0.000    0.000 
#
# Total GULP energy -161607.758536 kJ/mol
# GULP energy per Si atom -5572.681329 kJ/mol
# Density = 2.275368 g / cm^3
# Si number density = 22.805582 Si / 1000 Ang^3
#
#
#
# Elastic Constant Matrix: (Units=GPa)
#
#
# Indices 1 2 3 4 5 6 
#
# 1 73.6606 41.1399 29.1160 0.0000 -5.4476 0.0000
# 2 41.1399 116.5388 47.4001 0.0000 12.3216 0.0000
# 3 29.1160 47.4001 148.2378 0.0000 3.4651 0.0000
# 4 0.0000 0.0000 0.0000 8.1969 0.0000 23.5217
# 5 -5.4476 12.3216 3.4651 0.0000 38.4573 0.0000
# 6 0.0000 0.0000 0.0000 23.5217 0.0000 18.5899
#
#
#
# Elastic Compliance Matrix: (Units=1/GPa)
#
#
# Indices 1 2 3 4 5 6 
#
# 1 0.018037 -0.006181 -0.001676 0.000000 0.004686 0.000000
# 2 -0.006181 0.012311 -0.002615 0.000000 -0.004584 0.000000
# 3 -0.001676 -0.002615 0.007914 0.000000 -0.000112 0.000000
# 4 0.000000 0.000000 0.000000 -0.046371 0.000000 0.058674
# 5 0.004686 -0.004584 -0.000112 0.000000 0.028146 0.000000
# 6 0.000000 0.000000 0.000000 0.058674 0.000000 -0.020447
#
#
# Mechanical properties :
#
#
# Convention : Reuss Voigt Hill
#
# Bulk Modulus (GPa) = 57.74490 63.74991 60.74741
# Shear Modulus (GPa) = 190.06133 27.76758 108.91446
#
# Velocity S-wave (km/s) = 9.13897 3.49317 6.91820
# Velocity P-wave (km/s) = 11.69344 6.65462 9.51369
#
# Compressibility (1/GPa) = 0.01731755
#
# Stress axis : x y z
#
# Youngs Moduli (GPa) = 55.44156 81.22567 126.35861
#
# Poissons Ratio (x) = 0.50207 0.21175
# Poissons Ratio (y) = 0.34270 0.33048
# Poissons Ratio (z) = 0.09291 0.21244
#
# Static dielectric constant tensor:
#      x y z
#    x 1.927610 0.000000 -0.042570 
#    y 0.000000 1.857540 0.000000 
#    z -0.042570 0.000000 1.864770 
# 
# From -- ./inp_files/29320.got.cif
#   From: 2010.05.17/outbox.cif.g08.bks.cpg/sg12_15_cif.got.tgz:29320.got - 2010.06.03 13:09:07.
