data_PCOD9209475
_publ_section_title
;
Structure prediction by ZEFSAII (Michael W. Deem and Ramdas Pophale) SiO2 
 PCOD9209475
Probable space group: C 2/M
;
_chemical_formula_sum "Si O2"
_cell_formula_units_Z 52
_cell_length_a 22.171356
_cell_length_b 11.635359
_cell_length_c 13.084445
_cell_angle_alpha 90.000000
_cell_angle_beta 122.815215
_cell_angle_gamma 90.000000
_cell_volume 2836.776593
_symmetry_space_group_name_H-M "C 2/M"
_symmetry_group_IT_number 12
_symmetry_cell_setting 'monoclinic'
loop_
_space_group_symop_operation_xyz
x,y,z
-x,y,-z
-x,-y,-z
x,-y,z
1/2+x,1/2+y,z
1/2-x,1/2+y,-z
1/2-x,1/2-y,-z
1/2+x,1/2-y,z
loop_
_atom_site_type_symbol
_atom_site_label
_atom_site_fract_x
_atom_site_fract_y
_atom_site_fract_z
Si Si1 0.792038 0.760677 0.379138
Si Si2 0.733613 0.864818 0.844813
Si Si3 0.861908 0.000000 0.394932
Si Si4 0.862970 0.246069 0.660605
Si Si5 0.998772 0.635009 0.120910
Si Si6 0.910038 0.000000 0.213802
Si Si7 0.074787 0.000000 0.321858
Si Si8 0.359315 0.262894 0.073675
O O1 0.797882 0.670120 0.293424
O O2 0.842500 0.733525 0.522846
O O3 0.710705 0.762400 0.345577
O O4 0.814067 0.885244 0.356102
O O5 0.680719 0.823549 0.886213
O O6 0.747227 0.000000 0.863120
O O7 0.806441 0.792689 0.931473
O O8 0.908821 0.000000 0.335642
O O9 0.907050 0.000000 0.540733
O O10 0.926370 0.325353 0.760603
O O11 0.890392 0.114456 0.692806
O O12 0.986617 0.500000 0.129078
O O13 0.934075 0.709430 0.107539
O O14 0.000000 0.652714 0.000000
O O15 0.871307 0.884184 0.141528
O O16 0.989146 0.000000 0.237594
#
# Coordination Sequence:
#
# PCOD9209475 Si02
#       8
#     8   8   4   8   8   4   4   8
#     4  10  22  39  61  89 125 158 205 249 297 357
#     4  11  23  39  61  89 120 159 199 249 304 356
#     4  10  21  38  62  92 116 169 210 247 297 360
#     4  10  22  40  61  90 122 161 200 250 301 357
#     4  11  24  43  63  87 118 160 201 245 303 369
#     4  12  19  40  64  90 121 162 200 257 304 363
#     4  10  21  38  64  88 126 160 202 254 305 359
#     4  11  23  41  61  89 122 155 201 253 303 361
#
# _framework density 18.330665
#
# number of rings (size 3 to 8) (size 9 to 14) (size 15 to 20)
#    0.000    1.385    3.846    1.615    2.154    0.615 
#    1.385    1.538    0.000    1.846    0.000    0.000 
#    0.000    0.000    0.000    0.000    0.000    0.000 
#
# Total GULP energy -145220.920152 kJ/mol
# GULP energy per Si atom -5585.420006 kJ/mol
# Density = 1.828894 g / cm^3
# Si number density = 18.330665 Si / 1000 Ang^3
#
#
#
# Elastic Constant Matrix: (Units=GPa)
#
#
# Indices 1 2 3 4 5 6 
#
# 1 61.7588 27.2535 30.8473 0.0000 11.3381 0.0000
# 2 27.2535 83.5329 44.5086 0.0000 -7.8751 0.0000
# 3 30.8473 44.5086 76.4760 0.0000 5.8568 0.0000
# 4 0.0000 0.0000 0.0000 28.1982 0.0000 0.9018
# 5 11.3381 -7.8751 5.8568 0.0000 22.8252 0.0000
# 6 0.0000 0.0000 0.0000 0.9018 0.0000 24.6309
#
#
#
# Elastic Compliance Matrix: (Units=1/GPa)
#
#
# Indices 1 2 3 4 5 6 
#
# 1 0.023790 -0.006333 -0.004935 0.000000 -0.012736 0.000000
# 2 -0.006333 0.020939 -0.010635 0.000000 0.013099 0.000000
# 3 -0.004935 -0.010635 0.021777 0.000000 -0.006806 0.000000
# 4 0.000000 0.000000 0.000000 0.035505 0.000000 -0.001300
# 5 -0.012736 0.013099 -0.006806 0.000000 0.056403 0.000000
# 6 0.000000 0.000000 0.000000 -0.001300 0.000000 0.040647
#
#
# Mechanical properties :
#
#
# Convention : Reuss Voigt Hill
#
# Bulk Modulus (GPa) = 44.05202 47.44294 45.74748
# Shear Modulus (GPa) = 19.96536 23.07476 21.52006
#
# Velocity S-wave (km/s) = 3.30385 3.55182 3.43007
# Velocity P-wave (km/s) = 6.21594 6.53899 6.37951
#
# Compressibility (1/GPa) = 0.02270044
#
# Stress axis : x y z
#
# Youngs Moduli (GPa) = 42.03519 47.75730 45.91936
#
# Poissons Ratio (x) = 0.30245 0.22659
# Poissons Ratio (y) = 0.26621 0.48836
# Poissons Ratio (z) = 0.20743 0.50791
#
# Static dielectric constant tensor:
#      x y z
#    x 1.595510 0.000000 0.004220 
#    y 0.000000 1.602690 0.000000 
#    z 0.004220 0.000000 1.635130 
# 
# From -- ./inp_files/165568.got.cif
#   From: 2010.05.17/outbox.cif.g08.bks.cpg/sg12_83_cif.got.tgz:165568.got - 2010.06.03 13:09:07.
