data_PCOD9209575
_publ_section_title
;
Structure prediction by ZEFSAII (Michael W. Deem and Ramdas Pophale) SiO2 
 PCOD9209575
Probable space group: C 2/M
;
_chemical_formula_sum "Si O2"
_cell_formula_units_Z 60
_cell_length_a 19.380208
_cell_length_b 9.594861
_cell_length_c 22.978270
_cell_angle_alpha 90.000000
_cell_angle_beta 139.011235
_cell_angle_gamma 90.000000
_cell_volume 2802.588798
_symmetry_space_group_name_H-M "C 2/M"
_symmetry_group_IT_number 12
_symmetry_cell_setting 'monoclinic'
loop_
_space_group_symop_operation_xyz
x,y,z
-x,y,-z
-x,-y,-z
x,-y,z
1/2+x,1/2+y,z
1/2-x,1/2+y,-z
1/2-x,1/2-y,-z
1/2+x,1/2-y,z
loop_
_atom_site_type_symbol
_atom_site_label
_atom_site_fract_x
_atom_site_fract_y
_atom_site_fract_z
Si Si1 0.637603 0.158925 0.134930
Si Si2 0.496542 0.162466 0.393926
Si Si3 0.689312 0.663537 0.058368
Si Si4 0.941021 0.664342 0.230994
Si Si5 0.234905 0.741909 0.570133
Si Si6 0.545769 0.165804 0.887610
Si Si7 0.675995 0.661094 0.656290
Si Si8 0.290301 0.500000 0.534102
O O1 0.638083 0.267195 0.082959
O O2 0.547427 0.181639 0.125235
O O3 0.746942 0.168669 0.239401
O O4 0.626835 0.000000 0.105145
O O5 0.477061 0.220893 0.316306
O O6 0.619017 0.174185 0.485982
O O7 0.426422 0.249832 0.393677
O O8 0.464710 0.000000 0.375998
O O9 0.665219 0.500000 0.038697
O O10 0.814969 0.678429 0.145143
O O11 0.643042 0.747315 0.974455
O O12 0.968373 0.500000 0.251812
O O13 0.984971 0.713485 0.196976
O O14 0.236570 0.782769 0.638488
O O15 0.312058 0.623917 0.596266
O O16 0.239029 0.878640 0.533120
O O17 0.571460 0.000000 0.900606
O O18 0.647402 0.500000 0.627767
#
# Coordination Sequence:
#
# PCOD9209575 Si02
#       8
#     8   8   8   8   8   8   8   4
#     4  10  22  40  61  90 121 161 209 257 306 365
#     4  11  23  41  67  92 124 166 214 261 312 374
#     4  11  21  38  62  88 127 159 198 254 315 370
#     4   9  20  39  61  90 121 159 205 259 307 362
#     4  11  23  43  66  95 126 166 209 251 314 380
#     4  10  21  38  63  89 115 162 210 250 306 378
#     4  11  24  41  65  92 126 164 213 269 312 363
#     4  10  24  42  62  92 128 162 200 254 316 368
#
# _framework density 21.408777000000001
#
# number of rings (size 3 to 8) (size 9 to 14) (size 15 to 20)
#    0.000    1.600    2.667    1.600    1.867    5.333 
#    2.400    1.333    2.933    0.000    0.000    0.000 
#    0.000    0.000    0.000    0.000    0.000    0.000 
#
# Total GULP energy -167179.596415 kJ/mol
# GULP energy per Si atom -5572.653214 kJ/mol
# Density = 2.136005 g / cm^3
# Si number density = 21.408777 Si / 1000 Ang^3
#
#
#
# Elastic Constant Matrix: (Units=GPa)
#
#
# Indices 1 2 3 4 5 6 
#
# 1 81.2089 44.5239 5.5978 0.0000 -17.7238 0.0000
# 2 44.5239 103.3185 11.7600 0.0000 -14.9775 0.0000
# 3 5.5978 11.7600 52.8875 0.0000 -10.8610 0.0000
# 4 0.0000 0.0000 0.0000 19.4414 0.0000 -6.6335
# 5 -17.7238 -14.9775 -10.8610 0.0000 32.9686 0.0000
# 6 0.0000 0.0000 0.0000 -6.6335 0.0000 20.7317
#
#
#
# Elastic Compliance Matrix: (Units=1/GPa)
#
#
# Indices 1 2 3 4 5 6 
#
# 1 0.017320 -0.006616 0.001001 0.000000 0.006635 0.000000
# 2 -0.006616 0.012991 -0.001831 0.000000 0.001742 0.000000
# 3 0.001001 -0.001831 0.020538 0.000000 0.006472 0.000000
# 4 0.000000 0.000000 0.000000 0.057740 0.000000 0.018475
# 5 0.006635 0.001742 0.006472 0.000000 0.036823 0.000000
# 6 0.000000 0.000000 0.000000 0.018475 0.000000 0.054147
#
#
# Mechanical properties :
#
#
# Convention : Reuss Voigt Hill
#
# Bulk Modulus (GPa) = 27.81078 40.13092 33.97085
# Shear Modulus (GPa) = 22.08115 26.33053 24.20584
#
# Velocity S-wave (km/s) = 3.21504 3.51079 3.36616
# Velocity P-wave (km/s) = 5.17692 5.93464 5.56868
#
# Compressibility (1/GPa) = 0.03595728
#
# Stress axis : x y z
#
# Youngs Moduli (GPa) = 57.73528 76.97763 48.68931
#
# Poissons Ratio (x) = 0.50929 -0.04871
# Poissons Ratio (y) = 0.38198 0.08913
# Poissons Ratio (z) = -0.05776 0.14092
#
# Static dielectric constant tensor:
#      x y z
#    x 1.811480 0.000000 0.017300 
#    y 0.000000 1.733170 0.000000 
#    z 0.017300 0.000000 1.791370 
# 
# From -- ./inp_files/346586.got.cif
#   From: 2010.05.17/outbox.cif.g08.bks.cpg/sg12_174_cif.got.tgz:346586.got - 2010.06.03 13:09:07.
