data_PCOD9209262
_publ_section_title
;
Structure prediction by ZEFSAII (Michael W. Deem and Ramdas Pophale) SiO2 
 PCOD9209262
Probable space group: C 2/M
;
_chemical_formula_sum "Si O2"
_cell_formula_units_Z 40
_cell_length_a 18.409528
_cell_length_b 29.386928
_cell_length_c 12.183497
_cell_angle_alpha 90.000000
_cell_angle_beta 162.945610
_cell_angle_gamma 90.000000
_cell_volume 1933.082238
_symmetry_space_group_name_H-M "C 2/M"
_symmetry_group_IT_number 12
_symmetry_cell_setting 'monoclinic'
loop_
_space_group_symop_operation_xyz
x,y,z
-x,y,-z
-x,-y,-z
x,-y,z
1/2+x,1/2+y,z
1/2-x,1/2+y,-z
1/2-x,1/2-y,-z
1/2+x,1/2-y,z
loop_
_atom_site_type_symbol
_atom_site_label
_atom_site_fract_x
_atom_site_fract_y
_atom_site_fract_z
Si Si1 0.643688 0.717720 0.942285
Si Si2 0.279627 0.551895 0.090269
Si Si3 0.916946 0.878836 0.597759
Si Si4 0.477875 0.876749 0.784113
Si Si5 0.785073 0.288826 0.389906
O O1 0.585573 0.665871 0.830898
O O2 0.378493 0.742157 0.578315
O O3 0.750000 0.750000 0.000000
O O4 0.792554 0.717441 0.270022
O O5 0.500000 0.550860 0.500000
O O6 0.209317 0.500000 0.964873
O O7 0.409220 0.578307 0.177265
O O8 0.056376 0.581864 0.818052
O O9 0.769792 0.882679 0.500074
O O10 0.704715 0.873630 0.198089
O O11 0.444118 0.830510 0.666679
O O12 0.500000 0.298859 0.000000
#
# Coordination Sequence:
#
# PCOD9209262 Si02
#       5
#     8   8   8   8   8
#     4  12  25  39  60  89 122 164 209 254 306 365
#     4   9  19  37  62  93 123 153 200 261 318 371
#     4  10  21  38  61  91 122 159 207 258 307 367
#     4  10  21  38  63  88 121 164 205 255 311 365
#     4  12  24  40  60  87 123 164 205 254 303 364
#
# _framework density 20.692343000000001
#
# number of rings (size 3 to 8) (size 9 to 14) (size 15 to 20)
#    0.000    1.400    2.000    3.600    2.800    4.000 
#    0.000    4.000    0.000    3.000    0.000    0.000 
#    0.000    0.000    0.000    0.000    0.000    0.000 
#
# Total GULP energy -111700.562488 kJ/mol
# GULP energy per Si atom -5585.028124 kJ/mol
# Density = 2.064525 g / cm^3
# Si number density = 20.692343 Si / 1000 Ang^3
#
#
#
# Elastic Constant Matrix: (Units=GPa)
#
#
# Indices 1 2 3 4 5 6 
#
# 1 127.0032 30.1545 22.8847 0.0002 10.5312 -0.0001
# 2 30.1545 126.2910 12.5911 0.0010 -3.5270 0.0005
# 3 22.8847 12.5911 30.7233 0.0000 5.6381 -0.0003
# 4 0.0002 0.0010 0.0000 23.1105 0.0000 -1.0042
# 5 10.5312 -3.5270 5.6381 0.0000 23.9779 -0.0003
# 6 -0.0001 0.0005 -0.0003 -1.0042 -0.0003 25.8295
#
#
#
# Elastic Compliance Matrix: (Units=1/GPa)
#
#
# Indices 1 2 3 4 5 6 
#
# 1 0.009613 -0.001799 -0.005853 0.000000 -0.003111 0.000000
# 2 -0.001799 0.008695 -0.002720 0.000000 0.002709 0.000000
# 3 -0.005853 -0.002720 0.039321 0.000000 -0.007076 0.000000
# 4 0.000000 0.000000 0.000000 0.043344 0.000000 0.001685
# 5 -0.003111 0.002709 -0.007076 0.000000 0.045133 0.000000
# 6 0.000000 0.000000 0.000000 0.001685 0.000000 0.038781
#
#
# Mechanical properties :
#
#
# Convention : Reuss Voigt Hill
#
# Bulk Modulus (GPa) = 27.11084 46.14200 36.62642
# Shear Modulus (GPa) = 22.94353 29.14273 26.04313
#
# Velocity S-wave (km/s) = 3.33347 3.75691 3.55151
# Velocity P-wave (km/s) = 5.28643 6.41613 5.87848
#
# Compressibility (1/GPa) = 0.03688561
#
# Stress axis : x y z
#
# Youngs Moduli (GPa) = 104.02113 115.01412 25.43141
#
# Poissons Ratio (x) = 0.20688 0.14884
# Poissons Ratio (y) = 0.18711 0.06919
# Poissons Ratio (z) = 0.60880 0.31289
#
# Static dielectric constant tensor:
#      x y z
#    x 1.837440 0.000000 0.082730 
#    y 0.000000 1.691110 0.000000 
#    z 0.082730 0.000000 1.813140 
# 
# From -- ./inp_files/161133.got.cif
#   From: 2010.05.17/outbox.cif.g08.bks.cpg/sg12_81_cif.got.tgz:161133.got - 2010.06.03 13:09:07.
