data_PCOD9209810
_publ_section_title
;
Structure prediction by ZEFSAII (Michael W. Deem and Ramdas Pophale) SiO2 
 PCOD9209810
Probable space group: C 2/M
;
_chemical_formula_sum "Si O2"
_cell_formula_units_Z 32
_cell_length_a 15.801983
_cell_length_b 15.693147
_cell_length_c 18.471231
_cell_angle_alpha 90.000000
_cell_angle_beta 158.009803
_cell_angle_gamma 90.000000
_cell_volume 1715.176952
_symmetry_space_group_name_H-M "C 2/M"
_symmetry_group_IT_number 12
_symmetry_cell_setting 'monoclinic'
loop_
_space_group_symop_operation_xyz
x,y,z
-x,y,-z
-x,-y,-z
x,-y,z
1/2+x,1/2+y,z
1/2-x,1/2+y,-z
1/2-x,1/2-y,-z
1/2+x,1/2-y,z
loop_
_atom_site_type_symbol
_atom_site_label
_atom_site_fract_x
_atom_site_fract_y
_atom_site_fract_z
Si Si1 0.752687 0.644210 0.781822
Si Si2 0.015230 0.000000 0.677220
Si Si3 0.090993 0.902868 0.151046
Si Si4 0.345160 0.000000 0.735114
Si Si5 0.000000 0.717726 0.500000
Si Si6 0.338376 0.500000 0.058221
O O1 0.660196 0.582846 0.770815
O O2 0.786913 0.581640 0.739291
O O3 0.576308 0.718247 0.624233
O O4 0.000000 0.676391 0.000000
O O5 0.973796 0.000000 0.729415
O O6 0.808139 0.000000 0.457744
O O7 0.280510 0.841659 0.333922
O O8 0.185116 0.000000 0.216712
O O9 0.885170 0.919220 0.043563
O O10 0.000000 0.876676 0.000000
O O11 0.600569 0.000000 0.909537
#
# Coordination Sequence:
#
# PCOD9209810 Si02
#       6
#     8   4   8   4   4   4
#     4  11  20  35  61  89 125 160 190 235 288 355
#     4  11  19  36  61  93 119 160 197 228 290 360
#     4   9  22  43  65  84 107 161 207 246 289 341
#     4  11  19  36  60  89 123 160 197 227 288 357
#     4  12  21  37  64  92 116 152 206 235 295 356
#     4  10  21  38  65  86 117 154 200 247 286 346
#
# _framework density 18.656967000000002
#
# number of rings (size 3 to 8) (size 9 to 14) (size 15 to 20)
#    0.750    0.750    5.000    2.625    0.000    2.000 
#    0.000    2.500    0.000    0.000    0.000    0.000 
#    0.000    0.000    0.000    0.000    0.000    0.000 
#
# Total GULP energy -89103.270768 kJ/mol
# GULP energy per Si atom -5568.954423 kJ/mol
# Density = 1.861450 g / cm^3
# Si number density = 18.656967 Si / 1000 Ang^3
#
#
#
# Elastic Constant Matrix: (Units=GPa)
#
#
# Indices 1 2 3 4 5 6 
#
# 1 93.9651 13.2960 28.1732 0.0063 -10.5140 0.0050
# 2 13.2960 92.5018 35.1841 0.0392 3.4062 0.0129
# 3 28.1732 35.1841 104.9798 0.0243 -14.3551 0.0118
# 4 0.0063 0.0392 0.0243 44.4131 0.0171 2.3047
# 5 -10.5140 3.4062 -14.3551 0.0171 30.5081 0.0135
# 6 0.0050 0.0129 0.0118 2.3047 0.0135 -5.9464
#
#
#
# Elastic Compliance Matrix: (Units=1/GPa)
#
#
# Indices 1 2 3 4 5 6 
#
# 1 0.011845 -0.000873 -0.002474 -0.000001 0.003015 0.000009
# 2 -0.000873 0.012828 -0.004598 -0.000008 -0.003897 0.000006
# 3 -0.002474 -0.004598 0.012488 -0.000006 0.005537 0.000023
# 4 -0.000001 -0.000008 -0.000006 0.022072 -0.000018 0.008554
# 5 0.003015 -0.003897 0.005537 -0.000018 0.036858 0.000082
# 6 0.000009 0.000006 0.000023 0.008554 0.000082 -0.164855
#
#
# Mechanical properties :
#
#
# Convention : Reuss Voigt Hill
#
# Bulk Modulus (GPa) = 47.01088 49.41704 48.21396
# Shear Modulus (GPa) = -109.20897 28.11451 -40.54723
#
# Velocity S-wave (km/s) = -7.65913 3.88612 -4.66693
# Velocity P-wave (km/s) = 7.27765 6.83232 1.77252
#
# Compressibility (1/GPa) = 0.02127167
#
# Stress axis : x y z
#
# Youngs Moduli (GPa) = 84.42455 77.95172 80.07853
#
# Poissons Ratio (x) = 0.06802 0.19811
# Poissons Ratio (y) = 0.07367 0.36821
# Poissons Ratio (z) = 0.20887 0.35843
#
# Static dielectric constant tensor:
#      x y z
#    x 1.620700 0.000000 -0.009790 
#    y 0.000000 1.667230 -0.000010 
#    z -0.009790 -0.000010 1.683570 
# 
# From -- ./inp_files/316946.got.cif
#   From: 2010.05.17/outbox.cif.g08.bks.cpg/sg12_159_cif.got.tgz:316946.got - 2010.06.03 13:09:07.
