data_PCOD9209953
_publ_section_title
;
Structure prediction by ZEFSAII (Michael W. Deem and Ramdas Pophale) SiO2 
 PCOD9209953
Probable space group: C 2/M
;
_chemical_formula_sum "Si O2"
_cell_formula_units_Z 44
_cell_length_a 13.884091
_cell_length_b 13.039126
_cell_length_c 20.408514
_cell_angle_alpha 90.000000
_cell_angle_beta 140.980776
_cell_angle_gamma 90.000000
_cell_volume 2326.103329
_symmetry_space_group_name_H-M "C 2/M"
_symmetry_group_IT_number 12
_symmetry_cell_setting 'monoclinic'
loop_
_space_group_symop_operation_xyz
x,y,z
-x,y,-z
-x,-y,-z
x,-y,z
1/2+x,1/2+y,z
1/2-x,1/2+y,-z
1/2-x,1/2-y,-z
1/2+x,1/2-y,z
loop_
_atom_site_type_symbol
_atom_site_label
_atom_site_fract_x
_atom_site_fract_y
_atom_site_fract_z
Si Si1 0.101134 0.116686 0.154456
Si Si2 0.239364 0.118302 0.086855
Si Si3 0.484770 0.716992 0.213119
Si Si4 0.026444 0.000000 0.300377
Si Si5 0.656851 0.836871 0.415523
Si Si6 0.602648 0.000000 0.490258
Si Si7 0.596278 0.500000 0.485992
O O1 0.204463 0.137029 0.145620
O O2 0.100824 0.194701 0.214547
O O3 0.134439 0.000000 0.194273
O O4 0.925363 0.117933 0.035762
O O5 0.342268 0.212228 0.116032
O O6 0.300499 0.000000 0.112613
O O7 0.460525 0.603020 0.231452
O O8 0.553905 0.786554 0.306602
O O9 0.005242 0.000000 0.368374
O O10 0.214448 0.000000 0.395797
O O11 0.750000 0.750000 0.500000
O O12 0.787179 0.905994 0.452555
O O13 0.573495 0.903425 0.427234
O O14 0.500000 0.000000 0.500000
O O15 0.500000 0.500000 0.500000
#
# Coordination Sequence:
#
# PCOD9209953 Si02
#       7
#     8   8   8   4   8   4   4
#     4   9  19  39  60  84 115 148 190 237 286 343
#     4   9  21  37  60  89 112 144 193 241 286 338
#     4  12  20  36  61  84 116 150 191 233 291 331
#     4  10  22  38  54  84 116 150 192 236 272 350
#     4  10  21  39  54  82 114 142 190 234 264 345
#     4  10  22  40  58  79 114 152 190 235 290 321
#     4  10  22  40  54  71 112 154 180 225 288 327
#
# _framework density 18.915754
#
# number of rings (size 3 to 8) (size 9 to 14) (size 15 to 20)
#    0.000    2.182    4.545    1.636    2.545    3.636 
#    0.000    0.000    2.000    1.091    0.000    0.000 
#    0.000    0.000    0.000    0.000    0.000    0.000 
#
# Total GULP energy -122614.919654 kJ/mol
# GULP energy per Si atom -5573.405439 kJ/mol
# Density = 1.887270 g / cm^3
# Si number density = 18.915754 Si / 1000 Ang^3
#
#
#
# Elastic Constant Matrix: (Units=GPa)
#
#
# Indices 1 2 3 4 5 6 
#
# 1 105.8314 38.1339 -0.5062 0.0000 -21.8453 0.0000
# 2 38.1339 122.6779 16.3545 0.0000 -4.8412 0.0000
# 3 -0.5062 16.3545 40.0244 0.0000 -10.5526 0.0000
# 4 0.0000 0.0000 0.0000 32.6374 0.0000 -3.5353
# 5 -21.8453 -4.8412 -10.5526 0.0000 23.2763 0.0000
# 6 0.0000 0.0000 0.0000 -3.5353 0.0000 5.1086
#
#
#
# Elastic Compliance Matrix: (Units=1/GPa)
#
#
# Indices 1 2 3 4 5 6 
#
# 1 0.014296 -0.004656 0.006094 0.000000 0.015211 0.000000
# 2 -0.004656 0.010138 -0.005449 0.000000 -0.004731 0.000000
# 3 0.006094 -0.005449 0.032366 0.000000 0.019259 0.000000
# 4 0.000000 0.000000 0.000000 0.033123 0.000000 0.022922
# 5 0.015211 -0.004731 0.019259 0.000000 0.064986 0.000000
# 6 0.000000 0.000000 0.000000 0.022922 0.000000 0.211611
#
#
# Mechanical properties :
#
#
# Convention : Reuss Voigt Hill
#
# Bulk Modulus (GPa) = 20.50108 41.83310 31.16709
# Shear Modulus (GPa) = 12.79426 26.50788 19.65107
#
# Velocity S-wave (km/s) = 2.60355 3.74754 3.22665
# Velocity P-wave (km/s) = 4.46090 6.39444 5.51310
#
# Compressibility (1/GPa) = 0.04877792
#
# Stress axis : x y z
#
# Youngs Moduli (GPa) = 69.95177 98.63508 30.89643
#
# Poissons Ratio (x) = 0.45923 -0.18827
# Poissons Ratio (y) = 0.32568 0.16835
# Poissons Ratio (z) = -0.42626 0.53746
#
# Static dielectric constant tensor:
#      x y z
#    x 1.647560 0.000000 -0.013530 
#    y 0.000000 1.666030 0.000000 
#    z -0.013530 0.000000 1.704470 
# 
# From -- ./inp_files/212007.got.cif
#   From: 2010.05.17/outbox.cif.g08.bks.cpg/sg12_107_cif.got.tgz:212007.got - 2010.06.03 13:09:07.
