data_PCOD9209473
_publ_section_title
;
Structure prediction by ZEFSAII (Michael W. Deem and Ramdas Pophale) SiO2 
 PCOD9209473
Probable space group: C 2/M
;
_chemical_formula_sum "Si O2"
_cell_formula_units_Z 56
_cell_length_a 8.371167
_cell_length_b 21.145866
_cell_length_c 14.828827
_cell_angle_alpha 90.000000
_cell_angle_beta 84.325563
_cell_angle_gamma 90.000000
_cell_volume 2612.070605
_symmetry_space_group_name_H-M "C 2/M"
_symmetry_group_IT_number 12
_symmetry_cell_setting 'monoclinic'
loop_
_space_group_symop_operation_xyz
x,y,z
-x,y,-z
-x,-y,-z
x,-y,z
1/2+x,1/2+y,z
1/2-x,1/2+y,-z
1/2-x,1/2-y,-z
1/2+x,1/2-y,z
loop_
_atom_site_type_symbol
_atom_site_label
_atom_site_fract_x
_atom_site_fract_y
_atom_site_fract_z
Si Si1 0.344498 0.070474 0.959659
Si Si2 0.741925 0.778702 0.263881
Si Si3 0.895075 0.348032 0.270888
Si Si4 0.840705 0.429519 0.450823
Si Si5 0.416377 0.343827 0.103845
Si Si6 0.163879 0.812654 0.544130
Si Si7 0.309886 0.570899 0.842891
O O1 0.243770 0.113932 0.899987
O O2 0.386057 0.000000 0.921843
O O3 0.500000 0.098647 0.000000
O O4 0.224370 0.062500 0.049756
O O5 0.753250 0.704198 0.283925
O O6 0.565610 0.810483 0.261724
O O7 0.848464 0.786291 0.166891
O O8 0.824943 0.808639 0.348123
O O9 0.886739 0.394105 0.356407
O O10 0.842685 0.393502 0.191810
O O11 0.772201 0.500000 0.439716
O O12 0.735319 0.379670 0.511079
O O13 0.000000 0.436079 0.500000
O O14 0.536873 0.383321 0.160985
O O15 0.500000 0.330307 0.000000
O O16 0.250000 0.750000 0.500000
O O17 0.000000 0.809241 0.500000
O O18 0.334551 0.500000 0.803110
#
# Coordination Sequence:
#
# PCOD9209473 Si02
#       7
#     8   8   8   8   8   8   8
#     4   9  17  34  60  88 124 170 220 271 329 397
#     4  12  25  42  68  98 130 178 232 277 333 412
#     4  12  24  42  66  96 131 175 230 279 336 407
#     4  11  24  45  69 100 143 179 218 282 347 399
#     4  10  22  41  63  98 136 173 222 282 341 397
#     4  12  24  43  73 102 136 182 231 278 332 404
#     4  10  21  38  62  91 127 174 218 269 335 398
#
# _framework density 21.438931
#
# number of rings (size 3 to 8) (size 9 to 14) (size 15 to 20)
#    0.000    1.143    2.857    3.857    2.000    2.000 
#    0.000   10.714    0.000    0.000    0.000    0.000 
#    0.000    0.000    0.000    0.000    0.000    0.000 
#
# Total GULP energy -156051.417093 kJ/mol
# GULP energy per Si atom -5573.264896 kJ/mol
# Density = 2.139014 g / cm^3
# Si number density = 21.438931 Si / 1000 Ang^3
#
#
#
# Elastic Constant Matrix: (Units=GPa)
#
#
# Indices 1 2 3 4 5 6 
#
# 1 93.6863 36.0318 22.8533 0.0000 26.9836 0.0000
# 2 36.0318 130.1624 42.4140 0.0000 4.2885 0.0000
# 3 22.8533 42.4140 97.7864 0.0000 10.5003 0.0000
# 4 0.0000 0.0000 0.0000 -30.8805 0.0000 25.1973
# 5 26.9836 4.2885 10.5003 0.0000 34.1361 0.0000
# 6 0.0000 0.0000 0.0000 25.1973 0.0000 20.0426
#
#
#
# Elastic Compliance Matrix: (Units=1/GPa)
#
#
# Indices 1 2 3 4 5 6 
#
# 1 0.015645 -0.003684 -0.000807 0.000000 -0.011656 0.000000
# 2 -0.003684 0.009815 -0.003699 0.000000 0.002817 0.000000
# 3 -0.000807 -0.003699 0.012307 0.000000 -0.002683 0.000000
# 4 0.000000 0.000000 0.000000 -0.015985 0.000000 0.020096
# 5 -0.011656 0.002817 -0.002683 0.000000 0.038979 0.000000
# 6 0.000000 0.000000 0.000000 0.020096 0.000000 0.024629
#
#
# Mechanical properties :
#
#
# Convention : Reuss Voigt Hill
#
# Bulk Modulus (GPa) = 46.75475 58.24815 52.50145
# Shear Modulus (GPa) = 45.91446 19.34870 32.63158
#
# Velocity S-wave (km/s) = 4.63281 3.00743 3.90561
# Velocity P-wave (km/s) = 7.10443 6.26800 6.69928
#
# Compressibility (1/GPa) = 0.02138820
#
# Stress axis : x y z
#
# Youngs Moduli (GPa) = 63.91979 101.88595 81.25247
#
# Poissons Ratio (x) = 0.37533 0.06556
# Poissons Ratio (y) = 0.23547 0.30052
# Poissons Ratio (z) = 0.05157 0.37684
#
# Static dielectric constant tensor:
#      x y z
#    x 1.796080 0.000000 -0.043430 
#    y 0.000000 1.743180 0.000000 
#    z -0.043430 0.000000 1.821560 
# 
# From -- ./inp_files/197533.got.cif
#   From: 2010.05.17/outbox.cif.g08.bks.cpg/sg12_99_cif.got.tgz:197533.got - 2010.06.03 13:09:07.
