data_PCOD9209630
_publ_section_title
;
Structure prediction by ZEFSAII (Michael W. Deem and Ramdas Pophale) SiO2 
 PCOD9209630
Probable space group: C 2/M
;
_chemical_formula_sum "Si O2"
_cell_formula_units_Z 58
_cell_length_a 18.589038
_cell_length_b 24.285894
_cell_length_c 7.784963
_cell_angle_alpha 90.000000
_cell_angle_beta 46.766771
_cell_angle_gamma 90.000000
_cell_volume 2560.588205
_symmetry_space_group_name_H-M "C 2/M"
_symmetry_group_IT_number 12
_symmetry_cell_setting 'monoclinic'
loop_
_space_group_symop_operation_xyz
x,y,z
-x,y,-z
-x,-y,-z
x,-y,z
1/2+x,1/2+y,z
1/2-x,1/2+y,-z
1/2-x,1/2-y,-z
1/2+x,1/2-y,z
loop_
_atom_site_type_symbol
_atom_site_label
_atom_site_fract_x
_atom_site_fract_y
_atom_site_fract_z
Si Si1 0.891399 0.658140 0.091265
Si Si2 0.964298 0.941857 0.252075
Si Si3 0.001283 0.586374 0.684343
Si Si4 0.319300 0.562730 0.956820
Si Si5 0.250211 0.748257 0.794207
Si Si6 0.795356 0.367870 0.588038
Si Si7 0.500000 0.000000 0.000000
Si Si8 0.606936 0.347896 0.417897
O O1 0.845186 0.716226 0.118200
O O2 0.817018 0.629817 0.349190
O O3 0.906709 0.621627 0.896187
O O4 0.000000 0.663903 0.000000
O O5 0.909024 0.887414 0.394160
O O6 0.909548 0.000000 0.372414
O O7 0.000000 0.940313 0.000000
O O8 0.063927 0.943165 0.200356
O O9 0.000000 0.559388 0.500000
O O10 0.094526 0.626686 0.516803
O O11 0.015173 0.546883 0.824213
O O12 0.283439 0.500000 0.969800
O O13 0.267158 0.584318 0.216595
O O14 0.321372 0.614304 0.820900
O O15 0.254973 0.808245 0.704231
O O16 0.343804 0.708801 0.605517
O O17 0.250000 0.750000 0.000000
O O18 0.500000 0.338991 0.500000
#
# Coordination Sequence:
#
# PCOD9209630 Si02
#       8
#     8   8   8   8   8   8   2   8
#     4  10  24  47  68  95 142 187 234 292 357 422
#     4   9  19  38  61  90 125 164 211 264 331 408
#     4  11  24  45  72 102 141 191 235 298 364 428
#     4  10  21  38  63  92 130 173 212 282 343 406
#     4  12  24  42  69 101 139 178 238 294 347 429
#     4  11  23  43  64 100 136 174 235 288 354 419
#     4  12  22  48  72 102 140 184 256 296 362 426
#     4  10  22  40  62  96 131 173 222 272 341 419
#
# _framework density 22.651046000000001
#
# number of rings (size 3 to 8) (size 9 to 14) (size 15 to 20)
#    0.000    1.517    3.448    1.862    2.897    4.414 
#    0.000    0.000    1.517    0.000    0.000    0.000 
#    0.000    0.000    0.000    0.000    0.000    0.000 
#
# Total GULP energy -161593.669518 kJ/mol
# GULP energy per Si atom -5572.195501 kJ/mol
# Density = 2.259949 g / cm^3
# Si number density = 22.651046 Si / 1000 Ang^3
#
#
#
# Elastic Constant Matrix: (Units=GPa)
#
#
# Indices 1 2 3 4 5 6 
#
# 1 53.4504 8.1840 26.1087 0.0000 4.0597 0.0000
# 2 8.1840 118.8089 41.0441 0.0000 -3.3673 0.0000
# 3 26.1087 41.0441 116.0060 0.0000 20.4948 0.0000
# 4 0.0000 0.0000 0.0000 -18.5926 0.0000 26.6358
# 5 4.0597 -3.3673 20.4948 0.0000 44.4053 0.0000
# 6 0.0000 0.0000 0.0000 26.6358 0.0000 -23.8320
#
#
#
# Elastic Compliance Matrix: (Units=1/GPa)
#
#
# Indices 1 2 3 4 5 6 
#
# 1 0.021029 0.000248 -0.004882 0.000000 0.000350 0.000000
# 2 0.000248 0.009853 -0.003996 0.000000 0.002569 0.000000
# 3 -0.004882 -0.003996 0.012094 0.000000 -0.005438 0.000000
# 4 0.000000 0.000000 0.000000 0.089471 0.000000 0.099997
# 5 0.000350 0.002569 -0.005438 0.000000 0.025193 0.000000
# 6 0.000000 0.000000 0.000000 0.099997 0.000000 0.069801
#
#
# Mechanical properties :
#
#
# Convention : Reuss Voigt Hill
#
# Bulk Modulus (GPa) = 38.88689 48.77102 43.82895
# Shear Modulus (GPa) = 19.74154 14.59139 17.16646
#
# Velocity S-wave (km/s) = 2.95541 2.54083 2.75592
# Velocity P-wave (km/s) = 5.37131 5.49417 5.43309
#
# Compressibility (1/GPa) = 0.02571561
#
# Stress axis : x y z
#
# Youngs Moduli (GPa) = 47.55270 101.49235 82.68828
#
# Poissons Ratio (x) = -0.02517 0.40372
# Poissons Ratio (y) = -0.01180 0.33040
# Poissons Ratio (z) = 0.23217 0.40553
#
# Static dielectric constant tensor:
#      x y z
#    x 1.901990 0.000000 0.005590 
#    y 0.000000 1.843790 0.000000 
#    z 0.005590 0.000000 1.849900 
# 
# From -- ./inp_files/90790.got.cif
#   From: 2010.05.17/outbox.cif.g08.bks.cpg/sg12_46_cif.got.tgz:90790.got - 2010.06.03 13:09:07.
