data_PCOD9209185
_publ_section_title
;
Structure prediction by ZEFSAII (Michael W. Deem and Ramdas Pophale) SiO2 
 PCOD9209185
Probable space group: C 2/M
;
_chemical_formula_sum "Si O2"
_cell_formula_units_Z 48
_cell_length_a 18.558790
_cell_length_b 14.609620
_cell_length_c 16.516003
_cell_angle_alpha 90.000000
_cell_angle_beta 33.432286
_cell_angle_gamma 90.000000
_cell_volume 2467.212603
_symmetry_space_group_name_H-M "C 2/M"
_symmetry_group_IT_number 12
_symmetry_cell_setting 'monoclinic'
loop_
_space_group_symop_operation_xyz
x,y,z
-x,y,-z
-x,-y,-z
x,-y,z
1/2+x,1/2+y,z
1/2-x,1/2+y,-z
1/2-x,1/2-y,-z
1/2+x,1/2-y,z
loop_
_atom_site_type_symbol
_atom_site_label
_atom_site_fract_x
_atom_site_fract_y
_atom_site_fract_z
Si Si1 0.955987 0.891318 0.791421
Si Si2 0.982392 0.390773 0.424960
Si Si3 0.850900 0.268448 0.154330
Si Si4 0.392332 0.389432 0.669944
Si Si5 0.270984 0.610453 0.109796
Si Si6 0.216839 0.194238 0.610680
O O1 0.941643 0.857987 0.712549
O O2 0.094673 0.868617 0.701150
O O3 0.942779 0.000000 0.798670
O O4 0.844036 0.860579 0.959151
O O5 0.972165 0.500000 0.439690
O O6 0.849372 0.355544 0.512288
O O7 0.000000 0.354704 0.500000
O O8 0.116039 0.370784 0.252136
O O9 0.742980 0.338673 0.222310
O O10 0.828124 0.171235 0.129492
O O11 0.826514 0.254399 0.272168
O O12 0.000000 0.297674 0.000000
O O13 0.500000 0.368573 0.500000
O O14 0.374927 0.500000 0.686359
O O15 0.288501 0.500000 0.106472
O O16 0.250000 0.250000 0.500000
#
# Coordination Sequence:
#
# PCOD9209185 Si02
#       6
#     8   8   8   8   8   8
#     4  10  22  42  65  91 124 166 210 259 314 377
#     4  10  21  38  61  88 123 167 209 255 314 375
#     4  12  25  41  63  97 129 170 209 260 322 377
#     4  10  24  46  70  90 121 173 222 262 309 370
#     4  10  22  39  64  96 130 165 205 255 321 390
#     4  12  25  37  58  95 128 164 208 263 313 372
#
# _framework density 19.455152999999999
#
# number of rings (size 3 to 8) (size 9 to 14) (size 15 to 20)
#    0.000    1.333    3.333    1.500    4.667    3.333 
#    0.000    0.833    0.000    0.000    0.000    0.000 
#    0.000    0.000    0.000    0.000    0.000    0.000 
#
# Total GULP energy -134107.237058 kJ/mol
# GULP energy per Si atom -5587.801544 kJ/mol
# Density = 1.941087 g / cm^3
# Si number density = 19.455153 Si / 1000 Ang^3
#
#
#
# Elastic Constant Matrix: (Units=GPa)
#
#
# Indices 1 2 3 4 5 6 
#
# 1 159.8186 30.3438 95.1529 0.0000 0.7554 0.0000
# 2 30.3438 49.8746 33.8863 0.0000 -1.8807 0.0000
# 3 95.1529 33.8863 186.6631 0.0000 -7.9568 0.0000
# 4 0.0000 0.0000 0.0000 19.3970 0.0000 -13.5626
# 5 0.7554 -1.8807 -7.9568 0.0000 43.9586 0.0000
# 6 0.0000 0.0000 0.0000 -13.5626 0.0000 23.7973
#
#
#
# Elastic Compliance Matrix: (Units=1/GPa)
#
#
# Indices 1 2 3 4 5 6 
#
# 1 0.009359 -0.002808 -0.004306 0.000000 -0.001060 0.000000
# 2 -0.002808 0.023716 -0.002851 0.000000 0.000547 0.000000
# 3 -0.004306 -0.002851 0.008131 0.000000 0.001424 0.000000
# 4 0.000000 0.000000 0.000000 0.085709 0.000000 0.048848
# 5 -0.001060 0.000547 0.001424 0.000000 0.023048 0.000000
# 6 0.000000 0.000000 0.000000 0.048848 0.000000 0.069861
#
#
# Mechanical properties :
#
#
# Convention : Reuss Voigt Hill
#
# Bulk Modulus (GPa) = 47.00187 79.45803 63.22995
# Shear Modulus (GPa) = 20.25549 33.22880 26.74215
#
# Velocity S-wave (km/s) = 3.23017 4.13724 3.71152
# Velocity P-wave (km/s) = 6.17442 7.98453 7.13709
#
# Compressibility (1/GPa) = 0.02127575
#
# Stress axis : x y z
#
# Youngs Moduli (GPa) = 106.84681 42.16525 122.99242
#
# Poissons Ratio (x) = 0.11841 0.52964
# Poissons Ratio (y) = 0.30006 0.35059
# Poissons Ratio (z) = 0.46012 0.12019
#
# Static dielectric constant tensor:
#      x y z
#    x 1.646130 0.000000 0.021750 
#    y 0.000000 1.691530 0.000000 
#    z 0.021750 0.000000 1.696070 
# 
# From -- ./inp_files/278027.got.cif
#   From: 2010.05.17/outbox.cif.g08.bks.cpg/sg12_140_cif.got.tgz:278027.got - 2010.06.03 13:09:07.
