data_PCOD9209238
_publ_section_title
;
Structure prediction by ZEFSAII (Michael W. Deem and Ramdas Pophale) SiO2 
 PCOD9209238
Probable space group: C 2/M
;
_chemical_formula_sum "Si O2"
_cell_formula_units_Z 48
_cell_length_a 25.689376
_cell_length_b 14.952436
_cell_length_c 8.732611
_cell_angle_alpha 90.000000
_cell_angle_beta 45.480050
_cell_angle_gamma 90.000000
_cell_volume 2391.679727
_symmetry_space_group_name_H-M "C 2/M"
_symmetry_group_IT_number 12
_symmetry_cell_setting 'monoclinic'
loop_
_space_group_symop_operation_xyz
x,y,z
-x,y,-z
-x,-y,-z
x,-y,z
1/2+x,1/2+y,z
1/2-x,1/2+y,-z
1/2-x,1/2-y,-z
1/2+x,1/2-y,z
loop_
_atom_site_type_symbol
_atom_site_label
_atom_site_fract_x
_atom_site_fract_y
_atom_site_fract_z
Si Si1 0.059544 0.223555 0.079278
Si Si2 0.328373 0.254701 0.423481
Si Si3 0.932902 0.406316 0.751785
Si Si4 0.084849 0.102141 0.598804
Si Si5 0.684646 0.156132 0.237115
Si Si6 0.845618 0.850496 0.851934
O O1 0.052962 0.318479 0.177905
O O2 0.110331 0.163289 0.083756
O O3 0.984079 0.167677 0.225013
O O4 0.105802 0.248242 0.833769
O O5 0.250000 0.250000 0.500000
O O6 0.344375 0.350858 0.470185
O O7 0.332250 0.179490 0.549836
O O8 0.927107 0.500000 0.853019
O O9 0.866354 0.399278 0.770273
O O10 0.000000 0.409688 0.500000
O O11 0.104332 0.102781 0.378093
O O12 0.072356 0.000000 0.675456
O O13 0.673146 0.253796 0.183015
O O14 0.765284 0.115345 0.056695
#
# Coordination Sequence:
#
# PCOD9209238 Si02
#       6
#     8   8   8   8   8   8
#     4  11  21  39  65  93 127 166 207 259 321 383
#     4  11  22  40  63  87 125 174 212 251 317 381
#     4  10  21  38  61  90 120 158 213 267 317 376
#     4  11  25  41  63  96 131 169 214 263 317 379
#     4   9  18  36  59  86 118 163 207 253 314 373
#     4   9  18  35  61  87 120 159 207 256 309 373
#
# _framework density 20.069576999999999
#
# number of rings (size 3 to 8) (size 9 to 14) (size 15 to 20)
#    0.000    1.833    1.667    4.000    2.333    3.333 
#    0.000    1.667    0.000    5.000    0.000    0.000 
#    0.000    0.000    0.000    0.000    0.000    0.000 
#
# Total GULP energy -133619.246402 kJ/mol
# GULP energy per Si atom -5567.468600 kJ/mol
# Density = 2.002390 g / cm^3
# Si number density = 20.069577 Si / 1000 Ang^3
#
#
#
# Elastic Constant Matrix: (Units=GPa)
#
#
# Indices 1 2 3 4 5 6 
#
# 1 89.6766 32.8806 25.2122 0.0000 -20.5401 0.0000
# 2 32.8806 114.3278 28.5126 0.0000 -14.3484 0.0000
# 3 25.2122 28.5126 115.4267 0.0000 -2.2064 0.0000
# 4 0.0000 0.0000 0.0000 1.0362 0.0000 1.6827
# 5 -20.5401 -14.3484 -2.2064 0.0000 35.0918 0.0000
# 6 0.0000 0.0000 0.0000 1.6827 0.0000 13.3144
#
#
#
# Elastic Compliance Matrix: (Units=1/GPa)
#
#
# Indices 1 2 3 4 5 6 
#
# 1 0.014443 -0.002659 -0.002360 0.000000 0.007218 0.000000
# 2 -0.002659 0.010308 -0.001917 0.000000 0.002538 0.000000
# 3 -0.002360 -0.001917 0.009623 0.000000 -0.001560 0.000000
# 4 0.000000 0.000000 0.000000 1.214237 0.000000 -0.153462
# 5 0.007218 0.002538 -0.001560 0.000000 0.033661 0.000000
# 6 0.000000 0.000000 0.000000 -0.153462 0.000000 0.094502
#
#
# Mechanical properties :
#
#
# Convention : Reuss Voigt Hill
#
# Bulk Modulus (GPa) = 48.77683 54.73799 51.75741
# Shear Modulus (GPa) = 3.57787 25.41019 14.49403
#
# Velocity S-wave (km/s) = 1.33664 3.56210 2.69027
# Velocity P-wave (km/s) = 5.17095 6.65217 5.95777
#
# Compressibility (1/GPa) = 0.02050154
#
# Stress axis : x y z
#
# Youngs Moduli (GPa) = 69.23769 97.01041 103.92141
#
# Poissons Ratio (x) = 0.25799 0.24524
# Poissons Ratio (y) = 0.18413 0.19921
# Poissons Ratio (z) = 0.16339 0.18596
#
# Static dielectric constant tensor:
#      x y z
#    x 1.095310 0.000000 0.068140 
#    y 0.000000 1.768080 0.000000 
#    z 0.068140 0.000000 1.734260 
# 
# From -- ./inp_files/104958.got.cif
#   From: 2010.05.17/outbox.cif.g08.bks.cpg/sg12_53_cif.got.tgz:104958.got - 2010.06.03 13:09:07.
