data_PCOD9209268
_publ_section_title
;
Structure prediction by ZEFSAII (Michael W. Deem and Ramdas Pophale) SiO2 
 PCOD9209268
Probable space group: C 2/M
;
_chemical_formula_sum "Si O2"
_cell_formula_units_Z 64
_cell_length_a 11.669806
_cell_length_b 13.042883
_cell_length_c 27.238899
_cell_angle_alpha 90.000000
_cell_angle_beta 137.276158
_cell_angle_gamma 90.000000
_cell_volume 2812.901371
_symmetry_space_group_name_H-M "C 2/M"
_symmetry_group_IT_number 12
_symmetry_cell_setting 'monoclinic'
loop_
_space_group_symop_operation_xyz
x,y,z
-x,y,-z
-x,-y,-z
x,-y,z
1/2+x,1/2+y,z
1/2-x,1/2+y,-z
1/2-x,1/2-y,-z
1/2+x,1/2-y,z
loop_
_atom_site_type_symbol
_atom_site_label
_atom_site_fract_x
_atom_site_fract_y
_atom_site_fract_z
Si Si1 0.672350 0.614169 0.516213
Si Si2 0.480179 0.833616 0.548174
Si Si3 0.128192 0.384720 0.317286
Si Si4 0.685089 0.382085 0.805318
Si Si5 0.800283 0.378100 0.949400
Si Si6 0.323045 0.667258 0.707593
Si Si7 0.267244 0.666046 0.798170
Si Si8 0.556757 0.616505 0.962998
O O1 0.596610 0.500000 0.489634
O O2 0.550986 0.709824 0.465971
O O3 0.816186 0.621781 0.521166
O O4 0.773114 0.627524 0.599637
O O5 0.500000 0.871906 0.500000
O O6 0.644363 0.863410 0.629828
O O7 0.162246 0.500000 0.310014
O O8 0.176965 0.290782 0.297824
O O9 0.926581 0.370006 0.260276
O O10 0.744403 0.500000 0.818145
O O11 0.707741 0.348099 0.869569
O O12 0.486243 0.374723 0.730918
O O13 0.773296 0.290412 0.803762
O O14 0.785799 0.500000 0.947604
O O15 0.700620 0.344305 0.968181
O O16 0.000000 0.359882 0.000000
O O17 0.335146 0.632838 0.767092
O O18 0.385117 0.622955 0.877707
O O19 0.610569 0.500000 0.989802
O O20 0.500000 0.655791 0.000000
#
# Coordination Sequence:
#
# PCOD9209268 Si02
#       8
#     8   8   8   8   8   8   8   8
#     4  10  22  38  60  89 123 165 210 262 331 397
#     4  11  22  39  61  87 126 160 209 274 317 382
#     4  10  21  38  61  91 124 163 212 266 327 391
#     4  10  23  41  63  91 127 172 217 264 325 396
#     4   9  18  38  65  94 129 171 215 265 329 397
#     4  11  22  39  63  91 121 166 217 266 325 386
#     4  11  22  40  64  94 127 167 218 271 326 388
#     4  10  21  40  68 103 138 176 225 280 336 400
#
# _framework density 22.752306999999998
#
# number of rings (size 3 to 8) (size 9 to 14) (size 15 to 20)
#    0.000    1.750    3.750    0.375    0.000    3.000 
#    4.500    2.500    0.000    0.000    0.000    0.000 
#    0.000    0.500    0.000    0.000    0.000    0.000 
#
# Total GULP energy -178475.434858 kJ/mol
# GULP energy per Si atom -5577.357339 kJ/mol
# Density = 2.270052 g / cm^3
# Si number density = 22.752307 Si / 1000 Ang^3
#
#
#
# Elastic Constant Matrix: (Units=GPa)
#
#
# Indices 1 2 3 4 5 6 
#
# 1 110.1936 -19.2068 19.9432 0.0000 0.9671 0.0000
# 2 -19.2068 92.3399 -12.6929 0.0000 -12.5978 0.0000
# 3 19.9432 -12.6929 83.9062 0.0000 -2.6352 0.0000
# 4 0.0000 0.0000 0.0000 25.3859 0.0000 -11.6606
# 5 0.9671 -12.5978 -2.6352 0.0000 37.3574 0.0000
# 6 0.0000 0.0000 0.0000 -11.6606 0.0000 -21.9069
#
#
#
# Elastic Compliance Matrix: (Units=1/GPa)
#
#
# Indices 1 2 3 4 5 6 
#
# 1 0.009752 0.001775 -0.002043 0.000000 0.000202 0.000000
# 2 0.001775 0.011966 0.001517 0.000000 0.004096 0.000000
# 3 -0.002043 0.001517 0.012679 0.000000 0.001459 0.000000
# 4 0.000000 0.000000 0.000000 0.031653 0.000000 -0.016848
# 5 0.000202 0.004096 0.001459 0.000000 0.028247 0.000000
# 6 0.000000 0.000000 0.000000 -0.016848 0.000000 -0.036680
#
#
# Mechanical properties :
#
#
# Convention : Reuss Voigt Hill
#
# Bulk Modulus (GPa) = 27.10358 29.16966 28.13662
# Shear Modulus (GPa) = 74.16337 28.06036 51.11186
#
# Velocity S-wave (km/s) = 5.71548 3.51564 4.74481
# Velocity P-wave (km/s) = 7.44943 5.41554 6.51237
#
# Compressibility (1/GPa) = 0.03689550
#
# Stress axis : x y z
#
# Youngs Moduli (GPa) = 102.53941 83.56900 78.87084
#
# Poissons Ratio (x) = -0.14835 0.16114
# Poissons Ratio (y) = -0.18203 -0.11964
# Poissons Ratio (z) = 0.20950 -0.12676
#
# Static dielectric constant tensor:
#      x y z
#    x 2.631770 0.000000 0.252740 
#    y 0.000000 1.866060 0.000000 
#    z 0.252740 0.000000 1.898880 
# 
# From -- ./inp_files/358491.got.cif
#   From: 2010.05.17/outbox.cif.g08.bks.cpg/sg12_180_cif.got.tgz:358491.got - 2010.06.03 13:09:07.
