data_PCOD9209048
_publ_section_title
;
Structure prediction by ZEFSAII (Michael W. Deem and Ramdas Pophale) SiO2 
 PCOD9209048
Probable space group: C 2/M
;
_chemical_formula_sum "Si O2"
_cell_formula_units_Z 40
_cell_length_a 11.655446
_cell_length_b 13.584730
_cell_length_c 12.174690
_cell_angle_alpha 90.000000
_cell_angle_beta 118.139050
_cell_angle_gamma 90.000000
_cell_volume 1699.850365
_symmetry_space_group_name_H-M "C 2/M"
_symmetry_group_IT_number 12
_symmetry_cell_setting 'monoclinic'
loop_
_space_group_symop_operation_xyz
x,y,z
-x,y,-z
-x,-y,-z
x,-y,z
1/2+x,1/2+y,z
1/2-x,1/2+y,-z
1/2-x,1/2-y,-z
1/2+x,1/2-y,z
loop_
_atom_site_type_symbol
_atom_site_label
_atom_site_fract_x
_atom_site_fract_y
_atom_site_fract_z
Si Si1 0.399494 0.182924 0.864473
Si Si2 0.374320 0.609436 0.330160
Si Si3 0.694192 0.605541 0.215057
Si Si4 0.254829 0.633655 0.513618
Si Si5 0.985102 0.674152 0.327222
O O1 0.259818 0.129617 0.797118
O O2 0.371752 0.299229 0.866933
O O3 0.462562 0.175181 0.773101
O O4 0.500000 0.145947 0.000000
O O5 0.425650 0.500000 0.323697
O O6 0.328767 0.601853 0.437118
O O7 0.455383 0.711747 0.351526
O O8 0.649831 0.500000 0.153107
O O9 0.681958 0.607877 0.342289
O O10 0.847943 0.620415 0.268054
O O11 0.250000 0.750000 0.500000
O O12 0.099221 0.615988 0.442728
#
# Coordination Sequence:
#
# PCOD9209048 Si02
#       5
#     8   8   8   8   8
#     4  10  23  43  62  80 116 157 194 244 294 336
#     4  10  22  38  60  91 119 151 195 236 285 347
#     4  11  23  37  60  90 118 152 195 236 286 346
#     4  11  19  38  59  86 124 155 182 231 290 349
#     4  10  21  38  61  83 119 151 195 235 291 342
#
# _framework density 23.531483000000001
#
# number of rings (size 3 to 8) (size 9 to 14) (size 15 to 20)
#    0.000    1.600    6.000    1.200    0.000    9.600 
#    0.000    3.000    0.000    0.000    0.000    0.000 
#    0.000    0.000    0.000    0.000    0.000    0.000 
#
# Total GULP energy -111760.783559 kJ/mol
# GULP energy per Si atom -5588.039178 kJ/mol
# Density = 2.347792 g / cm^3
# Si number density = 23.531483 Si / 1000 Ang^3
#
#
#
# Elastic Constant Matrix: (Units=GPa)
#
#
# Indices 1 2 3 4 5 6 
#
# 1 87.2091 1.0367 15.4420 0.0000 2.1596 0.0000
# 2 1.0367 139.8733 -0.7350 0.0000 -3.1623 0.0000
# 3 15.4420 -0.7350 59.2332 0.0000 31.1831 0.0000
# 4 0.0000 0.0000 0.0000 -0.8770 0.0000 -14.3611
# 5 2.1596 -3.1623 31.1831 0.0000 26.6314 0.0000
# 6 0.0000 0.0000 0.0000 -14.3611 0.0000 -5.9052
#
#
#
# Elastic Compliance Matrix: (Units=1/GPa)
#
#
# Indices 1 2 3 4 5 6 
#
# 1 0.012548 0.000036 -0.007136 0.000000 0.007343 0.000000
# 2 0.000036 0.007189 -0.000959 0.000000 0.001974 0.000000
# 3 -0.007136 -0.000959 0.048195 0.000000 -0.055967 0.000000
# 4 0.000000 0.000000 0.000000 0.029370 0.000000 -0.071426
# 5 0.007343 0.001974 -0.055967 0.000000 0.102721 0.000000
# 6 0.000000 0.000000 0.000000 -0.071426 0.000000 0.004362
#
#
# Mechanical properties :
#
#
# Convention : Reuss Voigt Hill
#
# Bulk Modulus (GPa) = 19.30083 35.31142 27.30613
# Shear Modulus (GPa) = 21.02826 22.00797 21.51812
#
# Velocity S-wave (km/s) = 2.99259 3.06151 3.02725
# Velocity P-wave (km/s) = 4.49007 5.24745 4.88347
#
# Compressibility (1/GPa) = 0.05181124
#
# Stress axis : x y z
#
# Youngs Moduli (GPa) = 79.69348 139.10818 20.74916
#
# Poissons Ratio (x) = -0.00494 0.14807
# Poissons Ratio (y) = -0.00283 0.01990
# Poissons Ratio (z) = 0.56873 0.13343
#
# Static dielectric constant tensor:
#      x y z
#    x 1.938980 0.000000 0.040800 
#    y 0.000000 1.918060 0.000000 
#    z 0.040800 0.000000 1.869530 
# 
# From -- ./inp_files/129577.got.cif
#   From: 2010.05.17/outbox.cif.g08.bks.cpg/sg12_65_cif.got.tgz:129577.got - 2010.06.03 13:09:07.
