data_PCOD9209920
_publ_section_title
;
Structure prediction by ZEFSAII (Michael W. Deem and Ramdas Pophale) SiO2 
 PCOD9209920
Probable space group: C 2/M
;
_chemical_formula_sum "Si O2"
_cell_formula_units_Z 60
_cell_length_a 25.377308
_cell_length_b 12.303852
_cell_length_c 14.650968
_cell_angle_alpha 90.000000
_cell_angle_beta 141.046959
_cell_angle_gamma 90.000000
_cell_volume 2875.973309
_symmetry_space_group_name_H-M "C 2/M"
_symmetry_group_IT_number 12
_symmetry_cell_setting 'monoclinic'
loop_
_space_group_symop_operation_xyz
x,y,z
-x,y,-z
-x,-y,-z
x,-y,z
1/2+x,1/2+y,z
1/2-x,1/2+y,-z
1/2-x,1/2-y,-z
1/2+x,1/2-y,z
loop_
_atom_site_type_symbol
_atom_site_label
_atom_site_fract_x
_atom_site_fract_y
_atom_site_fract_z
Si Si1 0.060797 0.815224 0.003186
Si Si2 0.692322 0.168787 0.248498
Si Si3 0.442906 0.877759 0.781419
Si Si4 0.836973 0.685948 0.115501
Si Si5 0.624351 0.730308 0.471517
Si Si6 0.175955 0.500000 0.058652
Si Si7 0.545011 0.382546 0.780153
Si Si8 0.402311 0.120351 0.394799
O O1 0.062398 0.880078 0.911913
O O2 0.017144 0.699884 0.916169
O O3 0.151192 0.784529 0.164191
O O4 0.000000 0.861037 0.000000
O O5 0.626921 0.121793 0.234029
O O6 0.782732 0.184912 0.415139
O O7 0.695613 0.094049 0.163942
O O8 0.402721 0.820677 0.639354
O O9 0.475077 0.000000 0.807887
O O10 0.907528 0.778633 0.196289
O O11 0.851565 0.632642 0.233324
O O12 0.750000 0.750000 0.000000
O O13 0.839543 0.596203 0.040021
O O14 0.553386 0.638334 0.367921
O O15 0.620639 0.787260 0.564675
O O16 0.571292 0.500000 0.777611
O O17 0.500000 0.129671 0.500000
O O18 0.389007 0.000000 0.416960
#
# Coordination Sequence:
#
# PCOD9209920 Si02
#       8
#     8   8   8   8   8   4   8   8
#     4   9  21  39  63  93 130 168 219 273 319 383
#     4  11  22  39  65 101 129 168 216 266 331 387
#     4  10  21  38  67  98 132 166 215 272 325 379
#     4  12  26  46  67  98 129 168 222 273 328 381
#     4  11  24  43  62  94 136 175 211 259 322 395
#     4  12  24  42  74  97 132 162 215 288 328 372
#     4  11  25  44  63  93 133 176 213 262 323 396
#     4  11  23  43  69  95 126 166 220 271 325 382
#
# _framework density 20.862501999999999
#
# number of rings (size 3 to 8) (size 9 to 14) (size 15 to 20)
#    0.000    1.200    4.000    1.600    2.800    1.067 
#    0.000    1.333    0.000    0.800    0.000    0.000 
#    0.000    0.000    0.000    0.000    0.000    0.000 
#
# Total GULP energy -167211.035964 kJ/mol
# GULP energy per Si atom -5573.701199 kJ/mol
# Density = 2.081502 g / cm^3
# Si number density = 20.862502 Si / 1000 Ang^3
#
#
#
# Elastic Constant Matrix: (Units=GPa)
#
#
# Indices 1 2 3 4 5 6 
#
# 1 30.8814 9.9867 11.2962 0.0000 -3.9369 0.0000
# 2 9.9867 103.7619 -1.1717 0.0000 2.2313 0.0000
# 3 11.2962 -1.1717 72.8719 0.0000 5.1209 0.0000
# 4 0.0000 0.0000 0.0000 1.9766 0.0000 -0.9398
# 5 -3.9369 2.2313 5.1209 0.0000 48.4711 0.0000
# 6 0.0000 0.0000 0.0000 -0.9398 0.0000 8.1824
#
#
#
# Elastic Compliance Matrix: (Units=1/GPa)
#
#
# Indices 1 2 3 4 5 6 
#
# 1 0.036203 -0.003632 -0.005933 0.000000 0.003734 0.000000
# 2 -0.003632 0.010014 0.000783 0.000000 -0.000839 0.000000
# 3 -0.005933 0.000783 0.014801 0.000000 -0.002082 0.000000
# 4 0.000000 0.000000 0.000000 0.535153 0.000000 0.061464
# 5 0.003734 -0.000839 -0.002082 0.000000 0.021193 0.000000
# 6 0.000000 0.000000 0.000000 0.061464 0.000000 0.129273
#
#
# Mechanical properties :
#
#
# Convention : Reuss Voigt Hill
#
# Bulk Modulus (GPa) = 23.01247 27.52640 25.26944
# Shear Modulus (GPa) = 6.42109 24.21962 15.32035
#
# Velocity S-wave (km/s) = 1.75627 3.41092 2.71283
# Velocity P-wave (km/s) = 3.89450 5.36053 4.68522
#
# Compressibility (1/GPa) = 0.04345469
#
# Stress axis : x y z
#
# Youngs Moduli (GPa) = 27.62231 99.86161 67.56192
#
# Poissons Ratio (x) = 0.36267 0.40083
# Poissons Ratio (y) = 0.10032 -0.05290
# Poissons Ratio (z) = 0.16388 -0.07818
#
# Static dielectric constant tensor:
#      x y z
#    x 1.764820 0.000000 0.021430 
#    y 0.000000 1.758300 0.000000 
#    z 0.021430 0.000000 1.726730 
# 
# From -- ./inp_files/245962.got.cif
#   From: 2010.05.17/outbox.cif.g08.bks.cpg/sg12_123_cif.got.tgz:245962.got - 2010.06.03 13:09:07.
