data_PCOD9209815
_publ_section_title
;
Structure prediction by ZEFSAII (Michael W. Deem and Ramdas Pophale) SiO2 
 PCOD9209815
Probable space group: C 2/M
;
_chemical_formula_sum "Si O2"
_cell_formula_units_Z 64
_cell_length_a 14.540564
_cell_length_b 29.018655
_cell_length_c 8.112685
_cell_angle_alpha 90.000000
_cell_angle_beta 122.113966
_cell_angle_gamma 90.000000
_cell_volume 2899.363326
_symmetry_space_group_name_H-M "C 2/M"
_symmetry_group_IT_number 12
_symmetry_cell_setting 'monoclinic'
loop_
_space_group_symop_operation_xyz
x,y,z
-x,y,-z
-x,-y,-z
x,-y,z
1/2+x,1/2+y,z
1/2-x,1/2+y,-z
1/2-x,1/2-y,-z
1/2+x,1/2-y,z
loop_
_atom_site_type_symbol
_atom_site_label
_atom_site_fract_x
_atom_site_fract_y
_atom_site_fract_z
Si Si1 0.467525 0.706615 0.658540
Si Si2 0.378020 0.205520 0.460997
Si Si3 0.682211 0.313196 0.034206
Si Si4 0.727538 0.111717 0.098667
Si Si5 0.168836 0.607115 0.426320
Si Si6 0.554643 0.445976 0.732808
Si Si7 0.391927 0.383699 0.765044
Si Si8 0.467845 0.052075 0.164980
O O1 0.500000 0.699940 0.500000
O O2 0.386996 0.749926 0.587025
O O3 0.412043 0.659531 0.661874
O O4 0.578081 0.714856 0.868969
O O5 0.500000 0.203739 0.500000
O O6 0.276972 0.209326 0.235950
O O7 0.361382 0.157371 0.535917
O O8 0.625879 0.355034 0.083841
O O9 0.741470 0.338153 0.938720
O O10 0.695506 0.111919 0.258771
O O11 0.830147 0.078743 0.171363
O O12 0.627743 0.088931 0.905998
O O13 0.277854 0.592269 0.620981
O O14 0.072881 0.570984 0.357534
O O15 0.500000 0.440593 0.500000
O O16 0.565079 0.500000 0.777507
O O17 0.482463 0.420523 0.801610
O O18 0.437370 0.000000 0.180599
O O19 0.500000 0.051473 0.000000
#
# Coordination Sequence:
#
# PCOD9209815 Si02
#       8
#     8   8   8   8   8   8   8   8
#     4  11  23  42  69  94 129 170 226 276 335 407
#     4  10  24  44  64  96 130 169 224 281 335 401
#     4  11  24  41  68  93 132 178 214 277 344 395
#     4  11  20  38  64  95 127 174 219 268 333 393
#     4  10  21  38  65  89 128 170 215 271 327 398
#     4  11  22  37  66 102 133 171 225 277 328 402
#     4  11  22  42  63  94 128 172 217 266 341 392
#     4   9  19  35  58  90 124 164 214 267 320 383
#
# _framework density 22.073813000000001
#
# number of rings (size 3 to 8) (size 9 to 14) (size 15 to 20)
#    0.000    1.500    2.500    2.625    0.000    5.000 
#    0.000   14.375    0.000    7.875    0.000    0.000 
#    0.000    0.000    0.000    0.000    0.000    0.000 
#
# Total GULP energy -178857.543769 kJ/mol
# GULP energy per Si atom -5589.298243 kJ/mol
# Density = 2.202357 g / cm^3
# Si number density = 22.073813 Si / 1000 Ang^3
#
#
#
# Elastic Constant Matrix: (Units=GPa)
#
#
# Indices 1 2 3 4 5 6 
#
# 1 69.6620 3.4196 26.7589 0.0000 21.3899 0.0000
# 2 3.4196 59.1345 21.0804 0.0000 20.5316 0.0000
# 3 26.7589 21.0804 104.3332 0.0000 34.6847 0.0000
# 4 0.0000 0.0000 0.0000 23.6572 0.0000 -2.5580
# 5 21.3899 20.5316 34.6847 0.0000 47.0917 0.0000
# 6 0.0000 0.0000 0.0000 -2.5580 0.0000 -5.7760
#
#
#
# Elastic Compliance Matrix: (Units=1/GPa)
#
#
# Indices 1 2 3 4 5 6 
#
# 1 0.017392 0.002357 -0.002607 0.000000 -0.007007 0.000000
# 2 0.002357 0.020427 -0.001874 0.000000 -0.008596 0.000000
# 3 -0.002607 -0.001874 0.013198 0.000000 -0.007720 0.000000
# 4 0.000000 0.000000 0.000000 0.040339 0.000000 -0.017865
# 5 -0.007007 -0.008596 -0.007720 0.000000 0.033852 0.000000
# 6 0.000000 0.000000 0.000000 -0.017865 0.000000 -0.165218
#
#
# Mechanical properties :
#
#
# Convention : Reuss Voigt Hill
#
# Bulk Modulus (GPa) = 21.38207 37.29415 29.33811
# Shear Modulus (GPa) = -247.88346 25.11928 -111.38209
#
# Velocity S-wave (km/s) = -10.60855 3.37704 -7.11115
# Velocity P-wave (km/s) = 11.84683 5.66901 7.35560
#
# Compressibility (1/GPa) = 0.04676817
#
# Stress axis : x y z
#
# Youngs Moduli (GPa) = 57.49621 48.95492 75.76665
#
# Poissons Ratio (x) = -0.11537 0.19756
# Poissons Ratio (y) = -0.13549 0.14198
# Poissons Ratio (z) = 0.14992 0.09174
#
# Static dielectric constant tensor:
#      x y z
#    x 1.822120 0.000000 -0.002270 
#    y 0.000000 1.776710 0.000000 
#    z -0.002270 0.000000 1.897650 
# 
# From -- ./inp_files/68279.got.cif
#   From: 2010.05.17/outbox.cif.g08.bks.cpg/sg12_35_cif.got.tgz:68279.got - 2010.06.03 13:09:07.
