data_PCOD9209097
_publ_section_title
;
Structure prediction by ZEFSAII (Michael W. Deem and Ramdas Pophale) SiO2 
 PCOD9209097
Probable space group: C 2/M
;
_chemical_formula_sum "Si O2"
_cell_formula_units_Z 48
_cell_length_a 18.514295
_cell_length_b 15.061312
_cell_length_c 15.873913
_cell_angle_alpha 90.000000
_cell_angle_beta 149.615775
_cell_angle_gamma 90.000000
_cell_volume 2238.873753
_symmetry_space_group_name_H-M "C 2/M"
_symmetry_group_IT_number 12
_symmetry_cell_setting 'monoclinic'
loop_
_space_group_symop_operation_xyz
x,y,z
-x,y,-z
-x,-y,-z
x,-y,z
1/2+x,1/2+y,z
1/2-x,1/2+y,-z
1/2-x,1/2-y,-z
1/2+x,1/2-y,z
loop_
_atom_site_type_symbol
_atom_site_label
_atom_site_fract_x
_atom_site_fract_y
_atom_site_fract_z
Si Si1 0.607233 0.608499 0.034460
Si Si2 0.598637 0.897427 0.874195
Si Si3 0.914188 0.105545 0.174477
Si Si4 0.066865 0.642342 0.649275
Si Si5 0.920602 0.833801 0.501358
Si Si6 0.895808 0.393615 0.815740
O O1 0.624115 0.500000 0.055199
O O2 0.764534 0.649622 0.199547
O O3 0.500000 0.635037 0.000000
O O4 0.549796 0.633697 0.884135
O O5 0.558668 0.896444 0.735305
O O6 0.479265 0.860542 0.816373
O O7 0.610894 0.000000 0.913988
O O8 0.757535 0.856656 0.041839
O O9 0.029489 0.124075 0.360938
O O10 0.895280 0.000000 0.149946
O O11 0.000000 0.595477 0.500000
O O12 0.981179 0.734296 0.567792
O O13 0.752685 0.843612 0.321536
O O14 0.000000 0.875451 0.500000
O O15 0.863481 0.500000 0.775777
O O16 0.000000 0.382500 0.000000
#
# Coordination Sequence:
#
# PCOD9209097 Si02
#       6
#     8   8   8   8   8   8
#     4   9  19  37  62  90 117 149 191 237 285 337
#     4   9  19  36  58  83 111 148 192 235 283 337
#     4   9  18  35  59  86 115 148 189 236 285 338
#     4  10  22  38  54  81 119 156 194 231 282 344
#     4  11  23  37  54  82 117 152 193 234 284 345
#     4  10  21  38  61  87 113 146 191 241 291 342
#
# _framework density 21.439352
#
# number of rings (size 3 to 8) (size 9 to 14) (size 15 to 20)
#    0.000    2.333    0.000    3.000    0.000    8.667 
#    0.000   11.667    0.000    0.000    0.000    0.000 
#    0.000    0.000    0.000    0.000    0.000    0.000 
#
# Total GULP energy -133960.935559 kJ/mol
# GULP energy per Si atom -5581.705648 kJ/mol
# Density = 2.139055 g / cm^3
# Si number density = 21.439352 Si / 1000 Ang^3
#
#
#
# Elastic Constant Matrix: (Units=GPa)
#
#
# Indices 1 2 3 4 5 6 
#
# 1 180.3697 22.8440 78.1817 -0.0002 19.4776 -0.0001
# 2 22.8440 46.3614 15.6866 -0.0001 16.8742 0.0000
# 3 78.1817 15.6866 131.1972 -0.0002 -0.1684 -0.0001
# 4 -0.0002 -0.0001 -0.0002 -5.1946 -0.0001 -2.5251
# 5 19.4776 16.8742 -0.1684 -0.0001 33.5765 -0.0001
# 6 -0.0001 0.0000 -0.0001 -2.5251 -0.0001 22.9299
#
#
#
# Elastic Compliance Matrix: (Units=1/GPa)
#
#
# Indices 1 2 3 4 5 6 
#
# 1 0.008197 -0.000830 -0.004791 0.000000 -0.004362 0.000000
# 2 -0.000830 0.027873 -0.002855 0.000000 -0.013541 0.000000
# 3 -0.004791 -0.002855 0.010824 0.000000 0.004268 0.000000
# 4 0.000000 0.000000 0.000000 -0.182725 -0.000001 -0.020122
# 5 -0.004362 -0.013541 0.004268 -0.000001 0.039139 0.000000
# 6 0.000000 0.000000 0.000000 -0.020122 0.000000 0.041395
#
#
# Mechanical properties :
#
#
# Convention : Reuss Voigt Hill
#
# Bulk Modulus (GPa) = 33.39888 65.70588 49.55238
# Shear Modulus (GPa) = -176.29013 26.34342 -74.97335
#
# Velocity S-wave (km/s) = -9.07777 3.50914 -5.91996
# Velocity P-wave (km/s) = 9.70888 6.86532 4.85436
#
# Compressibility (1/GPa) = 0.02994112
#
# Stress axis : x y z
#
# Youngs Moduli (GPa) = 121.99551 35.87662 92.38748
#
# Poissons Ratio (x) = 0.02979 0.44263
# Poissons Ratio (y) = 0.10130 0.26379
# Poissons Ratio (z) = 0.58448 0.10244
#
# Static dielectric constant tensor:
#      x y z
#    x 1.787400 0.000000 -0.019980 
#    y 0.000000 1.841060 0.000000 
#    z -0.019980 0.000000 1.754620 
# 
# From -- ./inp_files/112941.got.cif
#   From: 2010.05.17/outbox.cif.g08.bks.cpg/sg12_57_cif.got.tgz:112941.got - 2010.06.03 13:09:07.
