data_PCOD9209002
_publ_section_title
;
Structure prediction by ZEFSAII (Michael W. Deem and Ramdas Pophale) SiO2 
 PCOD9209002
Probable space group: C 2/M
;
_chemical_formula_sum "Si O2"
_cell_formula_units_Z 44
_cell_length_a 13.901018
_cell_length_b 13.352809
_cell_length_c 12.141148
_cell_angle_alpha 90.000000
_cell_angle_beta 111.175786
_cell_angle_gamma 90.000000
_cell_volume 2101.439603
_symmetry_space_group_name_H-M "C 2/M"
_symmetry_group_IT_number 12
_symmetry_cell_setting 'monoclinic'
loop_
_space_group_symop_operation_xyz
x,y,z
-x,y,-z
-x,-y,-z
x,-y,z
1/2+x,1/2+y,z
1/2-x,1/2+y,-z
1/2-x,1/2-y,-z
1/2+x,1/2-y,z
loop_
_atom_site_type_symbol
_atom_site_label
_atom_site_fract_x
_atom_site_fract_y
_atom_site_fract_z
Si Si1 0.500000 0.732135 0.000000
Si Si2 0.715157 0.381211 0.056902
Si Si3 0.026834 0.763187 0.246587
Si Si4 0.750498 0.799837 0.702414
Si Si5 0.597731 0.111383 0.461547
Si Si6 0.314793 0.380111 0.200723
O O1 0.398639 0.664039 0.972112
O O2 0.492576 0.787387 0.880773
O O3 0.710314 0.500000 0.059396
O O4 0.780027 0.345878 0.190251
O O5 0.742243 0.356301 0.940506
O O6 0.131392 0.826975 0.273469
O O7 0.057620 0.681658 0.348202
O O8 0.930157 0.833146 0.238025
O O9 0.683368 0.835969 0.573040
O O10 0.738701 0.681413 0.723078
O O11 0.500000 0.101083 0.500000
O O12 0.631000 0.000000 0.439906
O O13 0.317415 0.500000 0.215625
#
# Coordination Sequence:
#
# PCOD9209002 Si02
#       6
#     4   8   8   8   8   8
#     4   8  17  32  59  86 118 152 187 244 297 342
#     4   9  17  31  56  88 119 152 194 238 288 348
#     4  10  21  40  61  87 118 155 194 242 295 353
#     4  11  21  37  61  87 119 155 197 240 295 351
#     4  11  23  40  60  81 115 158 199 241 289 349
#     4  10  21  38  60  89 123 155 192 246 298 346
#
# _framework density 20.938026000000001
#
# number of rings (size 3 to 8) (size 9 to 14) (size 15 to 20)
#    0.000    2.000    1.818    1.909    0.000    5.818 
#    0.000    2.273    0.000    0.000    0.000    0.000 
#    0.000    0.000    0.000    0.000    0.000    0.000 
#
# Total GULP energy -122694.870901 kJ/mol
# GULP energy per Si atom -5577.039586 kJ/mol
# Density = 2.089037 g / cm^3
# Si number density = 20.938026 Si / 1000 Ang^3
#
#
#
# Elastic Constant Matrix: (Units=GPa)
#
#
# Indices 1 2 3 4 5 6 
#
# 1 38.9433 -4.1532 -20.7383 0.0000 11.3988 0.0000
# 2 -4.1532 90.0974 62.1095 0.0000 1.0056 0.0000
# 3 -20.7383 62.1095 129.9665 0.0000 15.1974 0.0000
# 4 0.0000 0.0000 0.0000 -305.0209 0.0000 107.6649
# 5 11.3988 1.0056 15.1974 0.0000 22.6894 0.0000
# 6 0.0000 0.0000 0.0000 107.6649 0.0000 -27.2237
#
#
#
# Elastic Compliance Matrix: (Units=1/GPa)
#
#
# Indices 1 2 3 4 5 6 
#
# 1 0.040283 -0.006808 0.013033 0.000000 -0.028666 0.000000
# 2 -0.006808 0.018232 -0.010963 0.000000 0.009955 0.000000
# 3 0.013033 -0.010963 0.017058 0.000000 -0.017487 0.000000
# 4 0.000000 0.000000 0.000000 0.008280 0.000000 0.032745
# 5 -0.028666 0.009955 -0.017487 0.000000 0.069746 0.000000
# 6 0.000000 0.000000 0.000000 0.032745 0.000000 0.092770
#
#
# Mechanical properties :
#
#
# Convention : Reuss Voigt Hill
#
# Bulk Modulus (GPa) = 15.12912 37.04925 26.08918
# Shear Modulus (GPa) = 17.99362 -47.12509 -14.56574
#
# Velocity S-wave (km/s) = 2.93469 -4.74929 -2.64040
# Velocity P-wave (km/s) = 4.32719 3.51301 1.78652
#
# Compressibility (1/GPa) = 0.06609770
#
# Stress axis : x y z
#
# Youngs Moduli (GPa) = 24.82417 54.84960 58.62395
#
# Poissons Ratio (x) = 0.37340 -0.76405
# Poissons Ratio (y) = 0.16899 0.64270
# Poissons Ratio (z) = -0.32354 0.60132
#
# Static dielectric constant tensor:
#      x y z
#    x 1.777410 0.000000 -0.013060 
#    y 0.000000 1.755530 0.000000 
#    z -0.013060 0.000000 1.816460 
# 
# From -- ./inp_files/143253.got.cif
#   From: 2010.05.17/outbox.cif.g08.bks.cpg/sg12_72_cif.got.tgz:143253.got - 2010.06.03 13:09:07.
