data_PCOD9209964
_publ_section_title
;
Structure prediction by ZEFSAII (Michael W. Deem and Ramdas Pophale) SiO2 
 PCOD9209964
Probable space group: C 2/M
;
_chemical_formula_sum "Si O2"
_cell_formula_units_Z 64
_cell_length_a 24.882496
_cell_length_b 19.892403
_cell_length_c 18.829764
_cell_angle_alpha 90.000000
_cell_angle_beta 158.463892
_cell_angle_gamma 90.000000
_cell_volume 3421.335570
_symmetry_space_group_name_H-M "C 2/M"
_symmetry_group_IT_number 12
_symmetry_cell_setting 'monoclinic'
loop_
_space_group_symop_operation_xyz
x,y,z
-x,y,-z
-x,-y,-z
x,-y,z
1/2+x,1/2+y,z
1/2-x,1/2+y,-z
1/2-x,1/2-y,-z
1/2+x,1/2-y,z
loop_
_atom_site_type_symbol
_atom_site_label
_atom_site_fract_x
_atom_site_fract_y
_atom_site_fract_z
Si Si1 0.538127 0.422918 0.395208
Si Si2 0.739815 0.778992 0.673400
Si Si3 0.343952 0.574982 0.767949
Si Si4 0.925720 0.872444 0.718908
Si Si5 0.053126 0.207942 0.646511
Si Si6 0.150444 0.697866 0.328469
Si Si7 0.354702 0.735605 0.973601
Si Si8 0.136613 0.578894 0.214356
O O1 0.497098 0.500000 0.359342
O O2 0.552362 0.410350 0.328237
O O3 0.440576 0.364776 0.308922
O O4 0.705233 0.410365 0.627734
O O5 0.751884 0.859191 0.676902
O O6 0.574035 0.751623 0.472362
O O7 0.818992 0.740541 0.706011
O O8 0.816524 0.761569 0.842772
O O9 0.284739 0.500000 0.710342
O O10 0.374097 0.582975 0.721059
O O11 0.500000 0.580903 0.000000
O O12 0.803261 0.812310 0.559326
O O13 0.078404 0.837212 0.927104
O O14 0.000000 0.199019 0.500000
O O15 0.208310 0.244938 0.834913
O O16 0.133399 0.620880 0.281474
O O17 0.990644 0.716485 0.160426
O O18 0.124617 0.500000 0.213125
O O19 0.000000 0.601145 0.000000
#
# Coordination Sequence:
#
# PCOD9209964 Si02
#       8
#     8   8   8   8   8   8   8   8
#     4  10  21  39  57  82 124 164 200 243 294 354
#     4  11  19  40  60  86 120 150 196 245 295 349
#     4  11  22  37  63  93 118 150 198 251 301 352
#     4  11  21  37  60  93 117 154 192 253 299 353
#     4  10  23  38  59  89 120 159 204 241 292 351
#     4  11  20  33  61  85 117 151 195 241 301 345
#     4  11  22  35  59  91 117 153 200 252 288 348
#     4   9  17  29  51  80 111 150 192 236 286 338
#
# _framework density 18.706143999999998
#
# number of rings (size 3 to 8) (size 9 to 14) (size 15 to 20)
#    0.000    1.500    5.000    1.875    1.750    1.250 
#    0.000    0.625    0.000    6.375    0.000    0.000 
#    0.000    0.000    0.000    0.000    0.000    0.000 
#
# Total GULP energy -178460.418272 kJ/mol
# GULP energy per Si atom -5576.888071 kJ/mol
# Density = 1.866357 g / cm^3
# Si number density = 18.706144 Si / 1000 Ang^3
#
#
#
# Elastic Constant Matrix: (Units=GPa)
#
#
# Indices 1 2 3 4 5 6 
#
# 1 43.3432 17.4610 24.4547 -0.0001 6.1998 0.0000
# 2 17.4610 89.9353 24.7636 -0.0001 12.8306 -0.0001
# 3 24.4547 24.7636 99.0775 -0.0002 5.5504 -0.0001
# 4 -0.0001 -0.0001 -0.0002 -4.1412 -0.0001 8.4725
# 5 6.1998 12.8306 5.5504 -0.0001 21.5041 -0.0001
# 6 0.0000 -0.0001 -0.0001 8.4725 -0.0001 10.4595
#
#
#
# Elastic Compliance Matrix: (Units=1/GPa)
#
#
# Indices 1 2 3 4 5 6 
#
# 1 0.028392 -0.003199 -0.005942 0.000000 -0.004743 0.000000
# 2 -0.003199 0.013253 -0.002163 0.000000 -0.006427 0.000000
# 3 -0.005942 -0.002163 0.012107 0.000000 -0.000121 0.000000
# 4 0.000000 0.000000 0.000000 -0.090876 0.000000 0.073611
# 5 -0.004743 -0.006427 -0.000121 0.000000 0.051736 0.000000
# 6 0.000000 0.000000 0.000000 0.073611 0.000000 0.035980
#
#
# Mechanical properties :
#
#
# Convention : Reuss Voigt Hill
#
# Bulk Modulus (GPa) = 32.11036 40.63494 36.37265
# Shear Modulus (GPa) = 59.82201 16.60961 38.21581
#
# Velocity S-wave (km/s) = 5.66121 2.98304 4.52481
# Velocity P-wave (km/s) = 7.74179 5.79953 6.83995
#
# Compressibility (1/GPa) = 0.03114259
#
# Stress axis : x y z
#
# Youngs Moduli (GPa) = 35.22154 75.45684 82.59572
#
# Poissons Ratio (x) = 0.24142 0.49082
# Poissons Ratio (y) = 0.11269 0.17863
# Poissons Ratio (z) = 0.20930 0.16319
#
# Static dielectric constant tensor:
#      x y z
#    x 1.648890 0.000000 -0.045640 
#    y 0.000000 1.694840 0.000000 
#    z -0.045640 0.000000 1.698830 
# 
# From -- ./inp_files/328641.got.cif
#   From: 2010.05.17/outbox.cif.g08.bks.cpg/sg12_165_cif.got.tgz:328641.got - 2010.06.03 13:09:07.
