data_PCOD9209620
_publ_section_title
;
Structure prediction by ZEFSAII (Michael W. Deem and Ramdas Pophale) SiO2 
 PCOD9209620
Probable space group: C 2/M
;
_chemical_formula_sum "Si O2"
_cell_formula_units_Z 48
_cell_length_a 22.004901
_cell_length_b 13.760331
_cell_length_c 19.588934
_cell_angle_alpha 90.000000
_cell_angle_beta 23.594711
_cell_angle_gamma 90.000000
_cell_volume 2374.138837
_symmetry_space_group_name_H-M "C 2/M"
_symmetry_group_IT_number 12
_symmetry_cell_setting 'monoclinic'
loop_
_space_group_symop_operation_xyz
x,y,z
-x,y,-z
-x,-y,-z
x,-y,z
1/2+x,1/2+y,z
1/2-x,1/2+y,-z
1/2-x,1/2-y,-z
1/2+x,1/2-y,z
loop_
_atom_site_type_symbol
_atom_site_label
_atom_site_fract_x
_atom_site_fract_y
_atom_site_fract_z
Si Si1 0.466429 0.182777 0.361429
Si Si2 0.916341 0.741417 0.020875
Si Si3 0.865144 0.613364 0.942566
Si Si4 0.627756 0.390926 0.724207
Si Si5 0.988766 0.891807 0.715602
Si Si6 0.851356 0.611583 0.700259
O O1 0.305016 0.134095 0.540200
O O2 0.454937 0.298617 0.384125
O O3 0.590674 0.135479 0.283180
O O4 0.522806 0.164664 0.226269
O O5 0.034513 0.814838 0.863957
O O6 0.869938 0.664748 0.010870
O O7 0.774189 0.808771 0.188566
O O8 0.000000 0.696819 0.000000
O O9 0.905828 0.500000 0.905274
O O10 0.693080 0.619992 0.091743
O O11 0.606316 0.500000 0.772948
O O12 0.564513 0.388115 0.712023
O O13 0.018173 0.000000 0.656441
O O14 0.796107 0.500000 0.753184
O O15 0.000000 0.620096 0.500000
#
# Coordination Sequence:
#
# PCOD9209620 Si02
#       6
#     8   8   8   8   8   8
#     4  12  21  41  65  96 128 164 205 254 312 369
#     4  12  25  42  62  88 127 172 207 258 314 365
#     4  11  23  41  65  92 123 165 213 259 307 366
#     4  11  23  38  62  97 130 161 201 254 316 375
#     4  10  21  38  63  92 125 159 201 257 312 363
#     4  11  24  42  66  94 125 162 206 256 313 378
#
# _framework density 20.217856000000001
#
# number of rings (size 3 to 8) (size 9 to 14) (size 15 to 20)
#    0.000    0.833    3.333    5.000    0.000    4.333 
#    0.000    0.000    0.000    4.000    0.000    0.000 
#    0.000    0.000    0.000    0.000    0.000    0.000 
#
# Total GULP energy -134251.106149 kJ/mol
# GULP energy per Si atom -5593.796090 kJ/mol
# Density = 2.017184 g / cm^3
# Si number density = 20.217856 Si / 1000 Ang^3
#
#
#
# Elastic Constant Matrix: (Units=GPa)
#
#
# Indices 1 2 3 4 5 6 
#
# 1 58.6594 7.6899 14.3084 -0.0007 -12.2308 -0.0002
# 2 7.6899 91.5793 0.7295 -0.0022 -1.7013 -0.0004
# 3 14.3084 0.7295 29.4164 -0.0028 -13.8388 0.0004
# 4 -0.0007 -0.0022 -0.0028 21.6723 0.0010 -3.1442
# 5 -12.2308 -1.7013 -13.8388 0.0010 27.2452 -0.0001
# 6 -0.0002 -0.0004 0.0004 -3.1442 -0.0001 8.1508
#
#
#
# Elastic Compliance Matrix: (Units=1/GPa)
#
#
# Indices 1 2 3 4 5 6 
#
# 1 0.020117 -0.001534 -0.007284 -0.000001 0.005235 0.000001
# 2 -0.001534 0.011049 0.000621 0.000001 0.000317 0.000001
# 3 -0.007284 0.000621 0.047306 0.000005 0.020797 0.000000
# 4 -0.000001 0.000001 0.000005 0.048877 0.000001 0.018855
# 5 0.005235 0.000317 0.020797 0.000001 0.049637 0.000000
# 6 0.000001 0.000001 0.000000 0.018855 0.000000 0.129962
#
#
# Mechanical properties :
#
#
# Convention : Reuss Voigt Hill
#
# Bulk Modulus (GPa) = 16.10859 25.01232 20.56046
# Shear Modulus (GPa) = 14.53336 21.87545 18.20441
#
# Velocity S-wave (km/s) = 2.68402 3.29293 3.00394
# Velocity P-wave (km/s) = 4.19406 5.18228 4.71414
#
# Compressibility (1/GPa) = 0.06207868
#
# Stress axis : x y z
#
# Youngs Moduli (GPa) = 49.70917 90.50394 21.13875
#
# Poissons Ratio (x) = 0.13883 0.15398
# Poissons Ratio (y) = 0.07625 -0.01313
# Poissons Ratio (z) = 0.36209 -0.05622
#
# Static dielectric constant tensor:
#      x y z
#    x 1.723600 0.000000 -0.003450 
#    y 0.000000 1.714620 0.000000 
#    z -0.003450 0.000000 1.684820 
# 
# From -- ./inp_files/85963.got.cif
#   From: 2010.05.17/outbox.cif.g08.bks.cpg/sg12_43_cif.got.tgz:85963.got - 2010.06.03 13:09:07.
