data_PCOD9209000
_publ_section_title
;
Structure prediction by ZEFSAII (Michael W. Deem and Ramdas Pophale) SiO2 
 PCOD9209000
Probable space group: C 2/M
;
_chemical_formula_sum "Si O2"
_cell_formula_units_Z 50
_cell_length_a 25.281027
_cell_length_b 9.368194
_cell_length_c 14.520574
_cell_angle_alpha 90.000000
_cell_angle_beta 126.596780
_cell_angle_gamma 90.000000
_cell_volume 2761.018491
_symmetry_space_group_name_H-M "C 2/M"
_symmetry_group_IT_number 12
_symmetry_cell_setting 'monoclinic'
loop_
_space_group_symop_operation_xyz
x,y,z
-x,y,-z
-x,-y,-z
x,-y,z
1/2+x,1/2+y,z
1/2-x,1/2+y,-z
1/2-x,1/2-y,-z
1/2+x,1/2-y,z
loop_
_atom_site_type_symbol
_atom_site_label
_atom_site_fract_x
_atom_site_fract_y
_atom_site_fract_z
Si Si1 0.114249 0.241469 0.617850
Si Si2 0.928843 0.666623 0.625608
Si Si3 0.732022 0.834915 0.216741
Si Si4 0.692585 0.828902 0.385374
Si Si5 0.578578 0.165218 0.779151
Si Si6 0.307237 0.328924 0.001774
Si Si7 0.000000 0.000000 0.500000
O O1 0.102174 0.317888 0.507885
O O2 0.188875 0.184154 0.697443
O O3 0.102449 0.331936 0.697913
O O4 0.058225 0.121910 0.562866
O O5 0.936227 0.500000 0.653245
O O6 0.877006 0.724744 0.645965
O O7 0.003444 0.722372 0.704542
O O8 0.702744 0.807565 0.287527
O O9 0.718059 0.000000 0.176089
O O10 0.702675 0.726315 0.112177
O O11 0.750000 0.750000 0.500000
O O12 0.697243 0.000000 0.406942
O O13 0.625291 0.268264 0.885872
O O14 0.582597 0.000000 0.815395
O O15 0.302557 0.500000 0.004719
O O16 0.250000 0.250000 0.000000
#
# Coordination Sequence:
#
# PCOD9209000 Si02
#       7
#     8   8   8   8   8   8   2
#     4  12  21  33  59  87 129 158 196 240 300 358
#     4  10  21  38  60  89 121 157 200 245 298 357
#     4  11  23  39  60  88 124 161 202 246 294 352
#     4  10  21  38  61  90 121 159 201 247 294 353
#     4  11  23  39  60  89 121 161 202 249 304 360
#     4  12  26  41  63  88 119 158 202 251 304 360
#     4  12  24  32  50 100 128 170 192 240 308 364
#
# _framework density 18.109259999999999
#
# number of rings (size 3 to 8) (size 9 to 14) (size 15 to 20)
#    0.000    0.960    5.600    1.920    1.120    2.560 
#    0.000    0.800    0.000    4.800    0.000    0.000 
#    0.000    0.000    0.000    0.000    0.000    0.000 
#
# Total GULP energy -139290.689772 kJ/mol
# GULP energy per Si atom -5571.627591 kJ/mol
# Density = 1.806804 g / cm^3
# Si number density = 18.109260 Si / 1000 Ang^3
#
#
#
# Elastic Constant Matrix: (Units=GPa)
#
#
# Indices 1 2 3 4 5 6 
#
# 1 137.1792 43.0944 66.1576 0.0000 1.6132 0.0000
# 2 43.0944 92.8327 50.6405 0.0000 -2.2262 0.0000
# 3 66.1576 50.6405 110.8676 0.0000 5.8782 0.0000
# 4 0.0000 0.0000 0.0000 -879.9710 0.0000 268.3504
# 5 1.6132 -2.2262 5.8782 0.0000 22.4584 0.0000
# 6 0.0000 0.0000 0.0000 268.3504 0.0000 -57.6052
#
#
#
# Elastic Compliance Matrix: (Units=1/GPa)
#
#
# Indices 1 2 3 4 5 6 
#
# 1 0.010496 -0.001905 -0.005418 0.000000 0.000475 0.000000
# 2 -0.001905 0.014920 -0.005845 0.000000 0.003146 0.000000
# 3 -0.005418 -0.005845 0.015143 0.000000 -0.004154 0.000000
# 4 0.000000 0.000000 0.000000 0.002702 0.000000 0.012586
# 5 0.000475 0.003146 -0.004154 0.000000 0.045892 0.000000
# 6 0.000000 0.000000 0.000000 0.012586 0.000000 0.041272
#
#
# Mechanical properties :
#
#
# Convention : Reuss Voigt Hill
#
# Bulk Modulus (GPa) = 70.31164 73.40718 71.85941
# Shear Modulus (GPa) = 30.95936 -170.95777 -69.99920
#
# Velocity S-wave (km/s) = 4.13920 -9.72669 -6.22396
# Velocity P-wave (km/s) = 7.85841 9.24775 3.44719
#
# Compressibility (1/GPa) = 0.01422240
#
# Stress axis : x y z
#
# Youngs Moduli (GPa) = 95.27793 67.02218 66.03800
#
# Poissons Ratio (x) = 0.12770 0.35779
# Poissons Ratio (y) = 0.18154 0.38599
# Poissons Ratio (z) = 0.51621 0.39174
#
# Static dielectric constant tensor:
#      x y z
#    x 1.647700 0.000000 0.000780 
#    y 0.000000 1.621310 0.000000 
#    z 0.000780 0.000000 1.606950 
# 
# From -- ./inp_files/244365.got.cif
#   From: 2010.05.17/outbox.cif.g08.bks.cpg/sg12_123_cif.got.tgz:244365.got - 2010.06.03 13:09:07.
