data_PCOD9209557
_publ_section_title
;
Structure prediction by ZEFSAII (Michael W. Deem and Ramdas Pophale) SiO2 
 PCOD9209557
Probable space group: C 2/M
;
_chemical_formula_sum "Si O2"
_cell_formula_units_Z 64
_cell_length_a 14.432896
_cell_length_b 28.406209
_cell_length_c 11.271419
_cell_angle_alpha 90.000000
_cell_angle_beta 141.141536
_cell_angle_gamma 90.000000
_cell_volume 2899.272113
_symmetry_space_group_name_H-M "C 2/M"
_symmetry_group_IT_number 12
_symmetry_cell_setting 'monoclinic'
loop_
_space_group_symop_operation_xyz
x,y,z
-x,y,-z
-x,-y,-z
x,-y,z
1/2+x,1/2+y,z
1/2-x,1/2+y,-z
1/2-x,1/2-y,-z
1/2+x,1/2-y,z
loop_
_atom_site_type_symbol
_atom_site_label
_atom_site_fract_x
_atom_site_fract_y
_atom_site_fract_z
Si Si1 0.809288 0.054817 0.100145
Si Si2 0.597538 0.731183 0.290025
Si Si3 0.667750 0.446108 0.619027
Si Si4 0.359579 0.345627 0.110748
Si Si5 0.663682 0.346343 0.180929
Si Si6 0.682628 0.104501 0.441070
Si Si7 0.956496 0.552887 0.335430
Si Si8 0.948686 0.327976 0.083674
O O1 0.744790 0.057044 0.169113
O O2 0.860703 0.000000 0.135461
O O3 0.912220 0.100311 0.183386
O O4 0.682887 0.066745 0.880070
O O5 0.750000 0.750000 0.500000
O O6 0.645423 0.705649 0.216562
O O7 0.491855 0.774930 0.161281
O O8 0.497168 0.690796 0.254554
O O9 0.500000 0.440472 0.500000
O O10 0.679287 0.500000 0.586317
O O11 0.719644 0.408985 0.574434
O O12 0.287371 0.341489 0.906377
O O13 0.225247 0.335915 0.067100
O O14 0.741921 0.374418 0.365456
O O15 0.500000 0.367746 0.000000
O O16 0.599787 0.057081 0.397988
O O17 0.552187 0.139336 0.269377
O O18 0.916129 0.500000 0.327503
O O19 0.000000 0.579060 0.500000
O O20 0.000000 0.336388 0.000000
#
# Coordination Sequence:
#
# PCOD9209557 Si02
#       8
#     8   8   8   8   8   8   8   8
#     4  10  21  40  67  99 140 187 239 292 362 439
#     4  11  24  47  69 102 137 184 244 300 364 445
#     4  10  24  42  63  95 139 189 244 307 365 433
#     4  11  23  44  74 101 146 191 235 303 377 422
#     4  10  24  44  70  97 136 186 233 302 367 443
#     4  12  23  39  68  95 135 182 243 294 370 439
#     4  10  21  38  62  96 135 177 236 299 354 430
#     4  12  25  43  66 105 143 182 236 301 358 446
#
# _framework density 22.074506
#
# number of rings (size 3 to 8) (size 9 to 14) (size 15 to 20)
#    0.000    1.250    2.500    3.375    3.500    0.000 
#    0.000    4.375    0.000    4.125    0.000    0.000 
#    0.000    0.000    0.000    0.000    0.000    0.000 
#
# Total GULP energy -178347.654282 kJ/mol
# GULP energy per Si atom -5573.364196 kJ/mol
# Density = 2.202426 g / cm^3
# Si number density = 22.074506 Si / 1000 Ang^3
#
#
#
# Elastic Constant Matrix: (Units=GPa)
#
#
# Indices 1 2 3 4 5 6 
#
# 1 112.2324 37.7028 30.0480 0.0000 1.0613 0.0000
# 2 37.7028 123.1574 40.5870 0.0000 6.5743 0.0000
# 3 30.0480 40.5870 129.0264 0.0000 -4.7383 0.0000
# 4 0.0000 0.0000 0.0000 17.1849 0.0000 2.4926
# 5 1.0613 6.5743 -4.7383 0.0000 25.0610 0.0000
# 6 0.0000 0.0000 0.0000 2.4926 0.0000 36.5085
#
#
#
# Elastic Compliance Matrix: (Units=1/GPa)
#
#
# Indices 1 2 3 4 5 6 
#
# 1 0.010204 -0.002608 -0.001557 0.000000 -0.000042 0.000000
# 2 -0.002608 0.009945 -0.002631 0.000000 -0.002996 0.000000
# 3 -0.001557 -0.002631 0.009031 0.000000 0.002464 0.000000
# 4 0.000000 0.000000 0.000000 0.058772 0.000000 -0.004013
# 5 -0.000042 -0.002996 0.002464 0.000000 0.041156 0.000000
# 6 0.000000 0.000000 0.000000 -0.004013 0.000000 0.027665
#
#
# Mechanical properties :
#
#
# Convention : Reuss Voigt Hill
#
# Bulk Modulus (GPa) = 64.15692 64.56576 64.36134
# Shear Modulus (GPa) = 28.47997 32.82279 30.65138
#
# Velocity S-wave (km/s) = 3.59580 3.86023 3.73036
# Velocity P-wave (km/s) = 6.80930 7.01292 6.91186
#
# Compressibility (1/GPa) = 0.01558678
#
# Stress axis : x y z
#
# Youngs Moduli (GPa) = 98.00450 100.55174 110.72820
#
# Poissons Ratio (x) = 0.26226 0.17244
# Poissons Ratio (y) = 0.25561 0.29133
# Poissons Ratio (z) = 0.15263 0.26455
#
# Static dielectric constant tensor:
#      x y z
#    x 1.831360 0.000000 -0.016850 
#    y 0.000000 1.854300 0.000000 
#    z -0.016850 0.000000 1.942410 
# 
# From -- ./inp_files/150296.got.cif
#   From: 2010.05.17/outbox.cif.g08.bks.cpg/sg12_76_cif.got.tgz:150296.got - 2010.06.03 13:09:07.
