data_PCOD9209384
_publ_section_title
;
Structure prediction by ZEFSAII (Michael W. Deem and Ramdas Pophale) SiO2 
 PCOD9209384
Probable space group: C 2/M
;
_chemical_formula_sum "Si O2"
_cell_formula_units_Z 40
_cell_length_a 19.542622
_cell_length_b 15.072562
_cell_length_c 9.948208
_cell_angle_alpha 90.000000
_cell_angle_beta 41.091126
_cell_angle_gamma 90.000000
_cell_volume 1925.976555
_symmetry_space_group_name_H-M "C 2/M"
_symmetry_group_IT_number 12
_symmetry_cell_setting 'monoclinic'
loop_
_space_group_symop_operation_xyz
x,y,z
-x,y,-z
-x,-y,-z
x,-y,z
1/2+x,1/2+y,z
1/2-x,1/2+y,-z
1/2-x,1/2-y,-z
1/2+x,1/2-y,z
loop_
_atom_site_type_symbol
_atom_site_label
_atom_site_fract_x
_atom_site_fract_y
_atom_site_fract_z
Si Si1 0.013821 0.608264 0.636126
Si Si2 0.094844 0.891085 0.451720
Si Si3 0.926158 0.898871 0.218566
Si Si4 0.829167 0.393598 0.105049
Si Si5 0.798981 0.654108 0.452965
O O1 0.019403 0.500000 0.633768
O O2 0.117445 0.644627 0.553903
O O3 0.000000 0.632475 0.500000
O O4 0.916924 0.638465 0.872652
O O5 0.070735 0.859465 0.637910
O O6 0.211967 0.861776 0.243516
O O7 0.000000 0.862834 0.500000
O O8 0.097494 0.000000 0.447653
O O9 0.805182 0.901124 0.358620
O O10 0.964574 0.000000 0.177802
O O11 0.000000 0.853883 0.000000
O O12 0.828162 0.500000 0.094820
O O13 0.846027 0.374211 0.238517
O O14 0.750000 0.750000 0.500000
#
# Coordination Sequence:
#
# PCOD9209384 Si02
#       5
#     8   8   8   8   8
#     4  10  21  38  62  89 114 145 194 252 296 335
#     4   8  14  26  46  74 104 131 165 211 266 324
#     4   9  18  32  50  72  99 135 179 225 271 323
#     4   9  18  35  59  83 109 148 195 240 288 344
#     4  11  22  36  54  80 113 152 189 228 285 352
#
# _framework density 20.768685000000001
#
# number of rings (size 3 to 8) (size 9 to 14) (size 15 to 20)
#    0.000    2.600    0.000    3.600    0.000    4.800 
#    0.000   11.000    0.000    0.000    0.000    0.000 
#    0.000    0.000    0.000    0.000    0.000    0.000 
#
# Total GULP energy -111543.080869 kJ/mol
# GULP energy per Si atom -5577.154043 kJ/mol
# Density = 2.072142 g / cm^3
# Si number density = 20.768685 Si / 1000 Ang^3
#
#
#
# Elastic Constant Matrix: (Units=GPa)
#
#
# Indices 1 2 3 4 5 6 
#
# 1 221.2389 7.6024 106.4985 0.0000 2.5456 0.0000
# 2 7.6024 32.9521 7.7432 0.0000 -0.6884 0.0000
# 3 106.4985 7.7432 184.9547 0.0000 3.9529 0.0000
# 4 0.0000 0.0000 0.0000 75.8823 0.0000 -3.2526
# 5 2.5456 -0.6884 3.9529 0.0000 8.1464 0.0000
# 6 0.0000 0.0000 0.0000 -3.2526 0.0000 15.0053
#
#
#
# Elastic Compliance Matrix: (Units=1/GPa)
#
#
# Indices 1 2 3 4 5 6 
#
# 1 0.006266 -0.000611 -0.003576 0.000000 -0.000274 0.000000
# 2 -0.000611 0.030793 -0.001008 0.000000 0.003282 0.000000
# 3 -0.003576 -0.001008 0.007565 0.000000 -0.002638 0.000000
# 4 0.000000 0.000000 0.000000 0.013302 0.000000 0.002883
# 5 -0.000274 0.003282 -0.002638 0.000000 0.124396 0.000000
# 6 0.000000 0.000000 0.000000 0.002883 0.000000 0.067268
#
#
# Mechanical properties :
#
#
# Convention : Reuss Voigt Hill
#
# Bulk Modulus (GPa) = 29.21077 75.87041 52.54059
# Shear Modulus (GPa) = 18.42359 40.96026 29.69193
#
# Velocity S-wave (km/s) = 2.98163 4.44578 3.78517
# Velocity P-wave (km/s) = 5.09400 7.93497 6.66755
#
# Compressibility (1/GPa) = 0.03423395
#
# Stress axis : x y z
#
# Youngs Moduli (GPa) = 159.59779 32.47456 132.19397
#
# Poissons Ratio (x) = 0.01984 0.47278
# Poissons Ratio (y) = 0.09750 0.13319
# Poissons Ratio (z) = 0.57079 0.03272
#
# Static dielectric constant tensor:
#      x y z
#    x 1.724600 0.000000 -0.016580 
#    y 0.000000 1.843670 0.000000 
#    z -0.016580 0.000000 1.782210 
# 
# From -- ./inp_files/74960.got.cif
#   From: 2010.05.17/outbox.cif.g08.bks.cpg/sg12_38_cif.got.tgz:74960.got - 2010.06.03 13:09:07.
