data_PCOD9209342
_publ_section_title
;
Structure prediction by ZEFSAII (Michael W. Deem and Ramdas Pophale) SiO2 
 PCOD9209342
Probable space group: C 2/M
;
_chemical_formula_sum "Si O2"
_cell_formula_units_Z 64
_cell_length_a 16.570167
_cell_length_b 9.288219
_cell_length_c 28.658233
_cell_angle_alpha 90.000000
_cell_angle_beta 53.929795
_cell_angle_gamma 90.000000
_cell_volume 3565.161943
_symmetry_space_group_name_H-M "C 2/M"
_symmetry_group_IT_number 12
_symmetry_cell_setting 'monoclinic'
loop_
_space_group_symop_operation_xyz
x,y,z
-x,y,-z
-x,-y,-z
x,-y,z
1/2+x,1/2+y,z
1/2-x,1/2+y,-z
1/2-x,1/2-y,-z
1/2+x,1/2-y,z
loop_
_atom_site_type_symbol
_atom_site_label
_atom_site_fract_x
_atom_site_fract_y
_atom_site_fract_z
Si Si1 0.842552 0.329846 0.444627
Si Si2 0.024408 0.831838 0.878891
Si Si3 0.842955 0.832723 0.686984
Si Si4 0.656646 0.168007 0.011907
Si Si5 0.999591 0.838252 0.444726
Si Si6 0.132279 0.172847 0.746849
Si Si7 0.543863 0.325939 0.675511
Si Si8 0.114654 0.156521 0.942638
O O1 0.826458 0.500000 0.444695
O O2 0.750000 0.250000 0.500000
O O3 0.877126 0.254544 0.384805
O O4 0.933234 0.290639 0.448159
O O5 0.063461 0.792104 0.814889
O O6 0.111242 0.824640 0.888507
O O7 0.938459 0.731725 0.928569
O O8 0.990947 0.000000 0.890061
O O9 0.896011 0.826660 0.618011
O O10 0.740466 0.744663 0.718427
O O11 0.931955 0.788842 0.693538
O O12 0.819755 0.000000 0.705064
O O13 0.662042 0.000000 0.016058
O O14 0.750000 0.250000 0.000000
O O15 0.655402 0.211863 0.957923
O O16 0.000000 0.833502 0.500000
O O17 0.960166 0.000000 0.444914
O O18 0.074910 0.210891 0.718099
O O19 0.146068 0.000000 0.741644
O O20 0.551889 0.500000 0.667693
O O21 0.160655 0.000000 0.938565
O O22 0.000000 0.147380 0.000000
#
# Coordination Sequence:
#
# PCOD9209342 Si02
#       8
#     8   8   8   8   8   8   8   8
#     4  11  22  35  54  81 111 144 186 234 287 347
#     4   9  19  37  57  81 114 149 185 227 277 332
#     4   9  19  36  56  80 114 149 188 236 290 343
#     4  11  21  34  55  83 115 148 185 229 276 330
#     4   9  19  36  56  80 111 144 181 231 291 349
#     4  10  21  38  62  85 114 154 195 235 284 345
#     4   9  20  40  59  80 113 153 191 237 291 344
#     4   8  15  31  54  76 106 142 175 217 268 317
#
# _framework density 17.951498999999998
#
# number of rings (size 3 to 8) (size 9 to 14) (size 15 to 20)
#    0.000    2.500    0.000    3.750    1.750    5.500 
#    2.250    0.000    0.000    0.000    0.000    0.000 
#    0.000    0.000    0.000    0.000    0.000    0.000 
#
# Total GULP energy -178174.821818 kJ/mol
# GULP energy per Si atom -5567.963182 kJ/mol
# Density = 1.791064 g / cm^3
# Si number density = 17.951499 Si / 1000 Ang^3
#
#
#
# Elastic Constant Matrix: (Units=GPa)
#
#
# Indices 1 2 3 4 5 6 
#
# 1 91.5054 48.4358 62.3234 0.0000 18.8638 0.0000
# 2 48.4358 99.3375 49.4225 0.0000 1.9632 0.0001
# 3 62.3234 49.4225 89.2417 0.0000 27.8482 0.0000
# 4 0.0000 0.0000 0.0000 23.6360 0.0000 -4.8745
# 5 18.8638 1.9632 27.8482 0.0000 31.0164 0.0000
# 6 0.0000 0.0001 0.0000 -4.8745 0.0000 29.8580
#
#
#
# Elastic Compliance Matrix: (Units=1/GPa)
#
#
# Indices 1 2 3 4 5 6 
#
# 1 0.022182 -0.004713 -0.012175 0.000000 -0.002261 0.000000
# 2 -0.004713 0.016662 -0.009032 0.000000 0.009921 0.000000
# 3 -0.012175 -0.009032 0.030870 0.000000 -0.019741 0.000000
# 4 0.000000 0.000000 0.000000 0.043783 0.000000 0.007148
# 5 -0.002261 0.009921 -0.019741 0.000000 0.050712 0.000000
# 6 0.000000 0.000000 0.000000 0.007148 0.000000 0.034659
#
#
# Mechanical properties :
#
#
# Convention : Reuss Voigt Hill
#
# Bulk Modulus (GPa) = 55.94964 66.71644 61.33304
# Shear Modulus (GPa) = 19.48049 24.89560 22.18805
#
# Velocity S-wave (km/s) = 3.29777 3.72805 3.51949
# Velocity P-wave (km/s) = 6.76278 7.46838 7.12432
#
# Compressibility (1/GPa) = 0.01787322
#
# Stress axis : x y z
#
# Youngs Moduli (GPa) = 45.08231 60.01506 32.39354
#
# Poissons Ratio (x) = 0.28288 0.39439
# Poissons Ratio (y) = 0.21249 0.29258
# Poissons Ratio (z) = 0.54888 0.54206
#
# Static dielectric constant tensor:
#      x y z
#    x 1.949560 0.000000 -0.088590 
#    y 0.000000 1.616130 0.000000 
#    z -0.088590 0.000000 1.651430 
# 
# From -- ./inp_files/375456.got.cif
#   From: 2010.05.17/outbox.cif.g08.bks.cpg/sg12_188_cif.got.tgz:375456.got - 2010.06.03 13:09:07.
