data_PCOD9209528
_publ_section_title
;
Structure prediction by ZEFSAII (Michael W. Deem and Ramdas Pophale) SiO2 
 PCOD9209528
Probable space group: C 2/M
;
_chemical_formula_sum "Si O2"
_cell_formula_units_Z 46
_cell_length_a 13.410000
_cell_length_b 29.515158
_cell_length_c 8.104902
_cell_angle_alpha 90.000000
_cell_angle_beta 138.378125
_cell_angle_gamma 90.000000
_cell_volume 2130.728710
_symmetry_space_group_name_H-M "C 2/M"
_symmetry_group_IT_number 12
_symmetry_cell_setting 'monoclinic'
loop_
_space_group_symop_operation_xyz
x,y,z
-x,y,-z
-x,-y,-z
x,-y,z
1/2+x,1/2+y,z
1/2-x,1/2+y,-z
1/2-x,1/2-y,-z
1/2+x,1/2-y,z
loop_
_atom_site_type_symbol
_atom_site_label
_atom_site_fract_x
_atom_site_fract_y
_atom_site_fract_z
Si Si1 0.500000 0.500000 0.000000
Si Si2 0.759286 0.923066 0.633684
Si Si3 0.500000 0.256565 0.000000
Si Si4 0.555774 0.921770 0.886338
Si Si5 0.756576 0.321411 0.284154
Si Si6 0.343741 0.447414 0.377955
Si Si7 0.414686 0.816737 0.151105
O O1 0.632193 0.460434 0.157781
O O2 0.579202 0.933038 0.405212
O O3 0.780446 0.874292 0.741045
O O4 0.800140 0.920568 0.488584
O O5 0.632279 0.290612 0.217908
O O6 0.416239 0.222749 0.020570
O O7 0.587108 0.867935 0.920655
O O8 0.500000 0.935518 0.000000
O O9 0.717661 0.944834 0.080531
O O10 0.784077 0.311746 0.124693
O O11 0.919900 0.313591 0.564026
O O12 0.500000 0.431194 0.500000
O O13 0.362488 0.500000 0.455319
#
# Coordination Sequence:
#
# PCOD9209528 Si02
#       7
#     2   8   4   8   8   8   8
#     4  12  22  36  60  90 126 170 216 250 304 380
#     4  10  22  39  60  87 126 174 204 257 308 375
#     4  12  21  38  66  95 121 164 208 261 316 370
#     4   9  19  37  64  87 117 164 210 257 315 367
#     4  10  23  40  62  91 129 163 206 257 319 375
#     4  10  21  38  62  94 122 154 209 273 314 365
#     4  10  21  41  63  90 126 164 208 257 311 383
#
# _framework density 21.588857999999998
#
# number of rings (size 3 to 8) (size 9 to 14) (size 15 to 20)
#    0.000    1.913    1.739    1.565    1.217    3.826 
#    0.000    0.000    0.000    3.130    0.000    0.000 
#    0.000    0.000    0.000    0.000    0.000    0.000 
#
# Total GULP energy -128087.834163 kJ/mol
# GULP energy per Si atom -5569.036268 kJ/mol
# Density = 2.153972 g / cm^3
# Si number density = 21.588858 Si / 1000 Ang^3
#
#
#
# Elastic Constant Matrix: (Units=GPa)
#
#
# Indices 1 2 3 4 5 6 
#
# 1 77.4930 19.8585 25.0565 0.0000 12.5436 0.0000
# 2 19.8585 83.1428 27.5098 0.0000 5.4187 0.0000
# 3 25.0565 27.5098 34.4200 0.0000 20.4682 0.0000
# 4 0.0000 0.0000 0.0000 25.8642 0.0000 5.2412
# 5 12.5436 5.4187 20.4682 0.0000 29.2822 0.0000
# 6 0.0000 0.0000 0.0000 5.2412 0.0000 9.5089
#
#
#
# Elastic Compliance Matrix: (Units=1/GPa)
#
#
# Indices 1 2 3 4 5 6 
#
# 1 0.016985 0.000525 -0.014374 0.000000 0.002675 0.000000
# 2 0.000525 0.018480 -0.022221 0.000000 0.011888 0.000000
# 3 -0.014374 -0.022221 0.087570 0.000000 -0.050941 0.000000
# 4 0.000000 0.000000 0.000000 0.043525 0.000000 -0.023990
# 5 0.002675 0.011888 -0.050941 0.000000 0.066413 0.000000
# 6 0.000000 0.000000 0.000000 -0.023990 0.000000 0.118388
#
#
# Mechanical properties :
#
#
# Convention : Reuss Voigt Hill
#
# Bulk Modulus (GPa) = 19.64910 37.76727 28.70818
# Shear Modulus (GPa) = 11.35163 21.10648 16.22906
#
# Velocity S-wave (km/s) = 2.29554 3.13014 2.74475
# Velocity P-wave (km/s) = 4.01837 5.53133 4.83440
#
# Compressibility (1/GPa) = 0.05089292
#
# Stress axis : x y z
#
# Youngs Moduli (GPa) = 58.87661 54.11320 11.41946
#
# Poissons Ratio (x) = -0.02841 0.16415
# Poissons Ratio (y) = -0.03091 0.25376
# Poissons Ratio (z) = 0.84632 1.20247
#
# Static dielectric constant tensor:
#      x y z
#    x 1.847700 0.000000 -0.022030 
#    y 0.000000 1.733430 0.000000 
#    z -0.022030 0.000000 1.833890 
# 
# From -- ./inp_files/67456.got.cif
#   From: 2010.05.17/outbox.cif.g08.bks.cpg/sg12_34_cif.got.tgz:67456.got - 2010.06.03 13:09:07.
