data_PCOD9209242
_publ_section_title
;
Structure prediction by ZEFSAII (Michael W. Deem and Ramdas Pophale) SiO2 
 PCOD9209242
Probable space group: C 2/M
;
_chemical_formula_sum "Si O2"
_cell_formula_units_Z 56
_cell_length_a 5.322462
_cell_length_b 23.316574
_cell_length_c 23.818744
_cell_angle_alpha 90.000000
_cell_angle_beta 106.946350
_cell_angle_gamma 90.000000
_cell_volume 2827.591062
_symmetry_space_group_name_H-M "C 2/M"
_symmetry_group_IT_number 12
_symmetry_cell_setting 'monoclinic'
loop_
_space_group_symop_operation_xyz
x,y,z
-x,y,-z
-x,-y,-z
x,-y,z
1/2+x,1/2+y,z
1/2-x,1/2+y,-z
1/2-x,1/2-y,-z
1/2+x,1/2-y,z
loop_
_atom_site_type_symbol
_atom_site_label
_atom_site_fract_x
_atom_site_fract_y
_atom_site_fract_z
Si Si1 0.240361 0.623710 0.370335
Si Si2 0.184629 0.067554 0.327689
Si Si3 0.353532 0.785259 0.732936
Si Si4 0.283381 0.184224 0.025596
Si Si5 0.950746 0.363958 0.153644
Si Si6 0.495347 0.569419 0.188338
Si Si7 0.195077 0.726229 0.434114
O O1 0.503915 0.596189 0.363440
O O2 0.266765 0.660282 0.429015
O O3 0.990339 0.582282 0.355381
O O4 0.164608 0.672134 0.320322
O O5 0.085720 0.084350 0.258466
O O6 0.146013 0.000000 0.328911
O O7 0.066203 0.762919 0.731018
O O8 0.470966 0.820524 0.792250
O O9 0.373797 0.174567 0.094877
O O10 0.500000 0.156781 0.000000
O O11 0.250000 0.250000 0.000000
O O12 0.000000 0.156774 0.000000
O O13 0.708091 0.402339 0.160300
O O14 0.207108 0.403618 0.159763
O O15 0.492661 0.500000 0.183497
O O16 0.250000 0.750000 0.500000
O O17 0.385820 0.763111 0.406478
#
# Coordination Sequence:
#
# PCOD9209242 Si02
#       7
#     8   8   8   8   8   8   8
#     4  12  21  39  57  90 130 166 202 253 308 364
#     4  11  22  38  60  91 128 166 206 255 318 376
#     4  12  24  34  54  87 128 163 190 244 306 371
#     4  10  23  40  59  84 115 158 204 248 301 373
#     4  12  23  40  64  88 124 163 205 249 320 372
#     4  11  22  41  64  92 122 161 212 256 309 376
#     4  10  21  38  61  90 122 167 217 251 300 360
#
# _framework density 19.804845
#
# number of rings (size 3 to 8) (size 9 to 14) (size 15 to 20)
#    0.000    0.857    2.857    5.143    4.000    2.286 
#    0.000    0.000    0.000    8.571    0.000   40.000 
#    0.000    0.000    0.000    0.000    0.000    0.000 
#
# Total GULP energy -156355.590405 kJ/mol
# GULP energy per Si atom -5584.128229 kJ/mol
# Density = 1.975977 g / cm^3
# Si number density = 19.804845 Si / 1000 Ang^3
#
#
#
# Elastic Constant Matrix: (Units=GPa)
#
#
# Indices 1 2 3 4 5 6 
#
# 1 146.2497 16.5066 13.8643 0.0000 -23.0546 0.0000
# 2 16.5066 59.2315 25.8175 0.0000 -10.9061 0.0000
# 3 13.8643 25.8175 89.8104 0.0000 -3.8986 0.0000
# 4 0.0000 0.0000 0.0000 23.8866 0.0000 0.5700
# 5 -23.0546 -10.9061 -3.8986 0.0000 21.8466 0.0000
# 6 0.0000 0.0000 0.0000 0.5700 0.0000 34.6019
#
#
#
# Elastic Compliance Matrix: (Units=1/GPa)
#
#
# Indices 1 2 3 4 5 6 
#
# 1 0.008283 -0.000417 -0.000795 0.000000 0.008391 0.000000
# 2 -0.000417 0.021121 -0.005612 0.000000 0.009103 0.000000
# 3 -0.000795 -0.005612 0.012812 0.000000 -0.001354 0.000000
# 4 0.000000 0.000000 0.000000 0.041881 0.000000 -0.000690
# 5 0.008391 0.009103 -0.001354 0.000000 0.058931 0.000000
# 6 0.000000 0.000000 0.000000 -0.000690 0.000000 0.028912
#
#
# Mechanical properties :
#
#
# Convention : Reuss Voigt Hill
#
# Bulk Modulus (GPa) = 35.00359 45.29649 40.15004
# Shear Modulus (GPa) = 25.62664 32.00722 28.81693
#
# Velocity S-wave (km/s) = 3.60107 4.02447 3.81864
# Velocity P-wave (km/s) = 5.91632 6.67205 6.30552
#
# Compressibility (1/GPa) = 0.02856850
#
# Stress axis : x y z
#
# Youngs Moduli (GPa) = 120.73340 47.34550 78.05316
#
# Poissons Ratio (x) = 0.01974 0.06202
# Poissons Ratio (y) = 0.05034 0.43805
# Poissons Ratio (z) = 0.09593 0.26571
#
# Static dielectric constant tensor:
#      x y z
#    x 1.990960 0.000000 0.551520 
#    y 0.000000 1.682920 0.000000 
#    z 0.551520 0.000000 2.986420 
# 
# From -- ./inp_files/331194.got.cif
#   From: 2010.05.17/outbox.cif.g08.bks.cpg/sg12_166_cif.got.tgz:331194.got - 2010.06.03 13:09:07.
