data_PCOD9209923
_publ_section_title
;
Structure prediction by ZEFSAII (Michael W. Deem and Ramdas Pophale) SiO2 
 PCOD9209923
Probable space group: C 2/M
;
_chemical_formula_sum "Si O2"
_cell_formula_units_Z 36
_cell_length_a 9.856399
_cell_length_b 15.749637
_cell_length_c 9.368439
_cell_angle_alpha 90.000000
_cell_angle_beta 58.261393
_cell_angle_gamma 90.000000
_cell_volume 1236.825236
_symmetry_space_group_name_H-M "C 2/M"
_symmetry_group_IT_number 12
_symmetry_cell_setting 'monoclinic'
loop_
_space_group_symop_operation_xyz
x,y,z
-x,y,-z
-x,-y,-z
x,-y,z
1/2+x,1/2+y,z
1/2-x,1/2+y,-z
1/2-x,1/2-y,-z
1/2+x,1/2-y,z
loop_
_atom_site_type_symbol
_atom_site_label
_atom_site_fract_x
_atom_site_fract_y
_atom_site_fract_z
Si Si1 0.895255 0.500000 0.809973
Si Si2 0.794772 0.000000 0.809972
Si Si3 0.143070 0.000000 0.713859
Si Si4 0.932905 0.316475 0.798553
Si Si5 0.163835 0.804203 0.672329
Si Si6 0.768541 0.816475 0.798553
O O1 0.728565 0.500000 0.818624
O O2 0.977344 0.412142 0.723472
O O3 0.854598 0.500000 1.000000
O O4 0.799183 0.912142 0.723472
O O5 0.952811 0.000000 0.818623
O O6 0.182740 0.094339 0.634520
O O7 0.793308 0.294106 0.742320
O O8 0.102738 0.294254 0.794524
O O9 0.808718 0.325957 0.000000
O O10 0.250000 0.750000 0.500000
O O11 0.964372 0.794107 0.742319
#
# Coordination Sequence:
#
# PCOD9209923 Si02
#       6
#     4   4   4   8   8   8
#     4  10  21  38  68 100 128 166 216 269 324 376
#     4  10  21  38  68 100 128 166 216 269 324 376
#     4  12  23  42  64  96 123 172 222 264 308 394
#     4  10  21  40  65  96 128 163 212 271 320 367
#     4  12  27  43  63  94 133 173 214 257 324 387
#     4  10  21  40  65  96 128 163 212 271 320 367
#
# _framework density 29.106780000000001
#
# number of rings (size 3 to 8) (size 9 to 14) (size 15 to 20)
#    0.000    1.333    4.444    1.000    0.000    5.333 
#    0.000    5.556    0.000    0.000    0.000    0.000 
#    0.000    0.000    0.000    0.000    0.000    0.000 
#
# Total GULP energy -100355.737774 kJ/mol
# GULP energy per Si atom -5575.318765 kJ/mol
# Density = 2.904053 g / cm^3
# Si number density = 29.106780 Si / 1000 Ang^3
#
#
#
# Elastic Constant Matrix: (Units=GPa)
#
#
# Indices 1 2 3 4 5 6 
#
# 1 288.3952 129.3652 60.3525 0.0000 -33.0006 0.0000
# 2 129.3652 412.4077 35.2436 0.0000 -17.8561 0.0000
# 3 60.3525 35.2436 150.6455 0.0000 6.8662 0.0000
# 4 0.0000 0.0000 0.0000 0.6168 0.0000 -13.0010
# 5 -33.0006 -17.8561 6.8662 0.0000 34.6121 0.0000
# 6 0.0000 0.0000 0.0000 -13.0010 0.0000 69.1486
#
#
#
# Elastic Compliance Matrix: (Units=1/GPa)
#
#
# Indices 1 2 3 4 5 6 
#
# 1 0.004902 -0.001184 -0.001889 0.000000 0.004437 0.000000
# 2 -0.001184 0.002830 -0.000205 0.000000 0.000372 0.000000
# 3 -0.001889 -0.000205 0.007598 0.000000 -0.003414 0.000000
# 4 0.000000 0.000000 0.000000 -0.547165 0.000000 -0.102876
# 5 0.004437 0.000372 -0.003414 0.000000 0.033991 0.000000
# 6 0.000000 0.000000 0.000000 -0.102876 0.000000 -0.004881
#
#
# Mechanical properties :
#
#
# Convention : Reuss Voigt Hill
#
# Bulk Modulus (GPa) = 113.96592 144.59678 129.28135
# Shear Modulus (GPa) = -10.13695 62.64130 26.25218
#
# Velocity S-wave (km/s) = -1.86822 4.64413 3.00647
# Velocity P-wave (km/s) = 5.88097 8.86246 7.52093
#
# Compressibility (1/GPa) = 0.00877455
#
# Stress axis : x y z
#
# Youngs Moduli (GPa) = 204.01346 353.38667 131.60760
#
# Poissons Ratio (x) = 0.41841 0.24860
# Poissons Ratio (y) = 0.24155 0.02693
# Poissons Ratio (z) = 0.38538 0.07231
#
# Static dielectric constant tensor:
#      x y z
#    x 2.356410 0.000000 -0.061550 
#    y 0.000000 2.410030 0.000000 
#    z -0.061550 0.000000 2.031970 
# 
# From -- ./inp_files/215406.got.cif
#   From: 2010.05.17/outbox.cif.g08.bks.cpg/sg12_108_cif.got.tgz:215406.got - 2010.06.03 13:09:07.
