data_PCOD9209304
_publ_section_title
;
Structure prediction by ZEFSAII (Michael W. Deem and Ramdas Pophale) SiO2 
 PCOD9209304
Probable space group: C 2/M
;
_chemical_formula_sum "Si O2"
_cell_formula_units_Z 44
_cell_length_a 17.319222
_cell_length_b 10.469183
_cell_length_c 14.329298
_cell_angle_alpha 90.000000
_cell_angle_beta 125.918723
_cell_angle_gamma 90.000000
_cell_volume 2104.120767
_symmetry_space_group_name_H-M "C 2/M"
_symmetry_group_IT_number 12
_symmetry_cell_setting 'monoclinic'
loop_
_space_group_symop_operation_xyz
x,y,z
-x,y,-z
-x,-y,-z
x,-y,z
1/2+x,1/2+y,z
1/2-x,1/2+y,-z
1/2-x,1/2-y,-z
1/2+x,1/2-y,z
loop_
_atom_site_type_symbol
_atom_site_label
_atom_site_fract_x
_atom_site_fract_y
_atom_site_fract_z
Si Si1 0.597300 0.855845 0.013551
Si Si2 0.269659 0.360170 0.801314
Si Si3 0.261074 0.000000 0.656797
Si Si4 0.188703 0.769781 0.363117
Si Si5 0.621502 0.500000 0.738363
Si Si6 0.591676 0.500000 0.384232
Si Si7 0.653398 0.759672 0.869954
O O1 0.662590 0.751578 0.111769
O O2 0.638913 0.000000 0.041659
O O3 0.500000 0.859954 0.000000
O O4 0.581249 0.812152 0.895452
O O5 0.313349 0.500000 0.846062
O O6 0.253932 0.336431 0.680993
O O7 0.175824 0.349522 0.798178
O O8 0.325025 0.873656 0.686635
O O9 0.197046 0.000000 0.706356
O O10 0.179237 0.000000 0.519003
O O11 0.250000 0.750000 0.500000
O O12 0.106210 0.871013 0.332405
O O13 0.508916 0.500000 0.633800
O O14 0.634258 0.623312 0.812118
O O15 0.750000 0.750000 0.000000
#
# Coordination Sequence:
#
# PCOD9209304 Si02
#       7
#     8   8   4   8   4   4   8
#     4  10  24  41  59  85 120 158 202 260 319 371
#     4  11  22  37  62  87 117 158 210 252 304 377
#     4  10  21  42  68  93 124 178 213 258 318 395
#     4  10  21  38  61  93 127 162 207 255 314 384
#     4  12  23  40  66  97 129 167 216 270 320 368
#     4  10  23  40  65  99 132 158 218 275 321 366
#     4  10  24  37  60  88 120 164 209 253 305 379
#
# _framework density 20.911348
#
# number of rings (size 3 to 8) (size 9 to 14) (size 15 to 20)
#    0.000    1.636    2.727    0.818   14.000    0.364 
#    0.000    0.000    2.000    0.000    0.000    8.909 
#    0.000    0.000    0.000    0.000    0.000    0.000 
#
# Total GULP energy -122659.658534 kJ/mol
# GULP energy per Si atom -5575.439024 kJ/mol
# Density = 2.086375 g / cm^3
# Si number density = 20.911348 Si / 1000 Ang^3
#
#
#
# Elastic Constant Matrix: (Units=GPa)
#
#
# Indices 1 2 3 4 5 6 
#
# 1 88.8776 43.9823 38.6306 0.0000 -36.2020 0.0000
# 2 43.9823 200.0354 38.0190 0.0000 -13.8635 0.0000
# 3 38.6306 38.0190 79.2840 0.0000 -34.1458 0.0000
# 4 0.0000 0.0000 0.0000 25.8313 0.0000 -6.2375
# 5 -36.2020 -13.8635 -34.1458 0.0000 43.1949 0.0000
# 6 0.0000 0.0000 0.0000 -6.2375 0.0000 18.3219
#
#
#
# Elastic Compliance Matrix: (Units=1/GPa)
#
#
# Indices 1 2 3 4 5 6 
#
# 1 0.019029 -0.002849 -0.002170 0.000000 0.013319 0.000000
# 2 -0.002849 0.005934 -0.002525 0.000000 -0.002479 0.000000
# 3 -0.002170 -0.002525 0.020846 0.000000 0.013850 0.000000
# 4 0.000000 0.000000 0.000000 0.042180 0.000000 0.014360
# 5 0.013319 -0.002479 0.013850 0.000000 0.044467 0.000000
# 6 0.000000 0.000000 0.000000 0.014360 0.000000 0.059468
#
#
# Mechanical properties :
#
#
# Convention : Reuss Voigt Hill
#
# Bulk Modulus (GPa) = 32.54987 67.71788 50.13388
# Shear Modulus (GPa) = 23.01484 33.97394 28.49439
#
# Velocity S-wave (km/s) = 3.32111 4.03509 3.69538
# Velocity P-wave (km/s) = 5.50507 7.35954 6.49880
#
# Compressibility (1/GPa) = 0.03072208
#
# Stress axis : x y z
#
# Youngs Moduli (GPa) = 52.55015 168.53350 47.97171
#
# Poissons Ratio (x) = 0.48008 0.10408
# Poissons Ratio (y) = 0.14969 0.12113
# Poissons Ratio (z) = 0.11401 0.42555
#
# Static dielectric constant tensor:
#      x y z
#    x 1.783860 0.000000 -0.022200 
#    y 0.000000 1.792820 0.000000 
#    z -0.022200 0.000000 1.756250 
# 
# From -- ./inp_files/221197.got.cif
#   From: 2010.05.17/outbox.cif.g08.bks.cpg/sg12_111_cif.got.tgz:221197.got - 2010.06.03 13:09:07.
