data_PCOD9209681
_publ_section_title
;
Structure prediction by ZEFSAII (Michael W. Deem and Ramdas Pophale) SiO2 
 PCOD9209681
Probable space group: C 2/M
;
_chemical_formula_sum "Si O2"
_cell_formula_units_Z 64
_cell_length_a 20.662006
_cell_length_b 17.602451
_cell_length_c 24.746183
_cell_angle_alpha 90.000000
_cell_angle_beta 158.614159
_cell_angle_gamma 90.000000
_cell_volume 3281.905886
_symmetry_space_group_name_H-M "C 2/M"
_symmetry_group_IT_number 12
_symmetry_cell_setting 'monoclinic'
loop_
_space_group_symop_operation_xyz
x,y,z
-x,y,-z
-x,-y,-z
x,-y,z
1/2+x,1/2+y,z
1/2-x,1/2+y,-z
1/2-x,1/2-y,-z
1/2+x,1/2-y,z
loop_
_atom_site_type_symbol
_atom_site_label
_atom_site_fract_x
_atom_site_fract_y
_atom_site_fract_z
Si Si1 0.814346 0.770302 0.877984
Si Si2 0.201202 0.084925 0.449428
Si Si3 0.880861 0.827812 0.184858
Si Si4 0.609530 0.586580 0.991537
Si Si5 0.646879 0.802262 0.350685
Si Si6 0.973001 0.734121 0.537670
Si Si7 0.754210 0.085667 0.645207
Si Si8 0.370792 0.911867 0.094649
O O1 0.739919 0.719101 0.868440
O O2 0.857711 0.852761 0.936674
O O3 0.659791 0.773985 0.713308
O O4 0.000000 0.739508 0.000000
O O5 0.319205 0.150634 0.567789
O O6 0.205381 0.084458 0.387663
O O7 0.002123 0.109960 0.309155
O O8 0.249217 0.000000 0.505510
O O9 0.016243 0.767871 0.261949
O O10 0.763423 0.871520 0.050373
O O11 0.597827 0.500000 0.002481
O O12 0.773306 0.591074 0.077049
O O13 0.430837 0.602223 0.817667
O O14 0.828685 0.774693 0.464402
O O15 0.546503 0.861606 0.234319
O O16 0.886740 0.651981 0.458406
O O17 0.000000 0.772137 0.500000
O O18 0.695435 0.000000 0.613816
O O19 0.399649 0.000000 0.103625
#
# Coordination Sequence:
#
# PCOD9209681 Si02
#       8
#     8   8   8   8   8   8   8   8
#     4  12  27  42  63  93 125 170 215 261 320 377
#     4  11  21  38  65  97 133 163 206 266 322 376
#     4  12  22  39  68  96 129 168 212 266 310 378
#     4  10  21  39  62  95 134 168 206 253 314 386
#     4  12  23  40  66  98 128 165 217 267 319 369
#     4  12  26  43  64  90 127 169 213 265 319 379
#     4  10  21  38  63  95 131 170 207 251 316 386
#     4  11  23  38  64 101 133 166 207 258 326 378
#
# _framework density 19.500864
#
# number of rings (size 3 to 8) (size 9 to 14) (size 15 to 20)
#    0.000    0.750    5.000    3.000    3.500    1.000 
#    0.000    0.000    0.000    4.500    0.000    0.000 
#    0.000    0.000    0.000    0.000    0.000    0.000 
#
# Total GULP energy -178855.245535 kJ/mol
# GULP energy per Si atom -5589.226423 kJ/mol
# Density = 1.945648 g / cm^3
# Si number density = 19.500864 Si / 1000 Ang^3
#
#
#
# Elastic Constant Matrix: (Units=GPa)
#
#
# Indices 1 2 3 4 5 6 
#
# 1 68.6460 28.0504 17.9397 0.0228 12.7267 0.0015
# 2 28.0504 91.8689 41.7263 0.0120 -1.0852 0.0019
# 3 17.9397 41.7263 112.8362 0.0316 2.6217 -0.0038
# 4 0.0228 0.0120 0.0316 7.7943 0.0004 -1.6142
# 5 12.7267 -1.0852 2.6217 0.0004 32.3058 -0.0009
# 6 0.0015 0.0019 -0.0038 -1.6142 -0.0009 15.1203
#
#
#
# Elastic Compliance Matrix: (Units=1/GPa)
#
#
# Indices 1 2 3 4 5 6 
#
# 1 0.018303 -0.005325 -0.000771 -0.000043 -0.007327 -0.000006
# 2 -0.005325 0.014654 -0.004641 0.000011 0.002967 -0.000001
# 3 -0.000771 -0.004641 0.010718 -0.000034 -0.000722 0.000000
# 4 -0.000043 0.000011 -0.000034 0.131200 0.000019 0.014006
# 5 -0.007327 0.002967 -0.000722 0.000019 0.033999 0.000004
# 6 -0.000006 -0.000001 0.000000 0.014006 0.000004 0.067632
#
#
# Mechanical properties :
#
#
# Convention : Reuss Voigt Hill
#
# Bulk Modulus (GPa) = 45.04221 49.86488 47.45355
# Shear Modulus (GPa) = 16.37303 23.41972 19.89638
#
# Velocity S-wave (km/s) = 2.90074 3.46924 3.19765
# Velocity P-wave (km/s) = 5.86231 6.45551 6.16605
#
# Compressibility (1/GPa) = 0.02220140
#
# Stress axis : x y z
#
# Youngs Moduli (GPa) = 54.63522 68.24039 93.30061
#
# Poissons Ratio (x) = 0.36339 0.07190
# Poissons Ratio (y) = 0.29094 0.43304
# Poissons Ratio (z) = 0.04210 0.31673
#
# Static dielectric constant tensor:
#      x y z
#    x 1.710810 0.000000 -0.003230 
#    y 0.000000 1.694590 -0.000010 
#    z -0.003230 -0.000010 1.702830 
# 
# From -- ./inp_files/347938.got.cif
#   From: 2010.05.17/outbox.cif.g08.bks.cpg/sg12_174_cif.got.tgz:347938.got - 2010.06.03 13:09:07.
