data_PCOD9209576
_publ_section_title
;
Structure prediction by ZEFSAII (Michael W. Deem and Ramdas Pophale) SiO2 
 PCOD9209576
Probable space group: C 2/M
;
_chemical_formula_sum "Si O2"
_cell_formula_units_Z 40
_cell_length_a 23.645348
_cell_length_b 21.132385
_cell_length_c 5.000563
_cell_angle_alpha 90.000000
_cell_angle_beta 49.362309
_cell_angle_gamma 90.000000
_cell_volume 1896.116792
_symmetry_space_group_name_H-M "C 2/M"
_symmetry_group_IT_number 12
_symmetry_cell_setting 'monoclinic'
loop_
_space_group_symop_operation_xyz
x,y,z
-x,y,-z
-x,-y,-z
x,-y,z
1/2+x,1/2+y,z
1/2-x,1/2+y,-z
1/2-x,1/2-y,-z
1/2+x,1/2-y,z
loop_
_atom_site_type_symbol
_atom_site_label
_atom_site_fract_x
_atom_site_fract_y
_atom_site_fract_z
Si Si1 0.928493 0.072722 0.531221
Si Si2 0.389001 0.310601 0.290606
Si Si3 0.420176 0.230405 0.698380
Si Si4 0.724600 0.147725 0.860340
Si Si5 0.737658 0.571706 0.751532
O O1 0.918390 0.123312 0.323760
O O2 0.000000 0.082448 0.500000
O O3 0.068632 0.000000 0.579532
O O4 0.851740 0.077766 0.938015
O O5 0.415948 0.257344 0.413640
O O6 0.299245 0.311506 0.582573
O O7 0.414330 0.289926 0.919643
O O8 0.500000 0.199062 0.500000
O O9 0.349821 0.186053 0.966466
O O10 0.736602 0.089354 0.622857
O O11 0.727007 0.121561 0.152914
O O12 0.757478 0.500000 0.759596
#
# Coordination Sequence:
#
# PCOD9209576 Si02
#       5
#     8   8   8   8   8
#     4   9  19  37  59  87 123 159 196 237 283 337
#     4  11  22  39  60  86 117 157 197 235 285 343
#     4  12  25  40  61  86 117 153 195 245 294 341
#     4  11  22  40  62  86 118 153 194 238 286 348
#     4  10  21  38  63  89 116 154 194 236 287 346
#
# _framework density 21.095746999999999
#
# number of rings (size 3 to 8) (size 9 to 14) (size 15 to 20)
#    0.000    1.400    0.000    6.600    0.000    2.400 
#    0.000    4.000    0.000   34.200    0.000    0.000 
#    0.000    0.000    0.000    0.000    0.000    0.000 
#
# Total GULP energy -112007.763118 kJ/mol
# GULP energy per Si atom -5600.388156 kJ/mol
# Density = 2.104773 g / cm^3
# Si number density = 21.095747 Si / 1000 Ang^3
#
#
#
# Elastic Constant Matrix: (Units=GPa)
#
#
# Indices 1 2 3 4 5 6 
#
# 1 90.4875 30.7094 38.9959 0.0000 -29.4619 0.0000
# 2 30.7094 67.6734 22.3605 0.0000 -28.1123 0.0000
# 3 38.9959 22.3605 60.9880 0.0000 -26.5473 0.0000
# 4 0.0000 0.0000 0.0000 1.1784 0.0000 -4.3350
# 5 -29.4619 -28.1123 -26.5473 0.0000 49.9818 0.0000
# 6 0.0000 0.0000 0.0000 -4.3350 0.0000 25.7248
#
#
#
# Elastic Compliance Matrix: (Units=1/GPa)
#
#
# Indices 1 2 3 4 5 6 
#
# 1 0.016851 -0.003471 -0.007841 0.000000 0.003816 0.000000
# 2 -0.003471 0.020445 -0.001511 0.000000 0.008651 0.000000
# 3 -0.007841 -0.001511 0.025471 0.000000 0.008057 0.000000
# 4 0.000000 0.000000 0.000000 2.232823 0.000000 0.376258
# 5 0.003816 0.008651 0.008057 0.000000 0.031402 0.000000
# 6 0.000000 0.000000 0.000000 0.376258 0.000000 0.102277
#
#
# Mechanical properties :
#
#
# Convention : Reuss Voigt Hill
#
# Bulk Modulus (GPa) = 26.93854 44.80893 35.87373
# Shear Modulus (GPa) = 2.02652 23.84920 12.93786
#
# Velocity S-wave (km/s) = 0.98118 3.36597 2.47916
# Velocity P-wave (km/s) = 3.75247 6.03268 5.02365
#
# Compressibility (1/GPa) = 0.03712154
#
# Stress axis : x y z
#
# Youngs Moduli (GPa) = 59.34513 48.91237 39.25986
#
# Poissons Ratio (x) = 0.16976 0.30783
# Poissons Ratio (y) = 0.20597 0.05933
# Poissons Ratio (z) = 0.46531 0.07391
#
# Static dielectric constant tensor:
#      x y z
#    x 1.757480 0.000000 -0.000780 
#    y 0.000000 1.746480 0.000000 
#    z -0.000780 0.000000 1.750750 
# 
# From -- ./inp_files/25507.got.cif
#   From: 2010.05.17/outbox.cif.g08.bks.cpg/sg12_13_cif.got.tgz:25507.got - 2010.06.03 13:09:07.
