data_PCOD9209246
_publ_section_title
;
Structure prediction by ZEFSAII (Michael W. Deem and Ramdas Pophale) SiO2 
 PCOD9209246
Probable space group: C 2/M
;
_chemical_formula_sum "Si O2"
_cell_formula_units_Z 56
_cell_length_a 14.891603
_cell_length_b 20.583923
_cell_length_c 9.541545
_cell_angle_alpha 90.000000
_cell_angle_beta 88.133119
_cell_angle_gamma 90.000000
_cell_volume 2923.194565
_symmetry_space_group_name_H-M "C 2/M"
_symmetry_group_IT_number 12
_symmetry_cell_setting 'monoclinic'
loop_
_space_group_symop_operation_xyz
x,y,z
-x,y,-z
-x,-y,-z
x,-y,z
1/2+x,1/2+y,z
1/2-x,1/2+y,-z
1/2-x,1/2-y,-z
1/2+x,1/2-y,z
loop_
_atom_site_type_symbol
_atom_site_label
_atom_site_fract_x
_atom_site_fract_y
_atom_site_fract_z
Si Si1 0.234114 0.352656 0.516365
Si Si2 0.671817 0.071625 0.255296
Si Si3 0.902889 0.234975 0.427869
Si Si4 0.850777 0.930134 0.060620
Si Si5 0.587997 0.284466 0.901698
Si Si6 0.230664 0.574724 0.807891
Si Si7 0.605895 0.845018 0.019083
O O1 0.200868 0.405681 0.406658
O O2 0.155801 0.298033 0.525929
O O3 0.330408 0.322285 0.465455
O O4 0.242959 0.383743 0.668564
O O5 0.627352 0.000000 0.257127
O O6 0.761586 0.065299 0.158750
O O7 0.620912 0.128994 0.175397
O O8 0.920096 0.236423 0.259683
O O9 0.000000 0.230131 0.500000
O O10 0.819183 0.925220 0.901062
O O11 0.899470 0.000000 0.078172
O O12 0.887057 0.860026 0.099320
O O13 0.643353 0.226861 0.977831
O O14 0.500000 0.284238 0.000000
O O15 0.208974 0.500000 0.776357
O O16 0.154021 0.605979 0.909509
O O17 0.500000 0.846234 0.000000
#
# Coordination Sequence:
#
# PCOD9209246 Si02
#       7
#     8   8   8   8   8   8   8
#     4  11  23  41  67  89 128 172 205 258 324 381
#     4  10  21  38  62  89 122 167 210 257 311 378
#     4  11  26  43  61  95 131 161 211 268 319 378
#     4   9  20  39  61  87 122 156 207 260 304 370
#     4  11  23  39  64  90 121 163 207 263 317 370
#     4  10  21  38  61  90 123 164 211 257 315 381
#     4  10  22  38  59  92 126 162 211 269 314 367
#
# _framework density 19.157122999999999
#
# number of rings (size 3 to 8) (size 9 to 14) (size 15 to 20)
#    0.000    1.714    2.857    1.714    6.000    4.857 
#    0.000    0.000    0.000    4.714    0.000    0.000 
#    0.000    0.000    0.000    0.000    0.000    0.000 
#
# Total GULP energy -155904.982355 kJ/mol
# GULP energy per Si atom -5568.035084 kJ/mol
# Density = 1.911352 g / cm^3
# Si number density = 19.157123 Si / 1000 Ang^3
#
#
#
# Elastic Constant Matrix: (Units=GPa)
#
#
# Indices 1 2 3 4 5 6 
#
# 1 65.1342 20.0094 14.5358 0.0000 -3.5497 0.0000
# 2 20.0094 111.0710 17.9998 0.0000 10.7297 0.0000
# 3 14.5358 17.9998 102.9240 0.0000 4.1401 0.0000
# 4 0.0000 0.0000 0.0000 -245.9399 0.0000 126.8957
# 5 -3.5497 10.7297 4.1401 0.0000 21.1719 0.0000
# 6 0.0000 0.0000 0.0000 126.8957 0.0000 -39.8140
#
#
#
# Elastic Compliance Matrix: (Units=1/GPa)
#
#
# Indices 1 2 3 4 5 6 
#
# 1 0.017063 -0.003215 -0.002044 0.000000 0.004890 0.000000
# 2 -0.003215 0.010300 -0.001124 0.000000 -0.005539 0.000000
# 3 -0.002044 -0.001124 0.010273 0.000000 -0.001782 0.000000
# 4 0.000000 0.000000 0.000000 0.006309 0.000000 0.020108
# 5 0.004890 -0.005539 -0.001782 0.000000 0.051208 0.000000
# 6 0.000000 0.000000 0.000000 0.020108 0.000000 0.038972
#
#
# Mechanical properties :
#
#
# Convention : Reuss Voigt Hill
#
# Bulk Modulus (GPa) = 40.21142 42.69100 41.45121
# Shear Modulus (GPa) = 32.22029 -37.81078 -2.79524
#
# Velocity S-wave (km/s) = 4.10554 -4.44748 -1.20925
# Velocity P-wave (km/s) = 6.59620 2.01006 4.44238
#
# Compressibility (1/GPa) = 0.02486856
#
# Stress axis : x y z
#
# Youngs Moduli (GPa) = 58.60534 97.08992 97.34327
#
# Poissons Ratio (x) = 0.31215 0.19900
# Poissons Ratio (y) = 0.18842 0.10945
# Poissons Ratio (z) = 0.11980 0.10917
#
# Static dielectric constant tensor:
#      x y z
#    x 1.777920 0.000000 0.027130 
#    y 0.000000 1.832630 0.000000 
#    z 0.027130 0.000000 1.655000 
# 
# From -- ./inp_files/64108.got.cif
#   From: 2010.05.17/outbox.cif.g08.bks.cpg/sg12_33_cif.got.tgz:64108.got - 2010.06.03 13:09:07.
