data_PCOD9209145
_publ_section_title
;
Structure prediction by ZEFSAII (Michael W. Deem and Ramdas Pophale) SiO2 
 PCOD9209145
Probable space group: C 2/M
;
_chemical_formula_sum "Si O2"
_cell_formula_units_Z 64
_cell_length_a 26.284093
_cell_length_b 8.652830
_cell_length_c 14.909199
_cell_angle_alpha 90.000000
_cell_angle_beta 78.610496
_cell_angle_gamma 90.000000
_cell_volume 3324.051505
_symmetry_space_group_name_H-M "C 2/M"
_symmetry_group_IT_number 12
_symmetry_cell_setting 'monoclinic'
loop_
_space_group_symop_operation_xyz
x,y,z
-x,y,-z
-x,-y,-z
x,-y,z
1/2+x,1/2+y,z
1/2-x,1/2+y,-z
1/2-x,1/2-y,-z
1/2+x,1/2-y,z
loop_
_atom_site_type_symbol
_atom_site_label
_atom_site_fract_x
_atom_site_fract_y
_atom_site_fract_z
Si Si1 0.023005 0.813776 0.396142
Si Si2 0.400054 0.314265 0.925142
Si Si3 0.356877 0.320737 0.649500
Si Si4 0.301592 0.679324 0.862466
Si Si5 0.503666 0.815219 0.215734
Si Si6 0.589752 0.813291 0.882748
Si Si7 0.205825 0.312755 0.788609
Si Si8 0.260570 0.818573 0.593878
O O1 0.083707 0.771552 0.371927
O O2 0.000000 0.768623 0.500000
O O3 0.995666 0.738755 0.320217
O O4 0.019485 0.000000 0.388983
O O5 0.398502 0.500000 0.921546
O O6 0.342053 0.253483 0.920267
O O7 0.442933 0.256090 0.840103
O O8 0.416712 0.257610 0.016913
O O9 0.353835 0.500000 0.620564
O O10 0.334091 0.317255 0.758069
O O11 0.319560 0.219305 0.601444
O O12 0.292558 0.500000 0.890799
O O13 0.245822 0.745860 0.852196
O O14 0.456128 0.766349 0.168370
O O15 0.507603 0.000000 0.210685
O O16 0.646743 0.768016 0.827460
O O17 0.588510 0.000000 0.890576
O O18 0.209277 0.500000 0.787493
O O19 0.226144 0.256209 0.685246
O O20 0.250000 0.750000 0.500000
O O21 0.251278 0.000000 0.596196
#
# Coordination Sequence:
#
# PCOD9209145 Si02
#       8
#     8   8   8   8   8   8   8   8
#     4  10  21  38  61  88 116 149 190 238 295 350
#     4  11  21  36  60  88 114 150 200 246 292 348
#     4   9  17  35  57  79 112 147 183 233 288 339
#     4   8  15  31  57  82 107 142 184 233 284 334
#     4  11  23  39  58  82 118 157 197 243 290 346
#     4  10  23  40  57  83 120 159 194 238 297 350
#     4   9  19  39  60  79 113 155 191 237 296 345
#     4  11  22  36  57  85 113 147 194 237 284 346
#
# _framework density 19.253613000000001
#
# number of rings (size 3 to 8) (size 9 to 14) (size 15 to 20)
#    0.000    2.125    1.250    3.000    0.000    5.250 
#    0.000    3.125    0.000    0.000    0.000    0.000 
#    0.000    0.000    0.000    0.000    0.000    0.000 
#
# Total GULP energy -178617.129054 kJ/mol
# GULP energy per Si atom -5581.785283 kJ/mol
# Density = 1.920979 g / cm^3
# Si number density = 19.253613 Si / 1000 Ang^3
#
#
#
# Elastic Constant Matrix: (Units=GPa)
#
#
# Indices 1 2 3 4 5 6 
#
# 1 88.6398 19.0356 36.4556 0.0000 15.1241 0.0000
# 2 19.0356 19.9765 17.5818 0.0000 6.6290 0.0000
# 3 36.4556 17.5818 94.2971 0.0000 22.5794 0.0000
# 4 0.0000 0.0000 0.0000 26.5427 0.0000 3.0110
# 5 15.1241 6.6290 22.5794 0.0000 31.6249 0.0000
# 6 0.0000 0.0000 0.0000 3.0110 0.0000 21.6630
#
#
#
# Elastic Compliance Matrix: (Units=1/GPa)
#
#
# Indices 1 2 3 4 5 6 
#
# 1 0.015444 -0.010919 -0.003274 0.000000 -0.002759 0.000000
# 2 -0.010919 0.068418 -0.007661 0.000000 -0.003649 0.000000
# 3 -0.003274 -0.007661 0.015125 0.000000 -0.007627 0.000000
# 4 0.000000 0.000000 0.000000 0.038279 0.000000 -0.005320
# 5 -0.002759 -0.003649 -0.007627 0.000000 0.039151 0.000000
# 6 0.000000 0.000000 0.000000 -0.005320 0.000000 0.046901
#
#
# Mechanical properties :
#
#
# Convention : Reuss Voigt Hill
#
# Bulk Modulus (GPa) = 18.09046 38.78440 28.43743
# Shear Modulus (GPa) = 17.51603 24.62215 21.06909
#
# Velocity S-wave (km/s) = 3.01948 3.57996 3.31160
# Velocity P-wave (km/s) = 4.64464 6.10539 5.42441
#
# Compressibility (1/GPa) = 0.05527776
#
# Stress axis : x y z
#
# Youngs Moduli (GPa) = 64.75049 14.61612 66.11405
#
# Poissons Ratio (x) = 0.15960 0.21646
# Poissons Ratio (y) = 0.70703 0.50652
# Poissons Ratio (z) = 0.21199 0.11198
#
# Static dielectric constant tensor:
#      x y z
#    x 1.691510 0.000000 0.007300 
#    y 0.000000 1.660330 0.000000 
#    z 0.007300 0.000000 1.652950 
# 
# From -- ./inp_files/243922.got.cif
#   From: 2010.05.17/outbox.cif.g08.bks.cpg/sg12_122_cif.got.tgz:243922.got - 2010.06.03 13:09:07.
