data_PCOD9209253
_publ_section_title
;
Structure prediction by ZEFSAII (Michael W. Deem and Ramdas Pophale) SiO2 
 PCOD9209253
Probable space group: C 2/M
;
_chemical_formula_sum "Si O2"
_cell_formula_units_Z 64
_cell_length_a 16.232799
_cell_length_b 18.358336
_cell_length_c 15.137203
_cell_angle_alpha 90.000000
_cell_angle_beta 143.929320
_cell_angle_gamma 90.000000
_cell_volume 2655.996389
_symmetry_space_group_name_H-M "C 2/M"
_symmetry_group_IT_number 12
_symmetry_cell_setting 'monoclinic'
loop_
_space_group_symop_operation_xyz
x,y,z
-x,y,-z
-x,-y,-z
x,-y,z
1/2+x,1/2+y,z
1/2-x,1/2+y,-z
1/2-x,1/2-y,-z
1/2+x,1/2-y,z
loop_
_atom_site_type_symbol
_atom_site_label
_atom_site_fract_x
_atom_site_fract_y
_atom_site_fract_z
Si Si1 0.443137 0.916434 0.552035
Si Si2 0.236462 0.810255 0.296793
Si Si3 0.032326 0.817169 0.831417
Si Si4 0.959922 0.656306 0.192293
Si Si5 0.803376 0.416333 0.893828
Si Si6 0.148113 0.916315 0.074296
Si Si7 0.530685 0.581092 0.372481
Si Si8 0.263324 0.150528 0.680510
O O1 0.500000 0.914598 0.500000
O O2 0.314677 0.860676 0.434812
O O3 0.539176 0.887842 0.715346
O O4 0.403034 0.000000 0.535015
O O5 0.076317 0.796858 0.185574
O O6 0.232302 0.857618 0.204844
O O7 0.299781 0.729980 0.351431
O O8 0.086532 0.740844 0.840626
O O9 0.948855 0.856889 0.681970
O O10 0.125853 0.879103 0.959666
O O11 0.121025 0.654199 0.296623
O O12 0.867234 0.621503 0.034790
O O13 0.847575 0.500000 0.931423
O O14 0.633741 0.413900 0.748346
O O15 0.840546 0.377451 0.834772
O O16 0.202682 0.000000 0.117730
O O17 0.000000 0.922272 0.000000
O O18 0.557108 0.500000 0.360054
O O19 0.638255 0.597444 0.543771
#
# Coordination Sequence:
#
# PCOD9209253 Si02
#       8
#     8   8   8   8   8   8   8   8
#     4  11  25  42  61  89 125 168 219 271 324 387
#     4  10  21  38  61  90 125 165 213 269 323 378
#     4  10  21  38  61  93 128 163 212 268 320 383
#     4  11  24  43  68  96 127 168 217 266 321 386
#     4  11  25  43  64  95 132 168 210 261 318 382
#     4   9  17  31  55  87 123 164 207 254 312 372
#     4  11  24  40  61  91 128 169 212 262 321 381
#     4  11  23  41  67  97 129 168 215 265 319 383
#
# _framework density 24.096419999999998
#
# number of rings (size 3 to 8) (size 9 to 14) (size 15 to 20)
#    0.000    1.500    0.000    4.500    0.000   13.500 
#    0.000    1.250    0.000    0.000    0.000    0.000 
#    0.000    0.000    0.000    0.000    0.000    0.000 
#
# Total GULP energy -178963.210274 kJ/mol
# GULP energy per Si atom -5592.600321 kJ/mol
# Density = 2.404158 g / cm^3
# Si number density = 24.096420 Si / 1000 Ang^3
#
#
#
# Elastic Constant Matrix: (Units=GPa)
#
#
# Indices 1 2 3 4 5 6 
#
# 1 55.4703 23.0946 15.1841 0.0000 -13.0537 0.0000
# 2 23.0946 186.5039 42.7336 0.0000 -18.0029 0.0000
# 3 15.1841 42.7336 131.9064 0.0000 -23.5110 0.0000
# 4 0.0000 0.0000 0.0000 56.1163 0.0000 -12.4329
# 5 -13.0537 -18.0029 -23.5110 0.0000 41.8911 0.0000
# 6 0.0000 0.0000 0.0000 -12.4329 0.0000 21.5259
#
#
#
# Elastic Compliance Matrix: (Units=1/GPa)
#
#
# Indices 1 2 3 4 5 6 
#
# 1 0.020202 -0.001823 -0.000836 0.000000 0.005042 0.000000
# 2 -0.001823 0.006054 -0.001543 0.000000 0.001167 0.000000
# 3 -0.000836 -0.001543 0.008903 0.000000 0.004073 0.000000
# 4 0.000000 0.000000 0.000000 0.020435 0.000000 0.011803
# 5 0.005042 0.001167 0.004073 0.000000 0.028230 0.000000
# 6 0.000000 0.000000 0.000000 0.011803 0.000000 0.053273
#
#
# Mechanical properties :
#
#
# Convention : Reuss Voigt Hill
#
# Bulk Modulus (GPa) = 37.37747 59.54502 48.46124
# Shear Modulus (GPa) = 32.37901 43.43124 37.90513
#
# Velocity S-wave (km/s) = 3.66966 4.25007 3.97049
# Velocity P-wave (km/s) = 5.78797 6.98920 6.41675
#
# Compressibility (1/GPa) = 0.02675409
#
# Stress axis : x y z
#
# Youngs Moduli (GPa) = 49.49941 165.18277 112.31717
#
# Poissons Ratio (x) = 0.30118 0.09391
# Poissons Ratio (y) = 0.09025 0.17334
# Poissons Ratio (z) = 0.04139 0.25493
#
# Static dielectric constant tensor:
#      x y z
#    x 1.985890 0.000000 0.065940 
#    y 0.000000 1.869400 0.000000 
#    z 0.065940 0.000000 1.936690 
# 
# From -- ./inp_files/226895.got.cif
#   From: 2010.05.17/outbox.cif.g08.bks.cpg/sg12_114_cif.got.tgz:226895.got - 2010.06.03 13:09:07.
