data_PCOD9209087
_publ_section_title
;
Structure prediction by ZEFSAII (Michael W. Deem and Ramdas Pophale) SiO2 
 PCOD9209087
Probable space group: C 2/M
;
_chemical_formula_sum "Si O2"
_cell_formula_units_Z 40
_cell_length_a 17.002454
_cell_length_b 13.973895
_cell_length_c 22.490842
_cell_angle_alpha 90.000000
_cell_angle_beta 21.040313
_cell_angle_gamma 90.000000
_cell_volume 1918.488298
_symmetry_space_group_name_H-M "C 2/M"
_symmetry_group_IT_number 12
_symmetry_cell_setting 'monoclinic'
loop_
_space_group_symop_operation_xyz
x,y,z
-x,y,-z
-x,-y,-z
x,-y,z
1/2+x,1/2+y,z
1/2-x,1/2+y,-z
1/2-x,1/2-y,-z
1/2+x,1/2-y,z
loop_
_atom_site_type_symbol
_atom_site_label
_atom_site_fract_x
_atom_site_fract_y
_atom_site_fract_z
Si Si1 0.027999 0.782040 0.884245
Si Si2 0.039047 0.611869 0.371995
Si Si3 0.600475 0.277056 0.253873
Si Si4 0.321472 0.611296 0.678385
Si Si5 0.436840 0.611996 0.254654
O O1 0.234241 0.843953 0.763535
O O2 0.122133 0.678693 0.799669
O O3 0.950820 0.839094 0.880953
O O4 0.838469 0.759748 0.064498
O O5 0.066086 0.500000 0.339253
O O6 0.981118 0.678900 0.356679
O O7 0.828570 0.621111 0.563426
O O8 0.606900 0.343309 0.308550
O O9 0.505806 0.335167 0.265837
O O10 0.500000 0.619204 0.500000
O O11 0.266205 0.500000 0.725226
O O12 0.487292 0.500000 0.222359
#
# Coordination Sequence:
#
# PCOD9209087 Si02
#       5
#     8   8   8   8   8
#     4  11  22  38  61  89 122 159 202 252 303 361
#     4  10  21  38  62  88 118 161 207 251 298 356
#     4  11  23  39  60  90 127 158 197 254 308 359
#     4  10  21  38  61  86 116 160 208 250 295 356
#     4  11  23  40  62  88 124 166 204 247 302 363
#
# _framework density 20.849748999999999
#
# number of rings (size 3 to 8) (size 9 to 14) (size 15 to 20)
#    0.000    1.400    0.000    7.800    0.000    6.400 
#    0.000    3.000    0.000    0.000    0.000    0.000 
#    0.000    0.000    0.000    0.000    0.000    0.000 
#
# Total GULP energy -111661.067650 kJ/mol
# GULP energy per Si atom -5583.053382 kJ/mol
# Density = 2.080229 g / cm^3
# Si number density = 20.849749 Si / 1000 Ang^3
#
#
#
# Elastic Constant Matrix: (Units=GPa)
#
#
# Indices 1 2 3 4 5 6 
#
# 1 110.5817 52.4878 29.4855 0.0083 22.8143 -0.0047
# 2 52.4878 177.0049 55.9100 0.0135 21.1869 -0.0025
# 3 29.4855 55.9100 90.5809 -0.0128 18.5431 0.0120
# 4 0.0083 0.0135 -0.0128 -8.8991 -0.0033 9.3945
# 5 22.8143 21.1869 18.5431 -0.0033 29.4971 0.0087
# 6 -0.0047 -0.0025 0.0120 9.3945 0.0087 23.2711
#
#
#
# Elastic Compliance Matrix: (Units=1/GPa)
#
#
# Indices 1 2 3 4 5 6 
#
# 1 0.011847 -0.002384 -0.000987 0.000012 -0.006830 0.000000
# 2 -0.002384 0.007684 -0.003689 0.000013 -0.001356 -0.000002
# 3 -0.000987 -0.003689 0.014851 -0.000022 -0.005923 0.000003
# 4 0.000012 0.000013 -0.000022 -0.078792 -0.000022 0.031808
# 5 -0.006830 -0.001356 -0.005923 -0.000022 0.043882 -0.000006
# 6 0.000000 -0.000002 0.000003 0.031808 -0.000006 0.030131
#
#
# Mechanical properties :
#
#
# Convention : Reuss Voigt Hill
#
# Bulk Modulus (GPa) = 49.35342 72.65935 61.00638
# Shear Modulus (GPa) = 99.05654 24.79277 61.92465
#
# Velocity S-wave (km/s) = 6.90021 3.45210 5.45572
# Velocity P-wave (km/s) = 9.33842 7.12839 8.30723
#
# Compressibility (1/GPa) = 0.02026202
#
# Stress axis : x y z
#
# Youngs Moduli (GPa) = 84.41096 130.13906 67.33704
#
# Poissons Ratio (x) = 0.31022 0.06644
# Poissons Ratio (y) = 0.20121 0.24843
# Poissons Ratio (z) = 0.08329 0.48012
#
# Static dielectric constant tensor:
#      x y z
#    x 1.811870 -0.000010 -0.016550 
#    y -0.000010 1.715800 0.000010 
#    z -0.016550 0.000010 1.802240 
# 
# From -- ./inp_files/72851.got.cif
#   From: 2010.05.17/outbox.cif.g08.bks.cpg/sg12_37_cif.got.tgz:72851.got - 2010.06.03 13:09:07.
