data_PCOD9209653
_publ_section_title
;
Structure prediction by ZEFSAII (Michael W. Deem and Ramdas Pophale) SiO2 
 PCOD9209653
Probable space group: C 2/M
;
_chemical_formula_sum "Si O2"
_cell_formula_units_Z 56
_cell_length_a 14.293155
_cell_length_b 22.374361
_cell_length_c 9.288419
_cell_angle_alpha 90.000000
_cell_angle_beta 114.684441
_cell_angle_gamma 90.000000
_cell_volume 2699.004496
_symmetry_space_group_name_H-M "C 2/M"
_symmetry_group_IT_number 12
_symmetry_cell_setting 'monoclinic'
loop_
_space_group_symop_operation_xyz
x,y,z
-x,y,-z
-x,-y,-z
x,-y,z
1/2+x,1/2+y,z
1/2-x,1/2+y,-z
1/2-x,1/2-y,-z
1/2+x,1/2-y,z
loop_
_atom_site_type_symbol
_atom_site_label
_atom_site_fract_x
_atom_site_fract_y
_atom_site_fract_z
Si Si1 0.116929 0.363460 0.583442
Si Si2 0.621086 0.068149 0.078703
Si Si3 0.247270 0.932188 0.122650
Si Si4 0.430516 0.430383 0.600289
Si Si5 0.238601 0.351527 0.380406
Si Si6 0.396400 0.734124 0.337919
Si Si7 0.939482 0.850025 0.099632
O O1 0.194906 0.411558 0.696923
O O2 0.157501 0.340790 0.455356
O O3 0.116703 0.304963 0.684603
O O4 0.000000 0.386110 0.500000
O O5 0.681336 0.114613 0.215288
O O6 0.636551 0.000000 0.144202
O O7 0.500000 0.080307 0.000000
O O8 0.668257 0.069731 0.949977
O O9 0.207730 0.000000 0.107495
O O10 0.157861 0.886797 0.021207
O O11 0.500000 0.427031 0.500000
O O12 0.414178 0.500000 0.623037
O O13 0.326400 0.395730 0.497271
O O14 0.489300 0.396532 0.765961
O O15 0.299731 0.294441 0.359736
O O16 0.500000 0.724160 0.500000
O O17 0.408714 0.700292 0.194904
O O18 0.000000 0.825821 0.000000
#
# Coordination Sequence:
#
# PCOD9209653 Si02
#       7
#     8   8   8   8   8   8   8
#     4  11  27  44  65  93 127 171 224 271 321 374
#     4  10  21  38  63  93 130 172 216 266 321 379
#     4  11  24  43  64  94 136 170 208 267 328 385
#     4  11  21  37  66 102 136 172 213 261 326 399
#     4  12  20  41  68  92 125 174 218 271 317 382
#     4  11  23  46  66  94 130 168 219 270 322 389
#     4  12  23  40  65  98 137 169 206 266 330 390
#
# _framework density 20.748389
#
# number of rings (size 3 to 8) (size 9 to 14) (size 15 to 20)
#    0.000    0.857    4.286    3.000    0.000    6.571 
#    0.000    0.714    0.000    0.000    0.000    0.000 
#    0.000    0.000    0.000    0.000    0.000    0.000 
#
# Total GULP energy -156678.914609 kJ/mol
# GULP energy per Si atom -5595.675522 kJ/mol
# Density = 2.070116 g / cm^3
# Si number density = 20.748389 Si / 1000 Ang^3
#
#
#
# Elastic Constant Matrix: (Units=GPa)
#
#
# Indices 1 2 3 4 5 6 
#
# 1 85.3121 -11.3330 13.2640 0.0000 -12.1270 0.0000
# 2 -11.3330 24.9014 -2.1868 0.0000 -0.8878 0.0000
# 3 13.2640 -2.1868 58.5660 0.0000 -7.8492 0.0000
# 4 0.0000 0.0000 0.0000 28.7217 0.0000 6.3421
# 5 -12.1270 -0.8878 -7.8492 0.0000 35.6941 0.0000
# 6 0.0000 0.0000 0.0000 6.3421 0.0000 3.1013
#
#
#
# Elastic Compliance Matrix: (Units=1/GPa)
#
#
# Indices 1 2 3 4 5 6 
#
# 1 0.013484 0.006089 -0.002259 0.000000 0.004236 0.000000
# 2 0.006089 0.043106 0.000671 0.000000 0.003289 0.000000
# 3 -0.002259 0.000671 0.018043 0.000000 0.003217 0.000000
# 4 0.000000 0.000000 0.000000 0.063484 0.000000 -0.129826
# 5 0.004236 0.003289 0.003217 0.000000 0.030244 0.000000
# 6 0.000000 0.000000 0.000000 -0.129826 0.000000 0.587942
#
#
# Mechanical properties :
#
#
# Convention : Reuss Voigt Hill
#
# Bulk Modulus (GPa) = 11.95660 18.69645 15.32653
# Shear Modulus (GPa) = 6.45013 24.77243 15.61128
#
# Velocity S-wave (km/s) = 1.76507 3.45910 2.74598
# Velocity P-wave (km/s) = 3.15106 4.99844 4.17813
#
# Compressibility (1/GPa) = 0.08363582
#
# Stress axis : x y z
#
# Youngs Moduli (GPa) = 74.16250 23.19866 55.42469
#
# Poissons Ratio (x) = -0.14127 0.12519
# Poissons Ratio (y) = -0.45160 -0.03720
# Poissons Ratio (z) = 0.16752 -0.01557
#
# Static dielectric constant tensor:
#      x y z
#    x 1.751450 0.000000 -0.023360 
#    y 0.000000 1.722270 0.000000 
#    z -0.023360 0.000000 1.711840 
# 
# From -- ./inp_files/65947.got.cif
#   From: 2010.05.17/outbox.cif.g08.bks.cpg/sg12_33_cif.got.tgz:65947.got - 2010.06.03 13:09:07.
