data_PCOD9209956
_publ_section_title
;
Structure prediction by ZEFSAII (Michael W. Deem and Ramdas Pophale) SiO2 
 PCOD9209956
Probable space group: C 2/M
;
_chemical_formula_sum "Si O2"
_cell_formula_units_Z 52
_cell_length_a 15.059270
_cell_length_b 24.154521
_cell_length_c 7.422097
_cell_angle_alpha 90.000000
_cell_angle_beta 93.204566
_cell_angle_gamma 90.000000
_cell_volume 2695.562109
_symmetry_space_group_name_H-M "C 2/M"
_symmetry_group_IT_number 12
_symmetry_cell_setting 'monoclinic'
loop_
_space_group_symop_operation_xyz
x,y,z
-x,y,-z
-x,-y,-z
x,-y,z
1/2+x,1/2+y,z
1/2-x,1/2+y,-z
1/2-x,1/2-y,-z
1/2+x,1/2-y,z
loop_
_atom_site_type_symbol
_atom_site_label
_atom_site_fract_x
_atom_site_fract_y
_atom_site_fract_z
Si Si1 0.124540 0.733683 0.180904
Si Si2 0.500000 0.150380 0.000000
Si Si3 0.429814 0.063307 0.230610
Si Si4 0.103152 0.180029 0.461139
Si Si5 0.768464 0.145591 0.203054
Si Si6 0.364514 0.936708 0.614134
Si Si7 0.098424 0.145144 0.074515
O O1 0.130998 0.760689 0.379628
O O2 0.211907 0.699653 0.142747
O O3 0.105569 0.787461 0.056009
O O4 0.043960 0.690664 0.151293
O O5 0.573857 0.110408 0.920013
O O6 0.533819 0.065214 0.302503
O O7 0.372496 0.075580 0.401460
O O8 0.412099 0.000000 0.167190
O O9 0.160685 0.162762 0.636648
O O10 0.112074 0.138720 0.290187
O O11 0.000000 0.182769 0.500000
O O12 0.699643 0.103769 0.287582
O O13 0.823707 0.121906 0.041134
O O14 0.334428 0.000000 0.630349
O O15 0.000000 0.128276 0.000000
#
# Coordination Sequence:
#
# PCOD9209956 Si02
#       7
#     8   4   8   8   8   8   8
#     4  10  22  34  50  86 121 148 193 239 265 341
#     4  12  19  34  58  84 124 160 189 238 276 326
#     4   9  19  37  57  81 120 160 191 226 289 347
#     4  10  22  38  57  80 113 158 193 234 296 345
#     4  12  20  38  62  81 112 157 192 241 291 341
#     4   9  20  38  58  85 114 146 194 247 285 340
#     4  10  21  39  55  81 116 154 191 235 287 348
#
# _framework density 19.290966999999998
#
# number of rings (size 3 to 8) (size 9 to 14) (size 15 to 20)
#    0.923    0.923    3.846    2.077    0.000    2.462 
#    0.000    0.000    0.000    0.923    0.000    0.000 
#    0.000    0.000    0.000    0.000    0.000    0.000 
#
# Total GULP energy -144942.671066 kJ/mol
# GULP energy per Si atom -5574.718118 kJ/mol
# Density = 1.924706 g / cm^3
# Si number density = 19.290967 Si / 1000 Ang^3
#
#
#
# Elastic Constant Matrix: (Units=GPa)
#
#
# Indices 1 2 3 4 5 6 
#
# 1 61.5422 -4.3703 -0.7976 0.0000 -18.1806 0.0000
# 2 -4.3703 40.9042 3.0090 0.0000 -13.6124 0.0000
# 3 -0.7976 3.0090 49.6403 0.0000 -15.8690 0.0000
# 4 0.0000 0.0000 0.0000 17.5627 0.0000 -10.7056
# 5 -18.1806 -13.6124 -15.8690 0.0000 38.4553 0.0000
# 6 0.0000 0.0000 0.0000 -10.7056 0.0000 7.9089
#
#
#
# Elastic Compliance Matrix: (Units=1/GPa)
#
#
# Indices 1 2 3 4 5 6 
#
# 1 0.020925 0.006586 0.004429 0.000000 0.014052 0.000000
# 2 0.006586 0.029907 0.003079 0.000000 0.014971 0.000000
# 3 0.004429 0.003079 0.024246 0.000000 0.013189 0.000000
# 4 0.000000 0.000000 0.000000 0.325590 0.000000 0.440723
# 5 0.014052 0.014971 0.013189 0.000000 0.043390 0.000000
# 6 0.000000 0.000000 0.000000 0.440723 0.000000 0.723008
#
#
# Mechanical properties :
#
#
# Convention : Reuss Voigt Hill
#
# Bulk Modulus (GPa) = 9.68371 16.41875 13.05123
# Shear Modulus (GPa) = 4.26149 23.06842 13.66495
#
# Velocity S-wave (km/s) = 1.48790 3.46181 2.66439
# Velocity P-wave (km/s) = 2.82534 4.95059 4.03057
#
# Compressibility (1/GPa) = 0.10326624
#
# Stress axis : x y z
#
# Youngs Moduli (GPa) = 47.78895 33.43741 41.24434
#
# Poissons Ratio (x) = -0.22023 -0.18268
# Poissons Ratio (y) = -0.31475 -0.12698
# Poissons Ratio (z) = -0.21166 -0.10295
#
# Static dielectric constant tensor:
#      x y z
#    x 1.666580 0.000000 0.006420 
#    y 0.000000 1.670110 0.000000 
#    z 0.006420 0.000000 1.707700 
# 
# From -- ./inp_files/52556.got.cif
#   From: 2010.05.17/outbox.cif.g08.bks.cpg/sg12_27_cif.got.tgz:52556.got - 2010.06.03 13:09:07.
