data_PCOD9209382
_publ_section_title
;
Structure prediction by ZEFSAII (Michael W. Deem and Ramdas Pophale) SiO2 
 PCOD9209382
Probable space group: C 2/M
;
_chemical_formula_sum "Si O2"
_cell_formula_units_Z 44
_cell_length_a 16.172073
_cell_length_b 25.750959
_cell_length_c 5.955470
_cell_angle_alpha 90.000000
_cell_angle_beta 125.071967
_cell_angle_gamma 90.000000
_cell_volume 2029.818408
_symmetry_space_group_name_H-M "C 2/M"
_symmetry_group_IT_number 12
_symmetry_cell_setting 'monoclinic'
loop_
_space_group_symop_operation_xyz
x,y,z
-x,y,-z
-x,-y,-z
x,-y,z
1/2+x,1/2+y,z
1/2-x,1/2+y,-z
1/2-x,1/2-y,-z
1/2+x,1/2-y,z
loop_
_atom_site_type_symbol
_atom_site_label
_atom_site_fract_x
_atom_site_fract_y
_atom_site_fract_z
Si Si1 0.849206 0.183683 0.518716
Si Si2 0.023650 0.102819 0.794844
Si Si3 0.000000 0.351606 0.000000
Si Si4 0.919123 0.556281 0.174674
Si Si5 0.168532 0.703299 0.562308
Si Si6 0.246992 0.880991 0.004782
O O1 0.855752 0.238358 0.397978
O O2 0.779995 0.200201 0.621213
O O3 0.956926 0.155807 0.708184
O O4 0.785438 0.140656 0.286681
O O5 0.000000 0.082030 0.500000
O O6 0.142741 0.113318 0.976127
O O7 0.000000 0.075398 0.000000
O O8 0.919413 0.316267 0.741944
O O9 0.058606 0.393038 0.936547
O O10 0.923543 0.500000 0.067046
O O11 0.807080 0.565662 0.092482
O O12 0.000000 0.556182 0.500000
O O13 0.178945 0.661622 0.773623
#
# Coordination Sequence:
#
# PCOD9209382 Si02
#       6
#     8   8   4   8   8   8
#     4  10  22  37  57  91 127 174 210 258 316 395
#     4  10  21  38  62  88 127 175 217 262 325 389
#     4  12  23  40  62  94 126 168 213 278 330 398
#     4  11  24  43  65  91 121 164 218 280 339 387
#     4  11  22  35  61  89 130 165 218 255 320 392
#     4  11  21  41  61  87 125 168 220 268 326 394
#
# _framework density 21.676815000000001
#
# number of rings (size 3 to 8) (size 9 to 14) (size 15 to 20)
#    0.000    1.273    5.455    0.818    1.273    0.000 
#    9.818    0.000    0.000    5.455    0.000    0.000 
#    0.000    0.000    0.000    0.000    0.000    0.000 
#
# Total GULP energy -122591.324515 kJ/mol
# GULP energy per Si atom -5572.332933 kJ/mol
# Density = 2.162748 g / cm^3
# Si number density = 21.676815 Si / 1000 Ang^3
#
#
#
# Elastic Constant Matrix: (Units=GPa)
#
#
# Indices 1 2 3 4 5 6 
#
# 1 107.0866 26.2776 24.1255 0.0000 18.3290 0.0000
# 2 26.2776 67.1180 12.3845 0.0000 16.0053 0.0000
# 3 24.1255 12.3845 80.8282 0.0000 15.0001 0.0000
# 4 0.0000 0.0000 0.0000 -120.5837 0.0000 -97.0844
# 5 18.3290 16.0053 15.0001 0.0000 41.1510 0.0000
# 6 0.0000 0.0000 0.0000 -97.0844 0.0000 -73.2374
#
#
#
# Elastic Compliance Matrix: (Units=1/GPa)
#
#
# Indices 1 2 3 4 5 6 
#
# 1 0.011144 -0.003258 -0.002297 0.000000 -0.002860 0.000000
# 2 -0.003258 0.017529 -0.000770 0.000000 -0.005086 0.000000
# 3 -0.002297 -0.000770 0.013868 0.000000 -0.003733 0.000000
# 4 0.000000 0.000000 0.000000 0.123266 0.000000 -0.163403
# 5 -0.002860 -0.005086 -0.003733 0.000000 0.028914 0.000000
# 6 0.000000 0.000000 0.000000 -0.163403 0.000000 0.202954
#
#
# Mechanical properties :
#
#
# Convention : Reuss Voigt Hill
#
# Bulk Modulus (GPa) = 33.45090 42.28980 37.87035
# Shear Modulus (GPa) = 11.89661 -17.71767 -2.91053
#
# Velocity S-wave (km/s) = 2.34523 -2.86205 -1.16000
# Velocity P-wave (km/s) = 4.77479 2.93766 3.96412
#
# Compressibility (1/GPa) = 0.02989457
#
# Stress axis : x y z
#
# Youngs Moduli (GPa) = 89.73076 57.04687 72.10819
#
# Poissons Ratio (x) = 0.18583 0.16560
# Poissons Ratio (y) = 0.29230 0.05550
# Poissons Ratio (z) = 0.20607 0.04390
#
# Static dielectric constant tensor:
#      x y z
#    x 1.909430 0.000000 -0.061980 
#    y 0.000000 1.784650 0.000000 
#    z -0.061980 0.000000 1.830900 
# 
# From -- ./inp_files/17805.got.cif
#   From: 2010.05.17/outbox.cif.g08.bks.cpg/sg12_9_cif.got.tgz:17805.got - 2010.06.03 13:09:07.
