data_PCOD9209524
_publ_section_title
;
Structure prediction by ZEFSAII (Michael W. Deem and Ramdas Pophale) SiO2 
 PCOD9209524
Probable space group: C 2/M
;
_chemical_formula_sum "Si O2"
_cell_formula_units_Z 40
_cell_length_a 30.176573
_cell_length_b 8.680795
_cell_length_c 15.022813
_cell_angle_alpha 90.000000
_cell_angle_beta 30.526107
_cell_angle_gamma 90.000000
_cell_volume 1998.873569
_symmetry_space_group_name_H-M "C 2/M"
_symmetry_group_IT_number 12
_symmetry_cell_setting 'monoclinic'
loop_
_space_group_symop_operation_xyz
x,y,z
-x,y,-z
-x,-y,-z
x,-y,z
1/2+x,1/2+y,z
1/2-x,1/2+y,-z
1/2-x,1/2-y,-z
1/2+x,1/2-y,z
loop_
_atom_site_type_symbol
_atom_site_label
_atom_site_fract_x
_atom_site_fract_y
_atom_site_fract_z
Si Si1 0.967710 0.682987 0.271802
Si Si2 0.566001 0.817780 0.466464
Si Si3 0.351922 0.317375 0.083032
Si Si4 0.720136 0.315952 0.457059
Si Si5 0.251877 0.318431 0.898013
O O1 0.970727 0.500000 0.250881
O O2 0.975160 0.708467 0.365507
O O3 0.874448 0.748208 0.403863
O O4 0.048263 0.763498 0.083697
O O5 0.500000 0.786230 0.500000
O O6 0.652387 0.717076 0.306481
O O7 0.590323 0.000000 0.419465
O O8 0.344589 0.500000 0.105318
O O9 0.289982 0.236930 0.262411
O O10 0.316247 0.265010 0.048564
O O11 0.715783 0.500000 0.467012
O O12 0.750000 0.250000 0.500000
O O13 0.233806 0.500000 0.930941
O O14 0.250000 0.250000 0.000000
#
# Coordination Sequence:
#
# PCOD9209524 Si02
#       5
#     8   8   8   8   8
#     4  11  23  42  69 101 139 179 224 279 341 403
#     4  10  21  38  62  93 133 176 222 273 334 400
#     4  12  25  44  69 100 138 179 227 280 337 403
#     4  12  26  47  73 102 136 177 228 283 345 406
#     4  12  24  39  62  93 133 178 228 279 336 400
#
# _framework density 20.011271000000001
#
# number of rings (size 3 to 8) (size 9 to 14) (size 15 to 20)
#    0.000    0.600    2.000    7.200    0.000    3.600 
#    0.000    4.000    0.000    0.000    0.000    0.000 
#    0.000    0.000    0.000    0.000    0.000    0.000 
#
# Total GULP energy -111995.546692 kJ/mol
# GULP energy per Si atom -5599.777335 kJ/mol
# Density = 1.996572 g / cm^3
# Si number density = 20.011271 Si / 1000 Ang^3
#
#
#
# Elastic Constant Matrix: (Units=GPa)
#
#
# Indices 1 2 3 4 5 6 
#
# 1 118.7457 24.0195 34.9860 0.0000 0.1366 0.0000
# 2 24.0195 90.2892 10.7608 0.0000 -3.1485 0.0000
# 3 34.9860 10.7608 94.3085 0.0000 -12.2617 0.0000
# 4 0.0000 0.0000 0.0000 39.3680 0.0000 -3.2495
# 5 0.1366 -3.1485 -12.2617 0.0000 26.5277 0.0000
# 6 0.0000 0.0000 0.0000 -3.2495 0.0000 33.5309
#
#
#
# Elastic Compliance Matrix: (Units=1/GPa)
#
#
# Indices 1 2 3 4 5 6 
#
# 1 0.009977 -0.002284 -0.003705 0.000000 -0.002035 0.000000
# 2 -0.002284 0.011766 -0.000332 0.000000 0.001255 0.000000
# 3 -0.003705 -0.000332 0.012781 0.000000 0.005888 0.000000
# 4 0.000000 0.000000 0.000000 0.025606 0.000000 0.002481
# 5 -0.002035 0.001255 0.005888 0.000000 0.040577 0.000000
# 6 0.000000 0.000000 0.000000 0.002481 0.000000 0.030064
#
#
# Mechanical properties :
#
#
# Convention : Reuss Voigt Hill
#
# Bulk Modulus (GPa) = 45.69820 49.20844 47.45332
# Shear Modulus (GPa) = 33.17652 35.45714 34.31683
#
# Velocity S-wave (km/s) = 4.07614 4.21391 4.14560
# Velocity P-wave (km/s) = 6.71111 6.95125 6.83223
#
# Compressibility (1/GPa) = 0.02188270
#
# Stress axis : x y z
#
# Youngs Moduli (GPa) = 100.22717 84.98787 78.23814
#
# Poissons Ratio (x) = 0.19408 0.28990
# Poissons Ratio (y) = 0.22888 0.02600
# Poissons Ratio (z) = 0.37138 0.02824
#
# Static dielectric constant tensor:
#      x y z
#    x 1.248390 0.000000 0.281010 
#    y 0.000000 1.664120 0.000000 
#    z 0.281010 0.000000 1.532380 
# 
# From -- ./inp_files/211196.got.cif
#   From: 2010.05.17/outbox.cif.g08.bks.cpg/sg12_106_cif.got.tgz:211196.got - 2010.06.03 13:09:07.
