data_PCOD9209954
_publ_section_title
;
Structure prediction by ZEFSAII (Michael W. Deem and Ramdas Pophale) SiO2 
 PCOD9209954
Probable space group: C 2/M
;
_chemical_formula_sum "Si O2"
_cell_formula_units_Z 44
_cell_length_a 13.923544
_cell_length_b 12.578792
_cell_length_c 16.393310
_cell_angle_alpha 90.000000
_cell_angle_beta 52.544187
_cell_angle_gamma 90.000000
_cell_volume 2279.181077
_symmetry_space_group_name_H-M "C 2/M"
_symmetry_group_IT_number 12
_symmetry_cell_setting 'monoclinic'
loop_
_space_group_symop_operation_xyz
x,y,z
-x,y,-z
-x,-y,-z
x,-y,z
1/2+x,1/2+y,z
1/2-x,1/2+y,-z
1/2-x,1/2-y,-z
1/2+x,1/2-y,z
loop_
_atom_site_type_symbol
_atom_site_label
_atom_site_fract_x
_atom_site_fract_y
_atom_site_fract_z
Si Si1 0.119268 0.214815 0.146884
Si Si2 0.061399 0.320737 0.335109
Si Si3 0.000000 0.173927 0.500000
Si Si4 0.100660 0.000000 0.567978
Si Si5 0.278180 0.000000 0.716498
Si Si6 0.493715 0.500000 0.200379
Si Si7 0.625538 0.000000 0.517098
Si Si8 0.880664 0.628797 0.005403
O O1 0.044124 0.250167 0.264707
O O2 0.110518 0.309882 0.085880
O O3 0.255720 0.181345 0.103082
O O4 0.063519 0.106557 0.140209
O O5 0.084826 0.248415 0.401724
O O6 0.175323 0.396737 0.261003
O O7 0.948608 0.397042 0.414418
O O8 0.068772 0.100898 0.528841
O O9 0.025437 0.000000 0.691126
O O10 0.241032 0.000000 0.516059
O O11 0.353387 0.000000 0.591494
O O12 0.138812 0.000000 0.769387
O O13 0.867672 0.500000 0.004028
O O14 0.000000 0.647333 0.000000
#
# Coordination Sequence:
#
# PCOD9209954 Si02
#       8
#     8   8   4   4   4   4   4   8
#     4  11  24  42  66  94 125 159 207 262 313 375
#     4  11  21  38  60  89 123 164 208 254 295 366
#     4  11  20  37  56  86 126 169 206 241 300 356
#     4  10  23  37  54  85 131 173 203 247 292 354
#     4  10  22  36  60  88 130 166 208 249 306 350
#     4  11  22  40  58  96 128 161 210 259 300 367
#     4  10  21  39  54  87 127 163 213 253 288 349
#     4  10  24  48  69  90 122 158 203 264 328 379
#
# _framework density 19.30518
#
# number of rings (size 3 to 8) (size 9 to 14) (size 15 to 20)
#    0.000    1.455    4.545    0.545    5.091    2.182 
#    0.000    0.455    0.000    0.000    0.000    0.000 
#    0.000    0.000    0.000    0.000    0.000    0.000 
#
# Total GULP energy -122725.987388 kJ/mol
# GULP energy per Si atom -5578.453972 kJ/mol
# Density = 1.926124 g / cm^3
# Si number density = 19.305180 Si / 1000 Ang^3
#
#
#
# Elastic Constant Matrix: (Units=GPa)
#
#
# Indices 1 2 3 4 5 6 
#
# 1 82.0086 31.9579 3.7908 0.0000 -12.5016 0.0000
# 2 31.9579 111.3352 12.7384 0.0000 2.1920 0.0000
# 3 3.7908 12.7384 36.5944 0.0000 -5.3129 0.0000
# 4 0.0000 0.0000 0.0000 27.5415 0.0000 4.5649
# 5 -12.5016 2.1920 -5.3129 0.0000 25.0589 0.0000
# 6 0.0000 0.0000 0.0000 4.5649 0.0000 16.4272
#
#
#
# Elastic Compliance Matrix: (Units=1/GPa)
#
#
# Indices 1 2 3 4 5 6 
#
# 1 0.015217 -0.004674 0.001251 0.000000 0.008266 0.000000
# 2 -0.004674 0.010849 -0.003888 0.000000 -0.004105 0.000000
# 3 0.001251 -0.003888 0.029602 0.000000 0.007240 0.000000
# 4 0.000000 0.000000 0.000000 0.038062 0.000000 -0.010577
# 5 0.008266 -0.004105 0.007240 0.000000 0.045924 0.000000
# 6 0.000000 0.000000 0.000000 -0.010577 0.000000 0.063814
#
#
# Mechanical properties :
#
#
# Convention : Reuss Voigt Hill
#
# Bulk Modulus (GPa) = 24.36343 36.32360 30.34352
# Shear Modulus (GPa) = 21.57285 25.90227 23.73756
#
# Velocity S-wave (km/s) = 3.34648 3.66693 3.51036
# Velocity P-wave (km/s) = 5.25161 6.06505 5.67293
#
# Compressibility (1/GPa) = 0.04104512
#
# Stress axis : x y z
#
# Youngs Moduli (GPa) = 65.71397 92.17264 33.78181
#
# Poissons Ratio (x) = 0.43081 -0.04225
# Poissons Ratio (y) = 0.30714 0.13136
# Poissons Ratio (z) = -0.08219 0.35841
#
# Static dielectric constant tensor:
#      x y z
#    x 1.642330 0.000000 -0.010800 
#    y 0.000000 1.693350 0.000000 
#    z -0.010800 0.000000 1.675190 
# 
# From -- ./inp_files/245592.got.cif
#   From: 2010.05.17/outbox.cif.g08.bks.cpg/sg12_123_cif.got.tgz:245592.got - 2010.06.03 13:09:07.
