data_PCOD9209747
_publ_section_title
;
Structure prediction by ZEFSAII (Michael W. Deem and Ramdas Pophale) SiO2 
 PCOD9209747
Probable space group: C 2/M
;
_chemical_formula_sum "Si O2"
_cell_formula_units_Z 48
_cell_length_a 8.421692
_cell_length_b 28.357631
_cell_length_c 10.090540
_cell_angle_alpha 90.000000
_cell_angle_beta 84.015497
_cell_angle_gamma 90.000000
_cell_volume 2396.681859
_symmetry_space_group_name_H-M "C 2/M"
_symmetry_group_IT_number 12
_symmetry_cell_setting 'monoclinic'
loop_
_space_group_symop_operation_xyz
x,y,z
-x,y,-z
-x,-y,-z
x,-y,z
1/2+x,1/2+y,z
1/2-x,1/2+y,-z
1/2-x,1/2-y,-z
1/2+x,1/2-y,z
loop_
_atom_site_type_symbol
_atom_site_label
_atom_site_fract_x
_atom_site_fract_y
_atom_site_fract_z
Si Si1 0.806076 0.847349 0.540211
Si Si2 0.850976 0.053882 0.914414
Si Si3 0.138179 0.791421 0.206661
Si Si4 0.238088 0.810150 0.737359
Si Si5 0.681483 0.145856 0.014244
Si Si6 0.844246 0.051615 0.605930
O O1 0.780294 0.817368 0.674816
O O2 0.731154 0.823604 0.417400
O O3 0.753619 0.901230 0.569255
O O4 0.000000 0.848156 0.500000
O O5 0.895160 0.058255 0.755134
O O6 0.795062 0.000000 0.940123
O O7 0.725064 0.094495 0.955693
O O8 0.000000 0.061628 0.000000
O O9 0.171822 0.736398 0.220848
O O10 0.950222 0.800744 0.230839
O O11 0.208460 0.815583 0.069530
O O12 0.284938 0.851613 0.832886
O O13 0.500000 0.157752 0.000000
O O14 0.000000 0.049616 0.500000
O O15 0.763755 0.000000 0.603464
#
# Coordination Sequence:
#
# PCOD9209747 Si02
#       6
#     8   8   8   8   8   8
#     4   9  19  34  57  88 117 151 191 241 299 348
#     4  10  21  38  64  93 119 154 199 246 294 348
#     4  11  21  40  60  85 118 153 199 245 297 354
#     4  11  23  38  62  87 118 154 197 249 295 357
#     4  12  25  40  58  85 121 162 199 240 295 350
#     4   9  17  32  58  91 122 147 185 239 295 350
#
# _framework density 20.027688999999999
#
# number of rings (size 3 to 8) (size 9 to 14) (size 15 to 20)
#    0.000    1.667    1.667    3.500    4.667    0.333 
#    0.000    2.500    0.000    0.000    0.000    2.333 
#    0.000    0.000    0.000    0.000    0.000    0.000 
#
# Total GULP energy -134030.883457 kJ/mol
# GULP energy per Si atom -5584.620144 kJ/mol
# Density = 1.998210 g / cm^3
# Si number density = 20.027689 Si / 1000 Ang^3
#
#
#
# Elastic Constant Matrix: (Units=GPa)
#
#
# Indices 1 2 3 4 5 6 
#
# 1 34.6879 2.3339 4.7314 0.0000 10.0607 0.0000
# 2 2.3339 76.8557 10.3869 0.0000 -1.0873 0.0000
# 3 4.7314 10.3869 74.6268 0.0000 13.6608 0.0000
# 4 0.0000 0.0000 0.0000 -17.9722 0.0000 18.3656
# 5 10.0607 -1.0873 13.6608 0.0000 13.7685 0.0000
# 6 0.0000 0.0000 0.0000 18.3656 0.0000 -16.0073
#
#
#
# Elastic Compliance Matrix: (Units=1/GPa)
#
#
# Indices 1 2 3 4 5 6 
#
# 1 0.037512 -0.002068 0.003613 0.000000 -0.031158 0.000000
# 2 -0.002068 0.013516 -0.002715 0.000000 0.005273 0.000000
# 3 0.003613 -0.002715 0.017194 0.000000 -0.019915 0.000000
# 4 0.000000 0.000000 0.000000 0.322682 0.000000 0.370221
# 5 -0.031158 0.005273 -0.019915 0.000000 0.115572 0.000000
# 6 0.000000 0.000000 0.000000 0.370221 0.000000 0.362292
#
#
# Mechanical properties :
#
#
# Convention : Reuss Voigt Hill
#
# Bulk Modulus (GPa) = 15.17879 24.56386 19.87132
# Shear Modulus (GPa) = 5.59867 7.20566 6.40216
#
# Velocity S-wave (km/s) = 1.67378 1.89886 1.78986
# Velocity P-wave (km/s) = 3.36612 4.13511 3.77027
#
# Compressibility (1/GPa) = 0.06588141
#
# Stress axis : x y z
#
# Youngs Moduli (GPa) = 26.65829 73.98765 58.15876
#
# Poissons Ratio (x) = 0.15303 -0.21014
# Poissons Ratio (y) = 0.05514 0.15792
# Poissons Ratio (z) = -0.09632 0.20090
#
# Static dielectric constant tensor:
#      x y z
#    x 1.677220 0.000000 0.001950 
#    y 0.000000 1.730570 0.000000 
#    z 0.001950 0.000000 1.695770 
# 
# From -- ./inp_files/42147.got.cif
#   From: 2010.05.17/outbox.cif.g08.bks.cpg/sg12_22_cif.got.tgz:42147.got - 2010.06.03 13:09:07.
