data_PCOD9209234
_publ_section_title
;
Structure prediction by ZEFSAII (Michael W. Deem and Ramdas Pophale) SiO2 
 PCOD9209234
Probable space group: C 2/M
;
_chemical_formula_sum "Si O2"
_cell_formula_units_Z 64
_cell_length_a 14.403923
_cell_length_b 25.808179
_cell_length_c 9.648562
_cell_angle_alpha 90.000000
_cell_angle_beta 107.569594
_cell_angle_gamma 90.000000
_cell_volume 3419.428839
_symmetry_space_group_name_H-M "C 2/M"
_symmetry_group_IT_number 12
_symmetry_cell_setting 'monoclinic'
loop_
_space_group_symop_operation_xyz
x,y,z
-x,y,-z
-x,-y,-z
x,-y,z
1/2+x,1/2+y,z
1/2-x,1/2+y,-z
1/2-x,1/2-y,-z
1/2+x,1/2-y,z
loop_
_atom_site_type_symbol
_atom_site_label
_atom_site_fract_x
_atom_site_fract_y
_atom_site_fract_z
Si Si1 0.902408 0.173573 0.047077
Si Si2 0.284887 0.855061 0.181844
Si Si3 0.172970 0.718372 0.555963
Si Si4 0.579318 0.941606 0.645199
Si Si5 0.094614 0.176019 0.623957
Si Si6 0.386808 0.206846 0.987871
Si Si7 0.811513 0.652744 0.687311
Si Si8 0.061731 0.558337 0.159048
O O1 0.916525 0.165952 0.217306
O O2 0.868170 0.233469 0.016950
O O3 0.816683 0.138737 0.943900
O O4 0.000000 0.167757 0.000000
O O5 0.275420 0.813003 0.299128
O O6 0.331098 0.904885 0.276996
O O7 0.358139 0.830653 0.100948
O O8 0.250000 0.750000 0.500000
O O9 0.105603 0.762157 0.595040
O O10 0.135381 0.677062 0.424146
O O11 0.500000 0.920749 0.500000
O O12 0.516951 0.945639 0.755928
O O13 0.608083 0.000000 0.612568
O O14 0.195261 0.150625 0.615311
O O15 0.000000 0.157300 0.500000
O O16 0.500000 0.202204 0.000000
O O17 0.327235 0.190970 0.824716
O O18 0.857301 0.598605 0.755326
O O19 0.099152 0.500000 0.145718
O O20 0.000000 0.577400 0.000000
#
# Coordination Sequence:
#
# PCOD9209234 Si02
#       8
#     8   8   8   8   8   8   8   8
#     4  11  24  38  57  82 117 158 202 242 284 338
#     4  12  21  39  62  83 116 163 197 237 293 350
#     4  10  23  35  55  81 116 152 197 236 282 340
#     4  10  22  39  60  91 122 148 187 240 297 354
#     4  11  24  38  53  80 119 156 196 244 287 338
#     4  11  22  35  58  85 116 154 196 241 285 351
#     4  11  21  37  57  84 116 154 194 234 290 354
#     4  10  21  38  61  90 118 143 184 241 297 354
#
# _framework density 18.716577000000001
#
# number of rings (size 3 to 8) (size 9 to 14) (size 15 to 20)
#    0.000    1.250    2.500    4.500    7.000    1.500 
#    0.000    0.000    0.000    0.750    0.000    0.000 
#    0.000    0.000    0.000    0.000    0.000    0.000 
#
# Total GULP energy -178666.670956 kJ/mol
# GULP energy per Si atom -5583.333467 kJ/mol
# Density = 1.867398 g / cm^3
# Si number density = 18.716577 Si / 1000 Ang^3
#
#
#
# Elastic Constant Matrix: (Units=GPa)
#
#
# Indices 1 2 3 4 5 6 
#
# 1 79.2915 33.7651 34.6585 0.0000 17.1590 0.0000
# 2 33.7651 82.5166 34.1243 0.0000 23.0729 0.0000
# 3 34.6585 34.1243 132.5207 0.0000 7.4459 0.0000
# 4 0.0000 0.0000 0.0000 29.0430 0.0000 9.6052
# 5 17.1590 23.0729 7.4459 0.0000 40.3453 0.0000
# 6 0.0000 0.0000 0.0000 9.6052 0.0000 23.8560
#
#
#
# Elastic Compliance Matrix: (Units=1/GPa)
#
#
# Indices 1 2 3 4 5 6 
#
# 1 0.016687 -0.004479 -0.002987 0.000000 -0.003984 0.000000
# 2 -0.004479 0.017197 -0.002841 0.000000 -0.007406 0.000000
# 3 -0.002987 -0.002841 0.008989 0.000000 0.001236 0.000000
# 4 0.000000 0.000000 0.000000 0.039721 0.000000 -0.015993
# 5 -0.003984 -0.007406 0.001236 0.000000 0.030488 0.000000
# 6 0.000000 0.000000 0.000000 -0.015993 0.000000 0.048357
#
#
# Mechanical properties :
#
#
# Convention : Reuss Voigt Hill
#
# Bulk Modulus (GPa) = 44.92389 55.49162 50.20776
# Shear Modulus (GPa) = 26.38913 31.43427 28.91170
#
# Velocity S-wave (km/s) = 3.75898 4.10260 3.93454
# Velocity P-wave (km/s) = 6.54937 7.22181 6.89379
#
# Compressibility (1/GPa) = 0.02225987
#
# Stress axis : x y z
#
# Youngs Moduli (GPa) = 59.92780 58.14980 111.24391
#
# Poissons Ratio (x) = 0.26044 0.33228
# Poissons Ratio (y) = 0.26840 0.31602
# Poissons Ratio (z) = 0.17900 0.16519
#
# Static dielectric constant tensor:
#      x y z
#    x 1.663750 0.000000 -0.002560 
#    y 0.000000 1.694200 0.000000 
#    z -0.002560 0.000000 2.176430 
# 
# From -- ./inp_files/67036.got.cif
#   From: 2010.05.17/outbox.cif.g08.bks.cpg/sg12_34_cif.got.tgz:67036.got - 2010.06.03 13:09:07.
