data_PCOD9209973
_publ_section_title
;
Structure prediction by ZEFSAII (Michael W. Deem and Ramdas Pophale) SiO2 
 PCOD9209973
Probable space group: C 2/M
;
_chemical_formula_sum "Si O2"
_cell_formula_units_Z 56
_cell_length_a 13.835023
_cell_length_b 13.842616
_cell_length_c 16.149934
_cell_angle_alpha 90.000000
_cell_angle_beta 103.085926
_cell_angle_gamma 90.000000
_cell_volume 3012.602699
_symmetry_space_group_name_H-M "C 2/M"
_symmetry_group_IT_number 12
_symmetry_cell_setting 'monoclinic'
loop_
_space_group_symop_operation_xyz
x,y,z
-x,y,-z
-x,-y,-z
x,-y,z
1/2+x,1/2+y,z
1/2-x,1/2+y,-z
1/2-x,1/2-y,-z
1/2+x,1/2-y,z
loop_
_atom_site_type_symbol
_atom_site_label
_atom_site_fract_x
_atom_site_fract_y
_atom_site_fract_z
Si Si1 0.688833 0.888578 0.365142
Si Si2 0.294319 0.787085 0.322202
Si Si3 0.896218 0.117600 0.021939
Si Si4 0.986879 0.750904 0.632465
Si Si5 0.292763 0.387000 0.844389
Si Si6 0.508729 0.386814 0.795611
Si Si7 0.825842 0.111699 0.554124
O O1 0.748195 0.820027 0.313997
O O2 0.582408 0.839745 0.358601
O O3 0.751155 0.880885 0.462758
O O4 0.683233 0.000000 0.340115
O O5 0.406326 0.783678 0.375697
O O6 0.282721 0.831576 0.229183
O O7 0.229130 0.849313 0.374365
O O8 0.810255 0.148801 0.941917
O O9 0.895442 0.000000 0.019387
O O10 0.908191 0.142573 0.120448
O O11 0.000000 0.148375 0.000000
O O12 0.006763 0.817238 0.717112
O O13 0.920817 0.819964 0.561600
O O14 0.265886 0.500000 0.841521
O O15 0.400965 0.380952 0.820031
O O16 0.522822 0.500000 0.775891
O O17 0.854200 0.000000 0.570262
#
# Coordination Sequence:
#
# PCOD9209973 Si02
#       7
#     8   8   8   8   8   8   8
#     4  10  23  39  52  71 103 138 169 207 255 306
#     4  11  21  33  53  80 104 132 168 209 254 304
#     4   7  12  22  43  76 104 127 161 207 252 290
#     4  11  21  33  53  80 104 132 168 209 254 304
#     4   9  15  28  51  77 104 132 166 209 253 294
#     4   9  15  28  51  77 104 132 166 209 253 294
#     4  10  21  39  58  73  96 132 172 215 258 300
#
# _framework density 18.588577999999998
#
# number of rings (size 3 to 8) (size 9 to 14) (size 15 to 20)
#    0.000    2.429    2.857    4.286    0.000    4.571 
#    0.000    3.571    0.000    0.000    0.000    2.000 
#    0.000    0.000    0.000    0.000    0.000    0.000 
#
# Total GULP energy -156117.000645 kJ/mol
# GULP energy per Si atom -5575.607166 kJ/mol
# Density = 1.854627 g / cm^3
# Si number density = 18.588578 Si / 1000 Ang^3
#
#
#
# Elastic Constant Matrix: (Units=GPa)
#
#
# Indices 1 2 3 4 5 6 
#
# 1 57.8633 12.7876 9.2113 0.0000 25.8207 0.0000
# 2 12.7876 80.5185 34.8839 0.0000 13.2631 0.0000
# 3 9.2113 34.8839 95.9406 0.0000 8.2552 0.0000
# 4 0.0000 0.0000 0.0000 30.3632 0.0000 6.0262
# 5 25.8207 13.2631 8.2552 0.0000 18.2440 0.0000
# 6 0.0000 0.0000 0.0000 6.0262 0.0000 1.5035
#
#
#
# Elastic Compliance Matrix: (Units=1/GPa)
#
#
# Indices 1 2 3 4 5 6 
#
# 1 0.048045 0.004048 0.000020 0.000000 -0.070949 0.000000
# 2 0.004048 0.016515 -0.005065 0.000000 -0.015443 0.000000
# 3 0.000020 -0.005065 0.012432 0.000000 -0.001972 0.000000
# 4 0.000000 0.000000 0.000000 0.161034 0.000000 -0.645431
# 5 -0.070949 -0.015443 -0.001972 0.000000 0.167346 0.000000
# 6 0.000000 0.000000 0.000000 -0.645431 0.000000 3.252010
#
#
# Mechanical properties :
#
#
# Convention : Reuss Voigt Hill
#
# Bulk Modulus (GPa) = 13.33358 38.67642 26.00500
# Shear Modulus (GPa) = 1.35708 21.85146 11.60427
#
# Velocity S-wave (km/s) = 0.85536 3.43232 2.50125
# Velocity P-wave (km/s) = 2.85729 6.04645 4.72883
#
# Compressibility (1/GPa) = 0.07499863
#
# Stress axis : x y z
#
# Youngs Moduli (GPa) = 20.81403 60.55251 80.43541
#
# Poissons Ratio (x) = -0.24511 -0.00163
# Poissons Ratio (y) = -0.08425 0.40737
# Poissons Ratio (z) = -0.00042 0.30667
#
# Static dielectric constant tensor:
#      x y z
#    x 1.647420 0.000000 0.005920 
#    y 0.000000 1.630450 0.000000 
#    z 0.005920 0.000000 1.697130 
# 
# From -- ./inp_files/269952.got.cif
#   From: 2010.05.17/outbox.cif.g08.bks.cpg/sg12_135_cif.got.tgz:269952.got - 2010.06.03 13:09:07.
