data_PCOD9209031
_publ_section_title
;
Structure prediction by ZEFSAII (Michael W. Deem and Ramdas Pophale) SiO2 
 PCOD9209031
Probable space group: C 2/M
;
_chemical_formula_sum "Si O2"
_cell_formula_units_Z 42
_cell_length_a 15.597823
_cell_length_b 14.735967
_cell_length_c 10.373177
_cell_angle_alpha 90.000000
_cell_angle_beta 51.349398
_cell_angle_gamma 90.000000
_cell_volume 1862.037011
_symmetry_space_group_name_H-M "C 2/M"
_symmetry_group_IT_number 12
_symmetry_cell_setting 'monoclinic'
loop_
_space_group_symop_operation_xyz
x,y,z
-x,y,-z
-x,-y,-z
x,-y,z
1/2+x,1/2+y,z
1/2-x,1/2+y,-z
1/2-x,1/2-y,-z
1/2+x,1/2-y,z
loop_
_atom_site_type_symbol
_atom_site_label
_atom_site_fract_x
_atom_site_fract_y
_atom_site_fract_z
Si Si1 0.966130 0.799526 0.715523
Si Si2 0.872727 0.637141 0.109102
Si Si3 0.000000 0.000000 0.000000
Si Si4 0.655260 0.657092 0.903749
Si Si5 0.384448 0.895984 0.801527
Si Si6 0.648370 0.603787 0.422191
O O1 0.902744 0.831337 0.901902
O O2 0.965991 0.689857 0.709264
O O3 0.896191 0.843430 0.663441
O O4 0.087328 0.841150 0.591450
O O5 0.779607 0.600316 0.290666
O O6 0.862013 0.744696 0.139862
O O7 0.844184 0.611244 0.988377
O O8 0.000000 0.609963 0.000000
O O9 0.092539 0.921326 0.891144
O O10 0.780491 0.629534 0.811125
O O11 0.421391 0.000000 0.744160
O O12 0.609561 0.500000 0.461134
#
# Coordination Sequence:
#
# PCOD9209031 Si02
#       6
#     8   8   2   8   8   8
#     4  10  21  38  60  91 130 155 209 256 316 360
#     4  11  22  40  63  91 127 160 208 263 316 359
#     4  12  24  32  72  90 118 172 222 252 298 360
#     4  11  21  39  60  93 125 164 210 263 299 365
#     4  11  21  38  65  88 124 168 207 257 309 375
#     4  11  22  36  62  96 121 167 203 261 310 379
#
# _framework density 22.555944
#
# number of rings (size 3 to 8) (size 9 to 14) (size 15 to 20)
#    0.000    1.143    5.714    2.857    2.667    1.524 
#    0.000    5.714    2.095    0.000    0.000    0.000 
#    0.000    0.000    0.000    0.000    0.000    0.000 
#
# Total GULP energy -117034.661348 kJ/mol
# GULP energy per Si atom -5573.079112 kJ/mol
# Density = 2.250461 g / cm^3
# Si number density = 22.555944 Si / 1000 Ang^3
#
#
#
# Elastic Constant Matrix: (Units=GPa)
#
#
# Indices 1 2 3 4 5 6 
#
# 1 35.3183 12.1829 10.1064 0.0000 -23.2016 0.0000
# 2 12.1829 228.2933 54.0003 0.0000 -9.3154 0.0000
# 3 10.1064 54.0003 105.5173 0.0000 -28.7144 0.0000
# 4 0.0000 0.0000 0.0000 23.3572 0.0000 2.3603
# 5 -23.2016 -9.3154 -28.7144 0.0000 36.5652 0.0000
# 6 0.0000 0.0000 0.0000 2.3603 0.0000 -55.0200
#
#
#
# Elastic Compliance Matrix: (Units=1/GPa)
#
#
# Indices 1 2 3 4 5 6 
#
# 1 0.052044 -0.002825 0.006679 0.000000 0.037549 0.000000
# 2 -0.002825 0.005162 -0.003181 0.000000 -0.002975 0.000000
# 3 0.006679 -0.003181 0.014496 0.000000 0.014811 0.000000
# 4 0.000000 0.000000 0.000000 0.042629 0.000000 0.001829
# 5 0.037549 -0.002975 0.014811 0.000000 0.062047 0.000000
# 6 0.000000 0.000000 0.000000 0.001829 0.000000 -0.018097
#
#
# Mechanical properties :
#
#
# Convention : Reuss Voigt Hill
#
# Bulk Modulus (GPa) = 13.68959 57.96758 35.82858
# Shear Modulus (GPa) = 27.58104 20.50310 24.04207
#
# Velocity S-wave (km/s) = 3.50063 3.01821 3.26833
# Velocity P-wave (km/s) = 4.73514 6.15641 5.49195
#
# Compressibility (1/GPa) = 0.07304821
#
# Stress axis : x y z
#
# Youngs Moduli (GPa) = 19.21451 193.72011 68.98533
#
# Poissons Ratio (x) = 0.54727 -0.46076
# Poissons Ratio (y) = 0.05428 0.21944
# Poissons Ratio (z) = -0.12834 0.61620
#
# Static dielectric constant tensor:
#      x y z
#    x 1.896110 0.000000 -0.022170 
#    y 0.000000 1.823980 0.000000 
#    z -0.022170 0.000000 1.869520 
# 
# From -- ./inp_files/224582.got.cif
#   From: 2010.05.17/outbox.cif.g08.bks.cpg/sg12_113_cif.got.tgz:224582.got - 2010.06.03 13:09:07.
