data_PCOD9209184
_publ_section_title
;
Structure prediction by ZEFSAII (Michael W. Deem and Ramdas Pophale) SiO2 
 PCOD9209184
Probable space group: C 2/M
;
_chemical_formula_sum "Si O2"
_cell_formula_units_Z 64
_cell_length_a 18.849662
_cell_length_b 18.172934
_cell_length_c 17.556321
_cell_angle_alpha 90.000000
_cell_angle_beta 31.833512
_cell_angle_gamma 90.000000
_cell_volume 3172.091703
_symmetry_space_group_name_H-M "C 2/M"
_symmetry_group_IT_number 12
_symmetry_cell_setting 'monoclinic'
loop_
_space_group_symop_operation_xyz
x,y,z
-x,y,-z
-x,-y,-z
x,-y,z
1/2+x,1/2+y,z
1/2-x,1/2+y,-z
1/2-x,1/2-y,-z
1/2+x,1/2-y,z
loop_
_atom_site_type_symbol
_atom_site_label
_atom_site_fract_x
_atom_site_fract_y
_atom_site_fract_z
Si Si1 0.038679 0.419051 0.875761
Si Si2 0.188153 0.305417 0.367539
Si Si3 0.925758 0.730066 0.234540
Si Si4 0.241148 0.917025 0.093898
Si Si5 0.094510 0.836290 0.353365
Si Si6 0.849297 0.914162 0.118228
Si Si7 0.005247 0.280299 0.330668
Si Si8 0.692427 0.672259 0.988237
O O1 0.104931 0.500000 0.806570
O O2 0.103477 0.344467 0.786010
O O3 0.901939 0.420409 0.950822
O O4 0.000000 0.411682 0.000000
O O5 0.311087 0.285077 0.311200
O O6 0.154752 0.234369 0.344189
O O7 0.240758 0.369195 0.265241
O O8 0.063695 0.324621 0.536841
O O9 0.925211 0.714510 0.325085
O O10 0.073742 0.767377 0.085054
O O11 0.198397 0.887263 0.215667
O O12 0.189697 0.000000 0.128170
O O13 0.196747 0.860521 0.069021
O O14 0.005012 0.801151 0.367271
O O15 0.000000 0.876183 0.500000
O O16 0.831834 0.895329 0.046034
O O17 0.839786 0.000000 0.142865
O O18 0.000000 0.887797 0.000000
O O19 0.160136 0.298097 0.169327
#
# Coordination Sequence:
#
# PCOD9209184 Si02
#       8
#     8   8   8   8   8   8   8   8
#     4  10  22  36  56  89 123 155 197 256 306 354
#     4  11  24  40  63  93 120 163 206 250 311 369
#     4  12  22  38  66  89 122 163 210 245 305 368
#     4  11  22  38  59  89 124 161 204 252 307 362
#     4  10  21  38  61  88 123 158 203 257 299 361
#     4  11  24  42  63  93 127 161 207 262 310 368
#     4  11  22  39  62  91 128 152 206 260 301 359
#     4  12  22  38  65  95 120 164 210 254 302 363
#
# _framework density 20.175961999999998
#
# number of rings (size 3 to 8) (size 9 to 14) (size 15 to 20)
#    0.000    1.000    5.000    2.625    1.750    0.250 
#    0.000    2.500    0.000    0.750    0.000    0.000 
#    0.000    0.000    0.000    0.000    0.000    0.000 
#
# Total GULP energy -178565.049673 kJ/mol
# GULP energy per Si atom -5580.157802 kJ/mol
# Density = 2.013004 g / cm^3
# Si number density = 20.175962 Si / 1000 Ang^3
#
#
#
# Elastic Constant Matrix: (Units=GPa)
#
#
# Indices 1 2 3 4 5 6 
#
# 1 88.3127 12.3711 22.1563 -0.0012 9.4726 0.0006
# 2 12.3711 67.9264 38.7560 -0.0016 6.4123 0.0009
# 3 22.1563 38.7560 116.7972 -0.0018 16.4456 0.0011
# 4 -0.0012 -0.0016 -0.0018 5.3026 0.0011 0.3610
# 5 9.4726 6.4123 16.4456 0.0011 30.2972 -0.0005
# 6 0.0006 0.0009 0.0011 0.3610 -0.0005 21.9119
#
#
#
# Elastic Compliance Matrix: (Units=1/GPa)
#
#
# Indices 1 2 3 4 5 6 
#
# 1 0.012158 -0.001061 -0.001571 0.000002 -0.002724 0.000000
# 2 -0.001061 0.018263 -0.005805 0.000003 -0.000383 -0.000001
# 3 -0.001571 -0.005805 0.011416 0.000003 -0.004477 0.000000
# 4 0.000002 0.000003 0.000003 0.188798 -0.000010 -0.003110
# 5 -0.002724 -0.000383 -0.004477 -0.000010 0.036369 0.000001
# 6 0.000000 -0.000001 0.000000 -0.003110 0.000001 0.045689
#
#
# Mechanical properties :
#
#
# Convention : Reuss Voigt Hill
#
# Bulk Modulus (GPa) = 40.05684 46.62257 43.33970
# Shear Modulus (GPa) = 14.79777 24.81919 19.80848
#
# Velocity S-wave (km/s) = 2.71114 3.51114 3.13675
# Velocity P-wave (km/s) = 5.44952 6.29250 5.88612
#
# Compressibility (1/GPa) = 0.02496453
#
# Stress axis : x y z
#
# Youngs Moduli (GPa) = 82.24825 54.75470 87.59257
#
# Poissons Ratio (x) = 0.05809 0.13759
# Poissons Ratio (y) = 0.08726 0.50848
# Poissons Ratio (z) = 0.12920 0.31785
#
# Static dielectric constant tensor:
#      x y z
#    x 1.744090 0.000000 -0.024440 
#    y 0.000000 1.728990 0.000000 
#    z -0.024440 0.000000 1.753850 
# 
# From -- ./inp_files/285182.got.cif
#   From: 2010.05.17/outbox.cif.g08.bks.cpg/sg12_143_cif.got.tgz:285182.got - 2010.06.03 13:09:07.
