data_PCOD9209505
_publ_section_title
;
Structure prediction by ZEFSAII (Michael W. Deem and Ramdas Pophale) SiO2 
 PCOD9209505
Probable space group: C 2/M
;
_chemical_formula_sum "Si O2"
_cell_formula_units_Z 48
_cell_length_a 15.389649
_cell_length_b 19.952535
_cell_length_c 14.635977
_cell_angle_alpha 90.000000
_cell_angle_beta 152.038208
_cell_angle_gamma 90.000000
_cell_volume 2107.233620
_symmetry_space_group_name_H-M "C 2/M"
_symmetry_group_IT_number 12
_symmetry_cell_setting 'monoclinic'
loop_
_space_group_symop_operation_xyz
x,y,z
-x,y,-z
-x,-y,-z
x,-y,z
1/2+x,1/2+y,z
1/2-x,1/2+y,-z
1/2-x,1/2-y,-z
1/2+x,1/2-y,z
loop_
_atom_site_type_symbol
_atom_site_label
_atom_site_fract_x
_atom_site_fract_y
_atom_site_fract_z
Si Si1 0.582579 0.701956 0.667059
Si Si2 0.047214 0.573375 0.773078
Si Si3 0.432500 0.575525 0.042537
Si Si4 0.184578 0.573000 0.110586
Si Si5 0.436000 0.725298 0.045178
Si Si6 0.794479 0.684181 0.595383
O O1 0.500000 0.736915 0.500000
O O2 0.706475 0.638179 0.757542
O O3 0.718347 0.752938 0.847211
O O4 0.404780 0.668262 0.548802
O O5 0.961728 0.500000 0.687206
O O6 0.889582 0.628232 0.623220
O O7 0.210142 0.578141 0.850449
O O8 0.138885 0.578366 0.959802
O O9 0.485749 0.500000 0.128906
O O10 0.500000 0.575331 0.000000
O O11 0.481063 0.650576 0.126301
O O12 0.277557 0.500000 0.210102
O O13 0.000000 0.571672 0.000000
O O14 0.500000 0.721301 0.000000
O O15 0.552323 0.787128 0.192651
O O16 0.750000 0.750000 0.500000
#
# Coordination Sequence:
#
# PCOD9209505 Si02
#       6
#     8   8   8   8   8   8
#     4  12  23  38  64  92 126 175 220 253 318 391
#     4  10  21  41  65  91 134 175 209 265 327 381
#     4   9  20  39  68  94 115 163 219 264 330 390
#     4  10  21  38  62  92 132 178 215 259 315 374
#     4  11  22  43  66  91 136 169 209 280 325 379
#     4  12  26  39  63 101 129 167 219 266 326 387
#
# _framework density 22.778679
#
# number of rings (size 3 to 8) (size 9 to 14) (size 15 to 20)
#    0.000    1.333    3.333    2.500    2.333    2.333 
#    0.000    0.833    0.000    1.500    0.000    0.000 
#    0.000    0.000    0.000    0.000    0.000    0.000 
#
# Total GULP energy -133823.233617 kJ/mol
# GULP energy per Si atom -5575.968067 kJ/mol
# Density = 2.272683 g / cm^3
# Si number density = 22.778679 Si / 1000 Ang^3
#
#
#
# Elastic Constant Matrix: (Units=GPa)
#
#
# Indices 1 2 3 4 5 6 
#
# 1 84.9911 23.6644 37.1290 0.0000 32.0484 0.0000
# 2 23.6644 168.4427 32.0007 0.0000 18.2117 0.0000
# 3 37.1290 32.0007 84.5580 0.0000 18.0900 0.0000
# 4 0.0000 0.0000 0.0000 30.3806 0.0000 7.4368
# 5 32.0484 18.2117 18.0900 0.0000 31.6394 0.0000
# 6 0.0000 0.0000 0.0000 7.4368 0.0000 29.1641
#
#
#
# Elastic Compliance Matrix: (Units=1/GPa)
#
#
# Indices 1 2 3 4 5 6 
#
# 1 0.020937 0.000035 -0.005315 0.000000 -0.018188 0.000000
# 2 0.000035 0.006593 -0.001927 0.000000 -0.002729 0.000000
# 3 -0.005315 -0.001927 0.015382 0.000000 -0.002302 0.000000
# 4 0.000000 0.000000 0.000000 0.035107 0.000000 -0.008952
# 5 -0.018188 -0.002729 -0.002302 0.000000 0.052916 0.000000
# 6 0.000000 0.000000 0.000000 -0.008952 0.000000 0.036572
#
#
# Mechanical properties :
#
#
# Convention : Reuss Voigt Hill
#
# Bulk Modulus (GPa) = 35.09104 58.17554 46.63329
# Shear Modulus (GPa) = 26.12067 34.58334 30.35201
#
# Velocity S-wave (km/s) = 3.38999 3.90068 3.65427
# Velocity P-wave (km/s) = 5.54630 6.77362 6.19045
#
# Compressibility (1/GPa) = 0.02849730
#
# Stress axis : x y z
#
# Youngs Moduli (GPa) = 47.76295 151.67906 65.01262
#
# Poissons Ratio (x) = -0.00529 0.34556
# Poissons Ratio (y) = -0.00167 0.12525
# Poissons Ratio (z) = 0.25387 0.29223
#
# Static dielectric constant tensor:
#      x y z
#    x 1.804410 0.000000 -0.055730 
#    y 0.000000 1.868730 0.000000 
#    z -0.055730 0.000000 1.962730 
# 
# From -- ./inp_files/279245.got.cif
#   From: 2010.05.17/outbox.cif.g08.bks.cpg/sg12_140_cif.got.tgz:279245.got - 2010.06.03 13:09:07.
