data_PCOD9209888
_publ_section_title
;
Structure prediction by ZEFSAII (Michael W. Deem and Ramdas Pophale) SiO2 
 PCOD9209888
Probable space group: C 2/M
;
_chemical_formula_sum "Si O2"
_cell_formula_units_Z 40
_cell_length_a 21.564416
_cell_length_b 11.376099
_cell_length_c 7.417132
_cell_angle_alpha 90.000000
_cell_angle_beta 81.714541
_cell_angle_gamma 90.000000
_cell_volume 1800.571013
_symmetry_space_group_name_H-M "C 2/M"
_symmetry_group_IT_number 12
_symmetry_cell_setting 'monoclinic'
loop_
_space_group_symop_operation_xyz
x,y,z
-x,y,-z
-x,-y,-z
x,-y,z
1/2+x,1/2+y,z
1/2-x,1/2+y,-z
1/2-x,1/2-y,-z
1/2+x,1/2-y,z
loop_
_atom_site_type_symbol
_atom_site_label
_atom_site_fract_x
_atom_site_fract_y
_atom_site_fract_z
Si Si1 0.463653 0.000000 0.234348
Si Si2 0.378950 0.209132 0.209254
Si Si3 0.402764 0.000000 0.661638
Si Si4 0.252886 0.633864 0.628467
Si Si5 0.376931 0.256614 0.627572
Si Si6 0.562514 0.363533 0.090772
O O1 0.434015 0.885128 0.157174
O O2 0.433258 0.000000 0.448374
O O3 0.537893 0.000000 0.229732
O O4 0.311670 0.145536 0.235342
O O5 0.387521 0.260146 0.408342
O O6 0.384063 0.307698 0.057044
O O7 0.364641 0.879188 0.686043
O O8 0.254412 0.500000 0.551587
O O9 0.250000 0.750000 0.500000
O O10 0.318665 0.659261 0.698082
O O11 0.436037 0.296252 0.720269
O O12 0.571731 0.500000 0.120957
O O13 0.500000 0.349643 0.000000
#
# Coordination Sequence:
#
# PCOD9209888 Si02
#       6
#     4   8   4   8   8   8
#     4   9  16  33  61  87 126 151 211 263 312 371
#     4  10  21  39  65  90 124 167 211 265 329 379
#     4   9  18  33  59  95 118 167 203 261 318 375
#     4  10  21  38  66  96 132 171 216 268 321 388
#     4  10  22  40  63  92 131 164 217 262 325 386
#     4  11  25  42  60  90 127 168 219 269 323 393
#
# _framework density 22.215174000000001
#
# number of rings (size 3 to 8) (size 9 to 14) (size 15 to 20)
#    0.000    2.000    1.000    1.800    4.200    8.000 
#    0.000    4.000    0.000    0.000    0.000    0.000 
#    0.000    0.000    0.000    0.000    0.000    0.000 
#
# Total GULP energy -111635.698117 kJ/mol
# GULP energy per Si atom -5581.784906 kJ/mol
# Density = 2.216461 g / cm^3
# Si number density = 22.215174 Si / 1000 Ang^3
#
#
#
# Elastic Constant Matrix: (Units=GPa)
#
#
# Indices 1 2 3 4 5 6 
#
# 1 54.7733 16.7954 18.9164 0.0000 5.4845 0.0000
# 2 16.7954 140.9853 25.7774 0.0000 -1.7919 0.0000
# 3 18.9164 25.7774 71.4243 0.0000 9.1681 0.0000
# 4 0.0000 0.0000 0.0000 23.4665 0.0000 6.9756
# 5 5.4845 -1.7919 9.1681 0.0000 21.5963 0.0000
# 6 0.0000 0.0000 0.0000 6.9756 0.0000 30.8312
#
#
#
# Elastic Compliance Matrix: (Units=1/GPa)
#
#
# Indices 1 2 3 4 5 6 
#
# 1 0.020651 -0.001700 -0.004405 0.000000 -0.003516 0.000000
# 2 -0.001700 0.007808 -0.002651 0.000000 0.002205 0.000000
# 3 -0.004405 -0.002651 0.016931 0.000000 -0.006289 0.000000
# 4 0.000000 0.000000 0.000000 0.045687 0.000000 -0.010337
# 5 -0.003516 0.002205 -0.006289 0.000000 0.050050 0.000000
# 6 0.000000 0.000000 0.000000 -0.010337 0.000000 0.034773
#
#
# Mechanical properties :
#
#
# Convention : Reuss Voigt Hill
#
# Bulk Modulus (GPa) = 35.86728 43.35126 39.60927
# Shear Modulus (GPa) = 24.66640 28.89170 26.77905
#
# Velocity S-wave (km/s) = 3.33579 3.61021 3.47571
# Velocity P-wave (km/s) = 5.56930 6.07740 5.82889
#
# Compressibility (1/GPa) = 0.02788056
#
# Stress axis : x y z
#
# Youngs Moduli (GPa) = 48.42273 128.07212 59.06181
#
# Poissons Ratio (x) = 0.21766 0.26016
# Poissons Ratio (y) = 0.08229 0.15657
# Poissons Ratio (z) = 0.21329 0.33950
#
# Static dielectric constant tensor:
#      x y z
#    x 1.885170 0.000000 0.021970 
#    y 0.000000 1.827480 0.000000 
#    z 0.021970 0.000000 1.823900 
# 
# From -- ./inp_files/93739.got.cif
#   From: 2010.05.17/outbox.cif.g08.bks.cpg/sg12_47_cif.got.tgz:93739.got - 2010.06.03 13:09:07.
