data_PCOD9209773
_publ_section_title
;
Structure prediction by ZEFSAII (Michael W. Deem and Ramdas Pophale) SiO2 
 PCOD9209773
Probable space group: C 2/M
;
_chemical_formula_sum "Si O2"
_cell_formula_units_Z 48
_cell_length_a 10.247682
_cell_length_b 18.569985
_cell_length_c 20.381915
_cell_angle_alpha 90.000000
_cell_angle_beta 142.129067
_cell_angle_gamma 90.000000
_cell_volume 2381.053010
_symmetry_space_group_name_H-M "C 2/M"
_symmetry_group_IT_number 12
_symmetry_cell_setting 'monoclinic'
loop_
_space_group_symop_operation_xyz
x,y,z
-x,y,-z
-x,-y,-z
x,-y,z
1/2+x,1/2+y,z
1/2-x,1/2+y,-z
1/2-x,1/2-y,-z
1/2+x,1/2-y,z
loop_
_atom_site_type_symbol
_atom_site_label
_atom_site_fract_x
_atom_site_fract_y
_atom_site_fract_z
Si Si1 0.539677 0.816570 0.198337
Si Si2 0.309234 0.225421 0.874444
Si Si3 0.233794 0.414443 0.580109
Si Si4 0.068272 0.914397 0.602763
Si Si5 0.591414 0.582964 0.827806
Si Si6 0.663638 0.583226 0.005861
O O1 0.624971 0.765756 0.174382
O O2 0.402565 0.769983 0.194343
O O3 0.726577 0.865461 0.301585
O O4 0.366877 0.867462 0.094950
O O5 0.255128 0.141474 0.865611
O O6 0.500000 0.244606 0.000000
O O7 0.205178 0.500000 0.556167
O O8 0.378309 0.389655 0.576256
O O9 0.375956 0.406880 0.701509
O O10 0.000000 0.382796 0.500000
O O11 0.000000 0.908529 0.500000
O O12 0.111359 0.000000 0.633330
O O13 0.661668 0.500000 0.845132
O O14 0.564049 0.594117 0.894570
O O15 0.729301 0.500000 0.036272
O O16 0.500000 0.596021 0.000000
#
# Coordination Sequence:
#
# PCOD9209773 Si02
#       6
#     8   8   8   8   8   8
#     4  12  25  42  63  91 130 175 217 259 322 390
#     4  12  25  42  64  93 130 176 215 265 323 383
#     4   9  18  36  63  93 123 156 202 262 322 380
#     4  10  22  43  69  99 128 162 212 270 326 379
#     4  10  21  38  64  95 124 162 219 270 322 380
#     4  10  22  38  61  95 131 166 212 271 326 382
#
# _framework density 20.159147999999998
#
# number of rings (size 3 to 8) (size 9 to 14) (size 15 to 20)
#    0.000    1.500    3.333    1.500    2.333    2.333 
#    0.000    6.667    0.000    0.000    0.000    0.000 
#    0.000    0.000    0.000    0.000    0.000    0.000 
#
# Total GULP energy -134090.918504 kJ/mol
# GULP energy per Si atom -5587.121604 kJ/mol
# Density = 2.011327 g / cm^3
# Si number density = 20.159148 Si / 1000 Ang^3
#
#
#
# Elastic Constant Matrix: (Units=GPa)
#
#
# Indices 1 2 3 4 5 6 
#
# 1 147.0783 37.0337 62.1831 -0.0001 12.8194 0.0000
# 2 37.0337 78.7641 39.4906 -0.0001 11.7802 0.0000
# 3 62.1831 39.4906 88.9499 -0.0004 9.6276 0.0001
# 4 -0.0001 -0.0001 -0.0004 -6.0961 0.0000 23.3464
# 5 12.8194 11.7802 9.6276 0.0000 29.7020 0.0000
# 6 0.0000 0.0000 0.0001 23.3464 0.0000 25.5129
#
#
#
# Elastic Compliance Matrix: (Units=1/GPa)
#
#
# Indices 1 2 3 4 5 6 
#
# 1 0.009874 -0.001305 -0.006133 0.000000 -0.001756 0.000000
# 2 -0.001305 0.017046 -0.006202 0.000000 -0.004187 0.000000
# 3 -0.006133 -0.006202 0.018375 0.000000 -0.000849 0.000000
# 4 0.000000 0.000000 0.000000 -0.036417 0.000000 0.033324
# 5 -0.001756 -0.004187 -0.000849 0.000000 0.036361 0.000000
# 6 0.000000 0.000000 0.000000 0.033324 0.000000 0.008701
#
#
# Mechanical properties :
#
#
# Convention : Reuss Voigt Hill
#
# Bulk Modulus (GPa) = 55.51202 65.80080 60.65641
# Shear Modulus (GPa) = 57.32229 21.56276 39.44252
#
# Velocity S-wave (km/s) = 5.33822 3.27406 4.42810
# Velocity P-wave (km/s) = 8.09890 6.85596 7.50321
#
# Compressibility (1/GPa) = 0.01801412
#
# Stress axis : x y z
#
# Youngs Moduli (GPa) = 101.27880 58.66640 54.42071
#
# Poissons Ratio (x) = 0.07655 0.33377
# Poissons Ratio (y) = 0.13215 0.33753
# Poissons Ratio (z) = 0.62116 0.36386
#
# Static dielectric constant tensor:
#      x y z
#    x 1.738100 0.000000 0.001820 
#    y 0.000000 1.739920 0.000000 
#    z 0.001820 0.000000 1.674430 
# 
# From -- ./inp_files/257909.got.cif
#   From: 2010.05.17/outbox.cif.g08.bks.cpg/sg12_129_cif.got.tgz:257909.got - 2010.06.03 13:09:07.
