data_PCOD9209371
_publ_section_title
;
Structure prediction by ZEFSAII (Michael W. Deem and Ramdas Pophale) SiO2 
 PCOD9209371
Probable space group: C 2/M
;
_chemical_formula_sum "Si O2"
_cell_formula_units_Z 56
_cell_length_a 19.164285
_cell_length_b 8.908521
_cell_length_c 17.702801
_cell_angle_alpha 90.000000
_cell_angle_beta 119.225329
_cell_angle_gamma 90.000000
_cell_volume 2637.596381
_symmetry_space_group_name_H-M "C 2/M"
_symmetry_group_IT_number 12
_symmetry_cell_setting 'monoclinic'
loop_
_space_group_symop_operation_xyz
x,y,z
-x,y,-z
-x,-y,-z
x,-y,z
1/2+x,1/2+y,z
1/2-x,1/2+y,-z
1/2-x,1/2-y,-z
1/2+x,1/2-y,z
loop_
_atom_site_type_symbol
_atom_site_label
_atom_site_fract_x
_atom_site_fract_y
_atom_site_fract_z
Si Si1 0.585664 0.320836 0.880175
Si Si2 0.641402 0.823259 0.762521
Si Si3 0.500628 0.679600 0.590582
Si Si4 0.176610 0.178806 0.505257
Si Si5 0.249820 0.322984 0.682809
Si Si6 0.910678 0.676307 0.795338
Si Si7 0.096432 0.169368 0.054175
O O1 0.574775 0.500000 0.871602
O O2 0.639355 0.264215 0.839987
O O3 0.498092 0.244829 0.825781
O O4 0.620156 0.286229 0.981892
O O5 0.566792 0.767179 0.672536
O O6 0.719255 0.799157 0.751968
O O7 0.633525 0.000000 0.772982
O O8 0.500000 0.708567 0.500000
O O9 0.513013 0.500000 0.607037
O O10 0.411242 0.720620 0.570259
O O11 0.250000 0.250000 0.500000
O O12 0.188532 0.236462 0.596633
O O13 0.181932 0.000000 0.506280
O O14 0.247231 0.500000 0.665315
O O15 0.338213 0.259911 0.715418
O O16 0.910172 0.500000 0.780081
O O17 0.891076 0.712903 0.872866
O O18 0.126816 0.000000 0.089021
O O19 0.000000 0.156037 0.000000
#
# Coordination Sequence:
#
# PCOD9209371 Si02
#       7
#     8   8   8   8   8   8   8
#     4  10  21  38  62  88 119 156 194 237 288 348
#     4  11  24  39  60  88 118 153 197 245 289 341
#     4  10  21  40  63  84 112 154 196 234 287 349
#     4  11  24  41  62  87 117 153 194 243 292 346
#     4  11  24  42  60  83 119 158 195 242 296 347
#     4  11  22  36  60  90 119 153 194 243 292 345
#     4   8  16  34  58  85 116 153 192 234 288 346
#
# _framework density 21.231451
#
# number of rings (size 3 to 8) (size 9 to 14) (size 15 to 20)
#    0.000    1.714    1.429    3.857    2.000    6.286 
#    0.000    0.714    0.000    0.000    0.000    0.000 
#    0.000    0.000    0.000    0.000    0.000    0.000 
#
# Total GULP energy -156492.908239 kJ/mol
# GULP energy per Si atom -5589.032437 kJ/mol
# Density = 2.118313 g / cm^3
# Si number density = 21.231451 Si / 1000 Ang^3
#
#
#
# Elastic Constant Matrix: (Units=GPa)
#
#
# Indices 1 2 3 4 5 6 
#
# 1 65.7709 25.3717 -1.0424 0.0000 -6.9357 0.0000
# 2 25.3717 47.3703 -8.6083 0.0000 1.9969 0.0000
# 3 -1.0424 -8.6083 16.6394 0.0000 -10.9245 0.0000
# 4 0.0000 0.0000 0.0000 30.9919 0.0000 -5.6919
# 5 -6.9357 1.9969 -10.9245 0.0000 36.9683 0.0000
# 6 0.0000 0.0000 0.0000 -5.6919 0.0000 29.3189
#
#
#
# Elastic Compliance Matrix: (Units=1/GPa)
#
#
# Indices 1 2 3 4 5 6 
#
# 1 0.019877 -0.011185 -0.002105 0.000000 0.003711 0.000000
# 2 -0.011185 0.029841 0.015262 0.000000 0.000800 0.000000
# 3 -0.002105 0.015262 0.083205 0.000000 0.023368 0.000000
# 4 0.000000 0.000000 0.000000 0.033460 0.000000 0.006496
# 5 0.003711 0.000800 0.023368 0.000000 0.034609 0.000000
# 6 0.000000 0.000000 0.000000 0.006496 0.000000 0.035369
#
#
# Mechanical properties :
#
#
# Convention : Reuss Voigt Hill
#
# Bulk Modulus (GPa) = 7.30634 17.91366 12.61000
# Shear Modulus (GPa) = 17.98320 27.05980 22.52150
#
# Velocity S-wave (km/s) = 2.91350 3.57391 3.26047
# Velocity P-wave (km/s) = 3.84275 5.04837 4.48624
#
# Compressibility (1/GPa) = 0.13686751
#
# Stress axis : x y z
#
# Youngs Moduli (GPa) = 50.30922 33.51110 12.01856
#
# Poissons Ratio (x) = 0.37483 0.02530
# Poissons Ratio (y) = 0.56272 -0.18343
# Poissons Ratio (z) = 0.10589 -0.51146
#
# Static dielectric constant tensor:
#      x y z
#    x 1.788340 0.000000 -0.048740 
#    y 0.000000 1.700330 0.000000 
#    z -0.048740 0.000000 1.992560 
# 
# From -- ./inp_files/281651.got.cif
#   From: 2010.05.17/outbox.cif.g08.bks.cpg/sg12_141_cif.got.tgz:281651.got - 2010.06.03 13:09:07.
