data_PCOD9209615
_publ_section_title
;
Structure prediction by ZEFSAII (Michael W. Deem and Ramdas Pophale) SiO2 
 PCOD9209615
Probable space group: C 2/M
;
_chemical_formula_sum "Si O2"
_cell_formula_units_Z 64
_cell_length_a 16.033043
_cell_length_b 16.281617
_cell_length_c 17.537889
_cell_angle_alpha 90.000000
_cell_angle_beta 134.508322
_cell_angle_gamma 90.000000
_cell_volume 3264.907379
_symmetry_space_group_name_H-M "C 2/M"
_symmetry_group_IT_number 12
_symmetry_cell_setting 'monoclinic'
loop_
_space_group_symop_operation_xyz
x,y,z
-x,y,-z
-x,-y,-z
x,-y,z
1/2+x,1/2+y,z
1/2-x,1/2+y,-z
1/2-x,1/2-y,-z
1/2+x,1/2-y,z
loop_
_atom_site_type_symbol
_atom_site_label
_atom_site_fract_x
_atom_site_fract_y
_atom_site_fract_z
Si Si1 0.727583 0.913249 0.046018
Si Si2 0.961427 0.350539 0.185033
Si Si3 0.797529 0.763621 0.186479
Si Si4 0.643665 0.405738 0.407190
Si Si5 0.515305 0.724163 0.422074
Si Si6 0.507222 0.590848 0.842514
Si Si7 0.077738 0.407218 0.412372
Si Si8 0.933262 0.755887 0.882248
O O1 0.727894 0.833620 0.097788
O O2 0.856350 0.910548 0.091448
O O3 0.717704 0.000000 0.082156
O O4 0.624664 0.907138 0.918974
O O5 0.869241 0.291772 0.171978
O O6 0.039194 0.394216 0.299367
O O7 0.041748 0.301718 0.175291
O O8 0.700637 0.725863 0.180362
O O9 0.898165 0.801150 0.302931
O O10 0.611388 0.500000 0.410497
O O11 0.613259 0.332587 0.445929
O O12 0.571152 0.389557 0.282695
O O13 0.782992 0.405510 0.485967
O O14 0.500000 0.706154 0.500000
O O15 0.531233 0.822902 0.421363
O O16 0.472066 0.500000 0.845315
O O17 0.489551 0.658299 0.894495
O O18 0.037097 0.500000 0.409819
O O19 0.000000 0.724187 0.000000
#
# Coordination Sequence:
#
# PCOD9209615 Si02
#       8
#     8   8   8   8   8   8   8   8
#     4  11  20  38  65  88 118 159 203 251 303 362
#     4  11  22  42  62  88 124 165 209 248 306 373
#     4  11  23  40  60  91 123 165 204 248 312 369
#     4  10  21  41  66  90 122 162 209 256 311 369
#     4  11  24  38  62  93 127 161 204 258 313 372
#     4  10  21  38  63  92 121 160 204 256 312 367
#     4  10  23  42  64  90 121 166 209 253 310 371
#     4  12  23  37  63  91 125 162 204 254 310 372
#
# _framework density 19.602392999999999
#
# number of rings (size 3 to 8) (size 9 to 14) (size 15 to 20)
#    0.000    1.250    3.750    2.625    3.500    0.750 
#    0.000    5.000    0.000    0.000    0.000    0.000 
#    0.000    0.000    0.000    0.000    0.000    0.000 
#
# Total GULP energy -178380.193072 kJ/mol
# GULP energy per Si atom -5574.381034 kJ/mol
# Density = 1.955778 g / cm^3
# Si number density = 19.602393 Si / 1000 Ang^3
#
#
#
# Elastic Constant Matrix: (Units=GPa)
#
#
# Indices 1 2 3 4 5 6 
#
# 1 61.8902 11.9557 4.9470 0.0000 0.1964 0.0000
# 2 11.9557 49.8093 -16.0500 0.0000 -5.1532 0.0000
# 3 4.9470 -16.0500 50.4525 0.0000 6.5491 0.0000
# 4 0.0000 0.0000 0.0000 6.4972 0.0000 2.0497
# 5 0.1964 -5.1532 6.5491 0.0000 20.0674 0.0000
# 6 0.0000 0.0000 0.0000 2.0497 0.0000 15.9527
#
#
#
# Elastic Compliance Matrix: (Units=1/GPa)
#
#
# Indices 1 2 3 4 5 6 
#
# 1 0.017453 -0.005312 -0.003344 0.000000 -0.000444 0.000000
# 2 -0.005312 0.024235 0.007744 0.000000 0.003748 0.000000
# 3 -0.003344 0.007744 0.023338 0.000000 -0.005595 0.000000
# 4 0.000000 0.000000 0.000000 0.160414 0.000000 -0.020611
# 5 -0.000444 0.003748 -0.005595 0.000000 0.052625 0.000000
# 6 0.000000 0.000000 0.000000 -0.020611 0.000000 0.065334
#
#
# Mechanical properties :
#
#
# Convention : Reuss Voigt Hill
#
# Bulk Modulus (GPa) = 15.82244 18.20637 17.01441
# Shear Modulus (GPa) = 13.65038 19.25674 16.45356
#
# Velocity S-wave (km/s) = 2.64173 3.13767 2.90032
# Velocity P-wave (km/s) = 4.17064 4.73652 4.46256
#
# Compressibility (1/GPa) = 0.06320137
#
# Stress axis : x y z
#
# Youngs Moduli (GPa) = 57.29820 41.26299 42.84798
#
# Poissons Ratio (x) = 0.21921 0.14327
# Poissons Ratio (y) = 0.30439 -0.33181
# Poissons Ratio (z) = 0.19159 -0.31954
#
# Static dielectric constant tensor:
#      x y z
#    x 1.769380 0.000000 -0.012490 
#    y 0.000000 1.746420 0.000000 
#    z -0.012490 0.000000 1.693580 
# 
# From -- ./inp_files/270698.got.cif
#   From: 2010.05.17/outbox.cif.g08.bks.cpg/sg12_136_cif.got.tgz:270698.got - 2010.06.03 13:09:07.
