data_PCOD9209295
_publ_section_title
;
Structure prediction by ZEFSAII (Michael W. Deem and Ramdas Pophale) SiO2 
 PCOD9209295
Probable space group: C 2/M
;
_chemical_formula_sum "Si O2"
_cell_formula_units_Z 44
_cell_length_a 23.921243
_cell_length_b 14.533445
_cell_length_c 16.075125
_cell_angle_alpha 90.000000
_cell_angle_beta 22.507967
_cell_angle_gamma 90.000000
_cell_volume 2139.400516
_symmetry_space_group_name_H-M "C 2/M"
_symmetry_group_IT_number 12
_symmetry_cell_setting 'monoclinic'
loop_
_space_group_symop_operation_xyz
x,y,z
-x,y,-z
-x,-y,-z
x,-y,z
1/2+x,1/2+y,z
1/2-x,1/2+y,-z
1/2-x,1/2-y,-z
1/2+x,1/2-y,z
loop_
_atom_site_type_symbol
_atom_site_label
_atom_site_fract_x
_atom_site_fract_y
_atom_site_fract_z
Si Si1 0.131161 0.800300 0.103139
Si Si2 0.102574 0.308751 0.686814
Si Si3 0.249802 0.099547 0.651252
Si Si4 0.577266 0.397898 0.483723
Si Si5 0.000000 0.253782 0.000000
Si Si6 0.848236 0.299999 0.661022
O O1 0.006829 0.738133 0.229491
O O2 0.043474 0.872987 0.280200
O O3 0.250000 0.750000 0.000000
O O4 0.225065 0.832076 0.894815
O O5 0.250000 0.250000 0.500000
O O6 0.167627 0.395926 0.549948
O O7 0.024117 0.312679 0.883564
O O8 0.361536 0.126044 0.570176
O O9 0.183298 0.000000 0.755757
O O10 0.134330 0.181962 0.819473
O O11 0.500000 0.404068 0.500000
O O12 0.641826 0.500000 0.411711
O O13 0.675127 0.305091 0.341110
O O14 0.000000 0.294410 0.500000
#
# Coordination Sequence:
#
# PCOD9209295 Si02
#       6
#     8   8   8   8   4   8
#     4  12  20  38  66  93 125 163 208 260 315 366
#     4  10  22  40  65  90 124 169 206 255 314 371
#     4  11  22  39  63  93 124 161 207 259 313 373
#     4  10  21  38  61  92 127 167 211 255 312 382
#     4  10  21  42  67  82 122 170 213 246 315 378
#     4  11  21  38  63  89 129 163 203 259 317 370
#
# _framework density 20.566509
#
# number of rings (size 3 to 8) (size 9 to 14) (size 15 to 20)
#    0.000    1.273    7.273    0.273    0.000    1.091 
#    0.000    5.000    0.000    0.000    0.000    0.000 
#    0.000    0.000    0.000    0.000    0.000    0.000 
#
# Total GULP energy -122489.916716 kJ/mol
# GULP energy per Si atom -5567.723487 kJ/mol
# Density = 2.051970 g / cm^3
# Si number density = 20.566509 Si / 1000 Ang^3
#
#
#
# Elastic Constant Matrix: (Units=GPa)
#
#
# Indices 1 2 3 4 5 6 
#
# 1 92.8579 37.6714 40.3036 0.0000 18.1617 0.0000
# 2 37.6714 71.5843 18.1742 -0.0003 16.5792 0.0001
# 3 40.3036 18.1742 97.0770 -0.0003 26.8779 0.0001
# 4 0.0000 -0.0003 -0.0003 16.4674 0.0000 4.4878
# 5 18.1617 16.5792 26.8779 0.0000 61.6497 0.0000
# 6 0.0000 0.0001 0.0001 4.4878 0.0000 2.2998
#
#
#
# Elastic Compliance Matrix: (Units=1/GPa)
#
#
# Indices 1 2 3 4 5 6 
#
# 1 0.015938 -0.006944 -0.005156 -0.000001 -0.000580 0.000002
# 2 -0.006944 0.018241 0.000295 0.000001 -0.002989 -0.000003
# 3 -0.005156 0.000295 0.013634 0.000001 -0.004504 -0.000003
# 4 -0.000001 0.000001 0.000001 0.129707 -0.000001 -0.253114
# 5 -0.000580 -0.002989 -0.004504 -0.000001 0.019159 0.000002
# 6 0.000002 -0.000003 -0.000003 -0.253114 0.000002 0.928756
#
#
# Mechanical properties :
#
#
# Convention : Reuss Voigt Hill
#
# Bulk Modulus (GPa) = 41.31777 50.42419 45.87098
# Shear Modulus (GPa) = 4.32110 27.10803 15.71457
#
# Velocity S-wave (km/s) = 1.45107 3.63446 2.76721
# Velocity P-wave (km/s) = 4.78967 6.49486 5.70632
#
# Compressibility (1/GPa) = 0.02420266
#
# Stress axis : x y z
#
# Youngs Moduli (GPa) = 62.74472 54.82173 73.34766
#
# Poissons Ratio (x) = 0.38067 0.37821
# Poissons Ratio (y) = 0.43569 -0.02167
# Poissons Ratio (z) = 0.32353 -0.01619
#
# Static dielectric constant tensor:
#      x y z
#    x 1.771650 0.000000 0.014390 
#    y 0.000000 1.709550 0.000000 
#    z 0.014390 0.000000 1.753380 
# 
# From -- ./inp_files/293576.got.cif
#   From: 2010.05.17/outbox.cif.g08.bks.cpg/sg12_147_cif.got.tgz:293576.got - 2010.06.03 13:09:07.
