data_PCOD9209143
_publ_section_title
;
Structure prediction by ZEFSAII (Michael W. Deem and Ramdas Pophale) SiO2 
 PCOD9209143
Probable space group: C 2/M
;
_chemical_formula_sum "Si O2"
_cell_formula_units_Z 56
_cell_length_a 29.758935
_cell_length_b 8.643763
_cell_length_c 22.435994
_cell_angle_alpha 90.000000
_cell_angle_beta 149.286444
_cell_angle_gamma 90.000000
_cell_volume 2947.615390
_symmetry_space_group_name_H-M "C 2/M"
_symmetry_group_IT_number 12
_symmetry_cell_setting 'monoclinic'
loop_
_space_group_symop_operation_xyz
x,y,z
-x,y,-z
-x,-y,-z
x,-y,z
1/2+x,1/2+y,z
1/2-x,1/2+y,-z
1/2-x,1/2-y,-z
1/2+x,1/2-y,z
loop_
_atom_site_type_symbol
_atom_site_label
_atom_site_fract_x
_atom_site_fract_y
_atom_site_fract_z
Si Si1 0.781345 0.811885 0.384923
Si Si2 0.762556 0.316075 0.106919
Si Si3 0.756849 0.315441 0.789744
Si Si4 0.891284 0.684315 0.145264
Si Si5 0.086203 0.815018 0.362330
Si Si6 0.047981 0.183035 0.991358
Si Si7 0.109232 0.685286 0.261973
O O1 0.784184 0.760286 0.319727
O O2 0.860410 0.763569 0.518179
O O3 0.689384 0.764775 0.310699
O O4 0.781030 0.000000 0.383458
O O5 0.749919 0.500000 0.091246
O O6 0.782402 0.260631 0.195923
O O7 0.838493 0.277100 0.145843
O O8 0.673194 0.237119 0.981331
O O9 0.747929 0.500000 0.783680
O O10 0.859952 0.271439 0.905337
O O11 0.903932 0.500000 0.156404
O O12 0.984662 0.766824 0.249945
O O13 0.125628 0.738682 0.347932
O O14 0.093796 0.000000 0.365897
O O15 0.980895 0.240970 0.864566
O O16 0.064236 0.000000 0.003110
O O17 0.000000 0.209769 0.000000
O O18 0.102048 0.500000 0.251365
#
# Coordination Sequence:
#
# PCOD9209143 Si02
#       7
#     8   8   8   8   8   8   8
#     4   9  21  38  56  79 111 151 191 231 271 327
#     4  10  21  38  61  88 115 142 179 229 282 333
#     4  11  21  37  59  83 113 150 189 226 277 334
#     4  10  21  39  61  86 113 144 183 227 279 335
#     4  11  22  38  58  82 112 146 189 235 279 325
#     4  11  22  35  53  81 114 146 183 228 277 325
#     4  11  21  37  58  81 111 149 192 232 278 329
#
# _framework density 18.998408999999999
#
# number of rings (size 3 to 8) (size 9 to 14) (size 15 to 20)
#    0.000    1.571    1.429    3.857    0.000    2.286 
#    0.000    5.714    0.000    4.286    0.000    0.000 
#    0.000    0.000    0.000    0.000    0.000    0.000 
#
# Total GULP energy -156518.831203 kJ/mol
# GULP energy per Si atom -5589.958257 kJ/mol
# Density = 1.895517 g / cm^3
# Si number density = 18.998409 Si / 1000 Ang^3
#
#
#
# Elastic Constant Matrix: (Units=GPa)
#
#
# Indices 1 2 3 4 5 6 
#
# 1 77.2362 4.6400 26.0568 0.0000 -33.3253 0.0000
# 2 4.6400 13.6244 -7.4080 0.0000 -6.6244 0.0000
# 3 26.0568 -7.4080 70.3023 0.0000 -32.6138 0.0000
# 4 0.0000 0.0000 0.0000 15.5986 0.0000 -9.1355
# 5 -33.3253 -6.6244 -32.6138 0.0000 33.9060 0.0000
# 6 0.0000 0.0000 0.0000 -9.1355 0.0000 25.6259
#
#
#
# Elastic Compliance Matrix: (Units=1/GPa)
#
#
# Indices 1 2 3 4 5 6 
#
# 1 0.024145 0.012940 0.008300 0.000000 0.034244 0.000000
# 2 0.012940 0.141117 0.051943 0.000000 0.090253 0.000000
# 3 0.008300 0.051943 0.045350 0.000000 0.061929 0.000000
# 4 0.000000 0.000000 0.000000 0.081025 0.000000 0.028885
# 5 0.034244 0.090253 0.061929 0.000000 0.140352 0.000000
# 6 0.000000 0.000000 0.000000 0.028885 0.000000 0.049320
#
#
# Mechanical properties :
#
#
# Convention : Reuss Voigt Hill
#
# Bulk Modulus (GPa) = 2.80129 23.08226 12.94178
# Shear Modulus (GPa) = 11.01479 24.21773 17.61626
#
# Velocity S-wave (km/s) = 2.41046 3.57420 3.04838
# Velocity P-wave (km/s) = 3.03723 5.40455 4.38372
#
# Compressibility (1/GPa) = 0.35697865
#
# Stress axis : x y z
#
# Youngs Moduli (GPa) = 41.41680 7.08634 22.05052
#
# Poissons Ratio (x) = -0.09170 -0.18303
# Poissons Ratio (y) = -0.53595 -1.14536
# Poissons Ratio (z) = -0.34378 -0.36808
#
# Static dielectric constant tensor:
#      x y z
#    x 1.668120 0.000000 -0.019790 
#    y 0.000000 1.637670 0.000000 
#    z -0.019790 0.000000 1.636790 
# 
# From -- ./inp_files/329679.got.cif
#   From: 2010.05.17/outbox.cif.g08.bks.cpg/sg12_165_cif.got.tgz:329679.got - 2010.06.03 13:09:07.
