data_PCOD9209328
_publ_section_title
;
Structure prediction by ZEFSAII (Michael W. Deem and Ramdas Pophale) SiO2 
 PCOD9209328
Probable space group: C 2/M
;
_chemical_formula_sum "Si O2"
_cell_formula_units_Z 40
_cell_length_a 27.807607
_cell_length_b 9.854808
_cell_length_c 12.298892
_cell_angle_alpha 90.000000
_cell_angle_beta 34.537299
_cell_angle_gamma 90.000000
_cell_volume 1910.807226
_symmetry_space_group_name_H-M "C 2/M"
_symmetry_group_IT_number 12
_symmetry_cell_setting 'monoclinic'
loop_
_space_group_symop_operation_xyz
x,y,z
-x,y,-z
-x,-y,-z
x,-y,z
1/2+x,1/2+y,z
1/2-x,1/2+y,-z
1/2-x,1/2-y,-z
1/2+x,1/2-y,z
loop_
_atom_site_type_symbol
_atom_site_label
_atom_site_fract_x
_atom_site_fract_y
_atom_site_fract_z
Si Si1 0.986559 0.288271 0.240367
Si Si2 0.428799 0.000000 0.510848
Si Si3 0.679649 0.204714 0.894896
Si Si4 0.588855 0.000000 0.769616
Si Si5 0.765235 0.000000 0.151065
Si Si6 0.758734 0.000000 0.590866
Si Si7 0.952219 0.000000 0.205991
Si Si8 0.316320 0.000000 0.918387
O O1 0.971228 0.362726 0.385008
O O2 0.922348 0.365885 0.281334
O O3 0.973903 0.130746 0.239671
O O4 0.084410 0.322084 0.030564
O O5 0.334018 0.000000 0.635254
O O6 0.596745 0.000000 0.314669
O O7 0.693307 0.363557 0.883053
O O8 0.745200 0.131308 0.693061
O O9 0.687884 0.129632 0.995638
O O10 0.678836 0.000000 0.659737
O O11 0.500000 0.000000 0.000000
O O12 0.758411 0.000000 0.031794
O O13 0.851717 0.000000 0.368399
O O14 0.000000 0.000000 0.000000
#
# Coordination Sequence:
#
# PCOD9209328 Si02
#       8
#     8   4   8   4   4   4   4   4
#     4  11  23  42  64  91 134 165 218 277 321 386
#     4   9  21  40  66  89 125 176 213 273 294 390
#     4  11  21  40  68  97 130 176 216 264 330 386
#     4  11  19  42  66  95 117 173 227 268 313 392
#     4  10  21  38  61  96 131 167 216 264 319 385
#     4  11  24  42  72  88 128 180 222 267 328 398
#     4  12  28  46  59  98 135 171 211 285 342 382
#     4   9  21  38  68  98 130 171 227 259 315 389
#
# _framework density 20.93356
#
# number of rings (size 3 to 8) (size 9 to 14) (size 15 to 20)
#    0.600    0.800    2.000    4.800    0.000    2.400 
#    7.200    0.000    0.000    2.400    0.000    0.000 
#    0.000    0.000    0.000    0.000    0.000    0.000 
#
# Total GULP energy -111612.219714 kJ/mol
# GULP energy per Si atom -5580.610986 kJ/mol
# Density = 2.088591 g / cm^3
# Si number density = 20.933560 Si / 1000 Ang^3
#
#
#
# Elastic Constant Matrix: (Units=GPa)
#
#
# Indices 1 2 3 4 5 6 
#
# 1 85.7843 44.6674 37.2514 0.0000 -0.6294 0.0000
# 2 44.6674 184.0620 32.4207 0.0000 15.8509 0.0000
# 3 37.2514 32.4207 133.6909 0.0000 -0.4192 0.0000
# 4 0.0000 0.0000 0.0000 17.3284 0.0000 -8.8042
# 5 -0.6294 15.8509 -0.4192 0.0000 29.4398 0.0000
# 6 0.0000 0.0000 0.0000 -8.8042 0.0000 -12.7821
#
#
#
# Elastic Compliance Matrix: (Units=1/GPa)
#
#
# Indices 1 2 3 4 5 6 
#
# 1 0.014771 -0.003166 -0.003342 0.000000 0.001973 0.000000
# 2 -0.003166 0.006647 -0.000741 0.000000 -0.003657 0.000000
# 3 -0.003342 -0.000741 0.008592 0.000000 0.000450 0.000000
# 4 0.000000 0.000000 0.000000 0.042748 0.000000 -0.029445
# 5 0.001973 -0.003657 0.000450 0.000000 0.035985 0.000000
# 6 0.000000 0.000000 0.000000 -0.029445 0.000000 -0.057953
#
#
# Mechanical properties :
#
#
# Convention : Reuss Voigt Hill
#
# Bulk Modulus (GPa) = 64.46498 70.24627 67.35562
# Shear Modulus (GPa) = 70.96311 26.07709 48.52010
#
# Velocity S-wave (km/s) = 5.82862 3.53329 4.81959
# Velocity P-wave (km/s) = 8.72691 7.09049 7.95091
#
# Compressibility (1/GPa) = 0.01551230
#
# Stress axis : x y z
#
# Youngs Moduli (GPa) = 67.69888 150.45030 116.38358
#
# Poissons Ratio (x) = 0.47631 0.38894
# Poissons Ratio (y) = 0.21433 0.08626
# Poissons Ratio (z) = 0.22624 0.11151
#
# Static dielectric constant tensor:
#      x y z
#    x 1.787960 0.000000 0.020500 
#    y 0.000000 1.742340 0.000000 
#    z 0.020500 0.000000 1.765330 
# 
# From -- ./inp_files/249567.got.cif
#   From: 2010.05.17/outbox.cif.g08.bks.cpg/sg12_125_cif.got.tgz:249567.got - 2010.06.03 13:09:07.
