data_PCOD9209555
_publ_section_title
;
Structure prediction by ZEFSAII (Michael W. Deem and Ramdas Pophale) SiO2 
 PCOD9209555
Probable space group: C 2/M
;
_chemical_formula_sum "Si O2"
_cell_formula_units_Z 58
_cell_length_a 11.341475
_cell_length_b 15.943602
_cell_length_c 26.737107
_cell_angle_alpha 90.000000
_cell_angle_beta 147.147867
_cell_angle_gamma 90.000000
_cell_volume 2622.698541
_symmetry_space_group_name_H-M "C 2/M"
_symmetry_group_IT_number 12
_symmetry_cell_setting 'monoclinic'
loop_
_space_group_symop_operation_xyz
x,y,z
-x,y,-z
-x,-y,-z
x,-y,z
1/2+x,1/2+y,z
1/2-x,1/2+y,-z
1/2-x,1/2-y,-z
1/2+x,1/2-y,z
loop_
_atom_site_type_symbol
_atom_site_label
_atom_site_fract_x
_atom_site_fract_y
_atom_site_fract_z
Si Si1 0.451515 0.899244 0.041234
Si Si2 0.537290 0.900404 0.779291
Si Si3 0.463250 0.594715 0.881887
Si Si4 0.196044 0.145451 0.381865
Si Si5 0.706203 0.169306 0.218310
Si Si6 0.750039 0.838354 0.412904
Si Si7 0.695351 0.149294 0.697090
Si Si8 0.500000 0.000000 0.500000
O O1 0.610978 0.839680 0.129157
O O2 0.477053 0.000000 0.062968
O O3 0.500000 0.893017 0.000000
O O4 0.203981 0.870254 0.963593
O O5 0.776564 0.866960 0.850532
O O6 0.464774 0.880150 0.808790
O O7 0.362871 0.857548 0.680446
O O8 0.533308 0.000000 0.768305
O O9 0.494671 0.500000 0.911450
O O10 0.348678 0.592541 0.786563
O O11 0.256211 0.238036 0.422381
O O12 0.246198 0.142496 0.340079
O O13 0.943761 0.129861 0.301285
O O14 0.330079 0.073592 0.455557
O O15 0.746537 0.259540 0.258458
O O16 0.560542 0.869506 0.383462
O O17 0.000000 0.869410 0.500000
#
# Coordination Sequence:
#
# PCOD9209555 Si02
#       8
#     8   8   8   8   8   8   8   2
#     4  10  21  38  62  96 130 166 209 263 319 376
#     4  10  21  39  62  90 123 166 212 261 318 379
#     4   9  20  39  61  88 123 162 214 261 311 378
#     4  11  24  42  59  93 126 163 213 256 322 375
#     4  11  23  39  66  91 127 168 211 264 319 378
#     4  10  21  41  62  87 121 162 212 262 317 376
#     4  10  22  40  65  85 123 170 203 262 319 372
#     4  12  28  40  64  96 130 170 206 264 314 390
#
# _framework density 22.114626000000001
#
# number of rings (size 3 to 8) (size 9 to 14) (size 15 to 20)
#    0.000    1.793    2.069    1.241    2.897    3.034 
#    0.000    2.069    0.000    0.000    0.000    0.000 
#    0.000    0.000    0.000    0.000    0.000    0.000 
#
# Total GULP energy -161610.208554 kJ/mol
# GULP energy per Si atom -5572.765812 kJ/mol
# Density = 2.206429 g / cm^3
# Si number density = 22.114626 Si / 1000 Ang^3
#
#
#
# Elastic Constant Matrix: (Units=GPa)
#
#
# Indices 1 2 3 4 5 6 
#
# 1 62.1508 -5.5486 7.2060 0.0001 8.0401 0.0000
# 2 -5.5486 61.5379 9.4745 0.0002 1.3706 0.0000
# 3 7.2060 9.4745 66.6930 0.0008 36.9710 -0.0003
# 4 0.0001 0.0002 0.0008 12.3022 0.0000 3.8685
# 5 8.0401 1.3706 36.9710 0.0000 44.8762 0.0000
# 6 0.0000 0.0000 -0.0003 3.8685 0.0000 1.5770
#
#
#
# Elastic Compliance Matrix: (Units=1/GPa)
#
#
# Indices 1 2 3 4 5 6 
#
# 1 0.016636 0.001655 -0.000649 -0.000001 -0.002497 0.000002
# 2 0.001655 0.016951 -0.003931 0.000000 0.002424 0.000000
# 3 -0.000649 -0.003931 0.028514 -0.000014 -0.023254 0.000040
# 4 -0.000001 0.000000 -0.000014 0.355613 0.000012 -0.872373
# 5 -0.002497 0.002424 -0.023254 0.000012 0.041815 -0.000031
# 6 0.000002 0.000000 0.000040 -0.872373 -0.000031 2.774191
#
#
# Mechanical properties :
#
#
# Convention : Reuss Voigt Hill
#
# Bulk Modulus (GPa) = 17.77696 23.62729 20.70213
# Shear Modulus (GPa) = 1.53453 23.70105 12.61779
#
# Velocity S-wave (km/s) = 0.83391 3.27729 2.39124
# Velocity P-wave (km/s) = 2.99720 5.00280 4.12379
#
# Compressibility (1/GPa) = 0.05625260
#
# Stress axis : x y z
#
# Youngs Moduli (GPa) = 60.11104 58.99498 35.07103
#
# Poissons Ratio (x) = -0.09766 0.02275
# Poissons Ratio (y) = -0.09951 0.13785
# Poissons Ratio (z) = 0.03899 0.23188
#
# Static dielectric constant tensor:
#      x y z
#    x 1.820230 0.000000 0.006450 
#    y 0.000000 1.826640 0.000000 
#    z 0.006450 0.000000 1.817410 
# 
# From -- ./inp_files/358814.got.cif
#   From: 2010.05.17/outbox.cif.g08.bks.cpg/sg12_180_cif.got.tgz:358814.got - 2010.06.03 13:09:07.
