data_PCOD9209465
_publ_section_title
;
Structure prediction by ZEFSAII (Michael W. Deem and Ramdas Pophale) SiO2 
 PCOD9209465
Probable space group: C 2/M
;
_chemical_formula_sum "Si O2"
_cell_formula_units_Z 40
_cell_length_a 15.818550
_cell_length_b 27.754457
_cell_length_c 8.537028
_cell_angle_alpha 90.000000
_cell_angle_beta 151.504269
_cell_angle_gamma 90.000000
_cell_volume 1788.172501
_symmetry_space_group_name_H-M "C 2/M"
_symmetry_group_IT_number 12
_symmetry_cell_setting 'monoclinic'
loop_
_space_group_symop_operation_xyz
x,y,z
-x,y,-z
-x,-y,-z
x,-y,z
1/2+x,1/2+y,z
1/2-x,1/2+y,-z
1/2-x,1/2-y,-z
1/2+x,1/2-y,z
loop_
_atom_site_type_symbol
_atom_site_label
_atom_site_fract_x
_atom_site_fract_y
_atom_site_fract_z
Si Si1 0.773033 0.104625 0.807419
Si Si2 0.701272 0.606189 0.496921
Si Si3 0.432738 0.795446 0.551568
Si Si4 0.680896 0.790254 0.220672
Si Si5 0.783894 0.944215 0.153644
O O1 0.734986 0.085045 0.567705
O O2 0.683732 0.157141 0.666348
O O3 0.720960 0.078001 0.884678
O O4 0.987466 0.106008 0.157069
O O5 0.756679 0.662187 0.589147
O O6 0.767783 0.581562 0.766390
O O7 0.500000 0.774444 0.500000
O O8 0.316035 0.752806 0.432091
O O9 0.610063 0.807224 0.936518
O O10 0.500000 0.771837 0.000000
O O11 0.000000 0.942044 0.500000
O O12 0.731603 0.000000 0.075571
#
# Coordination Sequence:
#
# PCOD9209465 Si02
#       5
#     8   8   8   8   8
#     4  10  21  38  62  91 124 162 206 254 306 364
#     4  10  21  38  63  90 122 164 206 253 305 366
#     4  12  25  39  60  90 124 166 209 254 304 366
#     4  12  24  40  61  88 125 166 205 254 303 363
#     4   9  19  37  62  93 124 154 200 261 313 361
#
# _framework density 22.369206999999999
#
# number of rings (size 3 to 8) (size 9 to 14) (size 15 to 20)
#    0.000    1.400    2.000    3.600    2.800    3.200 
#    0.000    4.000    0.000    6.000    0.000    0.000 
#    0.000    0.000    0.000    0.000    0.000    0.000 
#
# Total GULP energy -111622.441681 kJ/mol
# GULP energy per Si atom -5581.122084 kJ/mol
# Density = 2.231829 g / cm^3
# Si number density = 22.369207 Si / 1000 Ang^3
#
#
#
# Elastic Constant Matrix: (Units=GPa)
#
#
# Indices 1 2 3 4 5 6 
#
# 1 132.0229 58.6371 51.6636 0.0000 -45.7987 0.0000
# 2 58.6371 128.9893 46.1717 0.0000 -34.8922 0.0000
# 3 51.6636 46.1717 77.8617 0.0000 -36.7098 0.0000
# 4 0.0000 0.0000 0.0000 41.7750 0.0000 -11.8180
# 5 -45.7987 -34.8922 -36.7098 0.0000 38.3335 0.0000
# 6 0.0000 0.0000 0.0000 -11.8180 0.0000 27.2789
#
#
#
# Elastic Compliance Matrix: (Units=1/GPa)
#
#
# Indices 1 2 3 4 5 6 
#
# 1 0.013589 -0.002126 -0.001848 0.000000 0.012530 0.000000
# 2 -0.002126 0.011037 -0.002908 0.000000 0.004721 0.000000
# 3 -0.001848 -0.002908 0.024622 0.000000 0.018724 0.000000
# 4 0.000000 0.000000 0.000000 0.027281 0.000000 0.011819
# 5 0.012530 0.004721 0.018724 0.000000 0.063284 0.000000
# 6 0.000000 0.000000 0.000000 0.011819 0.000000 0.041779
#
#
# Mechanical properties :
#
#
# Convention : Reuss Voigt Hill
#
# Bulk Modulus (GPa) = 28.18328 72.42429 50.30379
# Shear Modulus (GPa) = 24.13298 33.63759 28.88529
#
# Velocity S-wave (km/s) = 3.28815 3.88202 3.59736
# Velocity P-wave (km/s) = 5.20023 7.24849 6.30805
#
# Compressibility (1/GPa) = 0.03548203
#
# Stress axis : x y z
#
# Youngs Moduli (GPa) = 73.59125 90.60227 40.61394
#
# Poissons Ratio (x) = 0.19265 0.07506
# Poissons Ratio (y) = 0.15648 0.11812
# Poissons Ratio (z) = 0.13601 0.26351
#
# Static dielectric constant tensor:
#      x y z
#    x 1.908200 0.000000 -0.092710 
#    y 0.000000 1.748070 0.000000 
#    z -0.092710 0.000000 1.886310 
# 
# From -- ./inp_files/79306.got.cif
#   From: 2010.05.17/outbox.cif.g08.bks.cpg/sg12_40_cif.got.tgz:79306.got - 2010.06.03 13:09:07.
