data_PCOD9209776
_publ_section_title
;
Structure prediction by ZEFSAII (Michael W. Deem and Ramdas Pophale) SiO2 
 PCOD9209776
Probable space group: C 2/M
;
_chemical_formula_sum "Si O2"
_cell_formula_units_Z 48
_cell_length_a 11.655515
_cell_length_b 22.885929
_cell_length_c 9.451619
_cell_angle_alpha 90.000000
_cell_angle_beta 71.170100
_cell_angle_gamma 90.000000
_cell_volume 2386.261863
_symmetry_space_group_name_H-M "C 2/M"
_symmetry_group_IT_number 12
_symmetry_cell_setting 'monoclinic'
loop_
_space_group_symop_operation_xyz
x,y,z
-x,y,-z
-x,-y,-z
x,-y,z
1/2+x,1/2+y,z
1/2-x,1/2+y,-z
1/2-x,1/2-y,-z
1/2+x,1/2-y,z
loop_
_atom_site_type_symbol
_atom_site_label
_atom_site_fract_x
_atom_site_fract_y
_atom_site_fract_z
Si Si1 0.736492 0.433237 0.250080
Si Si2 0.589857 0.160328 0.847903
Si Si3 0.274620 0.568512 0.406152
Si Si4 0.697891 0.259689 0.178011
Si Si5 0.008295 0.146752 0.329313
Si Si6 0.084860 0.646440 0.339320
O O1 0.738614 0.500000 0.209949
O O2 0.837951 0.396525 0.128473
O O3 0.754003 0.427845 0.413764
O O4 0.607399 0.404312 0.273038
O O5 0.699690 0.204822 0.775126
O O6 0.506619 0.139643 0.753706
O O7 0.500000 0.185824 0.000000
O O8 0.305776 0.500000 0.366167
O O9 0.382426 0.615689 0.336638
O O10 0.159789 0.590485 0.362009
O O11 0.572373 0.297435 0.229445
O O12 0.674275 0.197963 0.258582
O O13 0.750000 0.250000 0.000000
O O14 0.000000 0.161459 0.500000
O O15 0.000000 0.667361 0.500000
#
# Coordination Sequence:
#
# PCOD9209776 Si02
#       6
#     8   8   8   8   8   8
#     4   9  18  36  63  91 124 162 206 260 309 365
#     4  11  23  41  60  91 124 163 211 250 318 376
#     4  10  21  38  64  95 127 163 207 263 314 364
#     4  11  24  41  64  88 125 166 208 264 318 369
#     4   9  19  38  63  96 121 161 216 260 306 369
#     4  12  25  40  64  95 126 164 207 259 311 378
#
# _framework density 20.115141999999999
#
# number of rings (size 3 to 8) (size 9 to 14) (size 15 to 20)
#    0.000    1.667    3.333    1.000    2.333    4.000 
#    0.000    0.000    0.000    1.000    0.000    0.000 
#    0.000    0.000    0.000    0.000    0.000    0.000 
#
# Total GULP energy -133850.081792 kJ/mol
# GULP energy per Si atom -5577.086741 kJ/mol
# Density = 2.006936 g / cm^3
# Si number density = 20.115142 Si / 1000 Ang^3
#
#
#
# Elastic Constant Matrix: (Units=GPa)
#
#
# Indices 1 2 3 4 5 6 
#
# 1 72.8792 8.1840 14.0962 0.0000 -1.1856 0.0000
# 2 8.1840 83.1410 8.0015 0.0000 -14.4334 0.0000
# 3 14.0962 8.0015 48.6807 0.0000 -17.0630 0.0000
# 4 0.0000 0.0000 0.0000 13.4834 0.0000 -7.5151
# 5 -1.1856 -14.4334 -17.0630 0.0000 27.7481 0.0000
# 6 0.0000 0.0000 0.0000 -7.5151 0.0000 16.5583
#
#
#
# Elastic Compliance Matrix: (Units=1/GPa)
#
#
# Indices 1 2 3 4 5 6 
#
# 1 0.014852 -0.001546 -0.005234 0.000000 -0.003388 0.000000
# 2 -0.001546 0.013386 0.000848 0.000000 0.007418 0.000000
# 3 -0.005234 0.000848 0.028038 0.000000 0.017458 0.000000
# 4 0.000000 0.000000 0.000000 0.099279 0.000000 0.045058
# 5 -0.003388 0.007418 0.017458 0.000000 0.050488 0.000000
# 6 0.000000 0.000000 0.000000 0.045058 0.000000 0.080842
#
#
# Mechanical properties :
#
#
# Convention : Reuss Voigt Hill
#
# Bulk Modulus (GPa) = 22.51738 29.47379 25.99558
# Shear Modulus (GPa) = 15.94620 23.18591 19.56605
#
# Velocity S-wave (km/s) = 2.81863 3.39877 3.12220
# Velocity P-wave (km/s) = 4.67027 5.48512 5.09401
#
# Compressibility (1/GPa) = 0.04441015
#
# Stress axis : x y z
#
# Youngs Moduli (GPa) = 67.32977 74.70377 35.66633
#
# Poissons Ratio (x) = 0.11553 0.18668
# Poissons Ratio (y) = 0.10413 -0.03023
# Poissons Ratio (z) = 0.35242 -0.06333
#
# Static dielectric constant tensor:
#      x y z
#    x 1.749620 0.000000 0.012930 
#    y 0.000000 1.696850 0.000000 
#    z 0.012930 0.000000 1.708690 
# 
# From -- ./inp_files/51327.got.cif
#   From: 2010.05.17/outbox.cif.g08.bks.cpg/sg12_26_cif.got.tgz:51327.got - 2010.06.03 13:09:07.
