data_PCOD9209028
_publ_section_title
;
Structure prediction by ZEFSAII (Michael W. Deem and Ramdas Pophale) SiO2 
 PCOD9209028
Probable space group: C 2/M
;
_chemical_formula_sum "Si O2"
_cell_formula_units_Z 40
_cell_length_a 7.602978
_cell_length_b 20.203611
_cell_length_c 13.524304
_cell_angle_alpha 90.000000
_cell_angle_beta 54.871570
_cell_angle_gamma 90.000000
_cell_volume 1699.060753
_symmetry_space_group_name_H-M "C 2/M"
_symmetry_group_IT_number 12
_symmetry_cell_setting 'monoclinic'
loop_
_space_group_symop_operation_xyz
x,y,z
-x,y,-z
-x,-y,-z
x,-y,z
1/2+x,1/2+y,z
1/2-x,1/2+y,-z
1/2-x,1/2-y,-z
1/2+x,1/2-y,z
loop_
_atom_site_type_symbol
_atom_site_label
_atom_site_fract_x
_atom_site_fract_y
_atom_site_fract_z
Si Si1 0.765725 0.422596 0.626994
Si Si2 0.009819 0.424599 0.742335
Si Si3 0.723779 0.366234 0.972258
Si Si4 0.239017 0.271889 0.874804
Si Si5 0.413580 0.331831 0.630408
O O1 0.692772 0.500000 0.643766
O O2 0.599255 0.373329 0.627458
O O3 0.000000 0.418257 0.500000
O O4 0.824042 0.407351 0.722613
O O5 0.067671 0.500000 0.703471
O O6 0.221397 0.381348 0.663898
O O7 0.910407 0.416766 0.884826
O O8 0.808851 0.300658 0.886140
O O9 0.500000 0.389703 0.000000
O O10 0.675635 0.337122 0.095927
O O11 0.304635 0.280426 0.741187
O O12 0.000000 0.271172 0.000000
O O13 0.500000 0.301969 0.500000
#
# Coordination Sequence:
#
# PCOD9209028 Si02
#       5
#     8   8   8   8   8
#     4  10  21  38  60  90 130 177 219 256 321 401
#     4  11  23  40  66  98 131 169 219 274 326 383
#     4  10  21  41  68  89 126 176 214 262 327 387
#     4  10  21  41  67  92 128 170 218 261 322 396
#     4  12  23  40  67 100 130 171 218 272 327 382
#
# _framework density 23.542418000000001
#
# number of rings (size 3 to 8) (size 9 to 14) (size 15 to 20)
#    0.000    1.400    4.000    1.800    0.000    1.200 
#    0.000    5.000    0.000    0.000    0.000    0.000 
#    0.000    0.000    0.000    0.000    0.000    0.000 
#
# Total GULP energy -111620.407895 kJ/mol
# GULP energy per Si atom -5581.020395 kJ/mol
# Density = 2.348883 g / cm^3
# Si number density = 23.542418 Si / 1000 Ang^3
#
#
#
# Elastic Constant Matrix: (Units=GPa)
#
#
# Indices 1 2 3 4 5 6 
#
# 1 46.5030 7.7564 13.2965 0.0000 1.1799 0.0000
# 2 7.7564 31.8109 20.2059 0.0000 12.4244 0.0000
# 3 13.2965 20.2059 148.6171 0.0000 23.7376 0.0000
# 4 0.0000 0.0000 0.0000 19.4506 0.0000 2.3248
# 5 1.1799 12.4244 23.7376 0.0000 39.6298 0.0000
# 6 0.0000 0.0000 0.0000 2.3248 0.0000 15.8082
#
#
#
# Elastic Compliance Matrix: (Units=1/GPa)
#
#
# Indices 1 2 3 4 5 6 
#
# 1 0.022803 -0.005287 -0.001634 0.000000 0.001957 0.000000
# 2 -0.005287 0.038674 -0.003178 0.000000 -0.010064 0.000000
# 3 -0.001634 -0.003178 0.007895 0.000000 -0.003684 0.000000
# 4 0.000000 0.000000 0.000000 0.052332 0.000000 -0.007696
# 5 0.001957 -0.010064 -0.003684 0.000000 0.030537 0.000000
# 6 0.000000 0.000000 0.000000 -0.007696 0.000000 0.064390
#
#
# Mechanical properties :
#
#
# Convention : Reuss Voigt Hill
#
# Bulk Modulus (GPa) = 20.33513 34.38320 27.35917
# Shear Modulus (GPa) = 19.74560 27.35584 23.55072
#
# Velocity S-wave (km/s) = 2.89922 3.41248 3.16627
# Velocity P-wave (km/s) = 4.45687 5.49210 5.00134
#
# Compressibility (1/GPa) = 0.04917598
#
# Stress axis : x y z
#
# Youngs Moduli (GPa) = 43.85328 25.85725 126.65603
#
# Poissons Ratio (x) = 0.13670 0.20696
# Poissons Ratio (y) = 0.23184 0.40247
# Poissons Ratio (z) = 0.07166 0.08217
#
# Static dielectric constant tensor:
#      x y z
#    x 2.052820 0.000000 0.056520 
#    y 0.000000 1.897930 0.000000 
#    z 0.056520 0.000000 1.897250 
# 
# From -- ./inp_files/198179.got.cif
#   From: 2010.05.17/outbox.cif.g08.bks.cpg/sg12_100_cif.got.tgz:198179.got - 2010.06.03 13:09:07.
