data_PCOD9209877
_publ_section_title
;
Structure prediction by ZEFSAII (Michael W. Deem and Ramdas Pophale) SiO2 
 PCOD9209877
Probable space group: C 2/M
;
_chemical_formula_sum "Si O2"
_cell_formula_units_Z 36
_cell_length_a 25.591292
_cell_length_b 15.180466
_cell_length_c 15.815453
_cell_angle_alpha 90.000000
_cell_angle_beta 163.478417
_cell_angle_gamma 90.000000
_cell_volume 1747.240414
_symmetry_space_group_name_H-M "C 2/M"
_symmetry_group_IT_number 12
_symmetry_cell_setting 'monoclinic'
loop_
_space_group_symop_operation_xyz
x,y,z
-x,y,-z
-x,-y,-z
x,-y,z
1/2+x,1/2+y,z
1/2-x,1/2+y,-z
1/2-x,1/2-y,-z
1/2+x,1/2-y,z
loop_
_atom_site_type_symbol
_atom_site_label
_atom_site_fract_x
_atom_site_fract_y
_atom_site_fract_z
Si Si1 0.639784 0.680577 0.520951
Si Si2 0.021711 0.000000 0.135262
Si Si3 0.415817 0.500000 0.152605
Si Si4 0.307696 0.152300 0.614376
Si Si5 0.603107 0.835398 0.936085
Si Si6 0.712104 0.500000 0.867088
O O1 0.532080 0.588337 0.353697
O O2 0.807500 0.662136 0.715464
O O3 0.508725 0.759108 0.285609
O O4 0.728944 0.703755 0.748699
O O5 0.141376 0.913987 0.339515
O O6 0.876077 0.000000 0.989024
O O7 0.000000 0.000000 0.000000
O O8 0.273010 0.500000 0.007892
O O9 0.250000 0.250000 0.500000
O O10 0.465255 0.125096 0.793347
O O11 0.685810 0.913165 0.008670
O O12 0.500000 0.500000 0.500000
#
# Coordination Sequence:
#
# PCOD9209877 Si02
#       6
#     8   4   4   8   8   4
#     4  10  21  39  63  93 125 166 210 269 320 382
#     4  10  21  38  66  93 127 166 206 274 330 373
#     4  10  22  41  59  89 123 167 210 255 316 378
#     4   9  20  35  58  92 127 157 203 257 328 384
#     4  11  22  38  64  92 124 168 214 263 323 378
#     4  12  23  43  64  85 127 177 220 260 303 386
#
# _framework density 20.603916999999999
#
# number of rings (size 3 to 8) (size 9 to 14) (size 15 to 20)
#    0.000    1.778    2.222    1.333    0.000   11.556 
#    0.000    5.556    0.000    9.333    0.000    0.000 
#    0.000    0.000    0.000    0.000    0.000    0.000 
#
# Total GULP energy -100202.299185 kJ/mol
# GULP energy per Si atom -5566.794399 kJ/mol
# Density = 2.055702 g / cm^3
# Si number density = 20.603917 Si / 1000 Ang^3
#
#
#
# Elastic Constant Matrix: (Units=GPa)
#
#
# Indices 1 2 3 4 5 6 
#
# 1 173.3692 60.1332 55.3650 0.0000 -5.5093 0.0000
# 2 60.1332 123.9316 47.9256 0.0000 6.3629 0.0000
# 3 55.3650 47.9256 56.5028 0.0000 -9.1320 0.0000
# 4 0.0000 0.0000 0.0000 13.1443 0.0000 18.6822
# 5 -5.5093 6.3629 -9.1320 0.0000 38.7953 0.0000
# 6 0.0000 0.0000 0.0000 18.6822 0.0000 25.4437
#
#
#
# Elastic Compliance Matrix: (Units=1/GPa)
#
#
# Indices 1 2 3 4 5 6 
#
# 1 0.008547 -0.001302 -0.007319 0.000000 -0.000295 0.000000
# 2 -0.001302 0.013027 -0.010551 0.000000 -0.004805 0.000000
# 3 -0.007319 -0.010551 0.035272 0.000001 0.008994 0.000000
# 4 0.000000 0.000000 0.000001 -1.744658 0.000000 1.281026
# 5 -0.000295 -0.004805 0.008994 0.000000 0.028639 0.000000
# 6 0.000000 0.000000 0.000000 1.281026 0.000000 -0.901299
#
#
# Mechanical properties :
#
#
# Convention : Reuss Voigt Hill
#
# Bulk Modulus (GPa) = 54.04137 75.62789 64.83463
# Shear Modulus (GPa) = -1.98731 28.16865 13.09067
#
# Velocity S-wave (km/s) = -0.98317 3.70151 2.52335
# Velocity P-wave (km/s) = 4.99968 7.41981 6.32654
#
# Compressibility (1/GPa) = 0.01850434
#
# Stress axis : x y z
#
# Youngs Moduli (GPa) = 116.99388 76.76090 28.35080
#
# Poissons Ratio (x) = 0.09994 0.20749
# Poissons Ratio (y) = 0.15232 0.29912
# Poissons Ratio (z) = 0.85625 0.80989
#
# Static dielectric constant tensor:
#      x y z
#    x 1.840640 0.000000 0.007400 
#    y 0.000000 1.660460 0.000000 
#    z 0.007400 0.000000 1.803050 
# 
# From -- ./inp_files/240843.got.cif
#   From: 2010.05.17/outbox.cif.g08.bks.cpg/sg12_121_cif.got.tgz:240843.got - 2010.06.03 13:09:07.
