data_PCOD9209819
_publ_section_title
;
Structure prediction by ZEFSAII (Michael W. Deem and Ramdas Pophale) SiO2 
 PCOD9209819
Probable space group: C 2/M
;
_chemical_formula_sum "Si O2"
_cell_formula_units_Z 60
_cell_length_a 17.729151
_cell_length_b 19.346742
_cell_length_c 9.373009
_cell_angle_alpha 90.000000
_cell_angle_beta 100.698485
_cell_angle_gamma 90.000000
_cell_volume 3159.071085
_symmetry_space_group_name_H-M "C 2/M"
_symmetry_group_IT_number 12
_symmetry_cell_setting 'monoclinic'
loop_
_space_group_symop_operation_xyz
x,y,z
-x,y,-z
-x,-y,-z
x,-y,z
1/2+x,1/2+y,z
1/2-x,1/2+y,-z
1/2-x,1/2-y,-z
1/2+x,1/2-y,z
loop_
_atom_site_type_symbol
_atom_site_label
_atom_site_fract_x
_atom_site_fract_y
_atom_site_fract_z
Si Si1 0.562703 0.251297 0.125866
Si Si2 0.309420 0.325585 0.175274
Si Si3 0.409964 0.101026 0.968683
Si Si4 0.717266 0.319418 0.158621
Si Si5 0.703163 0.078478 0.323903
Si Si6 0.113996 0.500000 0.778347
Si Si7 0.349238 0.126589 0.391660
Si Si8 0.044858 0.244263 0.653345
O O1 0.593756 0.184859 0.046022
O O2 0.633695 0.299535 0.188023
O O3 0.516774 0.229898 0.251133
O O4 0.500000 0.285386 0.000000
O O5 0.263972 0.252786 0.169115
O O6 0.270271 0.379555 0.268147
O O7 0.396592 0.308917 0.250398
O O8 0.296846 0.347170 0.006356
O O9 0.366153 0.076479 0.813669
O O10 0.500000 0.084347 0.000000
O O11 0.378347 0.061512 0.094622
O O12 0.769269 0.367017 0.275712
O O13 0.673716 0.118104 0.452440
O O14 0.725440 0.000000 0.368504
O O15 0.108211 0.560110 0.653614
O O16 0.402539 0.192565 0.381842
O O17 0.000000 0.215899 0.500000
#
# Coordination Sequence:
#
# PCOD9209819 Si02
#       8
#     8   8   8   8   8   4   8   8
#     4  11  20  38  61  95 122 154 200 260 312 366
#     4  10  22  40  63  91 118 161 209 257 309 363
#     4  11  23  37  62  85 123 168 207 243 297 362
#     4  10  21  38  65  90 119 157 208 263 306 364
#     4  12  24  42  61  88 124 168 215 249 300 369
#     4  12  23  40  57  88 121 177 211 245 290 359
#     4  11  25  41  59  89 130 166 212 250 304 364
#     4  11  24  39  62  93 129 159 200 259 318 368
#
# _framework density 18.992925
#
# number of rings (size 3 to 8) (size 9 to 14) (size 15 to 20)
#    0.000    1.067    4.000    3.400    3.733    1.067 
#    0.000    1.000    0.000    0.400    1.733    1.400 
#    0.000    0.000    0.000    0.000    0.000    0.000 
#
# Total GULP energy -167001.948500 kJ/mol
# GULP energy per Si atom -5566.731617 kJ/mol
# Density = 1.894970 g / cm^3
# Si number density = 18.992925 Si / 1000 Ang^3
#
#
#
# Elastic Constant Matrix: (Units=GPa)
#
#
# Indices 1 2 3 4 5 6 
#
# 1 74.7771 14.4126 40.8598 0.0000 -2.5010 0.0000
# 2 14.4126 24.2116 3.2868 0.0000 -14.4669 0.0000
# 3 40.8598 3.2868 69.5313 0.0000 -12.0848 0.0000
# 4 0.0000 0.0000 0.0000 18.8820 0.0000 -3.6831
# 5 -2.5010 -14.4669 -12.0848 0.0000 38.5557 0.0000
# 6 0.0000 0.0000 0.0000 -3.6831 0.0000 1.8057
#
#
#
# Elastic Compliance Matrix: (Units=1/GPa)
#
#
# Indices 1 2 3 4 5 6 
#
# 1 0.025391 -0.019266 -0.015843 0.000000 -0.010548 0.000000
# 2 -0.019266 0.067925 0.013033 0.000000 0.028322 0.000000
# 3 -0.015843 0.013033 0.025116 0.000000 0.011735 0.000000
# 4 0.000000 0.000000 0.000000 0.087952 0.000000 0.179392
# 5 -0.010548 0.028322 0.011735 0.000000 0.039557 0.000000
# 6 0.000000 0.000000 0.000000 0.179392 0.000000 0.919685
#
#
# Mechanical properties :
#
#
# Convention : Reuss Voigt Hill
#
# Bulk Modulus (GPa) = 13.46279 31.73759 22.60019
# Shear Modulus (GPa) = 4.05010 19.17942 11.61476
#
# Velocity S-wave (km/s) = 1.46187 3.18121 2.47560
# Velocity P-wave (km/s) = 3.15486 5.49909 4.48292
#
# Compressibility (1/GPa) = 0.07427881
#
# Stress axis : x y z
#
# Youngs Moduli (GPa) = 39.38427 14.72216 39.81564
#
# Poissons Ratio (x) = 0.28364 0.63081
# Poissons Ratio (y) = 0.75879 -0.51893
# Poissons Ratio (z) = 0.62398 -0.19188
#
# Static dielectric constant tensor:
#      x y z
#    x 1.693990 0.000000 -0.000990 
#    y 0.000000 1.664790 0.000000 
#    z -0.000990 0.000000 1.678150 
# 
# From -- ./inp_files/77559.got.cif
#   From: 2010.05.17/outbox.cif.g08.bks.cpg/sg12_39_cif.got.tgz:77559.got - 2010.06.03 13:09:07.
