data_PCOD9209222
_publ_section_title
;
Structure prediction by ZEFSAII (Michael W. Deem and Ramdas Pophale) SiO2 
 PCOD9209222
Probable space group: C 2/M
;
_chemical_formula_sum "Si O2"
_cell_formula_units_Z 64
_cell_length_a 9.833601
_cell_length_b 27.424678
_cell_length_c 17.734308
_cell_angle_alpha 90.000000
_cell_angle_beta 139.886544
_cell_angle_gamma 90.000000
_cell_volume 3081.475308
_symmetry_space_group_name_H-M "C 2/M"
_symmetry_group_IT_number 12
_symmetry_cell_setting 'monoclinic'
loop_
_space_group_symop_operation_xyz
x,y,z
-x,y,-z
-x,-y,-z
x,-y,z
1/2+x,1/2+y,z
1/2-x,1/2+y,-z
1/2-x,1/2-y,-z
1/2+x,1/2-y,z
loop_
_atom_site_type_symbol
_atom_site_label
_atom_site_fract_x
_atom_site_fract_y
_atom_site_fract_z
Si Si1 0.137091 0.404090 0.982485
Si Si2 0.087489 0.887479 0.380413
Si Si3 0.539464 0.944624 0.388955
Si Si4 0.394635 0.206781 0.033792
Si Si5 0.037544 0.772165 0.377481
Si Si6 0.328630 0.096234 0.707108
Si Si7 0.054024 0.943365 0.213467
Si Si8 0.862615 0.706790 0.710412
O O1 0.202157 0.346978 0.015933
O O2 0.989453 0.409822 0.846014
O O3 0.354907 0.433759 0.074705
O O4 0.000000 0.415491 0.000000
O O5 0.315375 0.908477 0.500411
O O6 0.070949 0.829044 0.373158
O O7 0.025728 0.908992 0.273528
O O8 0.908981 0.906192 0.362780
O O9 0.619594 0.940458 0.337392
O O10 0.289715 0.933150 0.283092
O O11 0.566810 0.000000 0.429038
O O12 0.559293 0.201510 0.170951
O O13 0.500000 0.219728 0.000000
O O14 0.250000 0.250000 0.000000
O O15 0.250000 0.750000 0.500000
O O16 0.998149 0.740141 0.285402
O O17 0.862966 0.769221 0.368818
O O18 0.349985 0.150697 0.679343
O O19 0.049101 0.000000 0.234321
#
# Coordination Sequence:
#
# PCOD9209222 Si02
#       8
#     8   8   8   8   8   8   8   8
#     4  10  21  43  67  92 126 164 213 260 308 372
#     4  11  23  42  67  92 124 169 216 259 307 378
#     4  11  25  43  63  93 130 161 204 268 329 376
#     4  10  21  38  61  89 123 162 201 249 303 362
#     4  11  23  38  60  91 126 166 205 253 305 367
#     4  10  22  42  65  93 127 166 208 264 314 370
#     4  11  25  43  65  93 126 165 210 264 321 378
#     4  10  22  38  59  87 126 162 204 251 300 366
#
# _framework density 20.769272999999998
#
# number of rings (size 3 to 8) (size 9 to 14) (size 15 to 20)
#    0.000    1.500    1.250    3.000    3.500    8.750 
#    4.500    1.250    0.000    0.000    0.000    0.000 
#    0.000    0.000    0.000    0.000    0.000    0.000 
#
# Total GULP energy -178737.282186 kJ/mol
# GULP energy per Si atom -5585.540068 kJ/mol
# Density = 2.072200 g / cm^3
# Si number density = 20.769273 Si / 1000 Ang^3
#
#
#
# Elastic Constant Matrix: (Units=GPa)
#
#
# Indices 1 2 3 4 5 6 
#
# 1 55.0289 33.9560 7.7597 0.0000 -1.3208 0.0000
# 2 33.9560 53.0169 11.5297 0.0000 9.2921 0.0000
# 3 7.7597 11.5297 73.1393 0.0000 8.6020 0.0000
# 4 0.0000 0.0000 0.0000 34.3422 0.0000 2.7358
# 5 -1.3208 9.2921 8.6020 0.0000 35.6984 0.0000
# 6 0.0000 0.0000 0.0000 2.7358 0.0000 22.1391
#
#
#
# Elastic Compliance Matrix: (Units=1/GPa)
#
#
# Indices 1 2 3 4 5 6 
#
# 1 0.031563 -0.021247 -0.000810 0.000000 0.006894 0.000000
# 2 -0.021247 0.034553 -0.002102 0.000000 -0.009274 0.000000
# 3 -0.000810 -0.002102 0.014438 0.000000 -0.002962 0.000000
# 4 0.000000 0.000000 0.000000 0.029408 0.000000 -0.003634
# 5 0.006894 -0.009274 -0.002962 0.000000 0.031395 0.000000
# 6 0.000000 0.000000 0.000000 -0.003634 0.000000 0.045618
#
#
# Mechanical properties :
#
#
# Convention : Reuss Voigt Hill
#
# Bulk Modulus (GPa) = 31.02197 31.96398 31.49298
# Shear Modulus (GPa) = 20.32205 26.96524 23.64364
#
# Velocity S-wave (km/s) = 3.13144 3.60714 3.37767
# Velocity P-wave (km/s) = 5.29561 5.72468 5.51432
#
# Compressibility (1/GPa) = 0.03223522
#
# Stress axis : x y z
#
# Youngs Moduli (GPa) = 31.68297 28.94134 69.26075
#
# Poissons Ratio (x) = 0.61492 0.05610
# Poissons Ratio (y) = 0.67317 0.14559
# Poissons Ratio (z) = 0.02566 0.06083
#
# Static dielectric constant tensor:
#      x y z
#    x 1.757220 0.000000 0.021670 
#    y 0.000000 1.705850 0.000000 
#    z 0.021670 0.000000 1.884740 
# 
# From -- ./inp_files/260354.got.cif
#   From: 2010.05.17/outbox.cif.g08.bks.cpg/sg12_131_cif.got.tgz:260354.got - 2010.06.03 13:09:07.
