data_PCOD9209284
_publ_section_title
;
Structure prediction by ZEFSAII (Michael W. Deem and Ramdas Pophale) SiO2 
 PCOD9209284
Probable space group: C 2/M
;
_chemical_formula_sum "Si O2"
_cell_formula_units_Z 40
_cell_length_a 15.819253
_cell_length_b 8.865188
_cell_length_c 14.890405
_cell_angle_alpha 90.000000
_cell_angle_beta 105.906480
_cell_angle_gamma 90.000000
_cell_volume 2008.282057
_symmetry_space_group_name_H-M "C 2/M"
_symmetry_group_IT_number 12
_symmetry_cell_setting 'monoclinic'
loop_
_space_group_symop_operation_xyz
x,y,z
-x,y,-z
-x,-y,-z
x,-y,z
1/2+x,1/2+y,z
1/2-x,1/2+y,-z
1/2-x,1/2-y,-z
1/2+x,1/2-y,z
loop_
_atom_site_type_symbol
_atom_site_label
_atom_site_fract_x
_atom_site_fract_y
_atom_site_fract_z
Si Si1 0.028709 0.824374 0.111742
Si Si2 0.784905 0.320279 0.788361
Si Si3 0.390847 0.178885 0.208019
Si Si4 0.501230 0.323122 0.605107
Si Si5 0.202200 0.822602 0.400843
O O1 0.121244 0.742010 0.152574
O O2 0.954953 0.748226 0.151971
O O3 0.038361 0.000000 0.141405
O O4 0.000000 0.817462 0.000000
O O5 0.783047 0.500000 0.791042
O O6 0.705468 0.251445 0.822642
O O7 0.772980 0.263113 0.682719
O O8 0.434331 0.224722 0.315890
O O9 0.385818 0.000000 0.197730
O O10 0.500000 0.280992 0.500000
O O11 0.527864 0.500000 0.618719
O O12 0.402644 0.309791 0.614587
O O13 0.250000 0.750000 0.500000
O O14 0.223828 0.000000 0.399756
#
# Coordination Sequence:
#
# PCOD9209284 Si02
#       5
#     8   8   8   8   8
#     4  11  25  47  73 100 133 173 221 279 340 401
#     4  12  25  43  68  97 135 177 223 276 332 396
#     4  12  25  42  68  99 134 175 222 275 333 400
#     4  10  21  38  61  91 131 176 220 270 328 390
#     4  11  22  37  61  93 135 177 223 274 327 393
#
# _framework density 19.917522000000002
#
# number of rings (size 3 to 8) (size 9 to 14) (size 15 to 20)
#    0.000    0.800    2.000    6.000    0.000    5.200 
#    0.000    0.000    0.000    0.000    0.000    0.000 
#    0.000    0.000    0.000    0.000    0.000    0.000 
#
# Total GULP energy -111996.925482 kJ/mol
# GULP energy per Si atom -5599.846274 kJ/mol
# Density = 1.987219 g / cm^3
# Si number density = 19.917522 Si / 1000 Ang^3
#
#
#
# Elastic Constant Matrix: (Units=GPa)
#
#
# Indices 1 2 3 4 5 6 
#
# 1 167.9043 94.6784 49.1473 0.0000 -3.4626 0.0000
# 2 94.6784 193.7888 53.0378 0.0000 -2.4093 0.0000
# 3 49.1473 53.0378 72.5530 0.0000 -1.8698 0.0000
# 4 0.0000 0.0000 0.0000 -4.4069 0.0000 3.4904
# 5 -3.4626 -2.4093 -1.8698 0.0000 20.7699 0.0000
# 6 0.0000 0.0000 0.0000 3.4904 0.0000 35.0913
#
#
#
# Elastic Compliance Matrix: (Units=1/GPa)
#
#
# Indices 1 2 3 4 5 6 
#
# 1 0.008914 -0.003373 -0.003552 0.000000 0.000775 0.000000
# 2 -0.003373 0.007729 -0.003365 0.000000 0.000031 0.000000
# 3 -0.003552 -0.003365 0.018667 0.000000 0.000698 0.000000
# 4 0.000000 0.000000 0.000000 -0.210347 0.000000 0.020923
# 5 0.000775 0.000031 0.000698 0.000000 0.048342 0.000000
# 6 0.000000 0.000000 0.000000 0.020923 0.000000 0.026416
#
#
# Mechanical properties :
#
#
# Convention : Reuss Voigt Hill
#
# Bulk Modulus (GPa) = 67.88887 91.99703 79.94295
# Shear Modulus (GPa) = -66.85542 26.11637 -20.36952
#
# Velocity S-wave (km/s) = -5.79991 3.62501 -3.20143
# Velocity P-wave (km/s) = 3.27002 7.98813 5.15350
#
# Compressibility (1/GPa) = 0.01472996
#
# Stress axis : x y z
#
# Youngs Moduli (GPa) = 112.18923 129.37521 53.57035
#
# Poissons Ratio (x) = 0.43638 0.19030
# Poissons Ratio (y) = 0.37841 0.18025
# Poissons Ratio (z) = 0.39853 0.43532
#
# Static dielectric constant tensor:
#      x y z
#    x 1.692470 0.000000 -0.003450 
#    y 0.000000 1.666050 0.000000 
#    z -0.003450 0.000000 1.681400 
# 
# From -- ./inp_files/211250.got.cif
#   From: 2010.05.17/outbox.cif.g08.bks.cpg/sg12_106_cif.got.tgz:211250.got - 2010.06.03 13:09:07.
