data_PCOD9209543
_publ_section_title
;
Structure prediction by ZEFSAII (Michael W. Deem and Ramdas Pophale) SiO2 
 PCOD9209543
Probable space group: C 2/M
;
_chemical_formula_sum "Si O2"
_cell_formula_units_Z 40
_cell_length_a 24.252201
_cell_length_b 15.745335
_cell_length_c 8.476643
_cell_angle_alpha 90.000000
_cell_angle_beta 147.197368
_cell_angle_gamma 90.000000
_cell_volume 1753.570901
_symmetry_space_group_name_H-M "C 2/M"
_symmetry_group_IT_number 12
_symmetry_cell_setting 'monoclinic'
loop_
_space_group_symop_operation_xyz
x,y,z
-x,y,-z
-x,-y,-z
x,-y,z
1/2+x,1/2+y,z
1/2-x,1/2+y,-z
1/2-x,1/2-y,-z
1/2+x,1/2-y,z
loop_
_atom_site_type_symbol
_atom_site_label
_atom_site_fract_x
_atom_site_fract_y
_atom_site_fract_z
Si Si1 0.505156 0.305776 0.201126
Si Si2 0.110046 0.405339 0.227244
Si Si3 0.792798 0.102924 0.188120
Si Si4 0.418989 0.143328 0.184018
Si Si5 0.689790 0.400272 0.144835
O O1 0.611608 0.350503 0.501379
O O2 0.477890 0.224396 0.248143
O O3 0.500000 0.295837 0.000000
O O4 0.411417 0.365508 0.022705
O O5 0.107645 0.500000 0.292502
O O6 0.207815 0.359891 0.534390
O O7 0.114508 0.408062 0.050838
O O8 0.000000 0.369556 0.000000
O O9 0.787447 0.000000 0.210460
O O10 0.687968 0.150697 0.982050
O O11 0.808195 0.110345 0.037413
O O12 0.500000 0.104047 0.500000
O O13 0.692030 0.500000 0.186886
#
# Coordination Sequence:
#
# PCOD9209543 Si02
#       5
#     8   8   8   8   8
#     4  12  27  44  67  98 136 179 225 276 335 397
#     4  10  21  38  62  94 132 174 221 273 330 395
#     4  11  25  46  72 101 134 176 225 275 332 400
#     4  12  26  42  66  98 136 176 223 277 335 394
#     4  10  22  43  70  98 132 175 224 277 333 398
#
# _framework density 22.810599
#
# number of rings (size 3 to 8) (size 9 to 14) (size 15 to 20)
#    0.000    1.000    0.000    6.000    0.000   16.000 
#    0.000    0.000    0.000    0.000    0.000    0.000 
#    0.000    0.000    0.000    0.000    0.000    0.000 
#
# Total GULP energy -111678.923497 kJ/mol
# GULP energy per Si atom -5583.946175 kJ/mol
# Density = 2.275868 g / cm^3
# Si number density = 22.810599 Si / 1000 Ang^3
#
#
#
# Elastic Constant Matrix: (Units=GPa)
#
#
# Indices 1 2 3 4 5 6 
#
# 1 123.1668 32.5252 47.6074 0.0000 22.7943 0.0000
# 2 32.5252 72.6964 40.2464 0.0000 -0.2009 0.0000
# 3 47.6074 40.2464 201.9739 0.0000 17.8383 0.0000
# 4 0.0000 0.0000 0.0000 93.1571 0.0000 7.9570
# 5 22.7943 -0.2009 17.8383 0.0000 45.7608 0.0000
# 6 0.0000 0.0000 0.0000 7.9570 0.0000 38.3701
#
#
#
# Elastic Compliance Matrix: (Units=1/GPa)
#
#
# Indices 1 2 3 4 5 6 
#
# 1 0.010559 -0.004039 -0.001261 0.000000 -0.004786 0.000000
# 2 -0.004039 0.017083 -0.002730 0.000000 0.003151 0.000000
# 3 -0.001261 -0.002730 0.005943 0.000000 -0.001700 0.000000
# 4 0.000000 0.000000 0.000000 0.010928 0.000000 -0.002266
# 5 -0.004786 0.003151 -0.001700 0.000000 0.024913 0.000000
# 6 0.000000 0.000000 0.000000 -0.002266 0.000000 0.026532
#
#
# Mechanical properties :
#
#
# Convention : Reuss Voigt Hill
#
# Bulk Modulus (GPa) = 57.06700 70.95502 64.01101
# Shear Modulus (GPa) = 42.42295 53.95482 48.18888
#
# Velocity S-wave (km/s) = 4.31721 4.86875 4.60125
# Velocity P-wave (km/s) = 7.06563 7.92338 7.50677
#
# Compressibility (1/GPa) = 0.01752326
#
# Stress axis : x y z
#
# Youngs Moduli (GPa) = 94.70678 58.53678 168.27434
#
# Poissons Ratio (x) = 0.23644 0.21225
# Poissons Ratio (y) = 0.38253 0.45945
# Poissons Ratio (z) = 0.11946 0.15983
#
# Static dielectric constant tensor:
#      x y z
#    x 1.862310 0.000000 -0.023880 
#    y 0.000000 1.933090 0.000000 
#    z -0.023880 0.000000 1.861310 
# 
# From -- ./inp_files/98318.got.cif
#   From: 2010.05.17/outbox.cif.g08.bks.cpg/sg12_50_cif.got.tgz:98318.got - 2010.06.03 13:09:07.
