data_PCOD9209519
_publ_section_title
;
Structure prediction by ZEFSAII (Michael W. Deem and Ramdas Pophale) SiO2 
 PCOD9209519
Probable space group: C 2/M
;
_chemical_formula_sum "Si O2"
_cell_formula_units_Z 52
_cell_length_a 22.584136
_cell_length_b 9.342285
_cell_length_c 29.428539
_cell_angle_alpha 90.000000
_cell_angle_beta 155.686656
_cell_angle_gamma 90.000000
_cell_volume 2556.431916
_symmetry_space_group_name_H-M "C 2/M"
_symmetry_group_IT_number 12
_symmetry_cell_setting 'monoclinic'
loop_
_space_group_symop_operation_xyz
x,y,z
-x,y,-z
-x,-y,-z
x,-y,z
1/2+x,1/2+y,z
1/2-x,1/2+y,-z
1/2-x,1/2-y,-z
1/2+x,1/2-y,z
loop_
_atom_site_type_symbol
_atom_site_label
_atom_site_fract_x
_atom_site_fract_y
_atom_site_fract_z
Si Si1 0.920826 0.671588 0.397520
Si Si2 0.567769 0.838858 0.998032
Si Si3 0.900409 0.842531 0.213581
Si Si4 0.104878 0.671485 0.879423
Si Si5 0.401386 0.269418 0.563752
Si Si6 0.206592 0.500000 0.455089
Si Si7 0.910238 0.830038 0.812871
O O1 0.932120 0.500000 0.397829
O O2 0.752813 0.704680 0.287021
O O3 0.000000 0.705204 0.500000
O O4 0.997622 0.747799 0.409046
O O5 0.509472 0.717608 0.924247
O O6 0.531103 0.000000 0.954928
O O7 0.500000 0.823987 0.000000
O O8 0.739204 0.831411 0.119763
O O9 0.916473 0.718955 0.187676
O O10 0.007585 0.835650 0.330668
O O11 0.916334 0.000000 0.202417
O O12 0.117436 0.500000 0.892934
O O13 0.972607 0.737550 0.815098
O O14 0.250000 0.750000 0.000000
O O15 0.268635 0.374834 0.464108
O O16 0.344280 0.122373 0.543908
O O17 0.920515 0.000000 0.810708
#
# Coordination Sequence:
#
# PCOD9209519 Si02
#       7
#     8   8   8   8   8   4   8
#     4  10  23  45  70  96 133 180 227 278 337 403
#     4  10  21  38  62  93 129 172 220 267 336 402
#     4  11  23  40  67  96 133 181 215 275 338 401
#     4  12  25  43  66  98 141 175 226 277 330 405
#     4  11  22  46  68 102 135 173 230 283 338 408
#     4  10  24  40  72  96 136 178 224 288 344 388
#     4  11  23  41  66  96 131 179 222 273 340 402
#
# _framework density 20.340852000000002
#
# number of rings (size 3 to 8) (size 9 to 14) (size 15 to 20)
#    0.000    1.231    3.077    2.769    1.077    2.769 
#    5.538    0.385    0.000    0.000    0.000    0.000 
#    0.000    0.000    0.000    0.000    0.000    0.000 
#
# Total GULP energy -144759.643290 kJ/mol
# GULP energy per Si atom -5567.678588 kJ/mol
# Density = 2.029455 g / cm^3
# Si number density = 20.340852 Si / 1000 Ang^3
#
#
#
# Elastic Constant Matrix: (Units=GPa)
#
#
# Indices 1 2 3 4 5 6 
#
# 1 136.4762 49.9874 14.3201 -0.0001 25.7286 0.0001
# 2 49.9874 139.2834 14.3944 -0.0003 23.1726 0.0000
# 3 14.3201 14.3944 42.5265 -0.0024 9.4337 0.0000
# 4 -0.0001 -0.0003 -0.0024 -4.8760 -0.0002 11.6847
# 5 25.7286 23.1726 9.4337 -0.0002 31.0934 0.0001
# 6 0.0001 0.0000 0.0000 11.6847 0.0001 27.7446
#
#
#
# Elastic Compliance Matrix: (Units=1/GPa)
#
#
# Indices 1 2 3 4 5 6 
#
# 1 0.009359 -0.002296 -0.001111 0.000000 -0.005696 0.000000
# 2 -0.002296 0.008852 -0.001266 0.000000 -0.004313 0.000000
# 3 -0.001111 -0.001266 0.025629 -0.000006 -0.005913 0.000003
# 4 0.000000 0.000000 -0.000006 -0.102072 0.000000 0.042987
# 5 -0.005696 -0.004313 -0.005913 0.000000 0.041882 0.000000
# 6 0.000000 0.000000 0.000003 0.042987 0.000000 0.017939
#
#
# Mechanical properties :
#
#
# Convention : Reuss Voigt Hill
#
# Bulk Modulus (GPa) = 28.99121 52.85443 40.92282
# Shear Modulus (GPa) = 222.87987 26.76467 124.82227
#
# Velocity S-wave (km/s) = 10.47905 3.63134 7.84210
# Velocity P-wave (km/s) = 12.67665 6.60477 10.10744
#
# Compressibility (1/GPa) = 0.03449321
#
# Stress axis : x y z
#
# Youngs Moduli (GPa) = 106.85311 112.96708 39.01818
#
# Poissons Ratio (x) = 0.25941 0.04334
# Poissons Ratio (y) = 0.24537 0.04941
# Poissons Ratio (z) = 0.11868 0.14305
#
# Static dielectric constant tensor:
#      x y z
#    x 1.712040 0.000000 0.004550 
#    y 0.000000 1.726690 0.000000 
#    z 0.004550 0.000000 1.776250 
# 
# From -- ./inp_files/380438.got.cif
#   From: 2010.05.17/outbox.cif.g08.bks.cpg/sg12_191_cif.got.tgz:380438.got - 2010.06.03 13:09:07.
