data_PCOD9209252
_publ_section_title
;
Structure prediction by ZEFSAII (Michael W. Deem and Ramdas Pophale) SiO2 
 PCOD9209252
Probable space group: C 2/M
;
_chemical_formula_sum "Si O2"
_cell_formula_units_Z 44
_cell_length_a 27.364133
_cell_length_b 7.934737
_cell_length_c 28.684641
_cell_angle_alpha 90.000000
_cell_angle_beta 20.098619
_cell_angle_gamma 90.000000
_cell_volume 2140.245744
_symmetry_space_group_name_H-M "C 2/M"
_symmetry_group_IT_number 12
_symmetry_cell_setting 'monoclinic'
loop_
_space_group_symop_operation_xyz
x,y,z
-x,y,-z
-x,-y,-z
x,-y,z
1/2+x,1/2+y,z
1/2-x,1/2+y,-z
1/2-x,1/2-y,-z
1/2+x,1/2-y,z
loop_
_atom_site_type_symbol
_atom_site_label
_atom_site_fract_x
_atom_site_fract_y
_atom_site_fract_z
Si Si1 0.387410 0.796871 0.907624
Si Si2 0.412970 0.797579 0.351078
Si Si3 0.166382 0.692715 0.941632
Si Si4 0.000000 0.761473 0.000000
Si Si5 0.070087 0.500000 0.507606
Si Si6 0.243264 0.500000 0.260007
Si Si7 0.478012 0.695953 0.648506
O O1 0.520563 0.740495 0.757432
O O2 0.396221 0.000000 0.901893
O O3 0.250000 0.750000 0.000000
O O4 0.379706 0.730290 0.967529
O O5 0.250000 0.750000 0.500000
O O6 0.489529 0.709837 0.325861
O O7 0.431333 0.000000 0.339191
O O8 0.204444 0.500000 0.918386
O O9 0.315957 0.762201 0.789389
O O10 0.052375 0.688422 0.002490
O O11 0.852575 0.851339 0.148184
O O12 0.911994 0.500000 0.625390
O O13 0.074203 0.329468 0.534593
O O14 0.194313 0.500000 0.357799
O O15 0.493325 0.500000 0.619313
#
# Coordination Sequence:
#
# PCOD9209252 Si02
#       7
#     8   8   8   4   4   4   8
#     4  10  21  38  61  90 125 164 213 268 320 387
#     4  11  23  39  61  92 131 171 215 269 327 386
#     4  10  21  38  64  96 130 168 219 276 328 391
#     4  11  21  42  64  96 127 173 220 275 333 386
#     4  11  22  46  66  96 134 176 212 275 326 389
#     4  10  24  40  66  92 132 168 224 272 325 392
#     4  11  22  40  69  95 127 174 218 263 334 398
#
# _framework density 20.558385000000001
#
# number of rings (size 3 to 8) (size 9 to 14) (size 15 to 20)
#    0.000    1.455    4.545    0.818    0.000    2.182 
#    3.273    5.455    0.000    0.000    0.000    0.000 
#    0.000    0.000    0.000    0.000    0.000    0.000 
#
# Total GULP energy -122520.554059 kJ/mol
# GULP energy per Si atom -5569.116094 kJ/mol
# Density = 2.051159 g / cm^3
# Si number density = 20.558385 Si / 1000 Ang^3
#
#
#
# Elastic Constant Matrix: (Units=GPa)
#
#
# Indices 1 2 3 4 5 6 
#
# 1 118.8235 19.4769 41.3526 -0.0255 18.4235 0.0187
# 2 19.4769 61.7638 32.2163 -0.0383 22.4635 0.0342
# 3 41.3526 32.2163 136.0577 0.0037 28.2498 0.0038
# 4 -0.0255 -0.0383 0.0037 20.6705 0.0136 -1.2843
# 5 18.4235 22.4635 28.2498 0.0136 49.2097 -0.0129
# 6 0.0187 0.0342 0.0038 -1.2843 -0.0129 22.3842
#
#
#
# Elastic Compliance Matrix: (Units=1/GPa)
#
#
# Indices 1 2 3 4 5 6 
#
# 1 0.009685 -0.001222 -0.002290 0.000011 -0.001753 -0.000006
# 2 -0.001222 0.020818 -0.003042 0.000040 -0.007299 -0.000032
# 3 -0.002290 -0.003042 0.009423 -0.000008 -0.003163 0.000003
# 4 0.000011 0.000040 -0.000008 0.048551 -0.000031 0.002786
# 5 -0.001753 -0.007299 -0.003163 -0.000031 0.026126 0.000026
# 6 -0.000006 -0.000032 0.000003 0.002786 0.000026 0.044834
#
#
# Mechanical properties :
#
#
# Convention : Reuss Voigt Hill
#
# Bulk Modulus (GPa) = 37.28998 55.85961 46.57480
# Shear Modulus (GPa) = 27.55051 33.35948 30.45500
#
# Velocity S-wave (km/s) = 3.66472 4.03261 3.85306
# Velocity P-wave (km/s) = 6.00707 6.99377 6.51911
#
# Compressibility (1/GPa) = 0.02681685
#
# Stress axis : x y z
#
# Youngs Moduli (GPa) = 103.25215 48.03614 106.12228
#
# Poissons Ratio (x) = 0.05869 0.24304
# Poissons Ratio (y) = 0.12615 0.32287
# Poissons Ratio (z) = 0.23647 0.14615
#
# Static dielectric constant tensor:
#      x y z
#    x 1.798060 -0.000040 -0.006380 
#    y -0.000040 1.823300 0.000030 
#    z -0.006380 0.000030 1.745780 
# 
# From -- ./inp_files/369048.got.cif
#   From: 2010.05.17/outbox.cif.g08.bks.cpg/sg12_185_cif.got.tgz:369048.got - 2010.06.03 13:09:07.
