data_PCOD9209824
_publ_section_title
;
Structure prediction by ZEFSAII (Michael W. Deem and Ramdas Pophale) SiO2 
 PCOD9209824
Probable space group: C 2/M
;
_chemical_formula_sum "Si O2"
_cell_formula_units_Z 26
_cell_length_a 14.130181
_cell_length_b 10.017110
_cell_length_c 9.734619
_cell_angle_alpha 90.000000
_cell_angle_beta 53.144145
_cell_angle_gamma 90.000000
_cell_volume 1102.500827
_symmetry_space_group_name_H-M "C 2/M"
_symmetry_group_IT_number 12
_symmetry_cell_setting 'monoclinic'
loop_
_space_group_symop_operation_xyz
x,y,z
-x,y,-z
-x,-y,-z
x,-y,z
1/2+x,1/2+y,z
1/2-x,1/2+y,-z
1/2-x,1/2-y,-z
1/2+x,1/2-y,z
loop_
_atom_site_type_symbol
_atom_site_label
_atom_site_fract_x
_atom_site_fract_y
_atom_site_fract_z
Si Si1 0.178595 0.853871 0.230059
Si Si2 0.000000 0.500000 0.500000
Si Si3 0.137129 0.845301 0.841226
Si Si4 0.574466 0.734511 0.601786
O O1 0.276568 0.739494 0.137369
O O2 0.134165 0.848703 0.427232
O O3 0.057250 0.823840 0.257151
O O4 0.225162 0.000000 0.153521
O O5 0.946740 0.381207 0.443458
O O6 0.143176 0.783418 0.683378
O O7 0.174551 0.000000 0.808146
O O8 0.000000 0.837634 0.000000
#
# Coordination Sequence:
#
# PCOD9209824 Si02
#       4
#     8   2   8   8
#     4  10  21  38  65  91 118 161 215 260 308 355
#     4   8  20  36  64  96 110 154 206 256 310 342
#     4  11  25  41  60  91 132 171 202 247 313 374
#     4  10  21  40  65  90 127 156 207 265 309 364
#
# _framework density 23.582749
#
# number of rings (size 3 to 8) (size 9 to 14) (size 15 to 20)
#    0.000    2.154    0.000    4.615   10.769    1.846 
#    0.000    0.000    0.000    0.000    0.000    0.000 
#    0.000    0.000    0.000    0.000    0.000    0.000 
#
# Total GULP energy -72472.291617 kJ/mol
# GULP energy per Si atom -5574.791663 kJ/mol
# Density = 2.352907 g / cm^3
# Si number density = 23.582749 Si / 1000 Ang^3
#
#
#
# Elastic Constant Matrix: (Units=GPa)
#
#
# Indices 1 2 3 4 5 6 
#
# 1 119.5866 45.0301 5.3490 0.0000 -3.3221 0.0000
# 2 45.0301 213.1746 6.7421 0.0000 -15.3866 0.0000
# 3 5.3490 6.7421 62.9929 0.0000 -2.9541 0.0000
# 4 0.0000 0.0000 0.0000 17.1698 0.0000 -6.8668
# 5 -3.3221 -15.3866 -2.9541 0.0000 39.9100 0.0000
# 6 0.0000 0.0000 0.0000 -6.8668 0.0000 23.3806
#
#
#
# Elastic Compliance Matrix: (Units=1/GPa)
#
#
# Indices 1 2 3 4 5 6 
#
# 1 0.009105 -0.001907 -0.000570 0.000000 -0.000019 0.000000
# 2 -0.001907 0.005236 -0.000312 0.000000 0.001837 0.000000
# 3 -0.000570 -0.000312 0.016004 0.000000 0.001017 0.000000
# 4 0.000000 0.000000 0.000000 0.065993 0.000000 0.019382
# 5 -0.000019 0.001837 0.001017 0.000000 0.025838 0.000000
# 6 0.000000 0.000000 0.000000 0.019382 0.000000 0.048463
#
#
# Mechanical properties :
#
#
# Convention : Reuss Voigt Hill
#
# Bulk Modulus (GPa) = 40.37553 56.66630 48.52091
# Shear Modulus (GPa) = 27.10412 38.66763 32.88587
#
# Velocity S-wave (km/s) = 3.39384 4.05366 3.73834
# Velocity P-wave (km/s) = 5.70224 6.78162 6.26522
#
# Compressibility (1/GPa) = 0.02476748
#
# Stress axis : x y z
#
# Youngs Moduli (GPa) = 109.82911 190.97765 62.48314
#
# Poissons Ratio (x) = 0.36413 0.03561
# Poissons Ratio (y) = 0.20941 0.01952
# Poissons Ratio (z) = 0.06260 0.05966
#
# Static dielectric constant tensor:
#      x y z
#    x 1.865930 0.000000 -0.036720 
#    y 0.000000 1.812560 0.000000 
#    z -0.036720 0.000000 1.946720 
# 
# From -- ./inp_files/138240.got.cif
#   From: 2010.05.17/outbox.cif.g08.bks.cpg/sg12_70_cif.got.tgz:138240.got - 2010.06.03 13:09:07.
