data_PCOD9209432
_publ_section_title
;
Structure prediction by ZEFSAII (Michael W. Deem and Ramdas Pophale) SiO2 
 PCOD9209432
Probable space group: C 2/M
;
_chemical_formula_sum "Si O2"
_cell_formula_units_Z 48
_cell_length_a 9.906327
_cell_length_b 19.770616
_cell_length_c 21.752650
_cell_angle_alpha 90.000000
_cell_angle_beta 36.858288
_cell_angle_gamma 90.000000
_cell_volume 2555.517890
_symmetry_space_group_name_H-M "C 2/M"
_symmetry_group_IT_number 12
_symmetry_cell_setting 'monoclinic'
loop_
_space_group_symop_operation_xyz
x,y,z
-x,y,-z
-x,-y,-z
x,-y,z
1/2+x,1/2+y,z
1/2-x,1/2+y,-z
1/2-x,1/2-y,-z
1/2+x,1/2-y,z
loop_
_atom_site_type_symbol
_atom_site_label
_atom_site_fract_x
_atom_site_fract_y
_atom_site_fract_z
Si Si1 0.245876 0.782671 0.568110
Si Si2 0.852807 0.578101 0.992704
Si Si3 0.650126 0.209057 0.224178
Si Si4 0.582923 0.790913 0.105568
Si Si5 0.266869 0.574464 0.389514
Si Si6 0.830270 0.922097 0.220479
O O1 0.500000 0.785071 0.500000
O O2 0.250000 0.750000 0.500000
O O3 0.152904 0.859684 0.603166
O O4 0.089666 0.737926 0.668549
O O5 0.888133 0.500000 0.961233
O O6 0.590872 0.586504 0.106206
O O7 0.918917 0.632250 0.917578
O O8 0.000000 0.590764 0.000000
O O9 0.667784 0.212317 0.144341
O O10 0.689185 0.133747 0.235693
O O11 0.841507 0.255684 0.185437
O O12 0.750000 0.750000 0.000000
O O13 0.364488 0.500000 0.368438
O O14 0.305398 0.587684 0.302950
O O15 0.000000 0.570081 0.500000
O O16 0.765518 0.000000 0.230971
#
# Coordination Sequence:
#
# PCOD9209432 Si02
#       6
#     8   8   8   8   8   8
#     4  11  23  41  63  91 124 155 199 256 310 363
#     4  10  22  39  59  87 125 162 201 254 306 360
#     4  12  24  40  62  90 121 164 205 254 307 367
#     4  12  24  38  59  88 123 161 207 248 297 363
#     4   9  18  35  60  88 114 151 200 248 296 358
#     4  10  21  38  62  90 121 161 208 252 302 368
#
# _framework density 18.782883999999999
#
# number of rings (size 3 to 8) (size 9 to 14) (size 15 to 20)
#    0.000    1.333    1.667    5.500    2.333    0.667 
#    0.000    1.667    0.000    4.000    0.000    0.000 
#    0.000    0.000    0.000    0.000    0.000    0.000 
#
# Total GULP energy -134081.692272 kJ/mol
# GULP energy per Si atom -5586.737178 kJ/mol
# Density = 1.874013 g / cm^3
# Si number density = 18.782884 Si / 1000 Ang^3
#
#
#
# Elastic Constant Matrix: (Units=GPa)
#
#
# Indices 1 2 3 4 5 6 
#
# 1 64.8500 61.0899 10.5159 0.0059 13.3721 0.0096
# 2 61.0899 154.2456 42.1489 -0.0031 17.5558 0.0036
# 3 10.5159 42.1489 58.9290 0.0354 6.6204 -0.0135
# 4 0.0059 -0.0031 0.0354 19.8594 -0.0144 8.6686
# 5 13.3721 17.5558 6.6204 -0.0144 35.0959 -0.0062
# 6 0.0096 0.0036 -0.0135 8.6686 -0.0062 35.5111
#
#
#
# Elastic Compliance Matrix: (Units=1/GPa)
#
#
# Indices 1 2 3 4 5 6 
#
# 1 0.025968 -0.010669 0.003585 -0.000019 -0.005234 -0.000001
# 2 -0.010669 0.012764 -0.007116 0.000020 -0.000978 -0.000006
# 3 0.003585 -0.007116 0.021632 -0.000051 -0.001887 0.000020
# 4 -0.000019 0.000020 -0.000051 0.056359 0.000028 -0.013758
# 5 -0.005234 -0.000978 -0.001887 0.000028 0.031332 -0.000001
# 6 -0.000001 -0.000006 0.000020 -0.013758 -0.000001 0.031519
#
#
# Mechanical properties :
#
#
# Convention : Reuss Voigt Hill
#
# Bulk Modulus (GPa) = 31.28497 56.17043 43.72770
# Shear Modulus (GPa) = 22.86974 29.04462 25.95718
#
# Velocity S-wave (km/s) = 3.49317 3.93661 3.72150
# Velocity P-wave (km/s) = 5.74125 7.11566 6.46508
#
# Compressibility (1/GPa) = 0.03196423
#
# Stress axis : x y z
#
# Youngs Moduli (GPa) = 38.50851 78.34288 46.22862
#
# Poissons Ratio (x) = 0.83582 -0.16572
# Poissons Ratio (y) = 0.41084 0.32896
# Poissons Ratio (z) = -0.13804 0.55749
#
# Static dielectric constant tensor:
#      x y z
#    x 1.617420 0.000010 -0.009390 
#    y 0.000010 1.690130 0.000010 
#    z -0.009390 0.000010 1.643670 
# 
# From -- ./inp_files/258277.got.cif
#   From: 2010.05.17/outbox.cif.g08.bks.cpg/sg12_130_cif.got.tgz:258277.got - 2010.06.03 13:09:07.
