data_PCOD9209777
_publ_section_title
;
Structure prediction by ZEFSAII (Michael W. Deem and Ramdas Pophale) SiO2 
 PCOD9209777
Probable space group: C 2/M
;
_chemical_formula_sum "Si O2"
_cell_formula_units_Z 50
_cell_length_a 20.553726
_cell_length_b 7.702608
_cell_length_c 13.695655
_cell_angle_alpha 90.000000
_cell_angle_beta 84.634442
_cell_angle_gamma 90.000000
_cell_volume 2158.758504
_symmetry_space_group_name_H-M "C 2/M"
_symmetry_group_IT_number 12
_symmetry_cell_setting 'monoclinic'
loop_
_space_group_symop_operation_xyz
x,y,z
-x,y,-z
-x,-y,-z
x,-y,z
1/2+x,1/2+y,z
1/2-x,1/2+y,-z
1/2-x,1/2-y,-z
1/2+x,1/2-y,z
loop_
_atom_site_type_symbol
_atom_site_label
_atom_site_fract_x
_atom_site_fract_y
_atom_site_fract_z
Si Si1 0.567530 0.286341 0.695357
Si Si2 0.709981 0.709434 0.605200
Si Si3 0.061558 0.309487 0.401385
Si Si4 0.688681 0.204624 0.252644
Si Si5 0.056769 0.201656 0.922191
Si Si6 0.000000 0.000000 0.500000
Si Si7 0.676249 0.207435 0.038488
O O1 0.560476 0.500000 0.686541
O O2 0.635332 0.232903 0.633967
O O3 0.502044 0.208223 0.658346
O O4 0.567030 0.234801 0.810041
O O5 0.708672 0.500000 0.610500
O O6 0.750000 0.750000 0.500000
O O7 0.751748 0.776428 0.692303
O O8 0.064839 0.500000 0.446092
O O9 0.125396 0.285716 0.328444
O O10 0.054576 0.151888 0.475409
O O11 0.670495 0.276625 0.149718
O O12 0.703926 0.000000 0.233575
O O13 0.038679 0.000000 0.910740
O O14 0.124013 0.214015 0.972017
O O15 0.000000 0.280078 0.000000
O O16 0.665451 0.000000 0.037840
O O17 0.750000 0.250000 0.000000
#
# Coordination Sequence:
#
# PCOD9209777 Si02
#       7
#     8   8   8   8   8   2   8
#     4  10  21  40  62  91 130 168 206 261 322 382
#     4  10  22  39  60  82 118 163 207 255 316 375
#     4  11  24  42  69  95 128 170 217 270 325 386
#     4   9  21  42  63  89 124 167 214 266 321 383
#     4  10  21  38  64  95 127 164 207 259 325 391
#     4  12  26  44  64  98 130 168 222 266 330 382
#     4  11  22  39  63  92 127 167 215 268 324 387
#
# _framework density 23.161460999999999
#
# number of rings (size 3 to 8) (size 9 to 14) (size 15 to 20)
#    0.000    1.760    0.800    2.640    2.240    4.160 
#    2.880    1.600    0.000    0.000    0.000    0.000 
#    0.000    0.000    0.000    0.000    0.000    0.000 
#
# Total GULP energy -139489.692462 kJ/mol
# GULP energy per Si atom -5579.587698 kJ/mol
# Density = 2.310874 g / cm^3
# Si number density = 23.161461 Si / 1000 Ang^3
#
#
#
# Elastic Constant Matrix: (Units=GPa)
#
#
# Indices 1 2 3 4 5 6 
#
# 1 133.6344 4.9998 25.1464 0.0000 8.4493 0.0000
# 2 4.9998 91.4996 19.8514 0.0000 -5.7749 0.0000
# 3 25.1464 19.8514 91.6174 0.0000 9.4589 0.0000
# 4 0.0000 0.0000 0.0000 21.0396 0.0000 2.4026
# 5 8.4493 -5.7749 9.4589 0.0000 43.5670 0.0000
# 6 0.0000 0.0000 0.0000 2.4026 0.0000 20.4666
#
#
#
# Elastic Compliance Matrix: (Units=1/GPa)
#
#
# Indices 1 2 3 4 5 6 
#
# 1 0.007941 -0.000058 -0.002053 0.000000 -0.001102 0.000000
# 2 -0.000058 0.011661 -0.002733 0.000000 0.002150 0.000000
# 3 -0.002053 -0.002733 0.012344 0.000000 -0.002644 0.000000
# 4 0.000000 0.000000 0.000000 0.048175 0.000000 -0.005655
# 5 -0.001102 0.002150 -0.002644 0.000000 0.024026 0.000000
# 6 0.000000 0.000000 0.000000 -0.005655 0.000000 0.049524
#
#
# Mechanical properties :
#
#
# Convention : Reuss Voigt Hill
#
# Bulk Modulus (GPa) = 44.92835 46.30517 45.61676
# Shear Modulus (GPa) = 29.27780 34.79826 32.03803
#
# Velocity S-wave (km/s) = 3.55924 3.88031 3.72324
# Velocity P-wave (km/s) = 6.02751 6.33336 6.18233
#
# Compressibility (1/GPa) = 0.02225766
#
# Stress axis : x y z
#
# Youngs Moduli (GPa) = 125.92343 85.75775 81.01353
#
# Poissons Ratio (x) = 0.00497 0.16635
# Poissons Ratio (y) = 0.00730 0.22138
# Poissons Ratio (z) = 0.25856 0.23435
#
# Static dielectric constant tensor:
#      x y z
#    x 1.825050 0.000000 0.056520 
#    y 0.000000 1.882140 0.000000 
#    z 0.056520 0.000000 1.943270 
# 
# From -- ./inp_files/230061.got.cif
#   From: 2010.05.17/outbox.cif.g08.bks.cpg/sg12_116_cif.got.tgz:230061.got - 2010.06.03 13:09:07.
