data_PCOD9209769
_publ_section_title
;
Structure prediction by ZEFSAII (Michael W. Deem and Ramdas Pophale) SiO2 
 PCOD9209769
Probable space group: C 2/M
;
_chemical_formula_sum "Si O2"
_cell_formula_units_Z 50
_cell_length_a 14.572872
_cell_length_b 17.939958
_cell_length_c 10.155311
_cell_angle_alpha 90.000000
_cell_angle_beta 121.419810
_cell_angle_gamma 90.000000
_cell_volume 2265.674311
_symmetry_space_group_name_H-M "C 2/M"
_symmetry_group_IT_number 12
_symmetry_cell_setting 'monoclinic'
loop_
_space_group_symop_operation_xyz
x,y,z
-x,y,-z
-x,-y,-z
x,-y,z
1/2+x,1/2+y,z
1/2-x,1/2+y,-z
1/2-x,1/2-y,-z
1/2+x,1/2-y,z
loop_
_atom_site_type_symbol
_atom_site_label
_atom_site_fract_x
_atom_site_fract_y
_atom_site_fract_z
Si Si1 0.540648 0.286171 0.886440
Si Si2 0.884383 0.419849 0.563825
Si Si3 0.308649 0.419308 0.097486
Si Si4 0.500000 0.500000 0.500000
Si Si5 0.595102 0.246386 0.469916
Si Si6 0.935395 0.613952 0.086558
Si Si7 0.320248 0.605160 0.415973
O O1 0.625002 0.348300 0.902666
O O2 0.448267 0.269853 0.707346
O O3 0.586520 0.202731 0.937523
O O4 0.500000 0.309200 0.000000
O O5 0.892857 0.500000 0.499492
O O6 0.876803 0.340069 0.486537
O O7 0.778592 0.423101 0.574136
O O8 0.985973 0.408263 0.736180
O O9 0.354389 0.500000 0.089405
O O10 0.311762 0.417149 0.258047
O O11 0.181945 0.417969 0.974334
O O12 0.433164 0.565590 0.533781
O O13 0.500000 0.263104 0.500000
O O14 0.685048 0.305894 0.573194
O O15 0.000000 0.593481 0.000000
#
# Coordination Sequence:
#
# PCOD9209769 Si02
#       7
#     8   8   8   2   8   8   8
#     4  10  23  44  66  95 134 179 218 273 332 394
#     4  11  23  40  62  96 135 174 218 278 335 391
#     4  12  22  37  66 101 133 173 220 276 334 389
#     4  12  20  36  64  94 126 164 220 272 328 374
#     4  11  23  43  68  96 134 177 224 270 328 404
#     4  10  21  38  64  94 132 174 225 270 326 400
#     4  12  22  39  65  99 131 168 222 277 326 393
#
# _framework density 22.068484999999999
#
# number of rings (size 3 to 8) (size 9 to 14) (size 15 to 20)
#    0.000    0.960    5.600    1.440    0.000    1.280 
#    0.000    0.000    0.000    3.840    0.000    0.000 
#    0.000    0.000    0.000    0.000    0.000    0.000 
#
# Total GULP energy -139281.696442 kJ/mol
# GULP energy per Si atom -5571.267858 kJ/mol
# Density = 2.201826 g / cm^3
# Si number density = 22.068485 Si / 1000 Ang^3
#
#
#
# Elastic Constant Matrix: (Units=GPa)
#
#
# Indices 1 2 3 4 5 6 
#
# 1 81.8594 36.5895 7.9436 0.0000 5.1162 0.0000
# 2 36.5895 196.8434 10.0660 0.0000 11.4012 0.0000
# 3 7.9436 10.0660 15.9433 0.0000 -0.1102 0.0000
# 4 0.0000 0.0000 0.0000 25.9597 0.0000 -7.4055
# 5 5.1162 11.4012 -0.1102 0.0000 29.3459 0.0000
# 6 0.0000 0.0000 0.0000 -7.4055 0.0000 112.7305
#
#
#
# Elastic Compliance Matrix: (Units=1/GPa)
#
#
# Indices 1 2 3 4 5 6 
#
# 1 0.013832 -0.002198 -0.005515 0.000000 -0.001578 0.000000
# 2 -0.002198 0.005725 -0.002533 0.000000 -0.001851 0.000000
# 3 -0.005515 -0.002533 0.067084 0.000000 0.002197 0.000000
# 4 0.000000 0.000000 0.000000 0.039257 0.000000 0.002579
# 5 -0.001578 -0.001851 0.002197 0.000000 0.035079 0.000000
# 6 0.000000 0.000000 0.000000 0.002579 0.000000 0.009040
#
#
# Mechanical properties :
#
#
# Convention : Reuss Voigt Hill
#
# Bulk Modulus (GPa) = 15.11690 44.87160 29.99425
# Shear Modulus (GPa) = 23.52285 49.61035 36.56660
#
# Velocity S-wave (km/s) = 3.26836 4.74647 4.07499
# Velocity P-wave (km/s) = 4.59432 7.10040 5.98011
#
# Compressibility (1/GPa) = 0.06615112
#
# Stress axis : x y z
#
# Youngs Moduli (GPa) = 72.29487 174.66025 14.90658
#
# Poissons Ratio (x) = 0.38385 0.08221
# Poissons Ratio (y) = 0.15888 0.03775
# Poissons Ratio (z) = 0.39872 0.44235
#
# Static dielectric constant tensor:
#      x y z
#    x 2.087090 0.000000 0.216900 
#    y 0.000000 1.929770 0.000000 
#    z 0.216900 0.000000 1.978240 
# 
# From -- ./inp_files/145726.got.cif
#   From: 2010.05.17/outbox.cif.g08.bks.cpg/sg12_73_cif.got.tgz:145726.got - 2010.06.03 13:09:07.
