data_PCOD9209315
_publ_section_title
;
Structure prediction by ZEFSAII (Michael W. Deem and Ramdas Pophale) SiO2 
 PCOD9209315
Probable space group: C 2/M
;
_chemical_formula_sum "Si O2"
_cell_formula_units_Z 56
_cell_length_a 19.525360
_cell_length_b 20.281441
_cell_length_c 16.294821
_cell_angle_alpha 90.000000
_cell_angle_beta 158.569962
_cell_angle_gamma 90.000000
_cell_volume 2357.622229
_symmetry_space_group_name_H-M "C 2/M"
_symmetry_group_IT_number 12
_symmetry_cell_setting 'monoclinic'
loop_
_space_group_symop_operation_xyz
x,y,z
-x,y,-z
-x,-y,-z
x,-y,z
1/2+x,1/2+y,z
1/2-x,1/2+y,-z
1/2-x,1/2-y,-z
1/2+x,1/2-y,z
loop_
_atom_site_type_symbol
_atom_site_label
_atom_site_fract_x
_atom_site_fract_y
_atom_site_fract_z
Si Si1 0.564311 0.387279 0.817399
Si Si2 0.172661 0.929280 0.293168
Si Si3 0.550034 0.240338 0.859788
Si Si4 0.802802 0.423043 0.699800
Si Si5 0.799857 0.819753 0.284759
Si Si6 0.468866 0.100596 0.205324
Si Si7 0.815338 0.213668 0.742179
O O1 0.494374 0.415166 0.827634
O O2 0.597783 0.308725 0.868650
O O3 0.388590 0.403217 0.562676
O O4 0.758152 0.415794 0.997556
O O5 0.367509 0.931590 0.559847
O O6 0.195579 0.864434 0.264342
O O7 0.146830 0.000000 0.224418
O O8 0.504681 0.179183 0.751613
O O9 0.370135 0.259844 0.714219
O O10 0.704236 0.208503 0.095153
O O11 0.795568 0.500000 0.715533
O O12 0.811334 0.372211 0.784126
O O13 0.971041 0.413994 0.821333
O O14 0.840803 0.756309 0.388661
O O15 0.000000 0.853667 0.500000
O O16 0.000000 0.232583 0.000000
#
# Coordination Sequence:
#
# PCOD9209315 Si02
#       7
#     8   8   8   8   8   8   8
#     4  10  22  38  64  92 125 164 211 266 308 376
#     4  10  23  38  59  92 123 159 202 251 316 376
#     4  10  21  38  61  94 122 158 214 262 319 365
#     4  11  25  42  62  95 131 172 214 256 320 385
#     4  11  23  40  65  90 126 166 212 268 311 377
#     4  11  21  37  65  90 126 161 205 265 311 372
#     4   9  20  39  62  84 118 158 202 257 311 369
#
# _framework density 23.752745999999998
#
# number of rings (size 3 to 8) (size 9 to 14) (size 15 to 20)
#    0.000    1.714    1.429    3.000    4.000    4.571 
#    0.000    2.143    0.000    0.429    0.000    0.000 
#    0.000    0.000    0.000    0.000    0.000    0.000 
#
# Total GULP energy -156439.460084 kJ/mol
# GULP energy per Si atom -5587.123574 kJ/mol
# Density = 2.369868 g / cm^3
# Si number density = 23.752746 Si / 1000 Ang^3
#
#
#
# Elastic Constant Matrix: (Units=GPa)
#
#
# Indices 1 2 3 4 5 6 
#
# 1 76.7522 29.0011 47.9931 0.0000 18.4349 0.0000
# 2 29.0011 185.6153 23.0077 0.0000 0.9373 0.0000
# 3 47.9931 23.0077 113.4361 0.0000 17.5873 0.0000
# 4 0.0000 0.0000 0.0000 -38.0168 0.0000 46.9502
# 5 18.4349 0.9373 17.5873 0.0000 42.6693 0.0000
# 6 0.0000 0.0000 0.0000 46.9502 0.0000 -69.8488
#
#
#
# Elastic Compliance Matrix: (Units=1/GPa)
#
#
# Indices 1 2 3 4 5 6 
#
# 1 0.019527 -0.002159 -0.006968 0.000000 -0.005517 0.000000
# 2 -0.002159 0.005771 -0.000408 0.000000 0.000974 0.000000
# 3 -0.006968 -0.000408 0.012155 0.000000 -0.001990 0.000000
# 4 0.000000 0.000000 0.000000 -0.154840 0.000000 -0.104079
# 5 -0.005517 0.000974 -0.001990 0.000000 0.026619 0.000000
# 6 0.000000 0.000000 0.000000 -0.104079 0.000000 -0.084275
#
#
# Mechanical properties :
#
#
# Convention : Reuss Voigt Hill
#
# Bulk Modulus (GPa) = 54.40204 63.97859 59.19032
# Shear Modulus (GPa) = -33.36767 5.34753 -14.01007
#
# Velocity S-wave (km/s) = -3.75212 1.50207 -2.43128
# Velocity P-wave (km/s) = 2.04499 5.47741 4.13425
#
# Compressibility (1/GPa) = 0.01838166
#
# Stress axis : x y z
#
# Youngs Moduli (GPa) = 51.21040 173.29482 82.27023
#
# Poissons Ratio (x) = 0.37421 0.57329
# Poissons Ratio (y) = 0.11058 0.03355
# Poissons Ratio (z) = 0.35685 0.07068
#
# Static dielectric constant tensor:
#      x y z
#    x 1.964280 0.000000 -0.007080 
#    y 0.000000 1.905490 0.000000 
#    z -0.007080 0.000000 1.959770 
# 
# From -- ./inp_files/286078.got.cif
#   From: 2010.05.17/outbox.cif.g08.bks.cpg/sg12_144_cif.got.tgz:286078.got - 2010.06.03 13:09:07.
