data_PCOD9209692
_publ_section_title
;
Structure prediction by ZEFSAII (Michael W. Deem and Ramdas Pophale) SiO2 
 PCOD9209692
Probable space group: C 2/M
;
_chemical_formula_sum "Si O2"
_cell_formula_units_Z 40
_cell_length_a 11.708232
_cell_length_b 18.768596
_cell_length_c 12.325625
_cell_angle_alpha 90.000000
_cell_angle_beta 137.708054
_cell_angle_gamma 90.000000
_cell_volume 1822.586271
_symmetry_space_group_name_H-M "C 2/M"
_symmetry_group_IT_number 12
_symmetry_cell_setting 'monoclinic'
loop_
_space_group_symop_operation_xyz
x,y,z
-x,y,-z
-x,-y,-z
x,-y,z
1/2+x,1/2+y,z
1/2-x,1/2+y,-z
1/2-x,1/2-y,-z
1/2+x,1/2-y,z
loop_
_atom_site_type_symbol
_atom_site_label
_atom_site_fract_x
_atom_site_fract_y
_atom_site_fract_z
Si Si1 0.024329 0.580039 0.302850
Si Si2 0.643714 0.211827 0.523442
Si Si3 0.813160 0.081018 0.332723
Si Si4 0.003739 0.802030 0.120286
Si Si5 0.805487 0.348877 0.965785
O O1 0.994164 0.500000 0.324707
O O2 0.046272 0.643796 0.403781
O O3 0.200858 0.580585 0.361428
O O4 0.889267 0.599442 0.113856
O O5 0.500000 0.247196 0.500000
O O6 0.750000 0.250000 0.500000
O O7 0.801427 0.196886 0.711676
O O8 0.714562 0.124215 0.170730
O O9 0.000000 0.103303 0.500000
O O10 0.826305 0.000000 0.299781
O O11 0.886599 0.837065 0.128717
O O12 0.915058 0.723908 0.047570
O O13 0.000000 0.837278 0.000000
#
# Coordination Sequence:
#
# PCOD9209692 Si02
#       5
#     8   8   8   8   8
#     4  11  23  43  69 101 139 184 232 289 352 414
#     4  12  27  47  73 105 142 184 235 291 350 415
#     4  10  21  38  63  96 136 181 229 283 345 412
#     4  11  24  41  64  96 136 178 229 284 347 410
#     4  11  22  39  64  98 137 179 229 285 345 412
#
# _framework density 21.946833999999999
#
# number of rings (size 3 to 8) (size 9 to 14) (size 15 to 20)
#    0.000    1.000    2.000    4.800    2.800    2.800 
#    0.000    1.000    0.000    4.200    0.000    0.000 
#    0.000    0.000    0.000    0.000    0.000    0.000 
#
# Total GULP energy -111686.751446 kJ/mol
# GULP energy per Si atom -5584.337572 kJ/mol
# Density = 2.189688 g / cm^3
# Si number density = 21.946834 Si / 1000 Ang^3
#
#
#
# Elastic Constant Matrix: (Units=GPa)
#
#
# Indices 1 2 3 4 5 6 
#
# 1 109.6969 9.6431 8.3336 0.0000 13.9797 0.0000
# 2 9.6431 77.7977 -3.0191 0.0000 -2.3953 0.0000
# 3 8.3336 -3.0191 109.5308 0.0000 13.7100 0.0000
# 4 0.0000 0.0000 0.0000 7.3614 0.0000 -12.2994
# 5 13.9797 -2.3953 13.7100 0.0000 48.4491 0.0000
# 6 0.0000 0.0000 0.0000 -12.2994 0.0000 15.1082
#
#
#
# Elastic Compliance Matrix: (Units=1/GPa)
#
#
# Indices 1 2 3 4 5 6 
#
# 1 0.009608 -0.001291 -0.000427 0.000000 -0.002715 0.000000
# 2 -0.001291 0.013056 0.000343 0.000000 0.000921 0.000000
# 3 -0.000427 0.000343 0.009490 0.000000 -0.002545 0.000000
# 4 0.000000 0.000000 0.000000 -0.377157 0.000000 -0.307039
# 5 -0.002715 0.000921 -0.002545 0.000000 0.022190 0.000000
# 6 0.000000 0.000000 0.000000 -0.307039 0.000000 -0.183768
#
#
# Mechanical properties :
#
#
# Convention : Reuss Voigt Hill
#
# Bulk Modulus (GPa) = 34.00905 36.32673 35.16789
# Shear Modulus (GPa) = -10.12084 32.98828 11.43372
#
# Velocity S-wave (km/s) = -2.14978 3.88119 2.28496
# Velocity P-wave (km/s) = 3.06067 6.05582 4.79795
#
# Compressibility (1/GPa) = 0.02940394
#
# Stress axis : x y z
#
# Youngs Moduli (GPa) = 104.08010 76.59588 105.36978
#
# Poissons Ratio (x) = 0.09889 0.04496
# Poissons Ratio (y) = 0.13438 -0.03612
# Poissons Ratio (z) = 0.04441 -0.02626
#
# Static dielectric constant tensor:
#      x y z
#    x 1.872200 0.000000 -0.000480 
#    y 0.000000 1.887770 0.000000 
#    z -0.000480 0.000000 1.674900 
# 
# From -- ./inp_files/46946.got.cif
#   From: 2010.05.17/outbox.cif.g08.bks.cpg/sg12_24_cif.got.tgz:46946.got - 2010.06.03 13:09:07.
