data_PCOD9209700
_publ_section_title
;
Structure prediction by ZEFSAII (Michael W. Deem and Ramdas Pophale) SiO2 
 PCOD9209700
Probable space group: C 2/M
;
_chemical_formula_sum "Si O2"
_cell_formula_units_Z 56
_cell_length_a 9.019711
_cell_length_b 16.995339
_cell_length_c 29.476271
_cell_angle_alpha 90.000000
_cell_angle_beta 146.222196
_cell_angle_gamma 90.000000
_cell_volume 2512.171062
_symmetry_space_group_name_H-M "C 2/M"
_symmetry_group_IT_number 12
_symmetry_cell_setting 'monoclinic'
loop_
_space_group_symop_operation_xyz
x,y,z
-x,y,-z
-x,-y,-z
x,-y,z
1/2+x,1/2+y,z
1/2-x,1/2+y,-z
1/2-x,1/2-y,-z
1/2+x,1/2-y,z
loop_
_atom_site_type_symbol
_atom_site_label
_atom_site_fract_x
_atom_site_fract_y
_atom_site_fract_z
Si Si1 0.766765 0.842781 0.636933
Si Si2 0.598218 0.096091 0.975551
Si Si3 0.201322 0.095968 0.134001
Si Si4 0.219976 0.383159 0.445285
Si Si5 0.508367 0.312780 0.401837
Si Si6 0.969316 0.593006 0.698974
Si Si7 0.671546 0.904640 0.185152
O O1 0.533618 0.906903 0.588035
O O2 0.671395 0.764656 0.639497
O O3 0.803423 0.819077 0.593750
O O4 0.048994 0.870720 0.727524
O O5 0.904208 0.121593 0.046251
O O6 0.599028 0.000000 0.975653
O O7 0.500000 0.121489 0.000000
O O8 0.408751 0.120044 0.886125
O O9 0.292583 0.119539 0.207923
O O10 0.429144 0.119887 0.156609
O O11 0.201318 0.000000 0.133980
O O12 0.500000 0.422621 0.500000
O O13 0.348796 0.321660 0.513120
O O14 0.072529 0.367293 0.360236
O O15 0.305963 0.386687 0.345700
O O16 0.994749 0.500000 0.697113
O O17 0.686729 0.000000 0.190284
#
# Coordination Sequence:
#
# PCOD9209700 Si02
#       7
#     8   8   8   8   8   8   8
#     4  12  24  42  66  92 123 165 215 266 316 380
#     4   9  18  32  57  95 133 166 204 251 305 372
#     4   9  17  34  60  90 129 168 202 247 304 371
#     4  10  23  40  62  88 118 158 208 263 315 372
#     4  11  23  41  62  88 122 165 213 262 315 383
#     4  10  21  39  64  96 127 161 205 261 322 374
#     4  10  21  38  63  98 131 164 208 258 313 370
#
# _framework density 22.291475999999999
#
# number of rings (size 3 to 8) (size 9 to 14) (size 15 to 20)
#    0.000    1.857    1.429    3.000    2.000    6.000 
#    0.000    0.000    0.000    6.000    0.000    0.000 
#    0.000    0.000    0.000    0.000    0.000    0.000 
#
# Total GULP energy -156023.722670 kJ/mol
# GULP energy per Si atom -5572.275810 kJ/mol
# Density = 2.224074 g / cm^3
# Si number density = 22.291476 Si / 1000 Ang^3
#
#
#
# Elastic Constant Matrix: (Units=GPa)
#
#
# Indices 1 2 3 4 5 6 
#
# 1 173.8868 37.2052 71.2725 -0.0001 -1.4453 0.0000
# 2 37.2052 34.9688 38.3832 0.0000 -2.1704 0.0000
# 3 71.2725 38.3832 152.7068 -0.0004 -6.8695 -0.0001
# 4 -0.0001 0.0000 -0.0004 23.0447 -0.0002 -0.2557
# 5 -1.4453 -2.1704 -6.8695 -0.0002 45.9996 0.0000
# 6 0.0000 0.0000 -0.0001 -0.2557 0.0000 4.0127
#
#
#
# Elastic Compliance Matrix: (Units=1/GPa)
#
#
# Indices 1 2 3 4 5 6 
#
# 1 0.007947 -0.006061 -0.002202 0.000000 -0.000365 0.000000
# 2 -0.006061 0.044122 -0.008231 0.000000 0.000662 0.000000
# 3 -0.002202 -0.008231 0.009690 0.000000 0.000989 0.000000
# 4 0.000000 0.000000 0.000000 0.043425 0.000000 0.002767
# 5 -0.000365 0.000662 0.000989 0.000000 0.021907 0.000000
# 6 0.000000 0.000000 0.000000 0.002767 0.000000 0.249384
#
#
# Mechanical properties :
#
#
# Convention : Reuss Voigt Hill
#
# Bulk Modulus (GPa) = 34.75896 72.80936 53.78416
# Shear Modulus (GPa) = 11.93165 28.92485 20.42825
#
# Velocity S-wave (km/s) = 2.31607 3.60609 3.03052
# Velocity P-wave (km/s) = 4.77274 7.07615 6.03535
#
# Compressibility (1/GPa) = 0.02876956
#
# Stress axis : x y z
#
# Youngs Moduli (GPa) = 125.82910 22.66455 103.20087
#
# Poissons Ratio (x) = 0.13737 0.22727
# Poissons Ratio (y) = 0.76265 0.84950
# Poissons Ratio (z) = 0.27710 0.18656
#
# Static dielectric constant tensor:
#      x y z
#    x 1.857300 0.000000 0.020660 
#    y 0.000000 1.894970 0.000000 
#    z 0.020660 0.000000 1.814440 
# 
# From -- ./inp_files/373181.got.cif
#   From: 2010.05.17/outbox.cif.g08.bks.cpg/sg12_187_cif.got.tgz:373181.got - 2010.06.03 13:09:07.
