data_PCOD9209559
_publ_section_title
;
Structure prediction by ZEFSAII (Michael W. Deem and Ramdas Pophale) SiO2 
 PCOD9209559
Probable space group: C 2/M
;
_chemical_formula_sum "Si O2"
_cell_formula_units_Z 32
_cell_length_a 13.878021
_cell_length_b 18.840486
_cell_length_c 9.084274
_cell_angle_alpha 90.000000
_cell_angle_beta 33.080084
_cell_angle_gamma 90.000000
_cell_volume 1296.438565
_symmetry_space_group_name_H-M "C 2/M"
_symmetry_group_IT_number 12
_symmetry_cell_setting 'monoclinic'
loop_
_space_group_symop_operation_xyz
x,y,z
-x,y,-z
-x,-y,-z
x,-y,z
1/2+x,1/2+y,z
1/2-x,1/2+y,-z
1/2-x,1/2-y,-z
1/2+x,1/2-y,z
loop_
_atom_site_type_symbol
_atom_site_label
_atom_site_fract_x
_atom_site_fract_y
_atom_site_fract_z
Si Si1 0.927405 0.581794 0.317148
Si Si2 0.161572 0.083235 0.906393
Si Si3 0.191720 0.291758 0.716944
Si Si4 0.668760 0.370339 0.208610
O O1 0.887283 0.500000 0.343620
O O2 0.837046 0.601216 0.588652
O O3 0.837089 0.628666 0.307894
O O4 0.136764 0.594482 0.044691
O O5 0.175934 0.000000 0.937583
O O6 0.127787 0.133816 0.088152
O O7 0.000000 0.086415 0.000000
O O8 0.250000 0.250000 0.500000
O O9 0.303228 0.301147 0.722980
O O10 0.000000 0.262509 0.000000
O O11 0.500000 0.407860 0.500000
#
# Coordination Sequence:
#
# PCOD9209559 Si02
#       4
#     8   8   8   8
#     4  10  22  42  68 100 139 180 225 284 352 416
#     4  10  21  38  62  96 140 183 222 273 340 412
#     4  10  24  46  70  97 135 181 232 292 350 413
#     4  11  23  39  65 100 134 180 228 279 344 412
#
# _framework density 24.683005000000001
#
# number of rings (size 3 to 8) (size 9 to 14) (size 15 to 20)
#    0.000    1.750    0.000    3.000    0.000   12.500 
#    0.000   11.250    0.000    0.000    0.000    0.000 
#    0.000    0.000    0.000    0.000    0.000    0.250 
#
# Total GULP energy -89467.792399 kJ/mol
# GULP energy per Si atom -5591.737025 kJ/mol
# Density = 2.462683 g / cm^3
# Si number density = 24.683005 Si / 1000 Ang^3
#
#
#
# Elastic Constant Matrix: (Units=GPa)
#
#
# Indices 1 2 3 4 5 6 
#
# 1 156.9008 37.5033 72.8570 -0.0060 22.4846 0.0090
# 2 37.5033 50.9422 39.6370 -0.0084 18.8377 0.0071
# 3 72.8570 39.6370 245.9101 -0.0191 20.1692 0.0039
# 4 -0.0060 -0.0084 -0.0191 18.1151 0.0019 17.2376
# 5 22.4846 18.8377 20.1692 0.0019 49.0344 -0.0018
# 6 0.0090 0.0071 0.0039 17.2376 -0.0018 23.2575
#
#
#
# Elastic Compliance Matrix: (Units=1/GPa)
#
#
# Indices 1 2 3 4 5 6 
#
# 1 0.008398 -0.004330 -0.001667 0.000003 -0.001502 -0.000004
# 2 -0.004330 0.027597 -0.002544 0.000055 -0.007570 -0.000047
# 3 -0.001667 -0.002544 0.004996 0.000010 -0.000313 -0.000007
# 4 0.000003 0.000055 0.000010 0.187295 -0.000039 -0.138816
# 5 -0.001502 -0.007570 -0.000313 -0.000039 0.024119 0.000034
# 6 -0.000004 -0.000047 -0.000007 -0.138816 0.000034 0.145882
#
#
# Mechanical properties :
#
#
# Convention : Reuss Voigt Hill
#
# Bulk Modulus (GPa) = 41.82710 83.74974 62.78842
# Shear Modulus (GPa) = 11.81085 38.33179 25.07132
#
# Velocity S-wave (km/s) = 2.18984 3.94504 3.19051
# Velocity P-wave (km/s) = 4.83491 7.39966 6.25025
#
# Compressibility (1/GPa) = 0.02390794
#
# Stress axis : x y z
#
# Youngs Moduli (GPa) = 119.08070 36.23597 200.15177
#
# Poissons Ratio (x) = 0.15690 0.33364
# Poissons Ratio (y) = 0.51562 0.50928
# Poissons Ratio (z) = 0.19850 0.09220
#
# Static dielectric constant tensor:
#      x y z
#    x 1.990010 0.000000 -0.003570 
#    y 0.000000 1.989610 0.000000 
#    z -0.003570 0.000000 1.999460 
# 
# From -- ./inp_files/38560.got.cif
#   From: 2010.05.17/outbox.cif.g08.bks.cpg/sg12_20_cif.got.tgz:38560.got - 2010.06.03 13:09:07.
