data_PCOD9209577
_publ_section_title
;
Structure prediction by ZEFSAII (Michael W. Deem and Ramdas Pophale) SiO2 
 PCOD9209577
Probable space group: C 2/M
;
_chemical_formula_sum "Si O2"
_cell_formula_units_Z 40
_cell_length_a 23.038672
_cell_length_b 13.190357
_cell_length_c 9.366876
_cell_angle_alpha 90.000000
_cell_angle_beta 49.397049
_cell_angle_gamma 90.000000
_cell_volume 2161.158295
_symmetry_space_group_name_H-M "C 2/M"
_symmetry_group_IT_number 12
_symmetry_cell_setting 'monoclinic'
loop_
_space_group_symop_operation_xyz
x,y,z
-x,y,-z
-x,-y,-z
x,-y,z
1/2+x,1/2+y,z
1/2-x,1/2+y,-z
1/2-x,1/2-y,-z
1/2+x,1/2-y,z
loop_
_atom_site_type_symbol
_atom_site_label
_atom_site_fract_x
_atom_site_fract_y
_atom_site_fract_z
Si Si1 0.033758 0.119000 0.787389
Si Si2 0.809149 0.237384 0.535063
Si Si3 0.935140 0.191275 0.700820
Si Si4 0.361779 0.117824 0.684768
Si Si5 0.773120 0.114945 0.868992
O O1 0.116569 0.171539 0.631502
O O2 0.971461 0.181706 0.796597
O O3 0.038245 0.000000 0.736223
O O4 0.000000 0.120432 0.000000
O O5 0.750000 0.250000 0.500000
O O6 0.839947 0.340083 0.562562
O O7 0.768230 0.182970 0.735571
O O8 0.920769 0.303337 0.660720
O O9 0.854946 0.136250 0.809407
O O10 0.000000 0.140577 0.500000
O O11 0.384161 0.000000 0.645511
O O12 0.289909 0.129114 0.908006
O O13 0.768673 0.000000 0.826934
#
# Coordination Sequence:
#
# PCOD9209577 Si02
#       5
#     8   8   8   8   8
#     4  11  25  40  60  90 121 154 193 245 308 356
#     4  11  23  39  60  87 125 158 195 245 297 358
#     4  11  20  38  63  88 116 152 194 253 294 345
#     4  10  23  41  62  88 118 163 205 240 290 355
#     4  10  21  38  63  89 116 154 202 246 295 351
#
# _framework density 18.508593999999999
#
# number of rings (size 3 to 8) (size 9 to 14) (size 15 to 20)
#    0.000    1.400    4.000    3.600    5.600    2.800 
#    0.000    0.000    0.000    1.200    0.000    0.000 
#    0.000    0.000    0.000    0.000    0.000    0.000 
#
# Total GULP energy -111509.977197 kJ/mol
# GULP energy per Si atom -5575.498860 kJ/mol
# Density = 1.846647 g / cm^3
# Si number density = 18.508594 Si / 1000 Ang^3
#
#
#
# Elastic Constant Matrix: (Units=GPa)
#
#
# Indices 1 2 3 4 5 6 
#
# 1 153.3756 42.6517 27.0419 0.0000 16.8649 0.0000
# 2 42.6517 68.0946 19.7994 0.0000 15.4324 0.0000
# 3 27.0419 19.7994 50.8865 0.0000 1.5902 0.0000
# 4 0.0000 0.0000 0.0000 17.4374 0.0000 3.4467
# 5 16.8649 15.4324 1.5902 0.0000 29.9947 0.0000
# 6 0.0000 0.0000 0.0000 3.4467 0.0000 8.3258
#
#
#
# Elastic Compliance Matrix: (Units=1/GPa)
#
#
# Indices 1 2 3 4 5 6 
#
# 1 0.008376 -0.003821 -0.002883 0.000000 -0.002591 0.000000
# 2 -0.003821 0.020588 -0.005726 0.000000 -0.008141 0.000000
# 3 -0.002883 -0.005726 0.023308 0.000000 0.003332 0.000000
# 4 0.000000 0.000000 0.000000 0.062459 0.000000 -0.025857
# 5 -0.002591 -0.008141 0.003332 0.000000 0.038808 0.000000
# 6 0.000000 0.000000 0.000000 -0.025857 0.000000 0.130813
#
#
# Mechanical properties :
#
#
# Convention : Reuss Voigt Hill
#
# Bulk Modulus (GPa) = 36.48078 50.14918 43.31498
# Shear Modulus (GPa) = 15.70602 23.34250 19.52426
#
# Velocity S-wave (km/s) = 2.91620 3.55515 3.25141
# Velocity P-wave (km/s) = 5.57601 6.63370 6.12772
#
# Compressibility (1/GPa) = 0.02741170
#
# Stress axis : x y z
#
# Youngs Moduli (GPa) = 119.39357 48.57088 42.90436
#
# Poissons Ratio (x) = 0.18557 0.12371
# Poissons Ratio (y) = 0.45616 0.24567
# Poissons Ratio (z) = 0.34426 0.27812
#
# Static dielectric constant tensor:
#      x y z
#    x 1.640340 0.000000 0.013400 
#    y 0.000000 1.679230 0.000000 
#    z 0.013400 0.000000 1.681360 
# 
# From -- ./inp_files/72336.got.cif
#   From: 2010.05.17/outbox.cif.g08.bks.cpg/sg12_37_cif.got.tgz:72336.got - 2010.06.03 13:09:07.
