data_PCOD9209880
_publ_section_title
;
Structure prediction by ZEFSAII (Michael W. Deem and Ramdas Pophale) SiO2 
 PCOD9209880
Probable space group: C 2/M
;
_chemical_formula_sum "Si O2"
_cell_formula_units_Z 48
_cell_length_a 18.762644
_cell_length_b 30.321988
_cell_length_c 10.066585
_cell_angle_alpha 90.000000
_cell_angle_beta 25.965904
_cell_angle_gamma 90.000000
_cell_volume 2507.526601
_symmetry_space_group_name_H-M "C 2/M"
_symmetry_group_IT_number 12
_symmetry_cell_setting 'monoclinic'
loop_
_space_group_symop_operation_xyz
x,y,z
-x,y,-z
-x,-y,-z
x,-y,z
1/2+x,1/2+y,z
1/2-x,1/2+y,-z
1/2-x,1/2-y,-z
1/2+x,1/2-y,z
loop_
_atom_site_type_symbol
_atom_site_label
_atom_site_fract_x
_atom_site_fract_y
_atom_site_fract_z
Si Si1 0.981782 0.603739 0.683214
Si Si2 0.808455 0.739464 0.052202
Si Si3 0.129798 0.549953 0.662928
Si Si4 0.346433 0.634377 0.352510
Si Si5 0.350791 0.353212 0.651253
Si Si6 0.848029 0.308939 0.506030
O O1 0.000000 0.591627 0.500000
O O2 0.037723 0.564273 0.683659
O O3 0.099263 0.646029 0.509180
O O4 0.805366 0.620859 0.027829
O O5 0.695746 0.698203 0.279107
O O6 0.780198 0.781495 0.192786
O O7 0.750000 0.750000 0.000000
O O8 0.991281 0.721428 0.763325
O O9 0.191809 0.500000 0.553315
O O10 0.263530 0.587419 0.461504
O O11 0.000000 0.553158 0.000000
O O12 0.387030 0.633989 0.439345
O O13 0.220956 0.673561 0.519114
O O14 0.500000 0.640278 0.000000
O O15 0.500000 0.359653 0.500000
#
# Coordination Sequence:
#
# PCOD9209880 Si02
#       6
#     8   8   8   8   8   8
#     4  10  21  38  66  94 127 160 210 262 315 375
#     4  11  22  38  61  89 127 170 217 263 315 366
#     4  10  21  43  72  94 122 163 205 258 324 392
#     4  11  26  43  64  95 129 166 215 261 319 381
#     4  11  24  40  62  89 128 173 214 259 317 373
#     4  10  23  39  60  88 127 169 217 262 309 364
#
# _framework density 19.142368000000001
#
# number of rings (size 3 to 8) (size 9 to 14) (size 15 to 20)
#    0.000    1.500    1.667    3.500    9.333    1.333 
#    0.000    0.000    0.000    1.000    0.000    0.000 
#    0.000    0.000    0.000    0.000    0.000    0.000 
#
# Total GULP energy -134074.835564 kJ/mol
# GULP energy per Si atom -5586.451482 kJ/mol
# Density = 1.909880 g / cm^3
# Si number density = 19.142368 Si / 1000 Ang^3
#
#
#
# Elastic Constant Matrix: (Units=GPa)
#
#
# Indices 1 2 3 4 5 6 
#
# 1 153.0825 44.1376 60.9709 -0.0011 23.2373 -0.0016
# 2 44.1376 91.2764 42.2778 -0.0004 0.3526 -0.0005
# 3 60.9709 42.2778 69.7647 -0.0018 14.7094 -0.0023
# 4 -0.0011 -0.0004 -0.0018 15.2918 0.0007 -10.2848
# 5 23.2373 0.3526 14.7094 0.0007 33.6934 0.0013
# 6 -0.0016 -0.0005 -0.0023 -10.2848 0.0013 5.6241
#
#
#
# Elastic Compliance Matrix: (Units=1/GPa)
#
#
# Indices 1 2 3 4 5 6 
#
# 1 0.010564 -0.001686 -0.007355 -0.000003 -0.004057 -0.000004
# 2 -0.001686 0.016077 -0.009339 0.000016 0.005071 0.000025
# 3 -0.007355 -0.009339 0.027899 -0.000041 -0.007009 -0.000065
# 4 -0.000003 0.000016 -0.000041 -0.284395 0.000046 -0.520078
# 5 -0.004057 0.005071 -0.007009 0.000046 0.035484 0.000072
# 6 -0.000004 0.000025 -0.000065 -0.520078 0.000072 -0.773268
#
#
# Mechanical properties :
#
#
# Convention : Reuss Voigt Hill
#
# Bulk Modulus (GPa) = 56.24151 67.65513 61.94832
# Shear Modulus (GPa) = -5.40568 22.03770 8.31601
#
# Velocity S-wave (km/s) = -1.68228 3.39669 2.08656
# Velocity P-wave (km/s) = 5.06666 7.12764 6.18362
#
# Compressibility (1/GPa) = 0.01778046
#
# Stress axis : x y z
#
# Youngs Moduli (GPa) = 94.66292 62.20157 35.84327
#
# Poissons Ratio (x) = 0.10485 0.26364
# Poissons Ratio (y) = 0.15957 0.33473
# Poissons Ratio (z) = 0.69628 0.58088
#
# Static dielectric constant tensor:
#      x y z
#    x 1.618290 0.000000 -0.018750 
#    y 0.000000 1.636700 0.000000 
#    z -0.018750 0.000000 1.702730 
# 
# From -- ./inp_files/80564.got.cif
#   From: 2010.05.17/outbox.cif.g08.bks.cpg/sg12_41_cif.got.tgz:80564.got - 2010.06.03 13:09:07.
