data_PCOD9209291
_publ_section_title
;
Structure prediction by ZEFSAII (Michael W. Deem and Ramdas Pophale) SiO2 
 PCOD9209291
Probable space group: C 2/M
;
_chemical_formula_sum "Si O2"
_cell_formula_units_Z 26
_cell_length_a 5.005128
_cell_length_b 22.966716
_cell_length_c 9.232617
_cell_angle_alpha 90.000000
_cell_angle_beta 96.141062
_cell_angle_gamma 90.000000
_cell_volume 1055.211573
_symmetry_space_group_name_H-M "C 2/M"
_symmetry_group_IT_number 12
_symmetry_cell_setting 'monoclinic'
loop_
_space_group_symop_operation_xyz
x,y,z
-x,y,-z
-x,-y,-z
x,-y,z
1/2+x,1/2+y,z
1/2-x,1/2+y,-z
1/2-x,1/2-y,-z
1/2+x,1/2-y,z
loop_
_atom_site_type_symbol
_atom_site_label
_atom_site_fract_x
_atom_site_fract_y
_atom_site_fract_z
Si Si1 0.367740 0.391670 0.137031
Si Si2 0.040965 0.716791 0.176170
Si Si3 0.753991 0.066001 0.597839
Si Si4 0.500000 0.000000 0.000000
O O1 0.173668 0.346002 0.204476
O O2 0.617311 0.407001 0.253116
O O3 0.200927 0.448516 0.079417
O O4 0.500000 0.365043 0.000000
O O5 0.261375 0.765472 0.230373
O O6 0.000000 0.719474 0.000000
O O7 0.500000 0.092576 0.500000
O O8 0.000000 0.063009 0.500000
O O9 0.669513 0.000000 0.635712
#
# Coordination Sequence:
#
# PCOD9209291 Si02
#       4
#     8   8   8   2
#     4  12  25  40  66  96 135 162 213 272 320 376
#     4  10  21  38  61  92 125 165 212 260 316 372
#     4  10  24  41  61  87 128 174 210 247 313 393
#     4  12  26  36  60 108 132 160 200 282 332 366
#
# _framework density 24.639610000000001
#
# number of rings (size 3 to 8) (size 9 to 14) (size 15 to 20)
#    0.000    1.231    3.077    3.231    4.308    0.000 
#    0.000    0.000    0.000    5.538    0.000    0.000 
#    0.000    0.000    0.000    0.000    0.000    0.000 
#
# Total GULP energy -72562.816384 kJ/mol
# GULP energy per Si atom -5581.755106 kJ/mol
# Density = 2.458353 g / cm^3
# Si number density = 24.639610 Si / 1000 Ang^3
#
#
#
# Elastic Constant Matrix: (Units=GPa)
#
#
# Indices 1 2 3 4 5 6 
#
# 1 113.9854 29.1767 56.3446 0.0000 45.7634 0.0000
# 2 29.1767 133.6664 34.9408 0.0000 31.4888 0.0000
# 3 56.3446 34.9408 151.2541 0.0000 50.8799 0.0000
# 4 0.0000 0.0000 0.0000 -55.6269 0.0000 -96.5186
# 5 45.7634 31.4888 50.8799 0.0000 56.9723 0.0000
# 6 0.0000 0.0000 0.0000 -96.5186 0.0000 -140.4396
#
#
#
# Elastic Compliance Matrix: (Units=1/GPa)
#
#
# Indices 1 2 3 4 5 6 
#
# 1 0.013353 -0.000333 -0.001931 0.000000 -0.008817 0.000000
# 2 -0.000333 0.008642 -0.000508 0.000000 -0.004055 0.000000
# 3 -0.001931 -0.000508 0.009766 0.000000 -0.006889 0.000000
# 4 0.000000 0.000000 0.000000 0.093401 0.000000 -0.064191
# 5 -0.008817 -0.004055 -0.006889 0.000000 0.033029 0.000000
# 6 0.000000 0.000000 0.000000 -0.064191 0.000000 0.036995
#
#
# Mechanical properties :
#
#
# Convention : Reuss Voigt Hill
#
# Bulk Modulus (GPa) = 38.14467 71.09223 54.61845
# Shear Modulus (GPa) = 23.86997 -9.25592 7.30702
#
# Velocity S-wave (km/s) = 3.11587 -1.94028 1.72395
# Velocity P-wave (km/s) = 5.33475 4.88834 5.11642
#
# Compressibility (1/GPa) = 0.02621598
#
# Stress axis : x y z
#
# Youngs Moduli (GPa) = 74.89050 115.71185 102.39974
#
# Poissons Ratio (x) = 0.03850 0.19777
# Poissons Ratio (y) = 0.02492 0.05205
# Poissons Ratio (z) = 0.14464 0.05882
#
# Static dielectric constant tensor:
#      x y z
#    x 2.014070 0.000000 -0.044030 
#    y 0.000000 1.976270 0.000000 
#    z -0.044030 0.000000 2.013270 
# 
# From -- ./inp_files/33972.got.cif
#   From: 2010.05.17/outbox.cif.g08.bks.cpg/sg12_17_cif.got.tgz:33972.got - 2010.06.03 13:09:07.
