data_PCOD9209129
_publ_section_title
;
Structure prediction by ZEFSAII (Michael W. Deem and Ramdas Pophale) SiO2 
 PCOD9209129
Probable space group: C 2/M
;
_chemical_formula_sum "Si O2"
_cell_formula_units_Z 64
_cell_length_a 29.447594
_cell_length_b 9.171523
_cell_length_c 22.626445
_cell_angle_alpha 90.000000
_cell_angle_beta 28.634653
_cell_angle_gamma 90.000000
_cell_volume 2928.498843
_symmetry_space_group_name_H-M "C 2/M"
_symmetry_group_IT_number 12
_symmetry_cell_setting 'monoclinic'
loop_
_space_group_symop_operation_xyz
x,y,z
-x,y,-z
-x,-y,-z
x,-y,z
1/2+x,1/2+y,z
1/2-x,1/2+y,-z
1/2-x,1/2-y,-z
1/2+x,1/2-y,z
loop_
_atom_site_type_symbol
_atom_site_label
_atom_site_fract_x
_atom_site_fract_y
_atom_site_fract_z
Si Si1 0.346427 0.670863 0.477399
Si Si2 0.238934 0.173070 0.211350
Si Si3 0.886036 0.333354 0.729921
Si Si4 0.845116 0.332633 0.909089
Si Si5 0.660587 0.329391 0.702178
Si Si6 0.500952 0.669911 0.196720
Si Si7 0.895359 0.171160 0.101245
Si Si8 0.400951 0.826319 0.536038
O O1 0.342890 0.500000 0.497519
O O2 0.241614 0.728960 0.582458
O O3 0.420748 0.686092 0.339335
O O4 0.377555 0.766506 0.497760
O O5 0.196461 0.227655 0.197812
O O6 0.339204 0.241509 0.115723
O O7 0.163283 0.240292 0.344248
O O8 0.241994 0.000000 0.211154
O O9 0.857851 0.500000 0.747717
O O10 0.901999 0.326437 0.781860
O O11 0.986531 0.302760 0.584649
O O12 0.824832 0.500000 0.946319
O O13 0.908679 0.261226 0.886983
O O14 0.750000 0.250000 0.000000
O O15 0.676133 0.500000 0.668464
O O16 0.556284 0.290719 0.797070
O O17 0.662071 0.318513 0.771350
O O18 0.528359 0.500000 0.162254
O O19 0.901865 0.000000 0.077225
O O20 0.000000 0.222027 0.000000
O O21 0.382800 0.000000 0.560828
#
# Coordination Sequence:
#
# PCOD9209129 Si02
#       8
#     8   8   8   8   8   8   8   8
#     4  11  21  34  58  91 125 156 194 250 308 356
#     4  12  25  39  61  94 127 157 196 251 313 361
#     4  10  23  42  64  89 120 162 207 246 296 367
#     4  11  24  43  65  90 120 161 208 255 305 357
#     4  10  21  38  61  87 120 163 203 242 298 366
#     4  10  22  39  60  90 124 159 201 250 303 362
#     4  10  22  41  63  85 115 161 210 250 292 352
#     4  11  21  38  63  89 121 161 204 244 297 368
#
# _framework density 21.854199999999999
#
# number of rings (size 3 to 8) (size 9 to 14) (size 15 to 20)
#    0.000    1.375    2.500    3.000    0.000    5.750 
#    0.000    2.500    0.000    0.000    0.000    0.000 
#    0.000    0.000    0.000    0.000    0.000    0.000 
#
# Total GULP energy -179023.947945 kJ/mol
# GULP energy per Si atom -5594.498373 kJ/mol
# Density = 2.180446 g / cm^3
# Si number density = 21.854200 Si / 1000 Ang^3
#
#
#
# Elastic Constant Matrix: (Units=GPa)
#
#
# Indices 1 2 3 4 5 6 
#
# 1 117.1914 56.8245 6.0719 -0.0003 -28.2568 0.0004
# 2 56.8245 104.7825 32.4412 -0.0077 -36.9052 0.0042
# 3 6.0719 32.4412 63.4838 -0.0053 -24.9364 0.0023
# 4 -0.0003 -0.0077 -0.0053 26.2854 0.0024 -7.3722
# 5 -28.2568 -36.9052 -24.9364 0.0024 44.3123 -0.0005
# 6 0.0004 0.0042 0.0023 -7.3722 -0.0005 31.1741
#
#
#
# Elastic Compliance Matrix: (Units=1/GPa)
#
#
# Indices 1 2 3 4 5 6 
#
# 1 0.012590 -0.006289 0.003987 -0.000001 0.005034 0.000000
# 2 -0.006289 0.017168 -0.005303 0.000003 0.007304 -0.000001
# 3 0.003987 -0.005303 0.022266 0.000002 0.010656 0.000000
# 4 -0.000001 0.000003 0.000002 0.040746 0.000001 0.009636
# 5 0.005034 0.007304 0.010656 0.000001 0.037857 -0.000001
# 6 0.000000 -0.000001 0.000000 0.009636 -0.000001 0.034357
#
#
# Mechanical properties :
#
#
# Convention : Reuss Voigt Hill
#
# Bulk Modulus (GPa) = 27.16267 52.90366 40.03316
# Shear Modulus (GPa) = 25.97866 33.02903 29.50384
#
# Velocity S-wave (km/s) = 3.45153 3.89181 3.67826
# Velocity P-wave (km/s) = 5.32354 6.66746 6.03304
#
# Compressibility (1/GPa) = 0.03681523
#
# Stress axis : x y z
#
# Youngs Moduli (GPa) = 79.43043 58.24637 44.91100
#
# Poissons Ratio (x) = 0.36630 -0.17906
# Poissons Ratio (y) = 0.49952 0.23815
# Poissons Ratio (z) = -0.31668 0.30886
#
# Static dielectric constant tensor:
#      x y z
#    x 1.821910 0.000000 0.018880 
#    y 0.000000 1.726560 0.000000 
#    z 0.018880 0.000000 1.834860 
# 
# From -- ./inp_files/353369.got.cif
#   From: 2010.05.17/outbox.cif.g08.bks.cpg/sg12_177_cif.got.tgz:353369.got - 2010.06.03 13:09:07.
