data_PCOD9209216
_publ_section_title
;
Structure prediction by ZEFSAII (Michael W. Deem and Ramdas Pophale) SiO2 
 PCOD9209216
Probable space group: C 2/M
;
_chemical_formula_sum "Si O2"
_cell_formula_units_Z 40
_cell_length_a 10.179056
_cell_length_b 21.841801
_cell_length_c 11.399809
_cell_angle_alpha 90.000000
_cell_angle_beta 59.447308
_cell_angle_gamma 90.000000
_cell_volume 2182.621364
_symmetry_space_group_name_H-M "C 2/M"
_symmetry_group_IT_number 12
_symmetry_cell_setting 'monoclinic'
loop_
_space_group_symop_operation_xyz
x,y,z
-x,y,-z
-x,-y,-z
x,-y,z
1/2+x,1/2+y,z
1/2-x,1/2+y,-z
1/2-x,1/2-y,-z
1/2+x,1/2-y,z
loop_
_atom_site_type_symbol
_atom_site_label
_atom_site_fract_x
_atom_site_fract_y
_atom_site_fract_z
Si Si1 0.316972 0.929898 0.598554
Si Si2 0.135264 0.249495 0.224287
Si Si3 0.637873 0.838690 0.015786
Si Si4 0.698285 0.300104 0.617035
Si Si5 0.827829 0.928664 0.075707
O O1 0.500000 0.925362 0.500000
O O2 0.244704 0.870303 0.569288
O O3 0.257667 0.923710 0.760222
O O4 0.274751 0.000000 0.580661
O O5 0.087354 0.302766 0.155657
O O6 0.210527 0.279893 0.305621
O O7 0.984696 0.207637 0.300771
O O8 0.266486 0.209387 0.104306
O O9 0.740140 0.893170 0.015518
O O10 0.500000 0.860854 0.000000
O O11 0.750000 0.250000 0.500000
O O12 0.837475 0.000000 0.042648
O O13 0.000000 0.903118 0.000000
#
# Coordination Sequence:
#
# PCOD9209216 Si02
#       5
#     8   8   8   8   8
#     4  10  21  38  61  89 121 161 207 251 302 368
#     4  11  23  38  56  91 118 156 199 252 309 367
#     4  11  22  36  59  85 124 157 196 253 311 364
#     4  12  23  39  63  89 123 157 205 257 308 369
#     4  10  21  38  62  89 120 163 210 254 303 371
#
# _framework density 18.326588000000001
#
# number of rings (size 3 to 8) (size 9 to 14) (size 15 to 20)
#    0.000    1.200    4.000    3.000    0.000    0.400 
#    0.000    0.000    0.000    3.600    0.000    0.000 
#    0.000    0.000    0.000    0.000    0.000    0.000 
#
# Total GULP energy -111537.583731 kJ/mol
# GULP energy per Si atom -5576.879187 kJ/mol
# Density = 1.828488 g / cm^3
# Si number density = 18.326588 Si / 1000 Ang^3
#
#
#
# Elastic Constant Matrix: (Units=GPa)
#
#
# Indices 1 2 3 4 5 6 
#
# 1 115.7450 43.9119 26.2564 0.0000 -4.6562 0.0000
# 2 43.9119 120.0426 16.5672 0.0000 5.8092 0.0000
# 3 26.2564 16.5672 61.1270 0.0000 -0.9124 0.0000
# 4 0.0000 0.0000 0.0000 -1.4912 0.0000 -9.6160
# 5 -4.6562 5.8092 -0.9124 0.0000 25.9365 0.0000
# 6 0.0000 0.0000 0.0000 -9.6160 0.0000 32.9346
#
#
#
# Elastic Compliance Matrix: (Units=1/GPa)
#
#
# Indices 1 2 3 4 5 6 
#
# 1 0.010959 -0.003629 -0.003684 0.000000 0.002650 0.000000
# 2 -0.003629 0.009963 -0.001185 0.000000 -0.002925 0.000000
# 3 -0.003684 -0.001185 0.018267 0.000000 0.000247 0.000000
# 4 0.000000 0.000000 0.000000 -0.232621 0.000000 -0.067919
# 5 0.002650 -0.002925 0.000247 0.000000 0.039695 0.000000
# 6 0.000000 0.000000 0.000000 -0.067919 0.000000 0.010533
#
#
# Mechanical properties :
#
#
# Convention : Reuss Voigt Hill
#
# Bulk Modulus (GPa) = 45.06059 52.26508 48.66283
# Shear Modulus (GPa) = -42.08338 25.48791 -8.29774
#
# Velocity S-wave (km/s) = -4.79717 3.73334 -2.13015
# Velocity P-wave (km/s) = 2.45823 6.86763 4.53439
#
# Compressibility (1/GPa) = 0.02219234
#
# Stress axis : x y z
#
# Youngs Moduli (GPa) = 91.25209 100.37343 54.74405
#
# Poissons Ratio (x) = 0.36421 0.20169
# Poissons Ratio (y) = 0.33111 0.06489
# Poissons Ratio (z) = 0.33619 0.11897
#
# Static dielectric constant tensor:
#      x y z
#    x 1.643080 0.000000 -0.054590 
#    y 0.000000 1.642610 0.000000 
#    z -0.054590 0.000000 1.693910 
# 
# From -- ./inp_files/120045.got.cif
#   From: 2010.05.17/outbox.cif.g08.bks.cpg/sg12_61_cif.got.tgz:120045.got - 2010.06.03 13:09:07.
