data_PCOD9209716
_publ_section_title
;
Structure prediction by ZEFSAII (Michael W. Deem and Ramdas Pophale) SiO2 
 PCOD9209716
Probable space group: C 2/M
;
_chemical_formula_sum "Si O2"
_cell_formula_units_Z 40
_cell_length_a 12.529092
_cell_length_b 15.049584
_cell_length_c 17.507222
_cell_angle_alpha 90.000000
_cell_angle_beta 146.041211
_cell_angle_gamma 90.000000
_cell_volume 1843.994030
_symmetry_space_group_name_H-M "C 2/M"
_symmetry_group_IT_number 12
_symmetry_cell_setting 'monoclinic'
loop_
_space_group_symop_operation_xyz
x,y,z
-x,y,-z
-x,-y,-z
x,-y,z
1/2+x,1/2+y,z
1/2-x,1/2+y,-z
1/2-x,1/2-y,-z
1/2+x,1/2-y,z
loop_
_atom_site_type_symbol
_atom_site_label
_atom_site_fract_x
_atom_site_fract_y
_atom_site_fract_z
Si Si1 0.754024 0.170018 0.678406
Si Si2 0.921340 0.597406 0.570379
Si Si3 0.907228 0.602116 0.083189
Si Si4 0.286311 0.630483 0.393424
Si Si5 0.608514 0.703301 0.987884
O O1 0.601760 0.159477 0.656959
O O2 0.706820 0.102272 0.582625
O O3 0.717295 0.264122 0.617853
O O4 0.967165 0.171817 0.836330
O O5 0.007209 0.500000 0.629419
O O6 0.791606 0.612115 0.567744
O O7 0.849473 0.500000 0.028673
O O8 0.870534 0.688539 0.006410
O O9 0.128856 0.598471 0.238741
O O10 0.795052 0.642564 0.089900
O O11 0.500000 0.599656 0.500000
O O12 0.500000 0.683849 0.000000
#
# Coordination Sequence:
#
# PCOD9209716 Si02
#       5
#     8   8   8   8   8
#     4  10  21  38  64  89 119 161 205 247 308 363
#     4  11  22  37  60  93 125 154 201 259 305 361
#     4  10  23  41  61  91 124 158 206 253 301 365
#     4  11  22  39  64  89 125 163 203 244 304 369
#     4  10  22  42  65  88 121 162 207 255 305 361
#
# _framework density 21.692043999999999
#
# number of rings (size 3 to 8) (size 9 to 14) (size 15 to 20)
#    0.000    1.600    2.000    3.600    0.000    4.000 
#    7.200    0.000    0.000    0.000    0.000    0.000 
#    0.000    0.000    0.000    0.000    0.000    0.000 
#
# Total GULP energy -111444.895703 kJ/mol
# GULP energy per Si atom -5572.244785 kJ/mol
# Density = 2.164267 g / cm^3
# Si number density = 21.692044 Si / 1000 Ang^3
#
#
#
# Elastic Constant Matrix: (Units=GPa)
#
#
# Indices 1 2 3 4 5 6 
#
# 1 65.7828 -11.7317 4.3932 0.0005 15.6509 0.0003
# 2 -11.7317 106.2441 10.6214 -0.0058 14.9702 -0.0047
# 3 4.3932 10.6214 68.7882 -0.0395 24.0705 -0.0303
# 4 0.0005 -0.0058 -0.0395 191.2973 -0.0188 145.3863
# 5 15.6509 14.9702 24.0705 -0.0188 29.0334 -0.0145
# 6 0.0003 -0.0047 -0.0303 145.3863 -0.0145 272.5522
#
#
#
# Elastic Compliance Matrix: (Units=1/GPa)
#
#
# Indices 1 2 3 4 5 6 
#
# 1 0.019332 0.003950 0.003542 -0.000001 -0.015395 0.000000
# 2 0.003950 0.010963 0.001096 0.000000 -0.008691 0.000000
# 3 0.003542 0.001096 0.021141 0.000002 -0.020002 0.000000
# 4 -0.000001 0.000000 0.000002 0.008792 0.000002 -0.004690
# 5 -0.015395 -0.008691 -0.020002 0.000002 0.063806 0.000000
# 6 0.000000 0.000000 0.000000 -0.004690 0.000000 0.006171
#
#
# Mechanical properties :
#
#
# Convention : Reuss Voigt Hill
#
# Bulk Modulus (GPa) = 14.57452 27.48677 21.03065
# Shear Modulus (GPa) = 36.79194 114.41205 75.60200
#
# Velocity S-wave (km/s) = 4.12284 7.27037 5.91000
# Velocity P-wave (km/s) = 5.42192 9.12012 7.50246
#
# Compressibility (1/GPa) = 0.06861288
#
# Stress axis : x y z
#
# Youngs Moduli (GPa) = 51.72760 91.21243 47.30131
#
# Poissons Ratio (x) = -0.36026 -0.16756
# Poissons Ratio (y) = -0.20431 -0.05184
# Poissons Ratio (z) = -0.18324 -0.09997
#
# Static dielectric constant tensor:
#      x y z
#    x 1.801750 0.000000 0.004580 
#    y 0.000000 1.887890 0.000000 
#    z 0.004580 0.000000 1.842740 
# 
# From -- ./inp_files/129575.got.cif
#   From: 2010.05.17/outbox.cif.g08.bks.cpg/sg12_65_cif.got.tgz:129575.got - 2010.06.03 13:09:07.
