data_PCOD9209076
_publ_section_title
;
Structure prediction by ZEFSAII (Michael W. Deem and Ramdas Pophale) SiO2 
 PCOD9209076
Probable space group: C 2/M
;
_chemical_formula_sum "Si O2"
_cell_formula_units_Z 40
_cell_length_a 23.491664
_cell_length_b 8.698552
_cell_length_c 10.484043
_cell_angle_alpha 90.000000
_cell_angle_beta 90.257792
_cell_angle_gamma 90.000000
_cell_volume 2142.323946
_symmetry_space_group_name_H-M "C 2/M"
_symmetry_group_IT_number 12
_symmetry_cell_setting 'monoclinic'
loop_
_space_group_symop_operation_xyz
x,y,z
-x,y,-z
-x,-y,-z
x,-y,z
1/2+x,1/2+y,z
1/2-x,1/2+y,-z
1/2-x,1/2-y,-z
1/2+x,1/2-y,z
loop_
_atom_site_type_symbol
_atom_site_label
_atom_site_fract_x
_atom_site_fract_y
_atom_site_fract_z
Si Si1 0.627956 0.185650 0.759659
Si Si2 0.251942 0.683885 0.855997
Si Si3 0.368454 0.816801 0.755350
Si Si4 0.432244 0.678835 0.993765
Si Si5 0.933992 0.312532 0.501448
O O1 0.694057 0.226552 0.781099
O O2 0.593978 0.258741 0.876115
O O3 0.599985 0.234088 0.625879
O O4 0.623623 0.000000 0.767662
O O5 0.254247 0.500000 0.866024
O O6 0.307224 0.743540 0.782757
O O7 0.250000 0.750000 0.000000
O O8 0.400115 0.762510 0.627346
O O9 0.361648 0.000000 0.747720
O O10 0.407400 0.774130 0.876154
O O11 0.416464 0.500000 0.976404
O O12 0.500000 0.691335 0.000000
O O13 0.935048 0.500000 0.503523
O O14 0.000000 0.261557 0.500000
#
# Coordination Sequence:
#
# PCOD9209076 Si02
#       5
#     8   8   8   8   8
#     4  10  21  38  61  86 113 154 200 242 291 349
#     4  11  22  37  59  87 121 155 198 248 293 346
#     4  11  22  37  61  88 116 156 198 242 297 351
#     4  11  23  37  56  85 118 152 195 247 297 348
#     4   9  19  37  60  87 118 151 195 247 293 348
#
# _framework density 18.671310999999999
#
# number of rings (size 3 to 8) (size 9 to 14) (size 15 to 20)
#    0.000    1.600    2.000    3.000    0.000    4.800 
#    0.000    2.000    0.000    5.400    0.000    0.000 
#    0.000    0.000    0.000    0.000    0.000    0.000 
#
# Total GULP energy -111745.933014 kJ/mol
# GULP energy per Si atom -5587.296651 kJ/mol
# Density = 1.862881 g / cm^3
# Si number density = 18.671311 Si / 1000 Ang^3
#
#
#
# Elastic Constant Matrix: (Units=GPa)
#
#
# Indices 1 2 3 4 5 6 
#
# 1 160.8456 40.2585 103.7709 0.0000 -10.1058 0.0000
# 2 40.2585 31.4126 29.3532 0.0000 0.5983 0.0000
# 3 103.7709 29.3532 185.6040 0.0000 -16.9247 0.0000
# 4 0.0000 0.0000 0.0000 -0.0090 0.0000 -10.9748
# 5 -10.1058 0.5983 -16.9247 0.0000 42.9376 0.0000
# 6 0.0000 0.0000 0.0000 -10.9748 0.0000 19.1095
#
#
#
# Elastic Compliance Matrix: (Units=1/GPa)
#
#
# Indices 1 2 3 4 5 6 
#
# 1 0.012304 -0.011091 -0.005028 0.000000 0.001069 0.000000
# 2 -0.011091 0.047718 -0.001705 0.000000 -0.003948 0.000000
# 3 -0.005028 -0.001705 0.008675 0.000000 0.002260 0.000000
# 4 0.000000 0.000000 0.000000 -0.158430 0.000000 -0.090988
# 5 0.001069 -0.003948 0.002260 0.000000 0.024487 0.000000
# 6 0.000000 0.000000 0.000000 -0.090988 0.000000 0.000075
#
#
# Mechanical properties :
#
#
# Convention : Reuss Voigt Hill
#
# Bulk Modulus (GPa) = 30.25932 80.51415 55.38673
# Shear Modulus (GPa) = -270.13953 26.03959 -122.04997
#
# Velocity S-wave (km/s) = -12.04142 3.73853 -8.09380
# Velocity P-wave (km/s) = 13.30737 7.86454 7.59063
#
# Compressibility (1/GPa) = 0.03304767
#
# Stress axis : x y z
#
# Youngs Moduli (GPa) = 81.27508 20.95666 115.28029
#
# Poissons Ratio (x) = 0.23243 0.57958
# Poissons Ratio (y) = 0.90143 0.19661
# Poissons Ratio (z) = 0.40862 0.03574
#
# Static dielectric constant tensor:
#      x y z
#    x 1.637790 0.000000 0.006700 
#    y 0.000000 1.636950 0.000000 
#    z 0.006700 0.000000 1.610110 
# 
# From -- ./inp_files/92920.got.cif
#   From: 2010.05.17/outbox.cif.g08.bks.cpg/sg12_47_cif.got.tgz:92920.got - 2010.06.03 13:09:07.
