data_PCOD9209426
_publ_section_title
;
Structure prediction by ZEFSAII (Michael W. Deem and Ramdas Pophale) SiO2 
 PCOD9209426
Probable space group: C 2/M
;
_chemical_formula_sum "Si O2"
_cell_formula_units_Z 48
_cell_length_a 28.912635
_cell_length_b 8.782087
_cell_length_c 10.356653
_cell_angle_alpha 90.000000
_cell_angle_beta 89.779630
_cell_angle_gamma 90.000000
_cell_volume 2629.672241
_symmetry_space_group_name_H-M "C 2/M"
_symmetry_group_IT_number 12
_symmetry_cell_setting 'monoclinic'
loop_
_space_group_symop_operation_xyz
x,y,z
-x,y,-z
-x,-y,-z
x,-y,z
1/2+x,1/2+y,z
1/2-x,1/2+y,-z
1/2-x,1/2-y,-z
1/2+x,1/2-y,z
loop_
_atom_site_type_symbol
_atom_site_label
_atom_site_fract_x
_atom_site_fract_y
_atom_site_fract_z
Si Si1 0.976844 0.684270 0.636307
Si Si2 0.274834 0.816271 0.624717
Si Si3 0.279825 0.682176 0.115728
Si Si4 0.125174 0.685165 0.279329
Si Si5 0.532752 0.677740 0.874588
Si Si6 0.625958 0.817950 0.977182
O O1 0.978069 0.500000 0.645464
O O2 0.923142 0.732157 0.654348
O O3 0.000000 0.727664 0.500000
O O4 0.006177 0.753098 0.753052
O O5 0.250000 0.750000 0.500000
O O6 0.244643 0.774371 0.750376
O O7 0.327831 0.764758 0.649791
O O8 0.275593 0.000000 0.615330
O O9 0.279801 0.500000 0.107347
O O10 0.331076 0.745201 0.097349
O O11 0.250000 0.750000 0.000000
O O12 0.125797 0.500000 0.279282
O O13 0.125832 0.732083 0.128269
O O14 0.543172 0.500000 0.852174
O O15 0.579040 0.767530 0.909200
O O16 0.500000 0.689226 0.000000
O O17 0.630387 0.000000 0.976588
#
# Coordination Sequence:
#
# PCOD9209426 Si02
#       6
#     8   8   8   8   8   8
#     4  10  21  38  62  90 119 158 203 248 298 357
#     4  10  22  40  59  85 121 160 199 245 297 354
#     4  11  22  38  60  89 122 154 198 249 298 355
#     4   9  18  36  59  83 116 154 197 244 295 353
#     4  11  23  38  58  89 124 157 196 247 301 357
#     4  11  21  37  63  89 117 159 203 251 301 348
#
# _framework density 18.253223999999999
#
# number of rings (size 3 to 8) (size 9 to 14) (size 15 to 20)
#    0.000    1.667    3.333    1.500    0.000    3.667 
#    0.000    2.500    0.000    0.000    0.000    0.000 
#    0.000    0.000    0.000    0.000    0.000    0.000 
#
# Total GULP energy -134037.909885 kJ/mol
# GULP energy per Si atom -5584.912912 kJ/mol
# Density = 1.821168 g / cm^3
# Si number density = 18.253224 Si / 1000 Ang^3
#
#
#
# Elastic Constant Matrix: (Units=GPa)
#
#
# Indices 1 2 3 4 5 6 
#
# 1 165.3937 33.5583 90.7243 0.0000 4.5724 0.0000
# 2 33.5583 30.5718 43.5689 0.0000 -4.3248 0.0000
# 3 90.7243 43.5689 164.8776 0.0000 6.1432 0.0000
# 4 0.0000 0.0000 0.0000 25.1153 0.0000 2.8723
# 5 4.5724 -4.3248 6.1432 0.0000 30.5228 0.0000
# 6 0.0000 0.0000 0.0000 2.8723 0.0000 28.6961
#
#
#
# Elastic Compliance Matrix: (Units=1/GPa)
#
#
# Indices 1 2 3 4 5 6 
#
# 1 0.009088 -0.004987 -0.003633 0.000000 -0.001337 0.000000
# 2 -0.004987 0.058632 -0.013185 0.000000 0.011708 0.000000
# 3 -0.003633 -0.013185 0.011685 0.000000 -0.003676 0.000000
# 4 0.000000 0.000000 0.000000 0.040277 0.000000 -0.004031
# 5 -0.001337 0.011708 -0.003676 0.000000 0.035361 0.000000
# 6 0.000000 0.000000 0.000000 -0.004031 0.000000 0.035251
#
#
# Mechanical properties :
#
#
# Convention : Reuss Voigt Hill
#
# Bulk Modulus (GPa) = 27.93800 77.39403 52.66601
# Shear Modulus (GPa) = 20.33864 29.73296 25.03580
#
# Velocity S-wave (km/s) = 3.34166 4.04036 3.70751
# Velocity P-wave (km/s) = 5.49799 8.01613 6.87336
#
# Compressibility (1/GPa) = 0.03579355
#
# Stress axis : x y z
#
# Youngs Moduli (GPa) = 110.03720 17.05564 85.57764
#
# Poissons Ratio (x) = 0.08506 0.31089
# Poissons Ratio (y) = 0.54880 1.12837
# Poissons Ratio (z) = 0.39975 0.22488
#
# Static dielectric constant tensor:
#      x y z
#    x 1.572760 0.000000 -0.000290 
#    y 0.000000 1.615680 0.000000 
#    z -0.000290 0.000000 1.589400 
# 
# From -- ./inp_files/108632.got.cif
#   From: 2010.05.17/outbox.cif.g08.bks.cpg/sg12_55_cif.got.tgz:108632.got - 2010.06.03 13:09:07.
