data_PCOD9209251
_publ_section_title
;
Structure prediction by ZEFSAII (Michael W. Deem and Ramdas Pophale) SiO2 
 PCOD9209251
Probable space group: C 2/M
;
_chemical_formula_sum "Si O2"
_cell_formula_units_Z 56
_cell_length_a 16.647458
_cell_length_b 16.269532
_cell_length_c 12.558936
_cell_angle_alpha 90.000000
_cell_angle_beta 122.110872
_cell_angle_gamma 90.000000
_cell_volume 2881.177738
_symmetry_space_group_name_H-M "C 2/M"
_symmetry_group_IT_number 12
_symmetry_cell_setting 'monoclinic'
loop_
_space_group_symop_operation_xyz
x,y,z
-x,y,-z
-x,-y,-z
x,-y,z
1/2+x,1/2+y,z
1/2-x,1/2+y,-z
1/2-x,1/2-y,-z
1/2+x,1/2-y,z
loop_
_atom_site_type_symbol
_atom_site_label
_atom_site_fract_x
_atom_site_fract_y
_atom_site_fract_z
Si Si1 0.983691 0.500000 0.183241
Si Si2 0.904699 0.352364 0.257087
Si Si3 0.015966 0.094588 0.883840
Si Si4 0.145497 0.500000 0.118812
Si Si5 0.704851 0.314921 0.047880
Si Si6 0.397082 0.739893 0.443556
Si Si7 0.562725 0.746534 0.286673
Si Si8 0.198328 0.320975 0.215046
O O1 0.966694 0.424704 0.251527
O O2 0.077795 0.500000 0.176847
O O3 0.907313 0.500000 0.032474
O O4 0.795203 0.366184 0.152552
O O5 0.906749 0.324450 0.381787
O O6 0.954556 0.275605 0.231878
O O7 0.946469 0.157070 0.773337
O O8 0.004902 0.000000 0.842564
O O9 0.123068 0.127576 0.945767
O O10 0.000000 0.098898 0.000000
O O11 0.195836 0.411490 0.162796
O O12 0.669926 0.252882 0.115226
O O13 0.750000 0.250000 0.000000
O O14 0.500000 0.697116 0.500000
O O15 0.388090 0.748512 0.563403
O O16 0.304549 0.696789 0.330883
O O17 0.620845 0.808294 0.252887
#
# Coordination Sequence:
#
# PCOD9209251 Si02
#       8
#     4   8   8   4   8   8   8   8
#     4  11  22  38  60  97 135 159 201 264 316 373
#     4  10  21  38  61  90 125 161 207 258 313 369
#     4  11  24  40  62  95 130 161 207 259 313 379
#     4  11  24  36  62 102 131 160 208 254 318 376
#     4  11  21  37  60  89 125 169 203 248 317 374
#     4   9  22  42  64  87 116 167 217 256 308 372
#     4  11  20  41  67  85 122 170 215 255 309 376
#     4  11  22  40  63  89 125 166 210 258 307 377
#
# _framework density 19.436496000000002
#
# number of rings (size 3 to 8) (size 9 to 14) (size 15 to 20)
#    0.000    1.429    4.286    1.286    1.000    0.000 
#    2.571    4.286    0.000    0.000    0.000    0.000 
#    0.000    0.000    0.000    0.000    0.000    0.000 
#
# Total GULP energy -155973.608626 kJ/mol
# GULP energy per Si atom -5570.486022 kJ/mol
# Density = 1.939226 g / cm^3
# Si number density = 19.436496 Si / 1000 Ang^3
#
#
#
# Elastic Constant Matrix: (Units=GPa)
#
#
# Indices 1 2 3 4 5 6 
#
# 1 49.3264 15.2409 19.1819 0.0000 -3.7074 0.0000
# 2 15.2409 97.2658 18.1293 0.0000 -0.9485 0.0000
# 3 19.1819 18.1293 51.7511 0.0000 -2.6680 0.0000
# 4 0.0000 0.0000 0.0000 12.2068 0.0000 -2.5695
# 5 -3.7074 -0.9485 -2.6680 0.0000 34.7836 0.0000
# 6 0.0000 0.0000 0.0000 -2.5695 0.0000 19.7195
#
#
#
# Elastic Compliance Matrix: (Units=1/GPa)
#
#
# Indices 1 2 3 4 5 6 
#
# 1 0.024269 -0.002274 -0.008101 0.000000 0.001903 0.000000
# 2 -0.002274 0.011212 -0.003094 0.000000 -0.000174 0.000000
# 3 -0.008101 -0.003094 0.023454 0.000000 0.000851 0.000000
# 4 0.000000 0.000000 0.000000 0.084232 0.000000 0.010976
# 5 0.001903 -0.000174 0.000851 0.000000 0.029013 0.000000
# 6 0.000000 0.000000 0.000000 0.010976 0.000000 0.052142
#
#
# Mechanical properties :
#
#
# Convention : Reuss Voigt Hill
#
# Bulk Modulus (GPa) = 31.25259 33.71637 32.48448
# Shear Modulus (GPa) = 19.08945 23.06139 21.07542
#
# Velocity S-wave (km/s) = 3.13732 3.44830 3.29648
# Velocity P-wave (km/s) = 5.40721 5.76532 5.58914
#
# Compressibility (1/GPa) = 0.03199734
#
# Stress axis : x y z
#
# Youngs Moduli (GPa) = 41.20476 89.18662 42.63749
#
# Poissons Ratio (x) = 0.20284 0.34539
# Poissons Ratio (y) = 0.09371 0.13191
# Poissons Ratio (z) = 0.33378 0.27593
#
# Static dielectric constant tensor:
#      x y z
#    x 1.764230 0.000000 -0.031670 
#    y 0.000000 1.711270 0.000000 
#    z -0.031670 0.000000 1.725100 
# 
# From -- ./inp_files/156778.got.cif
#   From: 2010.05.17/outbox.cif.g08.bks.cpg/sg12_79_cif.got.tgz:156778.got - 2010.06.03 13:09:07.
