data_PCOD9209193
_publ_section_title
;
Structure prediction by ZEFSAII (Michael W. Deem and Ramdas Pophale) SiO2 
 PCOD9209193
Probable space group: C 2/M
;
_chemical_formula_sum "Si O2"
_cell_formula_units_Z 56
_cell_length_a 32.489780
_cell_length_b 14.428255
_cell_length_c 9.534613
_cell_angle_alpha 90.000000
_cell_angle_beta 45.312825
_cell_angle_gamma 90.000000
_cell_volume 3177.656328
_symmetry_space_group_name_H-M "C 2/M"
_symmetry_group_IT_number 12
_symmetry_cell_setting 'monoclinic'
loop_
_space_group_symop_operation_xyz
x,y,z
-x,y,-z
-x,-y,-z
x,-y,z
1/2+x,1/2+y,z
1/2-x,1/2+y,-z
1/2-x,1/2-y,-z
1/2+x,1/2-y,z
loop_
_atom_site_type_symbol
_atom_site_label
_atom_site_fract_x
_atom_site_fract_y
_atom_site_fract_z
Si Si1 0.494459 0.801609 0.177030
Si Si2 0.890316 0.298066 0.912980
Si Si3 0.593021 0.000000 0.212059
Si Si4 0.391114 0.737403 0.598881
Si Si5 0.797016 0.608012 0.749435
Si Si6 0.969739 0.500000 0.347898
Si Si7 0.264965 0.256920 0.302009
Si Si8 0.288109 0.392557 0.779120
O O1 0.555917 0.795695 0.109505
O O2 0.447968 0.737768 0.367681
O O3 0.470455 0.906629 0.256285
O O4 0.500000 0.781286 0.000000
O O5 0.876443 0.405860 0.908661
O O6 0.906642 0.253300 0.724269
O O7 0.833404 0.250253 0.110310
O O8 0.531026 0.000000 0.283273
O O9 0.577389 0.000000 0.414240
O O10 0.351389 0.825195 0.647368
O O11 0.349803 0.649371 0.677271
O O12 0.810717 0.500000 0.695256
O O13 0.762139 0.651321 0.702794
O O14 0.755519 0.616958 0.984662
O O15 0.250000 0.250000 0.500000
O O16 0.236064 0.171836 0.286398
O O17 0.291520 0.500000 0.732558
#
# Coordination Sequence:
#
# PCOD9209193 Si02
#       8
#     8   8   4   8   8   4   8   8
#     4  11  24  35  54  84 120 158 189 240 297 345
#     4  11  21  37  57  83 115 157 197 234 287 351
#     4   9  18  30  54  82 108 156 196 229 269 341
#     4  11  20  37  61  86 114 155 197 238 286 346
#     4  10  21  38  61  89 117 151 195 243 289 344
#     4   9  17  34  50  76 118 150 194 226 277 344
#     4  11  23  38  59  89 124 153 192 240 296 353
#     4  10  21  40  65  88 113 151 198 249 291 340
#
# _framework density 17.623052000000001
#
# number of rings (size 3 to 8) (size 9 to 14) (size 15 to 20)
#    0.000    1.571    4.286    1.500    7.000    0.571 
#    0.000    0.000    0.000    3.000    0.000    0.000 
#    0.000    0.000    0.000    0.000    0.000    0.000 
#
# Total GULP energy -156394.951903 kJ/mol
# GULP energy per Si atom -5585.533997 kJ/mol
# Density = 1.758294 g / cm^3
# Si number density = 17.623052 Si / 1000 Ang^3
#
#
#
# Elastic Constant Matrix: (Units=GPa)
#
#
# Indices 1 2 3 4 5 6 
#
# 1 105.4242 25.9075 55.6055 0.0000 10.5275 0.0000
# 2 25.9075 64.2320 14.4421 0.0000 6.4283 0.0000
# 3 55.6055 14.4421 105.6859 0.0000 20.9957 0.0000
# 4 0.0000 0.0000 0.0000 16.1468 0.0000 -4.1879
# 5 10.5275 6.4283 20.9957 0.0000 29.7111 0.0000
# 6 0.0000 0.0000 0.0000 -4.1879 0.0000 20.4763
#
#
#
# Elastic Compliance Matrix: (Units=1/GPa)
#
#
# Indices 1 2 3 4 5 6 
#
# 1 0.014147 -0.004210 -0.007042 0.000000 0.000874 0.000000
# 2 -0.004210 0.017444 0.000331 0.000000 -0.002517 0.000000
# 3 -0.007042 0.000331 0.014704 0.000000 -0.007968 0.000000
# 4 0.000000 0.000000 0.000000 0.065401 0.000000 0.013376
# 5 0.000874 -0.002517 -0.007968 0.000000 0.039523 0.000000
# 6 0.000000 0.000000 0.000000 0.013376 0.000000 0.051573
#
#
# Mechanical properties :
#
#
# Convention : Reuss Voigt Hill
#
# Bulk Modulus (GPa) = 40.89234 51.91691 46.40462
# Shear Modulus (GPa) = 21.47912 25.22598 23.35255
#
# Velocity S-wave (km/s) = 3.49493 3.78752 3.64416
# Velocity P-wave (km/s) = 6.28811 6.97500 6.64044
#
# Compressibility (1/GPa) = 0.02445446
#
# Stress axis : x y z
#
# Youngs Moduli (GPa) = 70.68689 57.32593 68.00671
#
# Poissons Ratio (x) = 0.24136 0.47887
# Poissons Ratio (y) = 0.29761 -0.02254
# Poissons Ratio (z) = 0.49775 -0.01900
#
# Static dielectric constant tensor:
#      x y z
#    x 1.605100 0.000000 -0.013840 
#    y 0.000000 1.599890 0.000000 
#    z -0.013840 0.000000 1.580240 
# 
# From -- ./inp_files/104477.got.cif
#   From: 2010.05.17/outbox.cif.g08.bks.cpg/sg12_53_cif.got.tgz:104477.got - 2010.06.03 13:09:07.
