data_PCOD9209993
_publ_section_title
;
Structure prediction by ZEFSAII (Michael W. Deem and Ramdas Pophale) SiO2 
 PCOD9209993
Probable space group: C 2/M
;
_chemical_formula_sum "Si O2"
_cell_formula_units_Z 40
_cell_length_a 14.369621
_cell_length_b 24.790856
_cell_length_c 11.586640
_cell_angle_alpha 90.000000
_cell_angle_beta 150.494863
_cell_angle_gamma 90.000000
_cell_volume 2032.834341
_symmetry_space_group_name_H-M "C 2/M"
_symmetry_group_IT_number 12
_symmetry_cell_setting 'monoclinic'
loop_
_space_group_symop_operation_xyz
x,y,z
-x,y,-z
-x,-y,-z
x,-y,z
1/2+x,1/2+y,z
1/2-x,1/2+y,-z
1/2-x,1/2-y,-z
1/2+x,1/2-y,z
loop_
_atom_site_type_symbol
_atom_site_label
_atom_site_fract_x
_atom_site_fract_y
_atom_site_fract_z
Si Si1 0.784937 0.658594 0.106244
Si Si2 0.722136 0.864919 0.530618
Si Si3 0.290125 0.735232 0.760086
Si Si4 0.271015 0.060571 0.253502
Si Si5 0.547066 0.337492 0.427861
O O1 0.779059 0.704832 0.198395
O O2 0.716541 0.604354 0.098519
O O3 0.997500 0.646617 0.293369
O O4 0.644263 0.671499 0.850867
O O5 0.808147 0.811439 0.683339
O O6 0.774449 0.914208 0.671051
O O7 0.809866 0.869824 0.499690
O O8 0.149450 0.781121 0.566948
O O9 0.500000 0.758613 0.000000
O O10 0.500000 0.059416 0.500000
O O11 0.202334 0.000000 0.160938
O O12 0.500000 0.363536 0.500000
#
# Coordination Sequence:
#
# PCOD9209993 Si02
#       5
#     8   8   8   8   8
#     4  10  22  40  58  85 121 145 189 245 283 335
#     4  10  21  39  58  85 118 148 185 242 288 333
#     4  11  22  37  58  81 114 154 195 240 285 329
#     4   8  16  36  68  95 111 138 182 238 301 342
#     4  12  26  37  54  80 117 162 202 225 275 341
#
# _framework density 19.676960999999999
#
# number of rings (size 3 to 8) (size 9 to 14) (size 15 to 20)
#    0.000    1.800    2.000    3.600    2.800    1.600 
#    0.000    2.000    0.000    2.400    0.000    5.600 
#    0.000    0.000    0.000    0.000    0.000    0.000 
#
# Total GULP energy -111807.750456 kJ/mol
# GULP energy per Si atom -5590.387523 kJ/mol
# Density = 1.963217 g / cm^3
# Si number density = 19.676961 Si / 1000 Ang^3
#
#
#
# Elastic Constant Matrix: (Units=GPa)
#
#
# Indices 1 2 3 4 5 6 
#
# 1 144.7249 13.9434 20.2846 0.0000 -18.7029 0.0000
# 2 13.9434 80.0360 26.6875 0.0000 -16.8760 0.0000
# 3 20.2846 26.6875 110.3657 0.0000 -13.2667 0.0000
# 4 0.0000 0.0000 0.0000 7.6602 0.0000 0.1141
# 5 -18.7029 -16.8760 -13.2667 0.0000 29.9505 0.0000
# 6 0.0000 0.0000 0.0000 0.1141 0.0000 9.8264
#
#
#
# Elastic Compliance Matrix: (Units=1/GPa)
#
#
# Indices 1 2 3 4 5 6 
#
# 1 0.007596 -0.000136 -0.000847 0.000000 0.004292 0.000000
# 2 -0.000136 0.014929 -0.002729 0.000000 0.007118 0.000000
# 3 -0.000847 -0.002729 0.010170 0.000000 0.002438 0.000000
# 4 0.000000 0.000000 0.000000 0.130567 0.000000 -0.001515
# 5 0.004292 0.007118 0.002438 0.000000 0.041159 0.000000
# 6 0.000000 0.000000 0.000000 -0.001515 0.000000 0.101784
#
#
# Mechanical properties :
#
#
# Convention : Reuss Voigt Hill
#
# Bulk Modulus (GPa) = 39.57358 50.77306 45.17332
# Shear Modulus (GPa) = 15.52542 27.76818 21.64680
#
# Velocity S-wave (km/s) = 2.81199 3.76067 3.32039
# Velocity P-wave (km/s) = 5.54061 6.68702 6.14062
#
# Compressibility (1/GPa) = 0.02526938
#
# Stress axis : x y z
#
# Youngs Moduli (GPa) = 131.64614 66.98351 98.33295
#
# Poissons Ratio (x) = 0.00910 0.08333
# Poissons Ratio (y) = 0.01789 0.26839
# Poissons Ratio (z) = 0.11156 0.18282
#
# Static dielectric constant tensor:
#      x y z
#    x 1.746270 0.000000 0.045020 
#    y 0.000000 1.666200 0.000000 
#    z 0.045020 0.000000 1.727740 
# 
# From -- ./inp_files/148799.got.cif
#   From: 2010.05.17/outbox.cif.g08.bks.cpg/sg12_75_cif.got.tgz:148799.got - 2010.06.03 13:09:07.
