data_PCOD9209764
_publ_section_title
;
Structure prediction by ZEFSAII (Michael W. Deem and Ramdas Pophale) SiO2 
 PCOD9209764
Probable space group: C 2/M
;
_chemical_formula_sum "Si O2"
_cell_formula_units_Z 48
_cell_length_a 22.009514
_cell_length_b 19.328765
_cell_length_c 13.819978
_cell_angle_alpha 90.000000
_cell_angle_beta 19.795682
_cell_angle_gamma 90.000000
_cell_volume 1991.107947
_symmetry_space_group_name_H-M "C 2/M"
_symmetry_group_IT_number 12
_symmetry_cell_setting 'monoclinic'
loop_
_space_group_symop_operation_xyz
x,y,z
-x,y,-z
-x,-y,-z
x,-y,z
1/2+x,1/2+y,z
1/2-x,1/2+y,-z
1/2-x,1/2-y,-z
1/2+x,1/2-y,z
loop_
_atom_site_type_symbol
_atom_site_label
_atom_site_fract_x
_atom_site_fract_y
_atom_site_fract_z
Si Si1 0.106439 0.418815 0.483945
Si Si2 0.987710 0.814479 0.427176
Si Si3 0.560703 0.783322 0.805659
Si Si4 0.627942 0.203268 0.107034
Si Si5 0.764347 0.579032 0.496206
Si Si6 0.422673 0.581804 0.875573
O O1 0.417236 0.500000 0.861444
O O2 0.228241 0.413834 0.398861
O O3 0.229493 0.397735 0.208466
O O4 0.932646 0.373548 0.767867
O O5 0.948039 0.744974 0.432044
O O6 0.250000 0.750000 0.000000
O O7 0.145658 0.822501 0.277808
O O8 0.014561 0.874573 0.311421
O O9 0.750000 0.750000 0.500000
O O10 0.425845 0.771866 0.920338
O O11 0.596337 0.865802 0.753903
O O12 0.500000 0.758042 0.000000
O O13 0.815248 0.500000 0.397485
O O14 0.572662 0.591875 0.733874
O O15 0.939466 0.500000 0.459749
#
# Coordination Sequence:
#
# PCOD9209764 Si02
#       6
#     8   8   8   8   8   8
#     4   9  19  38  65  96 125 154 201 260 315 368
#     4  11  26  42  61  82 125 169 210 252 300 368
#     4  11  25  41  66  97 129 160 207 262 319 376
#     4  10  25  41  63  89 120 166 207 251 313 369
#     4   9  19  38  63  95 129 162 198 251 316 374
#     4  10  21  38  64  94 125 163 207 254 306 367
#
# _framework density 24.107182999999999
#
# number of rings (size 3 to 8) (size 9 to 14) (size 15 to 20)
#    0.000    2.000    0.000    1.500    9.333    7.333 
#    0.000    1.667    0.000    0.000    0.000    0.000 
#    0.000    0.000    0.000    0.000    0.000    0.000 
#
# Total GULP energy -133879.640964 kJ/mol
# GULP energy per Si atom -5578.318373 kJ/mol
# Density = 2.405231 g / cm^3
# Si number density = 24.107183 Si / 1000 Ang^3
#
#
#
# Elastic Constant Matrix: (Units=GPa)
#
#
# Indices 1 2 3 4 5 6 
#
# 1 170.6669 56.4429 93.4251 0.0037 8.2217 0.0001
# 2 56.4429 90.9878 57.1595 0.0023 17.8137 -0.0032
# 3 93.4251 57.1595 143.9626 0.0000 24.3287 -0.0005
# 4 0.0037 0.0023 0.0000 27.2911 0.0042 -1.6066
# 5 8.2217 17.8137 24.3287 0.0042 50.9195 0.0011
# 6 0.0001 -0.0032 -0.0005 -1.6066 0.0011 36.9536
#
#
#
# Elastic Compliance Matrix: (Units=1/GPa)
#
#
# Indices 1 2 3 4 5 6 
#
# 1 0.009763 -0.003017 -0.005493 -0.000001 0.002104 0.000000
# 2 -0.003017 0.015886 -0.003799 0.000000 -0.003255 0.000001
# 3 -0.005493 -0.003799 0.012668 0.000002 -0.003836 0.000000
# 4 -0.000001 0.000000 0.000002 0.036736 -0.000003 0.001597
# 5 0.002104 -0.003255 -0.003836 -0.000003 0.022271 -0.000001
# 6 0.000000 0.000001 0.000000 0.001597 -0.000001 0.027130
#
#
# Mechanical properties :
#
#
# Convention : Reuss Voigt Hill
#
# Bulk Modulus (GPa) = 73.00639 91.07469 82.04054
# Shear Modulus (GPa) = 32.54354 36.27217 34.40786
#
# Velocity S-wave (km/s) = 3.67816 3.88315 3.78204
# Velocity P-wave (km/s) = 6.95617 7.61356 7.29227
#
# Compressibility (1/GPa) = 0.01369743
#
# Stress axis : x y z
#
# Youngs Moduli (GPa) = 102.42801 62.94717 78.93921
#
# Poissons Ratio (x) = 0.18993 0.43363
# Poissons Ratio (y) = 0.30905 0.29992
# Poissons Ratio (z) = 0.56266 0.23916
#
# Static dielectric constant tensor:
#      x y z
#    x 1.862420 0.000000 0.094790 
#    y 0.000000 1.765290 -0.000020 
#    z 0.094790 -0.000020 1.524320 
# 
# From -- ./inp_files/132508.got.cif
#   From: 2010.05.17/outbox.cif.g08.bks.cpg/sg12_67_cif.got.tgz:132508.got - 2010.06.03 13:09:07.
