data_PCOD9209050
_publ_section_title
;
Structure prediction by ZEFSAII (Michael W. Deem and Ramdas Pophale) SiO2 
 PCOD9209050
Probable space group: C 2/M
;
_chemical_formula_sum "Si O2"
_cell_formula_units_Z 40
_cell_length_a 16.184025
_cell_length_b 26.286685
_cell_length_c 8.370894
_cell_angle_alpha 90.000000
_cell_angle_beta 142.815958
_cell_angle_gamma 90.000000
_cell_volume 2152.297527
_symmetry_space_group_name_H-M "C 2/M"
_symmetry_group_IT_number 12
_symmetry_cell_setting 'monoclinic'
loop_
_space_group_symop_operation_xyz
x,y,z
-x,y,-z
-x,-y,-z
x,-y,z
1/2+x,1/2+y,z
1/2-x,1/2+y,-z
1/2-x,1/2-y,-z
1/2+x,1/2-y,z
loop_
_atom_site_type_symbol
_atom_site_label
_atom_site_fract_x
_atom_site_fract_y
_atom_site_fract_z
Si Si1 0.847834 0.058823 0.837442
Si Si2 0.828300 0.650443 0.561600
Si Si3 0.614697 0.624651 0.806916
Si Si4 0.385346 0.715381 0.957971
Si Si5 0.141512 0.670965 0.018108
O O1 0.745293 0.097386 0.591899
O O2 0.808953 0.000000 0.762099
O O3 0.856037 0.077439 0.032677
O O4 0.000000 0.065480 0.000000
O O5 0.746919 0.693231 0.336631
O O6 0.986923 0.651546 0.757866
O O7 0.820221 0.661604 0.737461
O O8 0.500000 0.613666 0.500000
O O9 0.567535 0.671197 0.848926
O O10 0.751740 0.643573 0.931541
O O11 0.500000 0.724770 0.000000
O O12 0.357268 0.768212 0.002216
#
# Coordination Sequence:
#
# PCOD9209050 Si02
#       5
#     8   8   8   8   8
#     4  10  22  43  66  85 110 152 195 243 298 345
#     4  10  21  38  61  83 121 156 199 236 285 346
#     4  11  23  37  58  89 120 150 199 243 286 341
#     4  11  21  36  56  83 119 167 193 229 282 346
#     4  11  22  36  56  87 121 158 193 237 285 342
#
# _framework density 18.584790999999999
#
# number of rings (size 3 to 8) (size 9 to 14) (size 15 to 20)
#    0.000    1.400    2.000    6.000    2.800    3.600 
#    0.000    5.000    0.000    0.000    0.000    0.000 
#    0.000    0.000    0.000    0.000    0.000    0.000 
#
# Total GULP energy -111824.761495 kJ/mol
# GULP energy per Si atom -5591.238075 kJ/mol
# Density = 1.854249 g / cm^3
# Si number density = 18.584791 Si / 1000 Ang^3
#
#
#
# Elastic Constant Matrix: (Units=GPa)
#
#
# Indices 1 2 3 4 5 6 
#
# 1 59.4178 7.0884 -11.4735 0.0000 15.9205 0.0000
# 2 7.0884 112.4976 33.2685 0.0000 14.9133 0.0000
# 3 -11.4735 33.2685 77.3514 0.0000 2.3190 0.0000
# 4 0.0000 0.0000 0.0000 4.4548 0.0000 -8.8484
# 5 15.9205 14.9133 2.3190 0.0000 24.1831 0.0000
# 6 0.0000 0.0000 0.0000 -8.8484 0.0000 -7.6652
#
#
#
# Elastic Compliance Matrix: (Units=1/GPa)
#
#
# Indices 1 2 3 4 5 6 
#
# 1 0.021428 -0.000627 0.003870 0.000000 -0.014091 0.000000
# 2 -0.000627 0.011110 -0.004692 0.000000 -0.005989 0.000000
# 3 0.003870 -0.004692 0.015554 0.000000 -0.001146 0.000000
# 4 0.000000 0.000000 0.000000 0.068171 0.000000 -0.078694
# 5 -0.014091 -0.005989 -0.001146 0.000000 0.054431 0.000000
# 6 0.000000 0.000000 0.000000 -0.078694 0.000000 -0.039619
#
#
# Mechanical properties :
#
#
# Convention : Reuss Voigt Hill
#
# Bulk Modulus (GPa) = 22.12592 34.11483 28.12038
# Shear Modulus (GPa) = 33.54887 18.88677 26.21782
#
# Velocity S-wave (km/s) = 4.25335 3.19132 3.76002
# Velocity P-wave (km/s) = 6.00438 5.65469 5.83216
#
# Compressibility (1/GPa) = 0.04519585
#
# Stress axis : x y z
#
# Youngs Moduli (GPa) = 46.66851 90.00939 64.29060
#
# Poissons Ratio (x) = 0.05641 -0.24883
# Poissons Ratio (y) = 0.02925 0.30164
# Poissons Ratio (z) = -0.18062 0.42230
#
# Static dielectric constant tensor:
#      x y z
#    x 1.640330 0.000000 -0.005220 
#    y 0.000000 1.617320 0.000000 
#    z -0.005220 0.000000 1.634130 
# 
# From -- ./inp_files/79258.got.cif
#   From: 2010.05.17/outbox.cif.g08.bks.cpg/sg12_40_cif.got.tgz:79258.got - 2010.06.03 13:09:07.
