data_PCOD9209231
_publ_section_title
;
Structure prediction by ZEFSAII (Michael W. Deem and Ramdas Pophale) SiO2 
 PCOD9209231
Probable space group: C 2/M
;
_chemical_formula_sum "Si O2"
_cell_formula_units_Z 64
_cell_length_a 21.068769
_cell_length_b 27.142159
_cell_length_c 17.345438
_cell_angle_alpha 90.000000
_cell_angle_beta 161.696234
_cell_angle_gamma 90.000000
_cell_volume 3115.116847
_symmetry_space_group_name_H-M "C 2/M"
_symmetry_group_IT_number 12
_symmetry_cell_setting 'monoclinic'
loop_
_space_group_symop_operation_xyz
x,y,z
-x,y,-z
-x,-y,-z
x,-y,z
1/2+x,1/2+y,z
1/2-x,1/2+y,-z
1/2-x,1/2-y,-z
1/2+x,1/2-y,z
loop_
_atom_site_type_symbol
_atom_site_label
_atom_site_fract_x
_atom_site_fract_y
_atom_site_fract_z
Si Si1 0.600348 0.310564 0.266211
Si Si2 0.036344 0.370870 0.356547
Si Si3 0.741497 0.555747 0.286407
Si Si4 0.307251 0.143204 0.244840
Si Si5 0.339990 0.635438 0.501220
Si Si6 0.488887 0.055883 0.894922
Si Si7 0.501940 0.787298 0.917432
Si Si8 0.752134 0.365369 0.881158
O O1 0.804918 0.326144 0.459269
O O2 0.604596 0.339094 0.352979
O O3 0.567165 0.252187 0.226197
O O4 0.405838 0.330957 0.996872
O O5 0.170762 0.418639 0.534811
O O6 0.865431 0.367352 0.224268
O O7 0.921641 0.367890 0.143997
O O8 0.819366 0.500000 0.368749
O O9 0.799064 0.593636 0.285449
O O10 0.500000 0.553667 0.000000
O O11 0.500000 0.172888 0.500000
O O12 0.217871 0.584071 0.368463
O O13 0.168418 0.671044 0.269416
O O14 0.534168 0.633048 0.669764
O O15 0.685315 0.086858 0.095444
O O16 0.491872 0.000000 0.868863
O O17 0.500000 0.055156 0.000000
O O18 0.697916 0.816603 0.111798
O O19 0.500000 0.763239 0.000000
#
# Coordination Sequence:
#
# PCOD9209231 Si02
#       8
#     8   8   8   8   8   8   8   8
#     4  12  23  43  64  92 130 172 216 268 319 382
#     4  11  22  38  64  88 123 168 215 266 322 376
#     4  10  21  38  61  89 127 173 217 264 318 377
#     4  10  23  38  60  92 126 168 219 265 316 379
#     4  11  23  44  69  95 131 164 215 271 323 384
#     4  10  23  44  70  99 132 170 212 264 327 389
#     4  11  27  42  64  95 130 171 214 265 324 388
#     4  11  23  43  67  96 129 166 213 272 324 379
#
# _framework density 20.544975999999998
#
# number of rings (size 3 to 8) (size 9 to 14) (size 15 to 20)
#    0.000    1.250    5.000    1.875    3.500    6.750 
#    0.000    1.875    0.000    0.000    0.000    0.000 
#    0.000    0.000    0.000    0.000    0.000    0.000 
#
# Total GULP energy -178494.889348 kJ/mol
# GULP energy per Si atom -5577.965292 kJ/mol
# Density = 2.049822 g / cm^3
# Si number density = 20.544976 Si / 1000 Ang^3
#
#
#
# Elastic Constant Matrix: (Units=GPa)
#
#
# Indices 1 2 3 4 5 6 
#
# 1 86.0222 19.9226 3.1776 0.0004 12.6090 0.0006
# 2 19.9226 103.1514 2.1616 0.0005 23.1335 0.0007
# 3 3.1776 2.1616 57.6264 0.0011 23.3516 0.0012
# 4 0.0004 0.0005 0.0011 -32.7616 0.0001 -48.4192
# 5 12.6090 23.1335 23.3516 0.0001 42.4605 0.0000
# 6 0.0006 0.0007 0.0012 -48.4192 0.0000 -16.2818
#
#
#
# Elastic Compliance Matrix: (Units=1/GPa)
#
#
# Indices 1 2 3 4 5 6 
#
# 1 0.012456 -0.001721 0.000639 0.000000 -0.003113 0.000000
# 2 -0.001721 0.011594 0.002590 0.000000 -0.007230 0.000000
# 3 0.000639 0.002590 0.022994 0.000001 -0.014246 0.000000
# 4 0.000000 0.000000 0.000001 0.008990 -0.000001 -0.026736
# 5 -0.003113 -0.007230 -0.014246 -0.000001 0.036250 0.000000
# 6 0.000000 0.000000 0.000000 -0.026736 0.000000 0.018090
#
#
# Mechanical properties :
#
#
# Convention : Reuss Voigt Hill
#
# Bulk Modulus (GPa) = 19.97630 33.03596 26.50613
# Shear Modulus (GPa) = 40.30784 13.45264 26.88024
#
# Velocity S-wave (km/s) = 4.43417 2.56166 3.62105
# Velocity P-wave (km/s) = 5.99668 4.98640 5.51473
#
# Compressibility (1/GPa) = 0.05005933
#
# Stress axis : x y z
#
# Youngs Moduli (GPa) = 80.28162 86.25109 43.49012
#
# Poissons Ratio (x) = 0.14845 -0.02779
# Poissons Ratio (y) = 0.13817 -0.11263
# Poissons Ratio (z) = -0.05130 -0.22337
#
# Static dielectric constant tensor:
#      x y z
#    x 1.777380 0.000000 -0.025920 
#    y 0.000000 1.756420 0.000000 
#    z -0.025920 0.000000 1.759600 
# 
# From -- ./inp_files/286704.got.cif
#   From: 2010.05.17/outbox.cif.g08.bks.cpg/sg12_144_cif.got.tgz:286704.got - 2010.06.03 13:09:07.
