data_PCOD9209287
_publ_section_title
;
Structure prediction by ZEFSAII (Michael W. Deem and Ramdas Pophale) SiO2 
 PCOD9209287
Probable space group: C 2/M
;
_chemical_formula_sum "Si O2"
_cell_formula_units_Z 56
_cell_length_a 20.429423
_cell_length_b 18.204136
_cell_length_c 23.426095
_cell_angle_alpha 90.000000
_cell_angle_beta 19.554916
_cell_angle_gamma 90.000000
_cell_volume 2916.050311
_symmetry_space_group_name_H-M "C 2/M"
_symmetry_group_IT_number 12
_symmetry_cell_setting 'monoclinic'
loop_
_space_group_symop_operation_xyz
x,y,z
-x,y,-z
-x,-y,-z
x,-y,z
1/2+x,1/2+y,z
1/2-x,1/2+y,-z
1/2-x,1/2-y,-z
1/2+x,1/2-y,z
loop_
_atom_site_type_symbol
_atom_site_label
_atom_site_fract_x
_atom_site_fract_y
_atom_site_fract_z
Si Si1 0.980561 0.307662 0.449595
Si Si2 0.294259 0.415265 0.137914
Si Si3 0.755040 0.171236 0.464849
Si Si4 0.908407 0.085145 0.753432
Si Si5 0.606613 0.086051 0.180856
Si Si6 0.580734 0.364938 0.493707
Si Si7 0.022327 0.588141 0.124321
O O1 0.153901 0.352951 0.277787
O O2 0.000000 0.328804 0.500000
O O3 0.793848 0.325149 0.562398
O O4 0.989781 0.219232 0.440797
O O5 0.222795 0.500000 0.206338
O O6 0.288562 0.404010 0.074121
O O7 0.500000 0.409565 0.000000
O O8 0.750000 0.250000 0.500000
O O9 0.578721 0.126533 0.639501
O O10 0.956590 0.132738 0.315830
O O11 0.998097 0.093580 0.616713
O O12 0.918383 0.000000 0.762721
O O13 0.680305 0.107231 0.945938
O O14 0.628442 0.106227 0.097152
O O15 0.558599 0.000000 0.220295
O O16 0.500000 0.393751 0.500000
O O17 0.815104 0.371320 0.296552
O O18 0.983109 0.500000 0.153561
#
# Coordination Sequence:
#
# PCOD9209287 Si02
#       7
#     8   8   8   8   8   8   8
#     4  10  22  39  58  89 125 165 208 246 309 369
#     4   9  19  36  59  87 122 165 206 250 305 360
#     4  11  19  36  61  84 119 161 204 248 302 366
#     4  11  23  39  65  95 120 158 208 259 309 366
#     4   9  17  33  58  83 116 158 198 248 303 361
#     4  11  23  43  62  87 127 167 201 256 319 366
#     4  10  21  38  61  92 121 154 206 253 305 371
#
# _framework density 19.204059000000001
#
# number of rings (size 3 to 8) (size 9 to 14) (size 15 to 20)
#    0.000    1.857    2.857    0.857    0.000    3.714 
#    5.143    5.714    0.000    0.000    0.000    0.000 
#    0.000    0.000    0.000    0.000    0.000    0.000 
#
# Total GULP energy -156028.144129 kJ/mol
# GULP energy per Si atom -5572.433719 kJ/mol
# Density = 1.916035 g / cm^3
# Si number density = 19.204059 Si / 1000 Ang^3
#
#
#
# Elastic Constant Matrix: (Units=GPa)
#
#
# Indices 1 2 3 4 5 6 
#
# 1 126.4523 25.3069 36.1953 0.0060 -10.5772 0.0047
# 2 25.3069 54.7339 35.4555 -0.0321 -8.9320 0.0023
# 3 36.1953 35.4555 94.0622 0.0055 -8.1103 0.0039
# 4 0.0060 -0.0321 0.0055 2.0779 0.0046 -17.2722
# 5 -10.5772 -8.9320 -8.1103 0.0046 20.9969 -0.0024
# 6 0.0047 0.0023 0.0039 -17.2722 -0.0024 15.0400
#
#
#
# Elastic Compliance Matrix: (Units=1/GPa)
#
#
# Indices 1 2 3 4 5 6 
#
# 1 0.009302 -0.002229 -0.002500 0.000009 0.002772 0.000008
# 2 -0.002229 0.025743 -0.008274 -0.000048 0.006632 -0.000055
# 3 -0.002500 -0.008274 0.014793 0.000021 0.000935 0.000022
# 4 0.000009 -0.000048 0.000021 -0.056313 -0.000003 -0.064671
# 5 0.002772 0.006632 0.000935 -0.000003 0.052205 0.000002
# 6 0.000008 -0.000055 0.000022 -0.064671 0.000002 -0.007780
#
#
# Mechanical properties :
#
#
# Convention : Reuss Voigt Hill
#
# Bulk Modulus (GPa) = 41.96170 52.12933 47.04552
# Shear Modulus (GPa) = 69.54238 19.50900 44.52569
#
# Velocity S-wave (km/s) = 6.02420 3.19074 4.82036
# Velocity P-wave (km/s) = 8.38366 6.38579 7.45198
#
# Compressibility (1/GPa) = 0.02383126
#
# Stress axis : x y z
#
# Youngs Moduli (GPa) = 107.50754 38.84609 67.60128
#
# Poissons Ratio (x) = 0.08658 0.16902
# Poissons Ratio (y) = 0.23962 0.55932
# Poissons Ratio (z) = 0.26879 0.32141
#
# Static dielectric constant tensor:
#      x y z
#    x 1.722260 0.000000 -0.000710 
#    y 0.000000 1.661930 0.000050 
#    z -0.000710 0.000050 1.663250 
# 
# From -- ./inp_files/322630.got.cif
#   From: 2010.05.17/outbox.cif.g08.bks.cpg/sg12_162_cif.got.tgz:322630.got - 2010.06.03 13:09:07.
