data_PCOD9209134
_publ_section_title
;
Structure prediction by ZEFSAII (Michael W. Deem and Ramdas Pophale) SiO2 
 PCOD9209134
Probable space group: C 2/M
;
_chemical_formula_sum "Si O2"
_cell_formula_units_Z 40
_cell_length_a 21.456922
_cell_length_b 8.619632
_cell_length_c 25.441840
_cell_angle_alpha 90.000000
_cell_angle_beta 23.831561
_cell_angle_gamma 90.000000
_cell_volume 1901.248799
_symmetry_space_group_name_H-M "C 2/M"
_symmetry_group_IT_number 12
_symmetry_cell_setting 'monoclinic'
loop_
_space_group_symop_operation_xyz
x,y,z
-x,y,-z
-x,-y,-z
x,-y,z
1/2+x,1/2+y,z
1/2-x,1/2+y,-z
1/2-x,1/2-y,-z
1/2+x,1/2-y,z
loop_
_atom_site_type_symbol
_atom_site_label
_atom_site_fract_x
_atom_site_fract_y
_atom_site_fract_z
Si Si1 0.370764 0.813698 0.863868
Si Si2 0.155921 0.314195 0.410046
Si Si3 0.706903 0.684675 0.589896
Si Si4 0.879815 0.319358 0.155800
Si Si5 0.289771 0.682753 0.120657
O O1 0.543214 0.749703 0.736260
O O2 0.314494 0.771048 0.848285
O O3 0.371491 0.000000 0.866962
O O4 0.250000 0.750000 0.000000
O O5 0.180245 0.500000 0.385127
O O6 0.164488 0.279104 0.465167
O O7 0.291327 0.223809 0.276473
O O8 0.000000 0.274343 0.500000
O O9 0.694906 0.500000 0.595248
O O10 0.750000 0.750000 0.500000
O O11 0.921077 0.500000 0.121734
O O12 0.774073 0.274728 0.187222
O O13 0.034170 0.217637 0.032247
O O14 0.268145 0.500000 0.147563
#
# Coordination Sequence:
#
# PCOD9209134 Si02
#       5
#     8   8   8   8   8
#     4  11  24  41  65  94 127 169 216 265 321 384
#     4  10  23  43  65  87 120 168 214 251 304 380
#     4  11  25  44  67  96 132 172 215 267 322 384
#     4  11  22  36  59  93 126 155 201 264 318 360
#     4  10  21  38  61  87 121 166 208 248 307 383
#
# _framework density 21.038803000000001
#
# number of rings (size 3 to 8) (size 9 to 14) (size 15 to 20)
#    0.000    1.400    0.000    6.000    2.800   10.000 
#    0.000    0.000    0.000    0.000    0.000    0.000 
#    0.000    0.000    0.000    0.000    0.000    0.000 
#
# Total GULP energy -111847.705617 kJ/mol
# GULP energy per Si atom -5592.385281 kJ/mol
# Density = 2.099092 g / cm^3
# Si number density = 21.038803 Si / 1000 Ang^3
#
#
#
# Elastic Constant Matrix: (Units=GPa)
#
#
# Indices 1 2 3 4 5 6 
#
# 1 149.9617 38.3557 38.5543 0.0001 -6.8858 0.0000
# 2 38.3557 20.5863 11.6495 0.0003 -1.6475 -0.0001
# 3 38.5543 11.6495 65.9139 -0.0009 3.3970 -0.0002
# 4 0.0001 0.0003 -0.0009 27.8502 -0.0001 7.8011
# 5 -6.8858 -1.6475 3.3970 -0.0001 37.3525 0.0001
# 6 0.0000 -0.0001 -0.0002 7.8011 0.0001 32.4782
#
#
#
# Elastic Compliance Matrix: (Units=1/GPa)
#
#
# Indices 1 2 3 4 5 6 
#
# 1 0.013694 -0.023087 -0.004026 0.000000 0.001872 0.000000
# 2 -0.023087 0.093294 -0.002991 -0.000001 0.000131 0.000001
# 3 -0.004026 -0.002991 0.018185 0.000001 -0.002528 0.000000
# 4 0.000000 -0.000001 0.000001 0.038496 0.000000 -0.009247
# 5 0.001872 0.000131 -0.002528 0.000000 0.027353 0.000000
# 6 0.000000 0.000001 0.000000 -0.009247 0.000000 0.033011
#
#
# Mechanical properties :
#
#
# Convention : Reuss Voigt Hill
#
# Bulk Modulus (GPa) = 15.39299 45.95343 30.67321
# Shear Modulus (GPa) = 16.34537 29.39634 22.87086
#
# Velocity S-wave (km/s) = 2.79034 3.74203 3.30067
# Velocity P-wave (km/s) = 4.20877 6.36867 5.39786
#
# Compressibility (1/GPa) = 0.06496465
#
# Stress axis : x y z
#
# Youngs Moduli (GPa) = 73.02278 10.71884 54.98931
#
# Poissons Ratio (x) = 0.24746 0.22140
# Poissons Ratio (y) = 1.68585 0.16450
# Poissons Ratio (z) = 0.29401 0.03206
#
# Static dielectric constant tensor:
#      x y z
#    x 1.801570 0.000000 -0.021940 
#    y 0.000000 1.712490 0.000000 
#    z -0.021940 0.000000 1.743800 
# 
# From -- ./inp_files/381960.got.cif
#   From: 2010.05.17/outbox.cif.g08.bks.cpg/sg12_191_cif.got.tgz:381960.got - 2010.06.03 13:09:07.
