data_PCOD9209879
_publ_section_title
;
Structure prediction by ZEFSAII (Michael W. Deem and Ramdas Pophale) SiO2 
 PCOD9209879
Probable space group: C 2/M
;
_chemical_formula_sum "Si O2"
_cell_formula_units_Z 44
_cell_length_a 17.522384
_cell_length_b 12.555469
_cell_length_c 11.297595
_cell_angle_alpha 90.000000
_cell_angle_beta 65.277202
_cell_angle_gamma 90.000000
_cell_volume 2257.675151
_symmetry_space_group_name_H-M "C 2/M"
_symmetry_group_IT_number 12
_symmetry_cell_setting 'monoclinic'
loop_
_space_group_symop_operation_xyz
x,y,z
-x,y,-z
-x,-y,-z
x,-y,z
1/2+x,1/2+y,z
1/2-x,1/2+y,-z
1/2-x,1/2-y,-z
1/2+x,1/2-y,z
loop_
_atom_site_type_symbol
_atom_site_label
_atom_site_fract_x
_atom_site_fract_y
_atom_site_fract_z
Si Si1 0.385171 0.263118 0.859750
Si Si2 0.901948 0.000000 0.440425
Si Si3 0.423863 0.500000 0.786514
Si Si4 0.768358 0.000000 0.738571
Si Si5 0.336188 0.720219 0.379098
Si Si6 0.793409 0.718222 0.157938
Si Si7 0.517387 0.127556 0.628462
O O1 0.428806 0.380704 0.838727
O O2 0.299596 0.265169 0.836338
O O3 0.444607 0.179945 0.754972
O O4 0.357362 0.227313 0.008169
O O5 0.843187 0.000000 0.594949
O O6 0.873534 0.891304 0.397433
O O7 0.003837 0.000000 0.362474
O O8 0.324775 0.500000 0.819630
O O9 0.711713 0.896722 0.776710
O O10 0.250000 0.750000 0.500000
O O11 0.318875 0.708636 0.250635
O O12 0.400136 0.812438 0.378336
O O13 0.500000 0.150947 0.500000
O O14 0.522272 0.000000 0.638238
#
# Coordination Sequence:
#
# PCOD9209879 Si02
#       7
#     8   4   4   4   8   8   8
#     4  10  22  45  66  93 130 171 218 264 317 390
#     4  12  23  39  66  96 129 167 215 272 329 376
#     4  10  21  39  66  97 122 169 216 269 325 379
#     4  10  21  38  66  94 125 167 226 269 310 384
#     4  12  25  42  64  95 129 167 214 270 325 384
#     4  10  23  41  65  95 130 170 216 266 319 382
#     4  11  26  44  65  93 132 173 212 262 326 393
#
# _framework density 19.489075
#
# number of rings (size 3 to 8) (size 9 to 14) (size 15 to 20)
#    0.000    1.273    3.636    1.364    6.364    1.455 
#    3.273    1.818    0.000    0.000    0.000    0.000 
#    0.000    0.000    0.000    0.000    0.000    0.000 
#
# Total GULP energy -122606.445846 kJ/mol
# GULP energy per Si atom -5573.020266 kJ/mol
# Density = 1.944472 g / cm^3
# Si number density = 19.489075 Si / 1000 Ang^3
#
#
#
# Elastic Constant Matrix: (Units=GPa)
#
#
# Indices 1 2 3 4 5 6 
#
# 1 71.8130 43.9910 64.6701 0.0000 -11.6189 0.0000
# 2 43.9910 118.2380 54.0204 0.0000 -13.1372 0.0000
# 3 64.6701 54.0204 143.7677 0.0000 -14.4967 0.0000
# 4 0.0000 0.0000 0.0000 25.8982 0.0000 -16.0027
# 5 -11.6189 -13.1372 -14.4967 0.0000 36.1093 0.0000
# 6 0.0000 0.0000 0.0000 -16.0027 0.0000 37.7016
#
#
#
# Elastic Compliance Matrix: (Units=1/GPa)
#
#
# Indices 1 2 3 4 5 6 
#
# 1 0.026046 -0.005023 -0.009555 0.000000 0.002717 0.000000
# 2 -0.005023 0.011360 -0.001829 0.000000 0.001782 0.000000
# 3 -0.009555 -0.001829 0.012052 0.000000 0.001098 0.000000
# 4 0.000000 0.000000 0.000000 0.052340 0.000000 0.022216
# 5 0.002717 0.001782 0.001098 0.000000 0.029658 0.000000
# 6 0.000000 0.000000 0.000000 0.022216 0.000000 0.035954
#
#
# Mechanical properties :
#
#
# Convention : Reuss Voigt Hill
#
# Bulk Modulus (GPa) = 60.08317 73.24242 66.66280
# Shear Modulus (GPa) = 24.29868 31.35096 27.82482
#
# Velocity S-wave (km/s) = 3.53481 4.01514 3.78261
# Velocity P-wave (km/s) = 6.89608 7.69142 7.30459
#
# Compressibility (1/GPa) = 0.01664360
#
# Stress axis : x y z
#
# Youngs Moduli (GPa) = 38.39324 88.02618 82.97598
#
# Poissons Ratio (x) = 0.44219 0.79281
# Poissons Ratio (y) = 0.19286 0.15178
# Poissons Ratio (z) = 0.36684 0.16102
#
# Static dielectric constant tensor:
#      x y z
#    x 1.682030 0.000000 0.024030 
#    y 0.000000 1.560030 0.000000 
#    z 0.024030 0.000000 1.683370 
# 
# From -- ./inp_files/153474.got.cif
#   From: 2010.05.17/outbox.cif.g08.bks.cpg/sg12_77_cif.got.tgz:153474.got - 2010.06.03 13:09:07.
