data_PCOD9209745
_publ_section_title
;
Structure prediction by ZEFSAII (Michael W. Deem and Ramdas Pophale) SiO2 
 PCOD9209745
Probable space group: C 2/M
;
_chemical_formula_sum "Si O2"
_cell_formula_units_Z 36
_cell_length_a 5.464722
_cell_length_b 27.805504
_cell_length_c 10.920383
_cell_angle_alpha 90.000000
_cell_angle_beta 82.442147
_cell_angle_gamma 90.000000
_cell_volume 1644.929632
_symmetry_space_group_name_H-M "C 2/M"
_symmetry_group_IT_number 12
_symmetry_cell_setting 'monoclinic'
loop_
_space_group_symop_operation_xyz
x,y,z
-x,y,-z
-x,-y,-z
x,-y,z
1/2+x,1/2+y,z
1/2-x,1/2+y,-z
1/2-x,1/2-y,-z
1/2+x,1/2-y,z
loop_
_atom_site_type_symbol
_atom_site_label
_atom_site_fract_x
_atom_site_fract_y
_atom_site_fract_z
Si Si1 0.259112 0.362965 0.960643
Si Si2 0.105073 0.357044 0.702762
Si Si3 0.500000 0.616644 0.500000
Si Si4 0.200768 0.719640 0.166054
Si Si5 0.166697 0.553959 0.365921
O O1 0.233559 0.314273 0.044289
O O2 0.500000 0.387522 0.000000
O O3 0.264919 0.351969 0.816434
O O4 0.000000 0.389223 0.000000
O O5 0.276528 0.353527 0.572522
O O6 0.886470 0.318109 0.724358
O O7 0.979908 0.409536 0.710382
O O8 0.408433 0.581649 0.397326
O O9 0.458417 0.746637 0.169613
O O10 0.210836 0.500000 0.318207
O O11 0.000000 0.550651 0.500000
#
# Coordination Sequence:
#
# PCOD9209745 Si02
#       5
#     8   8   4   8   8
#     4  10  22  37  62  93 123 164 211 266 308 356
#     4  10  23  37  63  92 131 160 208 267 318 376
#     4  10  21  38  64  92 128 164 202 260 331 380
#     4  11  24  41  65  95 124 168 223 266 304 361
#     4   9  19  38  64  93 121 159 213 261 314 379
#
# _framework density 21.885437
#
# number of rings (size 3 to 8) (size 9 to 14) (size 15 to 20)
#    0.000    2.000    0.000    3.000    9.333   12.444 
#    0.000    1.111    0.000    6.667    0.000    0.000 
#    0.000    0.000    0.000    0.000    0.000    0.000 
#
# Total GULP energy -100469.910518 kJ/mol
# GULP energy per Si atom -5581.661695 kJ/mol
# Density = 2.183562 g / cm^3
# Si number density = 21.885437 Si / 1000 Ang^3
#
#
#
# Elastic Constant Matrix: (Units=GPa)
#
#
# Indices 1 2 3 4 5 6 
#
# 1 142.2400 34.9310 32.4415 0.0000 -2.9712 0.0000
# 2 34.9310 97.4477 50.2149 0.0000 -7.1985 0.0000
# 3 32.4415 50.2149 71.7254 0.0000 -7.2084 0.0000
# 4 0.0000 0.0000 0.0000 54.9329 0.0000 -11.3283
# 5 -2.9712 -7.1985 -7.2084 0.0000 33.0664 0.0000
# 6 0.0000 0.0000 0.0000 -11.3283 0.0000 20.8885
#
#
#
# Elastic Compliance Matrix: (Units=1/GPa)
#
#
# Indices 1 2 3 4 5 6 
#
# 1 0.007990 -0.001573 -0.002530 0.000000 -0.000176 0.000000
# 2 -0.001573 0.016400 -0.010659 0.000000 0.001105 0.000000
# 3 -0.002530 -0.010659 0.022792 0.000000 0.002421 0.000000
# 4 0.000000 0.000000 0.000000 0.020496 0.000000 0.011116
# 5 -0.000176 0.001105 0.002421 0.000000 0.030995 0.000000
# 6 0.000000 0.000000 0.000000 0.011116 0.000000 0.053902
#
#
# Mechanical properties :
#
#
# Convention : Reuss Voigt Hill
#
# Bulk Modulus (GPa) = 56.63363 60.73198 58.68280
# Shear Modulus (GPa) = 26.59777 34.69929 30.64853
#
# Velocity S-wave (km/s) = 3.48992 3.98615 3.74626
# Velocity P-wave (km/s) = 6.49407 6.99972 6.75163
#
# Compressibility (1/GPa) = 0.01765735
#
# Stress axis : x y z
#
# Youngs Moduli (GPa) = 125.15430 60.97509 43.87487
#
# Poissons Ratio (x) = 0.09594 0.11101
# Poissons Ratio (y) = 0.19691 0.46766
# Poissons Ratio (z) = 0.31666 0.64993
#
# Static dielectric constant tensor:
#      x y z
#    x 1.919630 0.000000 0.009460 
#    y 0.000000 1.809330 0.000000 
#    z 0.009460 0.000000 1.822390 
# 
# From -- ./inp_files/115505.got.cif
#   From: 2010.05.17/outbox.cif.g08.bks.cpg/sg12_58_cif.got.tgz:115505.got - 2010.06.03 13:09:07.
