data_PCOD9209120
_publ_section_title
;
Structure prediction by ZEFSAII (Michael W. Deem and Ramdas Pophale) SiO2 
 PCOD9209120
Probable space group: C 2/M
;
_chemical_formula_sum "Si O2"
_cell_formula_units_Z 64
_cell_length_a 9.420597
_cell_length_b 15.089292
_cell_length_c 32.064142
_cell_angle_alpha 90.000000
_cell_angle_beta 137.484500
_cell_angle_gamma 90.000000
_cell_volume 3080.196610
_symmetry_space_group_name_H-M "C 2/M"
_symmetry_group_IT_number 12
_symmetry_cell_setting 'monoclinic'
loop_
_space_group_symop_operation_xyz
x,y,z
-x,y,-z
-x,-y,-z
x,-y,z
1/2+x,1/2+y,z
1/2-x,1/2+y,-z
1/2-x,1/2-y,-z
1/2+x,1/2-y,z
loop_
_atom_site_type_symbol
_atom_site_label
_atom_site_fract_x
_atom_site_fract_y
_atom_site_fract_z
Si Si1 0.632111 0.393510 0.487489
Si Si2 0.932689 0.595912 0.730444
Si Si3 0.206259 0.605326 0.014725
Si Si4 0.511114 0.671793 0.372882
Si Si5 0.324016 0.146153 0.297815
Si Si6 0.546390 0.751821 0.818272
Si Si7 0.122758 0.402421 0.600411
Si Si8 0.015580 0.275845 0.904503
O O1 0.500000 0.371472 0.500000
O O2 0.605306 0.500000 0.473943
O O3 0.556314 0.338749 0.431377
O O4 0.878706 0.377094 0.548004
O O5 0.999418 0.500000 0.760771
O O6 0.680962 0.604681 0.677742
O O7 0.027332 0.675313 0.777902
O O8 0.016407 0.606240 0.701294
O O9 0.265948 0.500000 0.025733
O O10 0.376936 0.678104 0.067708
O O11 0.000000 0.610371 0.000000
O O12 0.146337 0.648451 0.956805
O O13 0.420741 0.763430 0.336769
O O14 0.723536 0.655874 0.393654
O O15 0.108071 0.171915 0.228020
O O16 0.296245 0.093788 0.334557
O O17 0.786509 0.724950 0.875009
O O18 0.480740 0.792560 0.848155
O O19 0.133433 0.500000 0.583359
#
# Coordination Sequence:
#
# PCOD9209120 Si02
#       8
#     8   8   8   8   8   8   8   8
#     4  10  21  38  61  87 119 159 203 256 320 384
#     4  11  23  40  63  90 123 163 211 260 310 380
#     4  10  22  41  69 101 132 174 218 258 316 377
#     4  11  22  39  62  88 119 156 202 261 320 374
#     4  11  24  42  61  86 124 164 205 250 312 380
#     4  11  23  41  64  92 128 174 210 251 321 364
#     4  11  23  39  61  88 118 155 203 259 314 371
#     4  11  22  43  67  95 137 173 207 272 314 363
#
# _framework density 20.777895000000001
#
# number of rings (size 3 to 8) (size 9 to 14) (size 15 to 20)
#    0.000    1.250    2.500    4.125    1.750    3.500 
#    0.000    3.125    0.000    0.000    0.000    0.000 
#    0.000    0.000    0.000    0.000    0.000    0.000 
#
# Total GULP energy -178743.807892 kJ/mol
# GULP energy per Si atom -5585.743997 kJ/mol
# Density = 2.073060 g / cm^3
# Si number density = 20.777895 Si / 1000 Ang^3
#
#
#
# Elastic Constant Matrix: (Units=GPa)
#
#
# Indices 1 2 3 4 5 6 
#
# 1 90.0915 29.8282 16.7814 0.0000 9.0901 0.0000
# 2 29.8282 87.6252 15.9477 0.0000 7.7839 0.0000
# 3 16.7814 15.9477 76.5691 0.0000 0.8490 0.0000
# 4 0.0000 0.0000 0.0000 24.0903 0.0000 -15.8599
# 5 9.0901 7.7839 0.8490 0.0000 34.9513 0.0000
# 6 0.0000 0.0000 0.0000 -15.8599 0.0000 34.2334
#
#
#
# Elastic Compliance Matrix: (Units=1/GPa)
#
#
# Indices 1 2 3 4 5 6 
#
# 1 0.012996 -0.003836 -0.002022 0.000000 -0.002477 0.000000
# 2 -0.003836 0.013232 -0.001894 0.000000 -0.001903 0.000000
# 3 -0.002022 -0.001894 0.013891 0.000000 0.000610 0.000000
# 4 0.000000 0.000000 0.000000 0.059728 0.000000 0.027671
# 5 -0.002477 -0.001903 0.000610 0.000000 0.029664 0.000000
# 6 0.000000 0.000000 0.000000 0.027671 0.000000 0.042031
#
#
# Mechanical properties :
#
#
# Convention : Reuss Voigt Hill
#
# Bulk Modulus (GPa) = 40.62551 42.15558 41.39054
# Shear Modulus (GPa) = 25.60797 31.43692 28.52244
#
# Velocity S-wave (km/s) = 3.51445 3.89395 3.70906
# Velocity P-wave (km/s) = 6.00527 6.36787 6.18923
#
# Compressibility (1/GPa) = 0.02461508
#
# Stress axis : x y z
#
# Youngs Moduli (GPa) = 76.94424 75.57532 71.98920
#
# Poissons Ratio (x) = 0.28991 0.14556
# Poissons Ratio (y) = 0.29516 0.13635
# Poissons Ratio (z) = 0.15558 0.14314
#
# Static dielectric constant tensor:
#      x y z
#    x 1.729100 0.000000 0.004210 
#    y 0.000000 1.778400 0.000000 
#    z 0.004210 0.000000 1.736240 
# 
# From -- ./inp_files/372615.got.cif
#   From: 2010.05.17/outbox.cif.g08.bks.cpg/sg12_187_cif.got.tgz:372615.got - 2010.06.03 13:09:07.
