data_PCOD9209945
_publ_section_title
;
Structure prediction by ZEFSAII (Michael W. Deem and Ramdas Pophale) SiO2 
 PCOD9209945
Probable space group: C 2/M
;
_chemical_formula_sum "Si O2"
_cell_formula_units_Z 52
_cell_length_a 24.836518
_cell_length_b 11.169717
_cell_length_c 12.335812
_cell_angle_alpha 90.000000
_cell_angle_beta 132.967819
_cell_angle_gamma 90.000000
_cell_volume 2504.121650
_symmetry_space_group_name_H-M "C 2/M"
_symmetry_group_IT_number 12
_symmetry_cell_setting 'monoclinic'
loop_
_space_group_symop_operation_xyz
x,y,z
-x,y,-z
-x,-y,-z
x,-y,z
1/2+x,1/2+y,z
1/2-x,1/2+y,-z
1/2-x,1/2-y,-z
1/2+x,1/2-y,z
loop_
_atom_site_type_symbol
_atom_site_label
_atom_site_fract_x
_atom_site_fract_y
_atom_site_fract_z
Si Si1 0.627238 0.269716 0.863578
Si Si2 0.788635 0.775860 0.805979
Si Si3 0.537298 0.000000 0.330265
Si Si4 0.540435 0.731579 0.318619
Si Si5 0.082740 0.860963 0.153784
Si Si6 0.351786 0.360155 0.352176
Si Si7 0.115473 0.500000 0.788842
Si Si8 0.310507 0.000000 0.343969
O O1 0.543500 0.308382 0.775377
O O2 0.644056 0.316854 0.766733
O O3 0.633384 0.124933 0.871185
O O4 0.682002 0.308270 0.033466
O O5 0.859430 0.775159 0.826244
O O6 0.732476 0.665279 0.728457
O O7 0.737585 0.884684 0.699949
O O8 0.531117 0.130056 0.267503
O O9 0.473797 0.000000 0.335752
O O10 0.618257 0.000000 0.486300
O O11 0.580152 0.658914 0.278613
O O12 0.589689 0.714468 0.494428
O O13 0.100032 0.000000 0.151458
O O14 0.000000 0.837249 0.000000
O O15 0.369992 0.500000 0.385603
O O16 0.157964 0.500000 0.734604
#
# Coordination Sequence:
#
# PCOD9209945 Si02
#       8
#     8   8   4   8   8   8   4   4
#     4  11  24  41  68  97 136 172 218 267 326 391
#     4  12  25  42  66  99 131 175 218 271 324 387
#     4  10  21  42  66  99 130 173 220 264 323 392
#     4  11  23  46  68  97 130 174 223 266 320 390
#     4  11  24  45  71  95 129 173 223 266 321 393
#     4  12  27  42  65 100 136 171 211 272 336 386
#     4  10  21  38  69  93 130 181 211 266 322 390
#     4  12  21  40  67  95 128 176 224 262 323 383
#
# _framework density 20.765764000000001
#
# number of rings (size 3 to 8) (size 9 to 14) (size 15 to 20)
#    0.000    0.769    5.385    1.615    2.154    4.923 
#    1.385    0.385    0.000    0.000    0.000    0.000 
#    0.000    0.000    0.000    0.000    0.000    0.000 
#
# Total GULP energy -145203.298420 kJ/mol
# GULP energy per Si atom -5584.742247 kJ/mol
# Density = 2.071850 g / cm^3
# Si number density = 20.765764 Si / 1000 Ang^3
#
#
#
# Elastic Constant Matrix: (Units=GPa)
#
#
# Indices 1 2 3 4 5 6 
#
# 1 82.5420 5.0776 9.3762 0.0000 12.4214 0.0000
# 2 5.0776 73.4983 -10.9837 0.0000 6.9369 0.0000
# 3 9.3762 -10.9837 32.7304 0.0000 11.8477 0.0000
# 4 0.0000 0.0000 0.0000 17.9958 0.0000 9.7134
# 5 12.4214 6.9369 11.8477 0.0000 33.5473 0.0000
# 6 0.0000 0.0000 0.0000 9.7134 0.0000 37.2113
#
#
#
# Elastic Compliance Matrix: (Units=1/GPa)
#
#
# Indices 1 2 3 4 5 6 
#
# 1 0.013036 -0.000963 -0.002732 0.000000 -0.003663 0.000000
# 2 -0.000963 0.015282 0.007360 0.000000 -0.005403 0.000000
# 3 -0.002732 0.007360 0.038972 0.000000 -0.014274 0.000000
# 4 0.000000 0.000000 0.000000 0.064682 0.000000 -0.016884
# 5 -0.003663 -0.005403 -0.014274 0.000000 0.037323 0.000000
# 6 0.000000 0.000000 0.000000 -0.016884 0.000000 0.031281
#
#
# Mechanical properties :
#
#
# Convention : Reuss Voigt Hill
#
# Bulk Modulus (GPa) = 13.40119 21.74565 17.57342
# Shear Modulus (GPa) = 22.92329 30.10424 26.51377
#
# Velocity S-wave (km/s) = 3.32610 3.81163 3.57711
# Velocity P-wave (km/s) = 4.60631 5.46498 5.05391
#
# Compressibility (1/GPa) = 0.07462025
#
# Stress axis : x y z
#
# Youngs Moduli (GPa) = 76.71189 65.43601 25.65951
#
# Poissons Ratio (x) = 0.06302 0.07009
# Poissons Ratio (y) = 0.07388 -0.18885
# Poissons Ratio (z) = 0.20955 -0.48161
#
# Static dielectric constant tensor:
#      x y z
#    x 1.734620 0.000000 0.002540 
#    y 0.000000 1.751880 0.000000 
#    z 0.002540 0.000000 1.730970 
# 
# From -- ./inp_files/165156.got.cif
#   From: 2010.05.17/outbox.cif.g08.bks.cpg/sg12_83_cif.got.tgz:165156.got - 2010.06.03 13:09:07.
