data_PCOD9209725
_publ_section_title
;
Structure prediction by ZEFSAII (Michael W. Deem and Ramdas Pophale) SiO2 
 PCOD9209725
Probable space group: C 2/M
;
_chemical_formula_sum "Si O2"
_cell_formula_units_Z 60
_cell_length_a 13.672864
_cell_length_b 19.235931
_cell_length_c 26.983256
_cell_angle_alpha 90.000000
_cell_angle_beta 153.249862
_cell_angle_gamma 90.000000
_cell_volume 3194.306920
_symmetry_space_group_name_H-M "C 2/M"
_symmetry_group_IT_number 12
_symmetry_cell_setting 'monoclinic'
loop_
_space_group_symop_operation_xyz
x,y,z
-x,y,-z
-x,-y,-z
x,-y,z
1/2+x,1/2+y,z
1/2-x,1/2+y,-z
1/2-x,1/2-y,-z
1/2+x,1/2-y,z
loop_
_atom_site_type_symbol
_atom_site_label
_atom_site_fract_x
_atom_site_fract_y
_atom_site_fract_z
Si Si1 0.500000 0.860346 0.000000
Si Si2 0.443124 0.840519 0.797521
Si Si3 0.043302 0.205314 0.778453
Si Si4 0.845679 0.079883 0.745802
Si Si5 0.220195 0.580504 0.001031
Si Si6 0.409387 0.144636 0.584011
Si Si7 0.004939 0.798973 0.648368
Si Si8 0.741346 0.917079 0.381381
O O1 0.297027 0.813387 0.892733
O O2 0.412099 0.903225 0.007796
O O3 0.501476 0.767759 0.797530
O O4 0.239296 0.829119 0.741650
O O5 0.364464 0.890679 0.717542
O O6 0.634483 0.871638 0.917858
O O7 0.973678 0.220304 0.691283
O O8 0.916825 0.136226 0.737850
O O9 0.600403 0.096163 0.650334
O O10 0.024991 0.090857 0.870579
O O11 0.869822 0.000000 0.740557
O O12 0.185786 0.500000 0.972535
O O13 0.485109 0.224760 0.612047
O O14 0.365550 0.121931 0.620490
O O15 0.177938 0.146572 0.451677
O O16 0.000000 0.901730 0.500000
O O17 0.713933 0.000000 0.374104
#
# Coordination Sequence:
#
# PCOD9209725 Si02
#       8
#     4   8   8   8   8   8   8   8
#     4  10  21  38  64  90 121 164 206 256 313 372
#     4  12  22  41  64  91 126 158 209 264 310 369
#     4  11  23  40  63  93 126 161 209 261 310 373
#     4  10  23  43  63  90 127 169 205 253 318 373
#     4  10  22  40  64  91 125 165 208 259 315 375
#     4  11  22  41  65  86 126 167 206 251 311 376
#     4  11  23  39  63  95 119 161 209 257 311 368
#     4  11  23  39  60  90 123 163 207 253 309 367
#
# _framework density 18.783418000000001
#
# number of rings (size 3 to 8) (size 9 to 14) (size 15 to 20)
#    0.000    1.200    5.333    1.000    0.000    4.267 
#    0.000    2.000    0.000    2.400    0.000    0.000 
#    0.000    0.000    0.000    0.000    0.000    0.000 
#
# Total GULP energy -167432.074683 kJ/mol
# GULP energy per Si atom -5581.069156 kJ/mol
# Density = 1.874067 g / cm^3
# Si number density = 18.783418 Si / 1000 Ang^3
#
#
#
# Elastic Constant Matrix: (Units=GPa)
#
#
# Indices 1 2 3 4 5 6 
#
# 1 57.5128 21.0814 15.3964 0.0037 -0.8330 0.0001
# 2 21.0814 79.7228 28.6298 0.0007 3.1064 0.0000
# 3 15.3964 28.6298 24.8457 0.0031 8.3814 0.0017
# 4 0.0037 0.0007 0.0031 23.6877 -0.0015 -2.9925
# 5 -0.8330 3.1064 8.3814 -0.0015 30.2787 0.0002
# 6 0.0001 0.0000 0.0017 -2.9925 0.0002 14.4489
#
#
#
# Elastic Compliance Matrix: (Units=1/GPa)
#
#
# Indices 1 2 3 4 5 6 
#
# 1 0.021474 -0.000904 -0.013783 -0.000001 0.004499 0.000001
# 2 -0.000904 0.022177 -0.026713 0.000004 0.005094 0.000004
# 3 -0.013783 -0.026713 0.086888 -0.000011 -0.021690 -0.000013
# 4 -0.000001 0.000004 -0.000011 0.043350 0.000005 0.008978
# 5 0.004499 0.005094 -0.021690 0.000005 0.038632 0.000003
# 6 0.000001 0.000004 -0.000013 0.008978 0.000003 0.071069
#
#
# Mechanical properties :
#
#
# Convention : Reuss Voigt Hill
#
# Bulk Modulus (GPa) = 20.94722 32.47737 26.71230
# Shear Modulus (GPa) = 13.07867 20.14797 16.61332
#
# Velocity S-wave (km/s) = 2.64159 3.27868 2.97723
# Velocity P-wave (km/s) = 4.52550 5.62681 5.10594
#
# Compressibility (1/GPa) = 0.04773903
#
# Stress axis : x y z
#
# Youngs Moduli (GPa) = 46.56881 45.09146 11.50911
#
# Poissons Ratio (x) = 0.04077 0.15862
# Poissons Ratio (y) = 0.04210 0.30744
# Poissons Ratio (z) = 0.64184 1.20453
#
# Static dielectric constant tensor:
#      x y z
#    x 1.633910 0.000000 -0.002100 
#    y 0.000000 1.635660 0.000000 
#    z -0.002100 0.000000 1.662260 
# 
# From -- ./inp_files/336885.got.cif
#   From: 2010.05.17/outbox.cif.g08.bks.cpg/sg12_169_cif.got.tgz:336885.got - 2010.06.03 13:09:07.
