data_PCOD9209158
_publ_section_title
;
Structure prediction by ZEFSAII (Michael W. Deem and Ramdas Pophale) SiO2 
 PCOD9209158
Probable space group: C 2/M
;
_chemical_formula_sum "Si O2"
_cell_formula_units_Z 64
_cell_length_a 19.375189
_cell_length_b 25.081184
_cell_length_c 16.361775
_cell_angle_alpha 90.000000
_cell_angle_beta 157.334524
_cell_angle_gamma 90.000000
_cell_volume 3063.937224
_symmetry_space_group_name_H-M "C 2/M"
_symmetry_group_IT_number 12
_symmetry_cell_setting 'monoclinic'
loop_
_space_group_symop_operation_xyz
x,y,z
-x,y,-z
-x,-y,-z
x,-y,z
1/2+x,1/2+y,z
1/2-x,1/2+y,-z
1/2-x,1/2-y,-z
1/2+x,1/2-y,z
loop_
_atom_site_type_symbol
_atom_site_label
_atom_site_fract_x
_atom_site_fract_y
_atom_site_fract_z
Si Si1 0.360538 0.902352 0.077855
Si Si2 0.688492 0.117703 0.669343
Si Si3 0.638178 0.435963 0.990717
Si Si4 0.895983 0.832305 0.474353
Si Si5 0.254026 0.287787 0.080255
Si Si6 0.302551 0.735262 0.806890
Si Si7 0.768241 0.562552 0.457750
Si Si8 0.498922 0.557641 0.400888
O O1 0.561790 0.924843 0.298884
O O2 0.278089 0.912515 0.078066
O O3 0.367093 0.840059 0.062403
O O4 0.204014 0.927891 0.849643
O O5 0.500000 0.098805 0.500000
O O6 0.688395 0.182138 0.667938
O O7 0.711048 0.095694 0.603246
O O8 0.832591 0.093970 0.891131
O O9 0.665145 0.500000 0.028878
O O10 0.435895 0.426997 0.736830
O O11 0.746945 0.787729 0.300022
O O12 0.866554 0.893133 0.468083
O O13 0.000000 0.834397 0.500000
O O14 0.044714 0.809812 0.696554
O O15 0.214096 0.255108 0.118516
O O16 0.250000 0.250000 0.000000
O O17 0.500000 0.718369 0.000000
O O18 0.777299 0.500000 0.447272
O O19 0.500000 0.553061 0.500000
O O20 0.548144 0.500000 0.418950
#
# Coordination Sequence:
#
# PCOD9209158 Si02
#       8
#     8   8   8   8   8   8   8   8
#     4  11  22  39  64  90 129 170 209 262 332 386
#     4  12  23  38  66  91 127 178 224 258 313 391
#     4  11  23  40  62  95 135 173 216 264 319 384
#     4   8  17  34  56  79 111 154 196 248 308 373
#     4  10  21  38  61  88 118 160 215 263 317 386
#     4  11  23  41  62  89 127 166 214 273 329 382
#     4  11  24  40  62  97 137 171 214 267 317 389
#     4   9  17  33  61  88 111 152 209 257 315 388
#
# _framework density 20.888157
#
# number of rings (size 3 to 8) (size 9 to 14) (size 15 to 20)
#    0.000    1.625    1.250    5.250    1.750    1.500 
#    4.500    0.625    0.000    0.375    0.000    0.000 
#    0.000    0.000    0.000    0.000    0.000    0.000 
#
# Total GULP energy -178583.682943 kJ/mol
# GULP energy per Si atom -5580.740092 kJ/mol
# Density = 2.084061 g / cm^3
# Si number density = 20.888157 Si / 1000 Ang^3
#
#
#
# Elastic Constant Matrix: (Units=GPa)
#
#
# Indices 1 2 3 4 5 6 
#
# 1 26.8077 19.8614 8.9226 0.0001 -8.8083 0.0000
# 2 19.8614 115.2094 22.1692 0.0001 -20.7734 -0.0001
# 3 8.9226 22.1692 87.0001 0.0005 -8.8420 -0.0001
# 4 0.0001 0.0001 0.0005 -20.1010 0.0002 4.3926
# 5 -8.8083 -20.7734 -8.8420 0.0002 34.0624 0.0000
# 6 0.0000 -0.0001 -0.0001 4.3926 0.0000 11.7701
#
#
#
# Elastic Compliance Matrix: (Units=1/GPa)
#
#
# Indices 1 2 3 4 5 6 
#
# 1 0.044923 -0.005965 -0.002338 0.000000 0.007372 0.000000
# 2 -0.005965 0.010871 -0.001686 0.000000 0.004650 0.000000
# 3 -0.002338 -0.001686 0.012323 0.000000 0.001566 0.000000
# 4 0.000000 0.000000 0.000000 -0.045997 0.000001 0.017166
# 5 0.007372 0.004650 0.001566 0.000001 0.034506 0.000000
# 6 0.000000 0.000000 0.000000 0.017166 0.000000 0.078555
#
#
# Mechanical properties :
#
#
# Convention : Reuss Voigt Hill
#
# Bulk Modulus (GPa) = 20.77343 36.76928 28.77136
# Shear Modulus (GPa) = 29.20489 17.01722 23.11106
#
# Velocity S-wave (km/s) = 3.74325 2.85736 3.32990
# Velocity P-wave (km/s) = 5.35250 5.34108 5.34679
#
# Compressibility (1/GPa) = 0.04813841
#
# Stress axis : x y z
#
# Youngs Moduli (GPa) = 22.26045 91.98781 81.15071
#
# Poissons Ratio (x) = 0.54874 0.18972
# Poissons Ratio (y) = 0.13279 0.13680
# Poissons Ratio (z) = 0.05204 0.15507
#
# Static dielectric constant tensor:
#      x y z
#    x 1.765380 0.000000 -0.007360 
#    y 0.000000 1.801430 0.000000 
#    z -0.007360 0.000000 1.768100 
# 
# From -- ./inp_files/286461.got.cif
#   From: 2010.05.17/outbox.cif.g08.bks.cpg/sg12_144_cif.got.tgz:286461.got - 2010.06.03 13:09:07.
