data_PCOD9209516
_publ_section_title
;
Structure prediction by ZEFSAII (Michael W. Deem and Ramdas Pophale) SiO2 
 PCOD9209516
Probable space group: C 2/M
;
_chemical_formula_sum "Si O2"
_cell_formula_units_Z 56
_cell_length_a 14.701669
_cell_length_b 23.056590
_cell_length_c 14.832779
_cell_angle_alpha 90.000000
_cell_angle_beta 28.161934
_cell_angle_gamma 90.000000
_cell_volume 2372.980494
_symmetry_space_group_name_H-M "C 2/M"
_symmetry_group_IT_number 12
_symmetry_cell_setting 'monoclinic'
loop_
_space_group_symop_operation_xyz
x,y,z
-x,y,-z
-x,-y,-z
x,-y,z
1/2+x,1/2+y,z
1/2-x,1/2+y,-z
1/2-x,1/2-y,-z
1/2+x,1/2-y,z
loop_
_atom_site_type_symbol
_atom_site_label
_atom_site_fract_x
_atom_site_fract_y
_atom_site_fract_z
Si Si1 0.399672 0.436421 0.924136
Si Si2 0.108387 0.184593 0.994638
Si Si3 0.388460 0.568590 0.719381
Si Si4 0.209697 0.617009 0.711227
Si Si5 0.549156 0.063222 0.688483
Si Si6 0.678920 0.753486 0.664838
Si Si7 0.964178 0.655532 0.436559
O O1 0.486379 0.500000 0.867428
O O2 0.471365 0.379935 0.913171
O O3 0.397406 0.425114 0.818914
O O4 0.172815 0.440085 0.146678
O O5 0.034244 0.227255 0.137125
O O6 0.336394 0.179199 0.780418
O O7 0.000000 0.205790 0.000000
O O8 0.365237 0.500000 0.719892
O O9 0.230493 0.603732 0.798813
O O10 0.592187 0.591949 0.504703
O O11 0.055122 0.581501 0.787675
O O12 0.191023 0.683851 0.699799
O O13 0.633112 0.113412 0.552025
O O14 0.640650 0.000000 0.598101
O O15 0.750000 0.750000 0.500000
O O16 0.826619 0.708673 0.581544
O O17 0.000000 0.623494 0.500000
#
# Coordination Sequence:
#
# PCOD9209516 Si02
#       7
#     8   8   8   8   8   8   8
#     4   9  21  41  63  92 127 163 211 270 328 388
#     4  11  24  44  67  96 133 173 220 271 326 390
#     4  10  21  38  62  93 127 167 213 263 326 393
#     4  11  22  38  59  92 125 166 215 266 320 390
#     4  10  21  41  64  91 124 163 214 271 329 388
#     4  12  25  45  65  96 133 173 223 265 330 390
#     4  11  24  44  67  96 134 170 216 277 326 387
#
# _framework density 23.599014
#
# number of rings (size 3 to 8) (size 9 to 14) (size 15 to 20)
#    0.000    1.429    2.857    2.571    2.000    1.714 
#    5.143    2.143    0.000    0.000    0.000    0.000 
#    0.000    0.000    0.000    0.000    0.000    0.000 
#
# Total GULP energy -156492.800588 kJ/mol
# GULP energy per Si atom -5589.028592 kJ/mol
# Density = 2.354530 g / cm^3
# Si number density = 23.599014 Si / 1000 Ang^3
#
#
#
# Elastic Constant Matrix: (Units=GPa)
#
#
# Indices 1 2 3 4 5 6 
#
# 1 58.9428 21.1457 6.0835 -0.0227 10.2604 0.0135
# 2 21.1457 131.5593 26.2344 -0.0252 4.1264 0.0240
# 3 6.0835 26.2344 96.7160 -0.0394 7.2677 -0.0031
# 4 -0.0227 -0.0252 -0.0394 19.6722 0.0265 -0.2861
# 5 10.2604 4.1264 7.2677 0.0265 30.3133 0.0084
# 6 0.0135 0.0240 -0.0031 -0.2861 0.0084 33.6010
#
#
#
# Elastic Compliance Matrix: (Units=1/GPa)
#
#
# Indices 1 2 3 4 5 6 
#
# 1 0.019050 -0.002879 0.000039 0.000026 -0.006065 -0.000004
# 2 -0.002879 0.008481 -0.002145 0.000003 0.000334 -0.000005
# 3 0.000039 -0.002145 0.011098 0.000023 -0.002382 0.000003
# 4 0.000026 0.000003 0.000023 0.050840 -0.000059 0.000433
# 5 -0.006065 0.000334 -0.002382 -0.000059 0.035567 -0.000007
# 6 -0.000004 -0.000005 0.000003 0.000433 -0.000007 0.029765
#
#
# Mechanical properties :
#
#
# Convention : Reuss Voigt Hill
#
# Bulk Modulus (GPa) = 34.89354 43.79392 39.34373
# Shear Modulus (GPa) = 28.68209 32.30094 30.49152
#
# Velocity S-wave (km/s) = 3.49003 3.70366 3.59843
# Velocity P-wave (km/s) = 5.57302 6.07349 5.82863
#
# Compressibility (1/GPa) = 0.02865860
#
# Stress axis : x y z
#
# Youngs Moduli (GPa) = 52.49219 117.90914 90.10776
#
# Poissons Ratio (x) = 0.33951 -0.00348
# Poissons Ratio (y) = 0.15115 0.19324
# Poissons Ratio (z) = -0.00202 0.25286
#
# Static dielectric constant tensor:
#      x y z
#    x 1.962510 0.000000 -0.002900 
#    y 0.000000 1.905780 0.000100 
#    z -0.002900 0.000100 1.972640 
# 
# From -- ./inp_files/218640.got.cif
#   From: 2010.05.17/outbox.cif.g08.bks.cpg/sg12_110_cif.got.tgz:218640.got - 2010.06.03 13:09:07.
