data_PCOD9209560
_publ_section_title
;
Structure prediction by ZEFSAII (Michael W. Deem and Ramdas Pophale) SiO2 
 PCOD9209560
Probable space group: C 2/M
;
_chemical_formula_sum "Si O2"
_cell_formula_units_Z 40
_cell_length_a 23.435720
_cell_length_b 13.583492
_cell_length_c 16.275105
_cell_angle_alpha 90.000000
_cell_angle_beta 19.039568
_cell_angle_gamma 90.000000
_cell_volume 1690.150992
_symmetry_space_group_name_H-M "C 2/M"
_symmetry_group_IT_number 12
_symmetry_cell_setting 'monoclinic'
loop_
_space_group_symop_operation_xyz
x,y,z
-x,y,-z
-x,-y,-z
x,-y,z
1/2+x,1/2+y,z
1/2-x,1/2+y,-z
1/2-x,1/2-y,-z
1/2+x,1/2-y,z
loop_
_atom_site_type_symbol
_atom_site_label
_atom_site_fract_x
_atom_site_fract_y
_atom_site_fract_z
Si Si1 0.543168 0.616670 0.347722
Si Si2 0.153137 0.611213 0.353027
Si Si3 0.848264 0.799920 0.455252
Si Si4 0.519503 0.325897 0.885641
Si Si5 0.048918 0.609959 0.200400
O O1 0.500000 0.646071 0.500000
O O2 0.511599 0.500000 0.385531
O O3 0.430420 0.664071 0.428388
O O4 0.749779 0.633173 0.053443
O O5 0.212612 0.500000 0.248742
O O6 0.000000 0.639550 0.500000
O O7 0.062670 0.605344 0.564381
O O8 0.318916 0.681556 0.130233
O O9 0.649198 0.763708 0.734582
O O10 0.883286 0.868407 0.328043
O O11 0.959177 0.701821 0.278799
O O12 0.500000 0.382332 0.000000
O O13 0.044478 0.500000 0.167860
#
# Coordination Sequence:
#
# PCOD9209560 Si02
#       5
#     8   8   8   8   8
#     4  10  23  43  69 101 138 182 234 283 333 401
#     4  10  21  39  66  97 131 170 218 285 352 408
#     4  11  24  41  66  95 137 184 227 281 339 407
#     4  11  24  42  61  97 139 177 225 269 340 414
#     4  10  21  38  62  98 132 167 222 278 341 406
#
# _framework density 23.666525
#
# number of rings (size 3 to 8) (size 9 to 14) (size 15 to 20)
#    0.000    1.600    2.000    1.800    2.800    4.400 
#    0.000    3.000    0.000    1.200    0.000    0.000 
#    0.000    0.000    0.000    0.000    0.000    0.000 
#
# Total GULP energy -111593.251168 kJ/mol
# GULP energy per Si atom -5579.662558 kJ/mol
# Density = 2.361266 g / cm^3
# Si number density = 23.666525 Si / 1000 Ang^3
#
#
#
# Elastic Constant Matrix: (Units=GPa)
#
#
# Indices 1 2 3 4 5 6 
#
# 1 154.9177 41.2032 72.3823 0.0000 -15.5806 0.0000
# 2 41.2032 96.8882 42.2628 0.0002 -9.4774 -0.0001
# 3 72.3823 42.2628 184.5448 -0.0003 -14.9649 0.0001
# 4 0.0000 0.0002 -0.0003 4.0925 0.0000 25.5504
# 5 -15.5806 -9.4774 -14.9649 0.0000 39.8979 0.0000
# 6 0.0000 -0.0001 0.0001 25.5504 0.0000 -21.7523
#
#
#
# Elastic Compliance Matrix: (Units=1/GPa)
#
#
# Indices 1 2 3 4 5 6 
#
# 1 0.008482 -0.002272 -0.002663 0.000000 0.001774 0.000000
# 2 -0.002272 0.012201 -0.001795 0.000000 0.001338 0.000000
# 3 -0.002663 -0.001795 0.006967 0.000000 0.001147 0.000000
# 4 0.000000 0.000000 0.000000 0.029322 0.000000 0.034442
# 5 0.001774 0.001338 0.001147 0.000000 0.026505 0.000000
# 6 0.000000 0.000000 0.000000 0.034442 0.000000 -0.005517
#
#
# Mechanical properties :
#
#
# Convention : Reuss Voigt Hill
#
# Bulk Modulus (GPa) = 70.46451 83.11635 76.79043
# Shear Modulus (GPa) = 52.00276 23.14778 37.57527
#
# Velocity S-wave (km/s) = 4.69264 3.13082 3.98891
# Velocity P-wave (km/s) = 7.69413 6.94733 7.33025
#
# Compressibility (1/GPa) = 0.01419154
#
# Stress axis : x y z
#
# Youngs Moduli (GPa) = 117.89996 81.96013 143.53306
#
# Poissons Ratio (x) = 0.18622 0.38216
# Poissons Ratio (y) = 0.26788 0.25757
# Poissons Ratio (z) = 0.31391 0.14708
#
# Static dielectric constant tensor:
#      x y z
#    x 2.052260 0.000000 0.066060 
#    y 0.000000 2.020070 0.000000 
#    z 0.066060 0.000000 1.879800 
# 
# From -- ./inp_files/234583.got.cif
#   From: 2010.05.17/outbox.cif.g08.bks.cpg/sg12_118_cif.got.tgz:234583.got - 2010.06.03 13:09:07.
