data_PCOD9209138
_publ_section_title
;
Structure prediction by ZEFSAII (Michael W. Deem and Ramdas Pophale) SiO2 
 PCOD9209138
Probable space group: C 2/M
;
_chemical_formula_sum "Si O2"
_cell_formula_units_Z 56
_cell_length_a 11.376695
_cell_length_b 14.091025
_cell_length_c 17.500987
_cell_angle_alpha 90.000000
_cell_angle_beta 57.848704
_cell_angle_gamma 90.000000
_cell_volume 2375.324871
_symmetry_space_group_name_H-M "C 2/M"
_symmetry_group_IT_number 12
_symmetry_cell_setting 'monoclinic'
loop_
_space_group_symop_operation_xyz
x,y,z
-x,y,-z
-x,-y,-z
x,-y,z
1/2+x,1/2+y,z
1/2-x,1/2+y,-z
1/2-x,1/2-y,-z
1/2+x,1/2-y,z
loop_
_atom_site_type_symbol
_atom_site_label
_atom_site_fract_x
_atom_site_fract_y
_atom_site_fract_z
Si Si1 0.531983 0.260665 0.191693
Si Si2 0.325415 0.609375 0.340224
Si Si3 0.381190 0.613344 0.977521
Si Si4 0.363538 0.393195 0.599466
Si Si5 0.637307 0.208936 0.300868
Si Si6 0.450583 0.112045 0.929200
Si Si7 0.134190 0.392180 0.548903
O O1 0.445129 0.314570 0.287371
O O2 0.572497 0.340304 0.117833
O O3 0.646738 0.215253 0.206804
O O4 0.470354 0.176999 0.160271
O O5 0.366524 0.500000 0.336558
O O6 0.241968 0.627107 0.291661
O O7 0.224423 0.637335 0.444566
O O8 0.388061 0.500000 0.973569
O O9 0.500000 0.643050 0.000000
O O10 0.213059 0.634781 0.032791
O O11 0.500000 0.375793 0.500000
O O12 0.378861 0.500000 0.627344
O O13 0.337026 0.309833 0.668060
O O14 0.236367 0.394214 0.585097
O O15 0.492999 0.172846 0.386319
O O16 0.472112 0.000000 0.909142
O O17 0.500000 0.131316 0.000000
O O18 0.085234 0.500000 0.550979
#
# Coordination Sequence:
#
# PCOD9209138 Si02
#       7
#     8   8   8   8   8   8   8
#     4  12  26  40  67 102 140 173 221 284 350 411
#     4  11  25  43  66  96 134 179 230 289 347 409
#     4  10  23  45  75 106 139 185 234 283 343 422
#     4  10  21  38  61  87 123 172 224 277 336 403
#     4  12  25  39  64  98 134 178 228 289 344 409
#     4  10  24  47  75 103 140 188 232 277 344 429
#     4  10  22  44  66  89 128 181 236 284 340 405
#
# _framework density 23.575721999999999
#
# number of rings (size 3 to 8) (size 9 to 14) (size 15 to 20)
#    0.000    1.286    0.000    4.714    4.000    6.286 
#    0.000    0.714    0.000    0.857    0.000    0.000 
#    0.000    0.000    0.000    0.000    0.000    0.000 
#
# Total GULP energy -156421.824110 kJ/mol
# GULP energy per Si atom -5586.493718 kJ/mol
# Density = 2.352206 g / cm^3
# Si number density = 23.575722 Si / 1000 Ang^3
#
#
#
# Elastic Constant Matrix: (Units=GPa)
#
#
# Indices 1 2 3 4 5 6 
#
# 1 123.5848 28.0537 38.6008 0.0000 20.7702 0.0000
# 2 28.0537 73.0002 28.2149 0.0000 -4.5546 0.0000
# 3 38.6008 28.2149 65.7134 0.0000 17.5407 0.0000
# 4 0.0000 0.0000 0.0000 8.9616 0.0000 8.1876
# 5 20.7702 -4.5546 17.5407 0.0000 40.2174 0.0000
# 6 0.0000 0.0000 0.0000 8.1876 0.0000 19.8147
#
#
#
# Elastic Compliance Matrix: (Units=1/GPa)
#
#
# Indices 1 2 3 4 5 6 
#
# 1 0.010656 -0.002823 -0.003953 0.000000 -0.004099 0.000000
# 2 -0.002823 0.018361 -0.008114 0.000000 0.007076 0.000000
# 3 -0.003953 -0.008114 0.023455 0.000000 -0.009107 0.000000
# 4 0.000000 0.000000 0.000000 0.179263 0.000000 -0.074073
# 5 -0.004099 0.007076 -0.009107 0.000000 0.031755 0.000000
# 6 0.000000 0.000000 0.000000 -0.074073 0.000000 0.081075
#
#
# Mechanical properties :
#
#
# Convention : Reuss Voigt Hill
#
# Bulk Modulus (GPa) = 44.07053 50.22635 47.14844
# Shear Modulus (GPa) = 13.09212 24.96067 19.02639
#
# Velocity S-wave (km/s) = 2.35908 3.25737 2.84392
# Velocity P-wave (km/s) = 5.11411 5.95800 5.55211
#
# Compressibility (1/GPa) = 0.02269090
#
# Stress axis : x y z
#
# Youngs Moduli (GPa) = 93.84343 54.46311 42.63533
#
# Poissons Ratio (x) = 0.15374 0.16856
# Poissons Ratio (y) = 0.26490 0.34595
# Poissons Ratio (z) = 0.37100 0.44193
#
# Static dielectric constant tensor:
#      x y z
#    x 2.096060 0.000000 -0.078690 
#    y 0.000000 1.893340 0.000000 
#    z -0.078690 0.000000 1.907500 
# 
# From -- ./inp_files/263262.got.cif
#   From: 2010.05.17/outbox.cif.g08.bks.cpg/sg12_132_cif.got.tgz:263262.got - 2010.06.03 13:09:07.
