data_PCOD9209754
_publ_section_title
;
Structure prediction by ZEFSAII (Michael W. Deem and Ramdas Pophale) SiO2 
 PCOD9209754
Probable space group: C 2/M
;
_chemical_formula_sum "Si O2"
_cell_formula_units_Z 32
_cell_length_a 9.801348
_cell_length_b 16.761663
_cell_length_c 15.521856
_cell_angle_alpha 90.000000
_cell_angle_beta 145.966169
_cell_angle_gamma 90.000000
_cell_volume 1427.210898
_symmetry_space_group_name_H-M "C 2/M"
_symmetry_group_IT_number 12
_symmetry_cell_setting 'monoclinic'
loop_
_space_group_symop_operation_xyz
x,y,z
-x,y,-z
-x,-y,-z
x,-y,z
1/2+x,1/2+y,z
1/2-x,1/2+y,-z
1/2-x,1/2-y,-z
1/2+x,1/2-y,z
loop_
_atom_site_type_symbol
_atom_site_label
_atom_site_fract_x
_atom_site_fract_y
_atom_site_fract_z
Si Si1 0.787150 0.413801 0.656633
Si Si2 0.279546 0.000000 0.818794
Si Si3 0.010971 0.838858 0.142592
Si Si4 0.209026 0.000000 0.322477
Si Si5 0.858253 0.714897 0.193101
O O1 0.500000 0.410651 0.500000
O O2 0.873672 0.500000 0.664584
O O3 0.825768 0.425131 0.779160
O O4 0.904550 0.338724 0.673192
O O5 0.500000 0.000000 0.000000
O O6 0.004983 0.000000 0.714380
O O7 0.211386 0.781131 0.204199
O O8 0.908845 0.798600 0.175044
O O9 0.137540 0.921974 0.229664
O O10 0.800381 0.836750 0.959888
O O11 0.500000 0.000000 0.500000
#
# Coordination Sequence:
#
# PCOD9209754 Si02
#       5
#     8   4   8   4   8
#     4   9  21  36  63  92 127 172 218 270 332 409
#     4  10  21  38  64  93 133 178 224 273 331 406
#     4  10  25  42  68  97 135 172 227 279 342 404
#     4  12  28  41  64 105 142 174 223 292 343 399
#     4  10  22  43  69  95 130 176 227 279 334 411
#
# _framework density 22.421353
#
# number of rings (size 3 to 8) (size 9 to 14) (size 15 to 20)
#    0.750    1.250    0.000    1.500   10.500    2.000 
#    0.000    2.500    0.000    0.000    0.000    0.000 
#    0.000    0.000    0.000    0.000    0.000    0.000 
#
# Total GULP energy -89234.956300 kJ/mol
# GULP energy per Si atom -5577.184769 kJ/mol
# Density = 2.237032 g / cm^3
# Si number density = 22.421353 Si / 1000 Ang^3
#
#
#
# Elastic Constant Matrix: (Units=GPa)
#
#
# Indices 1 2 3 4 5 6 
#
# 1 91.7057 6.4706 -9.2199 0.0002 10.9587 0.0000
# 2 6.4706 76.1057 25.2429 0.0001 5.0576 -0.0001
# 3 -9.2199 25.2429 76.0354 0.0016 10.4831 0.0005
# 4 0.0002 0.0001 0.0016 27.6530 0.0004 8.2338
# 5 10.9587 5.0576 10.4831 0.0004 24.9266 -0.0001
# 6 0.0000 -0.0001 0.0005 8.2338 -0.0001 27.5535
#
#
#
# Elastic Compliance Matrix: (Units=1/GPa)
#
#
# Indices 1 2 3 4 5 6 
#
# 1 0.012034 -0.001550 0.002824 0.000000 -0.006164 0.000000
# 2 -0.001550 0.014988 -0.005136 0.000000 -0.000200 0.000000
# 3 0.002824 -0.005136 0.016164 -0.000001 -0.006997 0.000000
# 4 0.000000 0.000000 -0.000001 0.039694 0.000000 -0.011862
# 5 -0.006164 -0.000200 -0.006997 0.000000 0.045811 0.000001
# 6 0.000000 0.000000 0.000000 -0.011862 0.000001 0.039838
#
#
# Mechanical properties :
#
#
# Convention : Reuss Voigt Hill
#
# Bulk Modulus (GPa) = 28.20000 32.09265 30.14633
# Shear Modulus (GPa) = 26.58503 30.78349 28.68426
#
# Velocity S-wave (km/s) = 3.44714 3.70936 3.58065
# Velocity P-wave (km/s) = 5.33369 5.71754 5.52895
#
# Compressibility (1/GPa) = 0.03546100
#
# Stress axis : x y z
#
# Youngs Moduli (GPa) = 83.09602 66.71862 61.86553
#
# Poissons Ratio (x) = 0.10342 -0.17469
# Poissons Ratio (y) = 0.12881 0.31777
# Poissons Ratio (z) = -0.23464 0.34269
#
# Static dielectric constant tensor:
#      x y z
#    x 1.762740 0.000000 0.091770 
#    y 0.000000 1.825930 0.000000 
#    z 0.091770 0.000000 1.777140 
# 
# From -- ./inp_files/196675.got.cif
#   From: 2010.05.17/outbox.cif.g08.bks.cpg/sg12_99_cif.got.tgz:196675.got - 2010.06.03 13:09:07.
