data_PCOD9209865
_publ_section_title
;
Structure prediction by ZEFSAII (Michael W. Deem and Ramdas Pophale) SiO2 
 PCOD9209865
Probable space group: C 2/M
;
_chemical_formula_sum "Si O2"
_cell_formula_units_Z 40
_cell_length_a 11.029066
_cell_length_b 29.965255
_cell_length_c 5.200293
_cell_angle_alpha 90.000000
_cell_angle_beta 82.438101
_cell_angle_gamma 90.000000
_cell_volume 1703.691929
_symmetry_space_group_name_H-M "C 2/M"
_symmetry_group_IT_number 12
_symmetry_cell_setting 'monoclinic'
loop_
_space_group_symop_operation_xyz
x,y,z
-x,y,-z
-x,-y,-z
x,-y,z
1/2+x,1/2+y,z
1/2-x,1/2+y,-z
1/2-x,1/2-y,-z
1/2+x,1/2-y,z
loop_
_atom_site_type_symbol
_atom_site_label
_atom_site_fract_x
_atom_site_fract_y
_atom_site_fract_z
Si Si1 0.500000 0.163874 0.500000
Si Si2 0.735427 0.552769 0.828357
Si Si3 0.621858 0.337912 0.341462
Si Si4 0.164663 0.401573 0.683938
Si Si5 0.000000 0.893346 0.000000
Si Si6 0.616403 0.243067 0.166391
O O1 0.455004 0.128721 0.298062
O O2 0.593694 0.197917 0.332375
O O3 0.728134 0.500000 0.868071
O O4 0.815624 0.564109 0.554461
O O5 0.596853 0.572472 0.839546
O O6 0.799227 0.575105 0.060622
O O7 0.500000 0.357434 0.500000
O O8 0.737882 0.362573 0.410083
O O9 0.601511 0.356668 0.062803
O O10 0.618303 0.285409 0.355715
O O11 0.500000 0.246448 0.000000
O O12 0.750000 0.250000 0.000000
#
# Coordination Sequence:
#
# PCOD9209865 Si02
#       6
#     4   8   8   8   4   8
#     4  12  30  48  69 106 150 198 257 310 364 442
#     4  11  24  46  73 107 142 186 246 311 381 455
#     4  11  21  41  65 104 143 187 235 291 369 437
#     4  11  27  45  73 103 147 191 242 301 377 443
#     4  10  21  38  66 104 144 182 228 306 377 450
#     4  12  28  44  74 106 152 200 255 308 363 445
#
# _framework density 23.478422999999999
#
# number of rings (size 3 to 8) (size 9 to 14) (size 15 to 20)
#    0.000    0.800    4.000    2.100   11.200    1.600 
#    0.000    6.000    0.000    0.000    0.000    0.000 
#    0.000    0.000    0.000    0.000    0.000    0.000 
#
# Total GULP energy -111418.901887 kJ/mol
# GULP energy per Si atom -5570.945094 kJ/mol
# Density = 2.342498 g / cm^3
# Si number density = 23.478423 Si / 1000 Ang^3
#
#
#
# Elastic Constant Matrix: (Units=GPa)
#
#
# Indices 1 2 3 4 5 6 
#
# 1 70.4553 39.5789 23.8869 0.0000 -7.4094 0.0000
# 2 39.5789 141.9042 20.4859 0.0000 6.3128 0.0000
# 3 23.8869 20.4859 85.1294 0.0000 -1.5872 0.0000
# 4 0.0000 0.0000 0.0000 38.8674 0.0000 -4.6435
# 5 -7.4094 6.3128 -1.5872 0.0000 28.8281 0.0000
# 6 0.0000 0.0000 0.0000 -4.6435 0.0000 39.7834
#
#
#
# Elastic Compliance Matrix: (Units=1/GPa)
#
#
# Indices 1 2 3 4 5 6 
#
# 1 0.018943 -0.004959 -0.004015 0.000000 0.005734 0.000000
# 2 -0.004959 0.008683 -0.000758 0.000000 -0.003218 0.000000
# 3 -0.004015 -0.000758 0.013053 0.000000 -0.000147 0.000000
# 4 0.000000 0.000000 0.000000 0.026092 0.000000 0.003045
# 5 0.005734 -0.003218 -0.000147 0.000000 0.036859 0.000000
# 6 0.000000 0.000000 0.000000 0.003045 0.000000 0.025492
#
#
# Mechanical properties :
#
#
# Convention : Reuss Voigt Hill
#
# Bulk Modulus (GPa) = 47.13654 51.71028 49.42341
# Shear Modulus (GPa) = 32.12179 35.73160 33.92669
#
# Velocity S-wave (km/s) = 3.70285 3.90537 3.80546
# Velocity P-wave (km/s) = 6.19690 6.51217 6.35649
#
# Compressibility (1/GPa) = 0.02121496
#
# Stress axis : x y z
#
# Youngs Moduli (GPa) = 52.78875 115.17163 76.61007
#
# Poissons Ratio (x) = 0.57113 0.30760
# Poissons Ratio (y) = 0.26178 0.05807
# Poissons Ratio (z) = 0.21196 0.08730
#
# Static dielectric constant tensor:
#      x y z
#    x 4.563170 0.000000 6.807740 
#    y 0.000000 1.811790 0.000000 
#    z 6.807740 0.000000 20.479930 
# 
# From -- ./inp_files/7615.got.cif
#   From: 2010.05.17/outbox.cif.g08.bks.cpg/sg12_4_cif.got.tgz:7615.got - 2010.06.03 13:09:07.
