data_PCOD9209736
_publ_section_title
;
Structure prediction by ZEFSAII (Michael W. Deem and Ramdas Pophale) SiO2 
 PCOD9209736
Probable space group: C 2/M
;
_chemical_formula_sum "Si O2"
_cell_formula_units_Z 64
_cell_length_a 14.693287
_cell_length_b 26.202302
_cell_length_c 11.547997
_cell_angle_alpha 90.000000
_cell_angle_beta 41.116554
_cell_angle_gamma 90.000000
_cell_volume 2923.628679
_symmetry_space_group_name_H-M "C 2/M"
_symmetry_group_IT_number 12
_symmetry_cell_setting 'monoclinic'
loop_
_space_group_symop_operation_xyz
x,y,z
-x,y,-z
-x,-y,-z
x,-y,z
1/2+x,1/2+y,z
1/2-x,1/2+y,-z
1/2-x,1/2-y,-z
1/2+x,1/2-y,z
loop_
_atom_site_type_symbol
_atom_site_label
_atom_site_fract_x
_atom_site_fract_y
_atom_site_fract_z
Si Si1 0.371004 0.715722 0.083566
Si Si2 0.167049 0.374054 0.341317
Si Si3 0.293722 0.057832 0.471104
Si Si4 0.703995 0.178606 0.912012
Si Si5 0.136589 0.877082 0.442646
Si Si6 0.709264 0.558716 0.987622
Si Si7 0.964918 0.854029 0.806889
Si Si8 0.553409 0.916837 0.077716
O O1 0.253476 0.678867 0.249497
O O2 0.290853 0.760836 0.096074
O O3 0.500000 0.751907 0.000000
O O4 0.473750 0.678257 0.912901
O O5 0.213243 0.404037 0.413230
O O6 0.212931 0.408875 0.187239
O O7 0.000000 0.367239 0.500000
O O8 0.206310 0.076663 0.443821
O O9 0.449002 0.061625 0.272375
O O10 0.261384 0.000000 0.535735
O O11 0.759962 0.153669 0.738408
O O12 0.817972 0.162960 0.896832
O O13 0.569096 0.144826 0.071001
O O14 0.000000 0.891330 0.500000
O O15 0.079597 0.842729 0.602665
O O16 0.697636 0.500000 0.966249
O O17 0.796584 0.562834 0.024257
O O18 0.560392 0.586208 0.145894
O O19 0.500000 0.930168 0.000000
#
# Coordination Sequence:
#
# PCOD9209736 Si02
#       8
#     8   8   8   8   8   8   8   8
#     4  11  23  41  66  94 124 169 218 270 333 389
#     4  11  24  43  64  97 135 167 222 278 323 392
#     4  12  25  40  65  94 129 173 214 270 326 382
#     4  10  21  41  63  86 124 167 207 266 326 385
#     4  10  22  43  61  90 131 168 213 267 323 395
#     4  10  21  38  64  91 124 172 211 261 326 378
#     4   9  21  40  61  89 126 163 210 265 312 395
#     4  11  21  38  58  92 129 159 210 266 313 382
#
# _framework density 21.890605000000001
#
# number of rings (size 3 to 8) (size 9 to 14) (size 15 to 20)
#    0.000    1.500    2.500    2.250    0.000    3.750 
#    2.250    1.250    0.000    4.125    0.000    0.000 
#    0.000    0.000    0.000    0.000    0.000    0.000 
#
# Total GULP energy -178289.610073 kJ/mol
# GULP energy per Si atom -5571.550315 kJ/mol
# Density = 2.184078 g / cm^3
# Si number density = 21.890605 Si / 1000 Ang^3
#
#
#
# Elastic Constant Matrix: (Units=GPa)
#
#
# Indices 1 2 3 4 5 6 
#
# 1 57.2101 15.2830 9.1145 0.0000 9.8119 0.0000
# 2 15.2830 133.5773 17.9153 0.0000 1.3734 0.0000
# 3 9.1145 17.9153 61.0610 0.0000 9.4279 0.0000
# 4 0.0000 0.0000 0.0000 20.7165 0.0000 4.2304
# 5 9.8119 1.3734 9.4279 0.0000 32.5855 0.0000
# 6 0.0000 0.0000 0.0000 4.2304 0.0000 124.3388
#
#
#
# Elastic Compliance Matrix: (Units=1/GPa)
#
#
# Indices 1 2 3 4 5 6 
#
# 1 0.019133 -0.001937 -0.001477 0.000000 -0.005252 0.000000
# 2 -0.001937 0.007993 -0.002192 0.000000 0.000881 0.000000
# 3 -0.001477 -0.002192 0.017960 0.000000 -0.004659 0.000000
# 4 0.000000 0.000000 0.000000 0.048609 0.000000 -0.001654
# 5 -0.005252 0.000881 -0.004659 0.000000 0.033581 0.000000
# 6 0.000000 0.000000 0.000000 -0.001654 0.000000 0.008099
#
#
# Mechanical properties :
#
#
# Convention : Reuss Voigt Hill
#
# Bulk Modulus (GPa) = 29.52067 37.38599 33.45333
# Shear Modulus (GPa) = 31.67025 49.49719 40.58372
#
# Velocity S-wave (km/s) = 3.80774 4.76028 4.31040
# Velocity P-wave (km/s) = 5.73120 6.87963 6.33151
#
# Compressibility (1/GPa) = 0.03387456
#
# Stress axis : x y z
#
# Youngs Moduli (GPa) = 52.26587 125.11188 55.67926
#
# Poissons Ratio (x) = 0.24234 0.08222
# Poissons Ratio (y) = 0.10124 0.12204
# Poissons Ratio (z) = 0.07718 0.27424
#
# Static dielectric constant tensor:
#      x y z
#    x 2.334200 0.000000 -0.048840 
#    y 0.000000 1.846850 0.000000 
#    z -0.048840 0.000000 1.829970 
# 
# From -- ./inp_files/149750.got.cif
#   From: 2010.05.17/outbox.cif.g08.bks.cpg/sg12_75_cif.got.tgz:149750.got - 2010.06.03 13:09:07.
