data_PCOD9209125
_publ_section_title
;
Structure prediction by ZEFSAII (Michael W. Deem and Ramdas Pophale) SiO2 
 PCOD9209125
Probable space group: C 2/M
;
_chemical_formula_sum "Si O2"
_cell_formula_units_Z 56
_cell_length_a 5.281379
_cell_length_b 23.272374
_cell_length_c 24.693484
_cell_angle_alpha 90.000000
_cell_angle_beta 83.877615
_cell_angle_gamma 90.000000
_cell_volume 3017.770693
_symmetry_space_group_name_H-M "C 2/M"
_symmetry_group_IT_number 12
_symmetry_cell_setting 'monoclinic'
loop_
_space_group_symop_operation_xyz
x,y,z
-x,y,-z
-x,-y,-z
x,-y,z
1/2+x,1/2+y,z
1/2-x,1/2+y,-z
1/2-x,1/2-y,-z
1/2+x,1/2-y,z
loop_
_atom_site_type_symbol
_atom_site_label
_atom_site_fract_x
_atom_site_fract_y
_atom_site_fract_z
Si Si1 0.967730 0.284271 0.256923
Si Si2 0.467540 0.787576 0.064640
Si Si3 0.261833 0.815303 0.476163
Si Si4 0.425622 0.869921 0.161067
Si Si5 0.399771 0.568187 0.203304
Si Si6 0.328494 0.431494 0.333823
Si Si7 0.820937 0.363902 0.360035
O O1 0.758385 0.233686 0.261402
O O2 0.945839 0.314883 0.199878
O O3 0.875602 0.327378 0.305269
O O4 0.711283 0.749986 0.077190
O O5 0.449317 0.845081 0.100360
O O6 0.500000 0.799595 0.000000
O O7 0.500000 0.843518 0.500000
O O8 0.250000 0.750000 0.500000
O O9 0.293892 0.820970 0.411488
O O10 0.000000 0.843621 0.500000
O O11 0.658155 0.910195 0.174515
O O12 0.156282 0.900116 0.178731
O O13 0.431548 0.500000 0.196667
O O14 0.349205 0.579713 0.268369
O O15 0.339391 0.500000 0.341122
O O16 0.565027 0.400092 0.356828
O O17 0.063643 0.405400 0.360885
#
# Coordination Sequence:
#
# PCOD9209125 Si02
#       7
#     8   8   8   8   8   8   8
#     4  12  24  34  54  87 125 156 182 237 302 357
#     4  10  21  38  61  87 119 166 212 250 293 353
#     4  10  23  40  59  84 115 158 197 228 283 355
#     4  12  21  39  57  87 124 158 200 245 310 355
#     4  11  22  38  60  88 122 158 200 248 306 367
#     4  11  22  41  64  92 119 155 204 249 301 357
#     4  12  23  40  64  88 124 156 194 247 295 354
#
# _framework density 18.556744999999999
#
# number of rings (size 3 to 8) (size 9 to 14) (size 15 to 20)
#    0.000    0.857    2.857    5.143    4.000    2.286 
#    0.000    0.000    0.000   11.143    0.000    0.000 
#    0.000    0.000    0.000    0.000    0.000    0.000 
#
# Total GULP energy -156466.491098 kJ/mol
# GULP energy per Si atom -5588.088968 kJ/mol
# Density = 1.851451 g / cm^3
# Si number density = 18.556745 Si / 1000 Ang^3
#
#
#
# Elastic Constant Matrix: (Units=GPa)
#
#
# Indices 1 2 3 4 5 6 
#
# 1 121.0539 19.4907 27.8517 0.0000 -1.0039 0.0000
# 2 19.4907 68.5221 34.1499 0.0000 0.3055 0.0000
# 3 27.8517 34.1499 78.5218 0.0000 0.5713 0.0000
# 4 0.0000 0.0000 0.0000 28.2505 0.0000 -0.3328
# 5 -1.0039 0.3055 0.5713 0.0000 13.8308 0.0000
# 6 0.0000 0.0000 0.0000 -0.3328 0.0000 27.5247
#
#
#
# Elastic Compliance Matrix: (Units=1/GPa)
#
#
# Indices 1 2 3 4 5 6 
#
# 1 0.009086 -0.001250 -0.002685 0.000000 0.000798 0.000000
# 2 -0.001250 0.018804 -0.007734 0.000000 -0.000187 0.000000
# 3 -0.002685 -0.007734 0.017056 0.000000 -0.000729 0.000000
# 4 0.000000 0.000000 0.000000 0.035403 0.000000 0.000428
# 5 0.000798 -0.000187 -0.000729 0.000000 0.072394 0.000000
# 6 0.000000 0.000000 0.000000 0.000428 0.000000 0.036336
#
#
# Mechanical properties :
#
#
# Convention : Reuss Voigt Hill
#
# Bulk Modulus (GPa) = 46.27472 47.89806 47.08639
# Shear Modulus (GPa) = 22.76648 26.36156 24.56402
#
# Velocity S-wave (km/s) = 3.50645 3.77316 3.64225
# Velocity P-wave (km/s) = 6.43309 6.69702 6.56638
#
# Compressibility (1/GPa) = 0.02161007
#
# Stress axis : x y z
#
# Youngs Moduli (GPa) = 110.05403 53.17902 58.62889
#
# Poissons Ratio (x) = 0.06647 0.15743
# Poissons Ratio (y) = 0.13756 0.45341
# Poissons Ratio (z) = 0.29551 0.41126
#
# Static dielectric constant tensor:
#      x y z
#    x 1.661580 0.000000 0.004030 
#    y 0.000000 1.625270 0.000000 
#    z 0.004030 0.000000 1.642290 
# 
# From -- ./inp_files/331180.got.cif
#   From: 2010.05.17/outbox.cif.g08.bks.cpg/sg12_166_cif.got.tgz:331180.got - 2010.06.03 13:09:07.
