data_PCOD9209602
_publ_section_title
;
Structure prediction by ZEFSAII (Michael W. Deem and Ramdas Pophale) SiO2 
 PCOD9209602
Probable space group: C 2/M
;
_chemical_formula_sum "Si O2"
_cell_formula_units_Z 48
_cell_length_a 25.194416
_cell_length_b 14.056912
_cell_length_c 9.214444
_cell_angle_alpha 90.000000
_cell_angle_beta 43.656039
_cell_angle_gamma 90.000000
_cell_volume 2252.778704
_symmetry_space_group_name_H-M "C 2/M"
_symmetry_group_IT_number 12
_symmetry_cell_setting 'monoclinic'
loop_
_space_group_symop_operation_xyz
x,y,z
-x,y,-z
-x,-y,-z
x,-y,z
1/2+x,1/2+y,z
1/2-x,1/2+y,-z
1/2-x,1/2-y,-z
1/2+x,1/2-y,z
loop_
_atom_site_type_symbol
_atom_site_label
_atom_site_fract_x
_atom_site_fract_y
_atom_site_fract_z
Si Si1 0.846345 0.286340 0.959672
Si Si2 0.370105 0.888406 0.603338
Si Si3 0.942639 0.108914 0.232368
Si Si4 0.792948 0.761150 0.568756
Si Si5 0.475111 0.888585 0.883696
Si Si6 0.941225 0.891650 0.730288
O O1 0.857788 0.336766 0.781841
O O2 0.906218 0.326461 0.959040
O O3 0.868499 0.175320 0.897215
O O4 0.763667 0.301356 0.195181
O O5 0.317749 0.840563 0.583722
O O6 0.455435 0.875986 0.368027
O O7 0.355636 0.000000 0.649282
O O8 0.868306 0.173050 0.404607
O O9 0.001358 0.102195 0.248807
O O10 0.919669 0.000000 0.237658
O O11 0.000000 0.150511 0.000000
O O12 0.750000 0.750000 0.500000
O O13 0.452919 0.000000 0.925169
O O14 0.500000 0.867858 0.000000
O O15 0.000000 0.845470 0.500000
O O16 0.920270 0.000000 0.727721
#
# Coordination Sequence:
#
# PCOD9209602 Si02
#       6
#     8   8   8   8   8   8
#     4  12  23  39  65  95 130 169 211 269 337 396
#     4  11  25  44  64  91 130 175 220 265 322 396
#     4  10  22  42  66  91 122 162 209 262 320 387
#     4  12  26  41  64  96 129 170 216 272 338 396
#     4  10  21  39  65  94 125 167 217 267 319 384
#     4  10  21  38  63  91 120 160 210 261 312 376
#
# _framework density 21.307020999999999
#
# number of rings (size 3 to 8) (size 9 to 14) (size 15 to 20)
#    0.000    1.167    0.000    6.500    0.000    5.333 
#    0.000    1.667    0.000    0.000    0.000    0.000 
#    0.000    0.000    0.000    0.000    0.000    0.000 
#
# Total GULP energy -134153.321588 kJ/mol
# GULP energy per Si atom -5589.721733 kJ/mol
# Density = 2.125853 g / cm^3
# Si number density = 21.307021 Si / 1000 Ang^3
#
#
#
# Elastic Constant Matrix: (Units=GPa)
#
#
# Indices 1 2 3 4 5 6 
#
# 1 55.7673 35.9758 27.0164 0.0000 0.9343 0.0000
# 2 35.9758 121.5546 60.6149 0.0000 -16.0266 0.0000
# 3 27.0164 60.6149 155.2290 0.0000 -5.0510 0.0000
# 4 0.0000 0.0000 0.0000 21.3314 0.0000 9.5193
# 5 0.9343 -16.0266 -5.0510 0.0000 22.7883 0.0000
# 6 0.0000 0.0000 0.0000 9.5193 0.0000 19.8251
#
#
#
# Elastic Compliance Matrix: (Units=1/GPa)
#
#
# Indices 1 2 3 4 5 6 
#
# 1 0.023249 -0.006924 -0.001543 0.000000 -0.006165 0.000000
# 2 -0.006924 0.013279 -0.003694 0.000000 0.008804 0.000000
# 3 -0.001543 -0.003694 0.008129 0.000000 -0.000733 0.000000
# 4 0.000000 0.000000 0.000000 0.059664 0.000000 -0.028649
# 5 -0.006165 0.008804 -0.000733 0.000000 0.050164 0.000000
# 6 0.000000 0.000000 0.000000 -0.028649 0.000000 0.064197
#
#
# Mechanical properties :
#
#
# Convention : Reuss Voigt Hill
#
# Bulk Modulus (GPa) = 49.17578 64.41835 56.79707
# Shear Modulus (GPa) = 20.01735 26.71854 23.36794
#
# Velocity S-wave (km/s) = 3.06841 3.54500 3.31528
# Velocity P-wave (km/s) = 5.97354 6.85967 6.43188
#
# Compressibility (1/GPa) = 0.02033521
#
# Stress axis : x y z
#
# Youngs Moduli (GPa) = 43.01183 75.30835 123.01455
#
# Poissons Ratio (x) = 0.52146 0.18983
# Poissons Ratio (y) = 0.29783 0.45436
# Poissons Ratio (z) = 0.06637 0.27816
#
# Static dielectric constant tensor:
#      x y z
#    x 1.697920 0.000000 -0.026170 
#    y 0.000000 1.781480 0.000000 
#    z -0.026170 0.000000 1.774040 
# 
# From -- ./inp_files/104950.got.cif
#   From: 2010.05.17/outbox.cif.g08.bks.cpg/sg12_53_cif.got.tgz:104950.got - 2010.06.03 13:09:07.
