data_PCOD9209981
_publ_section_title
;
Structure prediction by ZEFSAII (Michael W. Deem and Ramdas Pophale) SiO2 
 PCOD9209981
Probable space group: C 2/M
;
_chemical_formula_sum "Si O2"
_cell_formula_units_Z 56
_cell_length_a 16.708889
_cell_length_b 29.368048
_cell_length_c 7.504012
_cell_angle_alpha 90.000000
_cell_angle_beta 52.521632
_cell_angle_gamma 90.000000
_cell_volume 2922.190990
_symmetry_space_group_name_H-M "C 2/M"
_symmetry_group_IT_number 12
_symmetry_cell_setting 'monoclinic'
loop_
_space_group_symop_operation_xyz
x,y,z
-x,y,-z
-x,-y,-z
x,-y,z
1/2+x,1/2+y,z
1/2-x,1/2+y,-z
1/2-x,1/2-y,-z
1/2+x,1/2-y,z
loop_
_atom_site_type_symbol
_atom_site_label
_atom_site_fract_x
_atom_site_fract_y
_atom_site_fract_z
Si Si1 0.111484 0.229825 0.784094
Si Si2 0.768544 0.861254 0.368201
Si Si3 0.747959 0.136422 0.818796
Si Si4 0.382998 0.550477 0.200503
Si Si5 0.309585 0.266333 0.705206
Si Si6 0.617022 0.448438 0.372879
Si Si7 0.615161 0.824889 0.285737
O O1 0.144222 0.177043 0.759037
O O2 0.198658 0.257338 0.770295
O O3 0.119694 0.239933 0.563567
O O4 0.000000 0.239197 0.000000
O O5 0.735667 0.864728 0.620458
O O6 0.812302 0.908623 0.237756
O O7 0.679940 0.844195 0.362766
O O8 0.814545 0.181982 0.765245
O O9 0.807634 0.090902 0.793143
O O10 0.647461 0.146005 0.068805
O O11 0.358545 0.500000 0.164051
O O12 0.371976 0.549590 0.428785
O O13 0.500000 0.559541 0.000000
O O14 0.344563 0.227040 0.791001
O O15 0.500000 0.436438 0.500000
O O16 0.634030 0.500000 0.280263
O O17 0.500000 0.825898 0.500000
#
# Coordination Sequence:
#
# PCOD9209981 Si02
#       7
#     8   8   8   8   8   8   8
#     4   9  17  32  57  77 109 154 181 224 283 322
#     4   9  20  38  53  80 114 144 191 227 273 341
#     4  10  21  39  58  79 116 149 181 231 283 326
#     4   9  17  30  55  85 112 146 180 221 281 334
#     4   9  20  36  50  84 111 143 196 225 270 335
#     4   9  19  35  56  87 117 144 180 222 281 345
#     4  11  24  38  56  82 109 149 196 235 273 325
#
# _framework density 19.163703000000002
#
# number of rings (size 3 to 8) (size 9 to 14) (size 15 to 20)
#    0.000    2.571    0.000    1.714    4.000    1.143 
#    5.143    0.000    0.000    1.714    0.000    4.000 
#    0.000    0.000    0.000    0.000    0.000    0.000 
#
# Total GULP energy -156278.344423 kJ/mol
# GULP energy per Si atom -5581.369444 kJ/mol
# Density = 1.912009 g / cm^3
# Si number density = 19.163703 Si / 1000 Ang^3
#
#
#
# Elastic Constant Matrix: (Units=GPa)
#
#
# Indices 1 2 3 4 5 6 
#
# 1 22.8676 24.4000 18.3328 0.0000 -1.0990 0.0000
# 2 24.4000 122.5502 42.7178 0.0000 -10.1630 0.0000
# 3 18.3328 42.7178 115.2412 0.0000 -9.0146 0.0000
# 4 0.0000 0.0000 0.0000 14.0879 0.0000 0.6675
# 5 -1.0990 -10.1630 -9.0146 0.0000 29.1477 0.0000
# 6 0.0000 0.0000 0.0000 0.6675 0.0000 11.3327
#
#
#
# Elastic Compliance Matrix: (Units=1/GPa)
#
#
# Indices 1 2 3 4 5 6 
#
# 1 0.058924 -0.009917 -0.005938 0.000000 -0.003073 0.000000
# 2 -0.009917 0.011186 -0.002350 0.000000 0.002800 0.000000
# 3 -0.005938 -0.002350 0.010670 0.000000 0.002257 0.000000
# 4 0.000000 0.000000 0.000000 0.071182 0.000000 -0.004192
# 5 -0.003073 0.002800 0.002257 0.000000 0.035866 0.000000
# 6 0.000000 0.000000 0.000000 -0.004192 0.000000 0.088487
#
#
# Mechanical properties :
#
#
# Convention : Reuss Voigt Hill
#
# Bulk Modulus (GPa) = 22.53768 47.95114 35.24441
# Shear Modulus (GPa) = 15.26653 22.59423 18.93038
#
# Velocity S-wave (km/s) = 2.82554 3.43740 3.14638
# Velocity P-wave (km/s) = 4.73614 6.38987 5.62412
#
# Compressibility (1/GPa) = 0.04437013
#
# Stress axis : x y z
#
# Youngs Moduli (GPa) = 16.97089 89.40070 93.72399
#
# Poissons Ratio (x) = 0.88658 0.55655
# Poissons Ratio (y) = 0.16830 0.22022
# Poissons Ratio (z) = 0.10078 0.21007
#
# Static dielectric constant tensor:
#      x y z
#    x 1.644710 0.000000 0.044220 
#    y 0.000000 1.706750 0.000000 
#    z 0.044220 0.000000 1.687560 
# 
# From -- ./inp_files/80410.got.cif
#   From: 2010.05.17/outbox.cif.g08.bks.cpg/sg12_41_cif.got.tgz:80410.got - 2010.06.03 13:09:07.
