data_PCOD9209086
_publ_section_title
;
Structure prediction by ZEFSAII (Michael W. Deem and Ramdas Pophale) SiO2 
 PCOD9209086
Probable space group: C 2/M
;
_chemical_formula_sum "Si O2"
_cell_formula_units_Z 32
_cell_length_a 14.448841
_cell_length_b 18.389173
_cell_length_c 7.618510
_cell_angle_alpha 90.000000
_cell_angle_beta 138.871197
_cell_angle_gamma 90.000000
_cell_volume 1331.461889
_symmetry_space_group_name_H-M "C 2/M"
_symmetry_group_IT_number 12
_symmetry_cell_setting 'monoclinic'
loop_
_space_group_symop_operation_xyz
x,y,z
-x,y,-z
-x,-y,-z
x,-y,z
1/2+x,1/2+y,z
1/2-x,1/2+y,-z
1/2-x,1/2-y,-z
1/2+x,1/2-y,z
loop_
_atom_site_type_symbol
_atom_site_label
_atom_site_fract_x
_atom_site_fract_y
_atom_site_fract_z
Si Si1 0.915407 0.586270 0.204781
Si Si2 0.083255 0.815461 0.434963
Si Si3 0.156863 0.912629 0.056701
Si Si4 0.847055 0.660750 0.632013
O O1 0.925926 0.500000 0.210173
O O2 0.000000 0.611415 0.500000
O O3 0.010831 0.615984 0.187418
O O4 0.754755 0.600874 0.025526
O O5 0.099182 0.740901 0.347234
O O6 0.248099 0.838878 0.662955
O O7 0.000000 0.802795 0.500000
O O8 0.989869 0.875047 0.199135
O O9 0.146980 0.000000 0.072411
O O10 0.239619 0.872977 0.332347
#
# Coordination Sequence:
#
# PCOD9209086 Si02
#       4
#     8   8   8   8
#     4   8  15  31  58  86 108 141 196 247 278 326
#     4  11  24  38  56  88 125 154 191 248 303 346
#     4  10  21  40  65  88 115 158 204 240 285 353
#     4  10  21  38  61  86 116 159 201 239 290 355
#
# _framework density 24.033733999999999
#
# number of rings (size 3 to 8) (size 9 to 14) (size 15 to 20)
#    0.000    2.250    0.000    5.250    0.000    7.500 
#    0.000    3.750    0.000    3.000    0.000    0.000 
#    0.000    0.000    0.000    0.000    0.000    0.000 
#
# Total GULP energy -89239.014313 kJ/mol
# GULP energy per Si atom -5577.438395 kJ/mol
# Density = 2.397903 g / cm^3
# Si number density = 24.033734 Si / 1000 Ang^3
#
#
#
# Elastic Constant Matrix: (Units=GPa)
#
#
# Indices 1 2 3 4 5 6 
#
# 1 231.1184 61.5131 53.4097 0.0000 32.6679 0.0000
# 2 61.5131 101.4485 45.9760 0.0000 10.3152 0.0000
# 3 53.4097 45.9760 74.9066 0.0000 34.4596 0.0000
# 4 0.0000 0.0000 0.0000 -246.1205 0.0000 701.8449
# 5 32.6679 10.3152 34.4596 0.0000 58.0710 0.0000
# 6 0.0000 0.0000 0.0000 701.8449 0.0000-1736.2145
#
#
#
# Elastic Compliance Matrix: (Units=1/GPa)
#
#
# Indices 1 2 3 4 5 6 
#
# 1 0.005618 -0.002457 -0.001712 0.000000 -0.001708 0.000000
# 2 -0.002457 0.015269 -0.009640 0.000000 0.004390 0.000000
# 3 -0.001712 -0.009640 0.026487 0.000000 -0.013042 0.000000
# 4 0.000000 0.000000 0.000000 0.026601 0.000000 0.010753
# 5 -0.001708 0.004390 -0.013042 0.000000 0.025141 0.000000
# 6 0.000000 0.000000 0.000000 0.010753 0.000000 0.003771
#
#
# Mechanical properties :
#
#
# Convention : Reuss Voigt Hill
#
# Bulk Modulus (GPa) = 50.61441 81.03010 65.82225
# Shear Modulus (GPa) = 36.47262 -368.41448 -165.97093
#
# Velocity S-wave (km/s) = 3.89981 -12.39449 -8.31910
# Velocity P-wave (km/s) = 6.43300 13.07833 8.05169
#
# Compressibility (1/GPa) = 0.01975722
#
# Stress axis : x y z
#
# Youngs Moduli (GPa) = 178.00900 65.49133 37.75433
#
# Poissons Ratio (x) = 0.16090 0.06463
# Poissons Ratio (y) = 0.43734 0.36394
# Poissons Ratio (z) = 0.30472 0.63132
#
# Static dielectric constant tensor:
#      x y z
#    x 2.061230 0.000000 -0.036670 
#    y 0.000000 1.918120 0.000000 
#    z -0.036670 0.000000 1.958700 
# 
# From -- ./inp_files/63876.got.cif
#   From: 2010.05.17/outbox.cif.g08.bks.cpg/sg12_32_cif.got.tgz:63876.got - 2010.06.03 13:09:07.
