data_PCOD9209903
_publ_section_title
;
Structure prediction by ZEFSAII (Michael W. Deem and Ramdas Pophale) SiO2 
 PCOD9209903
Probable space group: C 2/M
;
_chemical_formula_sum "Si O2"
_cell_formula_units_Z 40
_cell_length_a 5.332680
_cell_length_b 21.947607
_cell_length_c 17.958662
_cell_angle_alpha 90.000000
_cell_angle_beta 108.484087
_cell_angle_gamma 90.000000
_cell_volume 1993.441975
_symmetry_space_group_name_H-M "C 2/M"
_symmetry_group_IT_number 12
_symmetry_cell_setting 'monoclinic'
loop_
_space_group_symop_operation_xyz
x,y,z
-x,y,-z
-x,-y,-z
x,-y,z
1/2+x,1/2+y,z
1/2-x,1/2+y,-z
1/2-x,1/2-y,-z
1/2+x,1/2-y,z
loop_
_atom_site_type_symbol
_atom_site_label
_atom_site_fract_x
_atom_site_fract_y
_atom_site_fract_z
Si Si1 0.083401 0.429506 0.277257
Si Si2 0.895300 0.864899 0.695793
Si Si3 0.764875 0.381418 0.857871
Si Si4 0.000000 0.709230 0.000000
Si Si5 0.714729 0.318278 0.466308
Si Si6 0.690761 0.500000 0.946335
O O1 0.027242 0.500000 0.281181
O O2 0.394574 0.414535 0.316237
O O3 0.042919 0.409602 0.187234
O O4 0.889732 0.391033 0.310667
O O5 0.871107 0.816618 0.627631
O O6 0.039221 0.848180 0.786903
O O7 0.652132 0.438973 0.893352
O O8 0.909908 0.334858 0.924824
O O9 0.750000 0.750000 0.000000
O O10 0.500000 0.348112 0.500000
O O11 0.750000 0.250000 0.500000
O O12 0.000000 0.349154 0.500000
O O13 0.500000 0.500000 0.000000
O O14 0.000000 0.500000 0.000000
#
# Coordination Sequence:
#
# PCOD9209903 Si02
#       6
#     8   8   8   4   8   4
#     4  10  21  38  67 101 130 166 214 271 336 402
#     4  10  22  38  66  96 132 167 211 274 333 404
#     4  10  25  44  69  96 137 173 235 274 348 393
#     4  12  30  47  60  89 140 192 230 276 326 404
#     4  10  21  41  65  95 125 162 218 276 326 375
#     4  12  26  38  74 106 132 171 232 299 340 392
#
# _framework density 20.065797
#
# number of rings (size 3 to 8) (size 9 to 14) (size 15 to 20)
#    1.200    0.400    2.000    1.800    8.400    0.000 
#    7.200    0.000    0.000   12.000    0.000    0.000 
#    0.000    0.000    0.000    0.000    0.000    0.000 
#
# Total GULP energy -111442.176196 kJ/mol
# GULP energy per Si atom -5572.108810 kJ/mol
# Density = 2.002013 g / cm^3
# Si number density = 20.065797 Si / 1000 Ang^3
#
#
#
# Elastic Constant Matrix: (Units=GPa)
#
#
# Indices 1 2 3 4 5 6 
#
# 1 137.8872 13.3140 33.8542 0.0000 -28.6419 0.0000
# 2 13.3140 77.0263 53.8284 0.0000 -11.9233 0.0000
# 3 33.8542 53.8284 142.0923 0.0000 -7.6939 0.0000
# 4 0.0000 0.0000 0.0000 33.5512 0.0000 -5.5820
# 5 -28.6419 -11.9233 -7.6939 0.0000 32.1948 0.0000
# 6 0.0000 0.0000 0.0000 -5.5820 0.0000 13.0977
#
#
#
# Elastic Compliance Matrix: (Units=1/GPa)
#
#
# Indices 1 2 3 4 5 6 
#
# 1 0.009410 0.001237 -0.002262 0.000000 0.008289 0.000000
# 2 0.001237 0.018654 -0.007018 0.000000 0.006332 0.000000
# 3 -0.002262 -0.007018 0.010117 0.000000 -0.002194 0.000000
# 4 0.000000 0.000000 0.000000 0.032080 0.000000 0.013672
# 5 0.008289 0.006332 -0.002194 0.000000 0.040256 0.000000
# 6 0.000000 0.000000 0.000000 0.013672 0.000000 0.082176
#
#
# Mechanical properties :
#
#
# Convention : Reuss Voigt Hill
#
# Bulk Modulus (GPa) = 45.26093 62.11100 53.68597
# Shear Modulus (GPa) = 23.13289 32.83604 27.98447
#
# Velocity S-wave (km/s) = 3.39905 4.04966 3.73853
# Velocity P-wave (km/s) = 6.16522 7.27235 6.74155
#
# Compressibility (1/GPa) = 0.02209411
#
# Stress axis : x y z
#
# Youngs Moduli (GPa) = 106.26993 53.60919 98.84799
#
# Poissons Ratio (x) = -0.06633 0.22358
# Poissons Ratio (y) = -0.13148 0.69375
# Poissons Ratio (z) = 0.24037 0.37625
#
# Static dielectric constant tensor:
#      x y z
#    x 1.919590 0.000000 0.017820 
#    y 0.000000 1.667140 0.000000 
#    z 0.017820 0.000000 1.740630 
# 
# From -- ./inp_files/252843.got.cif
#   From: 2010.05.17/outbox.cif.g08.bks.cpg/sg12_127_cif.got.tgz:252843.got - 2010.06.03 13:09:07.
