data_PCOD9209043
_publ_section_title
;
Structure prediction by ZEFSAII (Michael W. Deem and Ramdas Pophale) SiO2 
 PCOD9209043
Probable space group: C 2/M
;
_chemical_formula_sum "Si O2"
_cell_formula_units_Z 64
_cell_length_a 22.075792
_cell_length_b 19.688603
_cell_length_c 14.793816
_cell_angle_alpha 90.000000
_cell_angle_beta 28.189574
_cell_angle_gamma 90.000000
_cell_volume 3037.473239
_symmetry_space_group_name_H-M "C 2/M"
_symmetry_group_IT_number 12
_symmetry_cell_setting 'monoclinic'
loop_
_space_group_symop_operation_xyz
x,y,z
-x,y,-z
-x,-y,-z
x,-y,z
1/2+x,1/2+y,z
1/2-x,1/2+y,-z
1/2-x,1/2-y,-z
1/2+x,1/2-y,z
loop_
_atom_site_type_symbol
_atom_site_label
_atom_site_fract_x
_atom_site_fract_y
_atom_site_fract_z
Si Si1 0.173060 0.079663 0.111464
Si Si2 0.702961 0.710121 0.828732
Si Si3 0.218461 0.078952 0.428209
Si Si4 0.410748 0.801298 0.413643
Si Si5 0.984763 0.839499 0.223202
Si Si6 0.743230 0.132823 0.810771
Si Si7 0.033795 0.576931 0.793749
Si Si8 0.399726 0.867794 0.700354
O O1 0.077193 0.119924 0.171545
O O2 0.177969 0.114683 0.203198
O O3 0.141476 0.000000 0.159921
O O4 0.315138 0.087760 0.879988
O O5 0.770679 0.704737 0.642763
O O6 0.702537 0.788694 0.858826
O O7 0.798733 0.671754 0.771112
O O8 0.565521 0.675950 0.026884
O O9 0.187238 0.113932 0.373951
O O10 0.369242 0.085631 0.250195
O O11 0.141738 0.114809 0.610039
O O12 0.186011 0.000000 0.466360
O O13 0.445612 0.733248 0.315044
O O14 0.425673 0.866879 0.331675
O O15 0.516225 0.814135 0.353276
O O16 0.613296 0.088981 0.987590
O O17 0.050774 0.500000 0.737605
O O18 0.500000 0.903582 0.500000
#
# Coordination Sequence:
#
# PCOD9209043 Si02
#       8
#     8   8   8   8   8   8   8   8
#     4  11  22  35  59  94 128 163 203 250 303 370
#     4  10  21  38  60  98 123 158 201 254 311 364
#     4  11  25  43  61  87 126 170 205 249 312 366
#     4  11  20  39  65  91 121 162 211 251 303 365
#     4  11  22  41  62  88 128 164 202 252 306 370
#     4  12  21  39  65  93 127 159 205 256 308 362
#     4  11  24  42  64  90 122 161 211 261 304 357
#     4   9  19  34  58  86 127 162 200 248 307 361
#
# _framework density 21.070143999999999
#
# number of rings (size 3 to 8) (size 9 to 14) (size 15 to 20)
#    0.000    1.250    3.750    2.625    0.000    4.250 
#    0.000    7.500    0.000    1.500    0.000    0.000 
#    0.000    0.000    0.000    0.000    0.000    0.000 
#
# Total GULP energy -178802.501047 kJ/mol
# GULP energy per Si atom -5587.578158 kJ/mol
# Density = 2.102219 g / cm^3
# Si number density = 21.070144 Si / 1000 Ang^3
#
#
#
# Elastic Constant Matrix: (Units=GPa)
#
#
# Indices 1 2 3 4 5 6 
#
# 1 16.0752 -0.3503 3.5219 0.0001 0.1682 -0.0005
# 2 -0.3503 92.0691 16.0609 0.0000 8.2443 0.0000
# 3 3.5219 16.0609 93.6821 0.0001 5.2331 -0.0002
# 4 0.0001 0.0000 0.0001 14.0983 0.0003 -8.2409
# 5 0.1682 8.2443 5.2331 0.0003 25.9915 0.0005
# 6 -0.0005 0.0000 -0.0002 -8.2409 0.0005 19.2791
#
#
#
# Elastic Compliance Matrix: (Units=1/GPa)
#
#
# Indices 1 2 3 4 5 6 
#
# 1 0.062765 0.000681 -0.002469 0.000001 -0.000125 0.000002
# 2 0.000681 0.011473 -0.001809 0.000000 -0.003279 0.000000
# 3 -0.002469 -0.001809 0.011170 0.000000 -0.001659 0.000000
# 4 0.000001 0.000000 0.000000 0.094557 -0.000002 0.040419
# 5 -0.000125 -0.003279 -0.001659 -0.000002 0.039849 -0.000002
# 6 0.000002 0.000000 0.000000 0.040419 -0.000002 0.069147
#
#
# Mechanical properties :
#
#
# Convention : Reuss Voigt Hill
#
# Bulk Modulus (GPa) = 12.78568 26.69902 19.74235
# Shear Modulus (GPa) = 15.51698 24.04670 19.78184
#
# Velocity S-wave (km/s) = 2.71669 3.38193 3.06740
# Velocity P-wave (km/s) = 3.99022 5.28668 4.68353
#
# Compressibility (1/GPa) = 0.07821247
#
# Stress axis : x y z
#
# Youngs Moduli (GPa) = 15.93247 87.15905 89.52466
#
# Poissons Ratio (x) = -0.05934 0.22106
# Poissons Ratio (y) = -0.01085 0.16198
# Poissons Ratio (z) = 0.03934 0.15770
#
# Static dielectric constant tensor:
#      x y z
#    x 1.766740 0.000000 -0.008420 
#    y 0.000000 1.710890 0.000000 
#    z -0.008420 0.000000 1.804620 
# 
# From -- ./inp_files/241446.got.cif
#   From: 2010.05.17/outbox.cif.g08.bks.cpg/sg12_121_cif.got.tgz:241446.got - 2010.06.03 13:09:07.
