data_PCOD9209763
_publ_section_title
;
Structure prediction by ZEFSAII (Michael W. Deem and Ramdas Pophale) SiO2 
 PCOD9209763
Probable space group: C 2/M
;
_chemical_formula_sum "Si O2"
_cell_formula_units_Z 48
_cell_length_a 14.313976
_cell_length_b 13.975999
_cell_length_c 18.366401
_cell_angle_alpha 90.000000
_cell_angle_beta 144.207848
_cell_angle_gamma 90.000000
_cell_volume 2148.865132
_symmetry_space_group_name_H-M "C 2/M"
_symmetry_group_IT_number 12
_symmetry_cell_setting 'monoclinic'
loop_
_space_group_symop_operation_xyz
x,y,z
-x,y,-z
-x,-y,-z
x,-y,z
1/2+x,1/2+y,z
1/2-x,1/2+y,-z
1/2-x,1/2-y,-z
1/2+x,1/2-y,z
loop_
_atom_site_type_symbol
_atom_site_label
_atom_site_fract_x
_atom_site_fract_y
_atom_site_fract_z
Si Si1 0.294765 0.605405 0.198700
Si Si2 0.859720 0.613037 0.237741
Si Si3 0.191307 0.899857 0.626269
Si Si4 0.900970 0.780435 0.642013
Si Si5 0.803525 0.197410 0.725069
Si Si6 0.853166 0.767266 0.992224
O O1 0.298791 0.500000 0.168248
O O2 0.244010 0.596266 0.250040
O O3 0.469000 0.653064 0.316412
O O4 0.186983 0.677014 0.084307
O O5 0.891799 0.500000 0.258759
O O6 0.816957 0.650094 0.293353
O O7 0.708996 0.640375 0.091383
O O8 0.996146 0.680636 0.288179
O O9 0.239822 0.791709 0.641869
O O10 0.000000 0.902232 0.500000
O O11 0.246897 0.000000 0.624962
O O12 0.750000 0.750000 0.500000
O O13 0.863092 0.849462 0.687816
O O14 0.963986 0.221235 0.870493
O O15 0.750000 0.750000 0.000000
#
# Coordination Sequence:
#
# PCOD9209763 Si02
#       6
#     8   8   8   8   8   8
#     4  10  21  40  62  91 128 163 212 273 328 390
#     4  11  26  46  69 103 140 180 229 280 341 415
#     4  10  21  38  64  94 124 164 214 268 330 399
#     4  11  24  44  69  95 135 180 222 280 338 404
#     4  12  23  41  70  96 132 178 224 281 343 402
#     4  11  22  44  64  95 134 176 224 282 339 405
#
# _framework density 22.337371000000001
#
# number of rings (size 3 to 8) (size 9 to 14) (size 15 to 20)
#    0.000    1.167    6.667    1.500    0.000    4.667 
#    0.000    2.500    0.000    0.000    0.000    0.000 
#    0.000    0.000    0.000    0.000    0.000    0.000 
#
# Total GULP energy -133619.596779 kJ/mol
# GULP energy per Si atom -5567.483199 kJ/mol
# Density = 2.228653 g / cm^3
# Si number density = 22.337371 Si / 1000 Ang^3
#
#
#
# Elastic Constant Matrix: (Units=GPa)
#
#
# Indices 1 2 3 4 5 6 
#
# 1 73.2727 1.1407 -3.6908 0.0000 -26.7420 0.0000
# 2 1.1407 79.3674 -3.5643 -0.0001 -7.2895 0.0000
# 3 -3.6908 -3.5643 93.5108 -0.0001 -6.7352 0.0000
# 4 0.0000 -0.0001 -0.0001 -5.3380 0.0000 -6.6775
# 5 -26.7420 -7.2895 -6.7352 0.0000 39.1964 0.0000
# 6 0.0000 0.0000 0.0000 -6.6775 0.0000 7.3800
#
#
#
# Elastic Compliance Matrix: (Units=1/GPa)
#
#
# Indices 1 2 3 4 5 6 
#
# 1 0.018501 0.001015 0.001713 0.000000 0.013106 0.000000
# 2 0.001015 0.012916 0.000765 0.000000 0.003226 0.000000
# 3 0.001713 0.000765 0.011022 0.000000 0.003205 0.000000
# 4 0.000000 0.000000 0.000000 -0.087875 0.000000 -0.079510
# 5 0.013106 0.003226 0.003205 0.000000 0.035604 0.000000
# 6 0.000000 0.000000 0.000000 -0.079510 0.000000 0.063560
#
#
# Mechanical properties :
#
#
# Convention : Reuss Voigt Hill
#
# Bulk Modulus (GPa) = 20.23357 25.99134 23.11246
# Shear Modulus (GPa) = 79.09144 25.06538 52.07841
#
# Velocity S-wave (km/s) = 5.95689 3.35345 4.83374
# Velocity P-wave (km/s) = 7.50936 5.16287 6.44383
#
# Compressibility (1/GPa) = 0.04942282
#
# Stress axis : x y z
#
# Youngs Moduli (GPa) = 54.05058 77.42547 90.73157
#
# Poissons Ratio (x) = -0.07856 -0.15541
# Poissons Ratio (y) = -0.05485 -0.06938
# Poissons Ratio (z) = -0.09258 -0.05921
#
# Static dielectric constant tensor:
#      x y z
#    x 2.191330 0.000000 -0.046390 
#    y 0.000000 2.001840 0.000000 
#    z -0.046390 0.000000 1.817780 
# 
# From -- ./inp_files/270428.got.cif
#   From: 2010.05.17/outbox.cif.g08.bks.cpg/sg12_136_cif.got.tgz:270428.got - 2010.06.03 13:09:07.
