data_PCOD9209611
_publ_section_title
;
Structure prediction by ZEFSAII (Michael W. Deem and Ramdas Pophale) SiO2 
 PCOD9209611
Probable space group: C 2/M
;
_chemical_formula_sum "Si O2"
_cell_formula_units_Z 50
_cell_length_a 17.942229
_cell_length_b 14.530663
_cell_length_c 8.906396
_cell_angle_alpha 90.000000
_cell_angle_beta 115.071359
_cell_angle_gamma 90.000000
_cell_volume 2103.230670
_symmetry_space_group_name_H-M "C 2/M"
_symmetry_group_IT_number 12
_symmetry_cell_setting 'monoclinic'
loop_
_space_group_symop_operation_xyz
x,y,z
-x,y,-z
-x,-y,-z
x,-y,z
1/2+x,1/2+y,z
1/2-x,1/2+y,-z
1/2-x,1/2-y,-z
1/2+x,1/2-y,z
loop_
_atom_site_type_symbol
_atom_site_label
_atom_site_fract_x
_atom_site_fract_y
_atom_site_fract_z
Si Si1 0.803765 0.610510 0.499976
Si Si2 0.635843 0.396489 0.472238
Si Si3 0.398130 0.823448 0.027591
Si Si4 0.500000 0.000000 0.000000
Si Si5 0.262134 0.893900 0.121638
Si Si6 0.035869 0.716209 0.382112
Si Si7 0.904727 0.136543 0.901464
O O1 0.807437 0.500000 0.505677
O O2 0.731202 0.635109 0.554816
O O3 0.784926 0.638777 0.310682
O O4 0.890693 0.652962 0.613514
O O5 0.625177 0.500000 0.527169
O O6 0.575261 0.314255 0.464552
O O7 0.621596 0.402673 0.280719
O O8 0.436588 0.918566 0.005887
O O9 0.311752 0.839327 0.037999
O O10 0.461808 0.778738 0.202219
O O11 0.395084 0.746595 0.896931
O O12 0.162705 0.892744 0.032836
O O13 0.288921 0.000000 0.134085
O O14 0.000000 0.669438 0.500000
O O15 0.000000 0.112051 0.000000
#
# Coordination Sequence:
#
# PCOD9209611 Si02
#       7
#     8   8   8   2   8   8   8
#     4   9  20  37  62  93 120 162 206 250 304 371
#     4  10  22  42  64  87 121 162 214 263 306 364
#     4  12  23  41  59  94 128 167 207 258 321 374
#     4  12  24  40  66  84 136 164 202 262 308 368
#     4  10  21  38  63  91 126 161 203 262 316 367
#     4  12  23  38  64  92 128 167 201 253 314 377
#     4  11  21  40  63  90 118 159 218 256 312 373
#
# _framework density 23.772952
#
# number of rings (size 3 to 8) (size 9 to 14) (size 15 to 20)
#    0.000    1.280    4.800    2.400    1.120    1.920 
#    0.000    0.000    0.000    0.000    0.000    0.000 
#    0.000    0.000    0.000    0.000    0.000    0.000 
#
# Total GULP energy -139484.104826 kJ/mol
# GULP energy per Si atom -5579.364193 kJ/mol
# Density = 2.371884 g / cm^3
# Si number density = 23.772952 Si / 1000 Ang^3
#
#
#
# Elastic Constant Matrix: (Units=GPa)
#
#
# Indices 1 2 3 4 5 6 
#
# 1 162.1494 21.8564 22.1136 0.0000 27.3551 0.0000
# 2 21.8564 101.2639 7.6853 0.0000 2.0905 0.0000
# 3 22.1136 7.6853 30.9810 0.0000 9.1655 0.0000
# 4 0.0000 0.0000 0.0000 -5.4096 0.0000 -33.6528
# 5 27.3551 2.0905 9.1655 0.0000 28.2586 0.0000
# 6 0.0000 0.0000 0.0000 -33.6528 0.0000 -15.5912
#
#
#
# Elastic Compliance Matrix: (Units=1/GPa)
#
#
# Indices 1 2 3 4 5 6 
#
# 1 0.007895 -0.001313 -0.003404 0.000000 -0.006441 0.000000
# 2 -0.001313 0.010283 -0.001952 0.000000 0.001143 0.000000
# 3 -0.003404 -0.001952 0.037801 0.000000 -0.008821 0.000000
# 4 0.000000 0.000000 0.000000 0.014875 0.000000 -0.032106
# 5 -0.006441 0.001143 -0.008821 0.000000 0.044399 0.000000
# 6 0.000000 0.000000 0.000000 -0.032106 0.000000 0.005161
#
#
# Mechanical properties :
#
#
# Convention : Reuss Voigt Hill
#
# Bulk Modulus (GPa) = 23.45113 44.18943 33.82028
# Shear Modulus (GPa) = 33.79155 17.63417 25.71286
#
# Velocity S-wave (km/s) = 3.77427 2.72651 3.29234
# Velocity P-wave (km/s) = 5.37397 5.34231 5.35816
#
# Compressibility (1/GPa) = 0.04264187
#
# Stress axis : x y z
#
# Youngs Moduli (GPa) = 126.66222 97.24729 26.45403
#
# Poissons Ratio (x) = 0.12766 0.09005
# Poissons Ratio (y) = 0.16627 0.05164
# Poissons Ratio (z) = 0.43116 0.18983
#
# Static dielectric constant tensor:
#      x y z
#    x 1.942540 0.000000 0.056150 
#    y 0.000000 1.898800 0.000000 
#    z 0.056150 0.000000 1.899760 
# 
# From -- ./inp_files/155926.got.cif
#   From: 2010.05.17/outbox.cif.g08.bks.cpg/sg12_78_cif.got.tgz:155926.got - 2010.06.03 13:09:07.
