data_PCOD9209997
_publ_section_title
;
Structure prediction by ZEFSAII (Michael W. Deem and Ramdas Pophale) SiO2 
 PCOD9209997
Probable space group: C 2/M
;
_chemical_formula_sum "Si O2"
_cell_formula_units_Z 42
_cell_length_a 9.411901
_cell_length_b 23.943747
_cell_length_c 10.446156
_cell_angle_alpha 90.000000
_cell_angle_beta 104.862080
_cell_angle_gamma 90.000000
_cell_volume 2275.351626
_symmetry_space_group_name_H-M "C 2/M"
_symmetry_group_IT_number 12
_symmetry_cell_setting 'monoclinic'
loop_
_space_group_symop_operation_xyz
x,y,z
-x,y,-z
-x,-y,-z
x,-y,z
1/2+x,1/2+y,z
1/2-x,1/2+y,-z
1/2-x,1/2-y,-z
1/2+x,1/2-y,z
loop_
_atom_site_type_symbol
_atom_site_label
_atom_site_fract_x
_atom_site_fract_y
_atom_site_fract_z
Si Si1 0.326486 0.302776 0.954661
Si Si2 0.347895 0.179377 0.622014
Si Si3 0.074326 0.562328 0.228832
Si Si4 0.668577 0.219617 0.668042
Si Si5 0.000000 0.000000 0.000000
Si Si6 0.775746 0.579373 0.007715
O O1 0.275605 0.306427 0.796503
O O2 0.263075 0.356092 0.011163
O O3 0.500000 0.298733 0.000000
O O4 0.250000 0.250000 0.000000
O O5 0.372216 0.115998 0.676324
O O6 0.502177 0.212251 0.679130
O O7 0.321796 0.186382 0.463863
O O8 0.219609 0.216349 0.657359
O O9 0.087481 0.500000 0.291706
O O10 0.906524 0.570754 0.141121
O O11 0.166028 0.561475 0.117815
O O12 0.129394 0.952383 0.013803
#
# Coordination Sequence:
#
# PCOD9209997 Si02
#       6
#     8   8   8   8   2   8
#     4  12  24  35  58  93 126 156 198 259 315 367
#     4  10  21  39  64  84 124 164 207 250 308 367
#     4  11  21  39  61  89 122 164 206 254 305 374
#     4  10  21  39  58  90 122 161 205 252 307 372
#     4  12  20  42  56  92 116 172 200 248 314 364
#     4  11  22  37  60  88 127 160 205 252 313 368
#
# _framework density 18.458686
#
# number of rings (size 3 to 8) (size 9 to 14) (size 15 to 20)
#    0.000    1.143    4.762    2.857    2.667    0.000 
#    0.000    1.905    2.095    0.000    0.000   13.333 
#    0.000    0.000    0.000    0.000    0.000    0.000 
#
# Total GULP energy -116933.468994 kJ/mol
# GULP energy per Si atom -5568.260428 kJ/mol
# Density = 1.841667 g / cm^3
# Si number density = 18.458686 Si / 1000 Ang^3
#
#
#
# Elastic Constant Matrix: (Units=GPa)
#
#
# Indices 1 2 3 4 5 6 
#
# 1 96.4104 60.6483 35.1334 0.0000 21.7972 0.0000
# 2 60.6483 194.8027 29.1214 0.0000 3.8438 0.0000
# 3 35.1334 29.1214 80.3017 0.0000 22.4904 0.0000
# 4 0.0000 0.0000 0.0000 16.2031 0.0000 4.2659
# 5 21.7972 3.8438 22.4904 0.0000 17.9366 0.0000
# 6 0.0000 0.0000 0.0000 4.2659 0.0000 53.0235
#
#
#
# Elastic Compliance Matrix: (Units=1/GPa)
#
#
# Indices 1 2 3 4 5 6 
#
# 1 0.018603 -0.005331 -0.000299 0.000000 -0.021089 0.000000
# 2 -0.005331 0.007003 -0.002468 0.000000 0.008072 0.000000
# 3 -0.000299 -0.002468 0.020389 0.000000 -0.024673 0.000000
# 4 0.000000 0.000000 0.000000 0.063052 0.000000 -0.005073
# 5 -0.021089 0.008072 -0.024673 0.000000 0.110587 0.000000
# 6 0.000000 0.000000 0.000000 -0.005073 0.000000 0.019268
#
#
# Mechanical properties :
#
#
# Convention : Reuss Voigt Hill
#
# Bulk Modulus (GPa) = 33.55866 69.03568 51.29717
# Shear Modulus (GPa) = 18.86572 33.87343 26.36957
#
# Velocity S-wave (km/s) = 3.20042 4.28845 3.78375
# Velocity P-wave (km/s) = 5.64596 7.87416 6.85125
#
# Compressibility (1/GPa) = 0.02979857
#
# Stress axis : x y z
#
# Youngs Moduli (GPa) = 53.75548 142.80196 49.04521
#
# Poissons Ratio (x) = 0.76124 0.01468
# Poissons Ratio (y) = 0.28656 0.12104
# Poissons Ratio (z) = 0.01609 0.35243
#
# Static dielectric constant tensor:
#      x y z
#    x 1.544930 0.000000 -0.035710 
#    y 0.000000 1.649620 0.000000 
#    z -0.035710 0.000000 1.646950 
# 
# From -- ./inp_files/120614.got.cif
#   From: 2010.05.17/outbox.cif.g08.bks.cpg/sg12_61_cif.got.tgz:120614.got - 2010.06.03 13:09:07.
