data_PCOD9209495
_publ_section_title
;
Structure prediction by ZEFSAII (Michael W. Deem and Ramdas Pophale) SiO2 
 PCOD9209495
Probable space group: C 2/M
;
_chemical_formula_sum "Si O2"
_cell_formula_units_Z 44
_cell_length_a 14.291310
_cell_length_b 11.066222
_cell_length_c 13.571914
_cell_angle_alpha 90.000000
_cell_angle_beta 100.416448
_cell_angle_gamma 90.000000
_cell_volume 2111.035517
_symmetry_space_group_name_H-M "C 2/M"
_symmetry_group_IT_number 12
_symmetry_cell_setting 'monoclinic'
loop_
_space_group_symop_operation_xyz
x,y,z
-x,y,-z
-x,-y,-z
x,-y,z
1/2+x,1/2+y,z
1/2-x,1/2+y,-z
1/2-x,1/2-y,-z
1/2+x,1/2-y,z
loop_
_atom_site_type_symbol
_atom_site_label
_atom_site_fract_x
_atom_site_fract_y
_atom_site_fract_z
Si Si1 0.884542 0.137120 0.982780
Si Si2 0.718047 0.356459 0.236751
Si Si3 0.500000 0.710691 0.500000
Si Si4 0.564618 0.857774 0.700170
Si Si5 0.689729 0.635502 0.451913
Si Si6 0.569263 0.865987 0.918203
O O1 0.842187 0.178465 0.869831
O O2 0.852042 0.000000 0.001853
O O3 0.865402 0.248918 0.052054
O O4 0.000000 0.128496 0.000000
O O5 0.727606 0.500000 0.226582
O O6 0.826367 0.311250 0.267119
O O7 0.669037 0.339220 0.332869
O O8 0.516534 0.790329 0.600825
O O9 0.594070 0.635638 0.496354
O O10 0.521261 0.847665 0.802063
O O11 0.566841 0.000000 0.676344
O O12 0.734748 0.500000 0.466189
O O13 0.750000 0.750000 0.500000
O O14 0.615521 0.000000 0.921281
O O15 0.500000 0.870979 0.000000
#
# Coordination Sequence:
#
# PCOD9209495 Si02
#       6
#     8   8   4   8   8   8
#     4   9  18  33  57  84 111 155 209 248 307 386
#     4   9  19  38  61  86 124 169 211 261 319 391
#     4  12  24  38  68 100 129 172 225 280 323 384
#     4  10  21  38  62  92 126 172 220 263 324 404
#     4  11  24  44  67  97 136 174 218 274 336 390
#     4   9  19  35  55  83 121 155 197 260 320 368
#
# _framework density 20.842852000000001
#
# number of rings (size 3 to 8) (size 9 to 14) (size 15 to 20)
#    0.000    2.182    1.818    0.545    5.091    1.455 
#    0.000    1.818    0.000    0.000    0.000    0.000 
#    0.000    0.000    0.000    0.000    0.000    0.000 
#
# Total GULP energy -122530.012689 kJ/mol
# GULP energy per Si atom -5569.546031 kJ/mol
# Density = 2.079541 g / cm^3
# Si number density = 20.842852 Si / 1000 Ang^3
#
#
#
# Elastic Constant Matrix: (Units=GPa)
#
#
# Indices 1 2 3 4 5 6 
#
# 1 64.2186 12.3816 21.7263 0.0000 -4.6533 0.0000
# 2 12.3816 156.9913 66.1149 0.0000 11.7844 0.0000
# 3 21.7263 66.1149 143.9864 0.0000 4.8664 0.0000
# 4 0.0000 0.0000 0.0000 32.9362 0.0000 3.1817
# 5 -4.6533 11.7844 4.8664 0.0000 39.3100 0.0000
# 6 0.0000 0.0000 0.0000 3.1817 0.0000 10.6689
#
#
#
# Elastic Compliance Matrix: (Units=1/GPa)
#
#
# Indices 1 2 3 4 5 6 
#
# 1 0.016642 -0.000498 -0.002364 0.000000 0.002412 0.000000
# 2 -0.000498 0.008060 -0.003557 0.000000 -0.002035 0.000000
# 3 -0.002364 -0.003557 0.008946 0.000000 -0.000321 0.000000
# 4 0.000000 0.000000 0.000000 0.031262 0.000000 -0.009323
# 5 0.002412 -0.002035 -0.000321 0.000000 0.026374 0.000000
# 6 0.000000 0.000000 0.000000 -0.009323 0.000000 0.096510
#
#
# Mechanical properties :
#
#
# Convention : Reuss Voigt Hill
#
# Bulk Modulus (GPa) = 48.05355 62.84909 55.45132
# Shear Modulus (GPa) = 24.08831 34.24792 29.16811
#
# Velocity S-wave (km/s) = 3.40326 4.05798 3.74495
# Velocity P-wave (km/s) = 6.20872 7.22326 6.73512
#
# Compressibility (1/GPa) = 0.02081012
#
# Stress axis : x y z
#
# Youngs Moduli (GPa) = 60.08744 124.07342 111.78299
#
# Poissons Ratio (x) = 0.06179 0.26426
# Poissons Ratio (y) = 0.02993 0.39760
# Poissons Ratio (z) = 0.14205 0.44132
#
# Static dielectric constant tensor:
#      x y z
#    x 1.827460 0.000000 -0.014250 
#    y 0.000000 1.795920 0.000000 
#    z -0.014250 0.000000 1.748590 
# 
# From -- ./inp_files/141057.got.cif
#   From: 2010.05.17/outbox.cif.g08.bks.cpg/sg12_71_cif.got.tgz:141057.got - 2010.06.03 13:09:07.
