data_PCOD9209654
_publ_section_title
;
Structure prediction by ZEFSAII (Michael W. Deem and Ramdas Pophale) SiO2 
 PCOD9209654
Probable space group: C 2/M
;
_chemical_formula_sum "Si O2"
_cell_formula_units_Z 52
_cell_length_a 17.077806
_cell_length_b 28.055064
_cell_length_c 5.477378
_cell_angle_alpha 90.000000
_cell_angle_beta 90.693266
_cell_angle_gamma 90.000000
_cell_volume 2624.123440
_symmetry_space_group_name_H-M "C 2/M"
_symmetry_group_IT_number 12
_symmetry_cell_setting 'monoclinic'
loop_
_space_group_symop_operation_xyz
x,y,z
-x,y,-z
-x,-y,-z
x,-y,z
1/2+x,1/2+y,z
1/2-x,1/2+y,-z
1/2-x,1/2-y,-z
1/2+x,1/2-y,z
loop_
_atom_site_type_symbol
_atom_site_label
_atom_site_fract_x
_atom_site_fract_y
_atom_site_fract_z
Si Si1 0.280214 0.625351 0.136619
Si Si2 0.427624 0.364588 0.813869
Si Si3 0.450445 0.000000 0.252230
Si Si4 0.850066 0.945368 0.522215
Si Si5 0.279942 0.774304 0.748135
Si Si6 0.544919 0.742837 0.262273
Si Si7 0.302958 0.948847 0.135570
O O1 0.325207 0.584273 0.285590
O O2 0.251121 0.671766 0.271312
O O3 0.344713 0.642133 0.946113
O O4 0.206386 0.598126 0.020582
O O5 0.414330 0.411971 0.654611
O O6 0.440047 0.313695 0.687369
O O7 0.500000 0.371455 0.000000
O O8 0.500000 0.000000 0.500000
O O9 0.388584 0.955902 0.251857
O O10 0.500000 0.000000 0.000000
O O11 0.770107 0.946840 0.681201
O O12 0.874331 0.000000 0.481459
O O13 0.250000 0.750000 0.500000
O O14 0.373142 0.769546 0.758763
O O15 0.250000 0.750000 0.000000
O O16 0.500000 0.761114 0.500000
O O17 0.500000 0.745562 0.000000
O O18 0.292836 0.000000 0.995346
#
# Coordination Sequence:
#
# PCOD9209654 Si02
#       7
#     8   8   4   8   8   8   8
#     4  11  22  39  67  94 127 178 223 275 330 401
#     4  10  23  38  62  94 127 175 225 272 333 397
#     4  10  22  38  68  98 125 168 219 266 328 396
#     4  10  21  38  63  93 131 175 220 266 335 383
#     4  12  25  43  69 101 130 171 232 276 334 408
#     4  11  24  44  70  95 135 176 218 282 347 397
#     4   8  20  38  62  91 130 170 219 267 322 392
#
# _framework density 19.816143
#
# number of rings (size 3 to 8) (size 9 to 14) (size 15 to 20)
#    0.462    1.231    1.538    2.308   10.769    0.923 
#    0.000    1.538    0.000    0.000    0.000    0.000 
#    0.000    0.000    0.000    0.000    0.000    0.000 
#
# Total GULP energy -144946.014775 kJ/mol
# GULP energy per Si atom -5574.846722 kJ/mol
# Density = 1.977104 g / cm^3
# Si number density = 19.816143 Si / 1000 Ang^3
#
#
#
# Elastic Constant Matrix: (Units=GPa)
#
#
# Indices 1 2 3 4 5 6 
#
# 1 102.1821 11.5133 32.0240 0.0000 5.0135 0.0000
# 2 11.5133 49.5532 17.4601 0.0000 -0.0643 0.0000
# 3 32.0240 17.4601 74.3219 0.0000 -1.9723 0.0000
# 4 0.0000 0.0000 0.0000 22.8345 0.0000 -5.7247
# 5 5.0135 -0.0643 -1.9723 0.0000 32.3648 0.0000
# 6 0.0000 0.0000 0.0000 -5.7247 0.0000 7.2632
#
#
#
# Elastic Compliance Matrix: (Units=1/GPa)
#
#
# Indices 1 2 3 4 5 6 
#
# 1 0.011497 -0.000991 -0.004776 0.000000 -0.002074 0.000000
# 2 -0.000991 0.022089 -0.004765 0.000000 -0.000093 0.000000
# 3 -0.004776 -0.004765 0.016679 0.000000 0.001747 0.000000
# 4 0.000000 0.000000 0.000000 0.054578 0.000000 0.043017
# 5 -0.002074 -0.000093 0.001747 0.000000 0.031325 0.000000
# 6 0.000000 0.000000 0.000000 0.043017 0.000000 0.171586
#
#
# Mechanical properties :
#
#
# Convention : Reuss Voigt Hill
#
# Bulk Modulus (GPa) = 34.24535 38.67243 36.45889
# Shear Modulus (GPa) = 14.76884 23.49649 19.13267
#
# Velocity S-wave (km/s) = 2.73297 3.44717 3.11064
# Velocity P-wave (km/s) = 5.22282 5.94996 5.59821
#
# Compressibility (1/GPa) = 0.02920105
#
# Stress axis : x y z
#
# Youngs Moduli (GPa) = 86.98187 45.27073 59.95721
#
# Poissons Ratio (x) = 0.04487 0.28635
# Poissons Ratio (y) = 0.08620 0.28568
# Poissons Ratio (z) = 0.41542 0.21571
#
# Static dielectric constant tensor:
#      x y z
#    x 1.676520 0.000000 0.001240 
#    y 0.000000 1.707640 0.000000 
#    z 0.001240 0.000000 1.906360 
# 
# From -- ./inp_files/17445.got.cif
#   From: 2010.05.17/outbox.cif.g08.bks.cpg/sg12_9_cif.got.tgz:17445.got - 2010.06.03 13:09:07.
