data_PCOD9209135
_publ_section_title
;
Structure prediction by ZEFSAII (Michael W. Deem and Ramdas Pophale) SiO2 
 PCOD9209135
Probable space group: C 2/M
;
_chemical_formula_sum "Si O2"
_cell_formula_units_Z 34
_cell_length_a 27.301049
_cell_length_b 7.255289
_cell_length_c 19.095919
_cell_angle_alpha 90.000000
_cell_angle_beta 21.640234
_cell_angle_gamma 90.000000
_cell_volume 1394.886504
_symmetry_space_group_name_H-M "C 2/M"
_symmetry_group_IT_number 12
_symmetry_cell_setting 'monoclinic'
loop_
_space_group_symop_operation_xyz
x,y,z
-x,y,-z
-x,-y,-z
x,-y,z
1/2+x,1/2+y,z
1/2-x,1/2+y,-z
1/2-x,1/2-y,-z
1/2+x,1/2-y,z
loop_
_atom_site_type_symbol
_atom_site_label
_atom_site_fract_x
_atom_site_fract_y
_atom_site_fract_z
Si Si1 0.887101 0.725419 0.595319
Si Si2 0.500000 0.000000 0.000000
Si Si3 0.900124 0.212138 0.974437
Si Si4 0.847990 0.778480 0.273726
Si Si5 0.941180 0.279081 0.364491
O O1 0.883729 0.500000 0.598767
O O2 0.925458 0.782278 0.465482
O O3 0.000000 0.780173 0.500000
O O4 0.742860 0.787364 0.814906
O O5 0.614345 0.164039 0.844812
O O6 0.033463 0.292807 0.833450
O O7 0.934167 0.216694 0.846840
O O8 0.899940 0.000000 0.997565
O O9 0.696812 0.726672 0.491498
O O10 0.852188 0.000000 0.259368
O O11 0.946839 0.500000 0.357856
#
# Coordination Sequence:
#
# PCOD9209135 Si02
#       5
#     8   2   8   8   8
#     4   9  19  37  59  84 116 159 206 250 307 367
#     4  12  22  32  64  90 122 174 198 244 296 364
#     4  10  21  38  61  87 123 160 198 253 305 364
#     4  10  22  38  57  93 131 160 201 246 305 372
#     4  10  21  38  61  87 123 160 198 253 305 364
#
# _framework density 24.374742999999999
#
# number of rings (size 3 to 8) (size 9 to 14) (size 15 to 20)
#    0.000    2.118    0.000    2.471    3.294    4.706 
#    0.000    0.000    0.000    1.412    0.000    0.000 
#    0.000    0.000    0.000    0.000    0.000    0.000 
#
# Total GULP energy -94697.665938 kJ/mol
# GULP energy per Si atom -5570.450938 kJ/mol
# Density = 2.431926 g / cm^3
# Si number density = 24.374743 Si / 1000 Ang^3
#
#
#
# Elastic Constant Matrix: (Units=GPa)
#
#
# Indices 1 2 3 4 5 6 
#
# 1 155.8317 -12.8722 101.5517 0.0006 -4.0326 0.0005
# 2 -12.8722 123.2290 -0.5585 -0.0089 -9.6818 0.0031
# 3 101.5517 -0.5585 177.7207 -0.0129 13.4778 0.0004
# 4 0.0006 -0.0089 -0.0129 4.7503 -0.0002 2.1057
# 5 -4.0326 -9.6818 13.4778 -0.0002 31.8771 0.0005
# 6 0.0005 0.0031 0.0004 2.1057 0.0005 -5.9657
#
#
#
# Elastic Compliance Matrix: (Units=1/GPa)
#
#
# Indices 1 2 3 4 5 6 
#
# 1 0.010971 0.001480 -0.006615 -0.000015 0.004634 -0.000004
# 2 0.001480 0.008518 -0.001063 0.000009 0.003224 0.000008
# 3 -0.006615 -0.001063 0.009806 0.000022 -0.005306 0.000007
# 4 -0.000015 0.000009 0.000022 0.182031 -0.000008 0.064250
# 5 0.004634 0.003224 -0.005306 -0.000008 0.035179 0.000002
# 6 -0.000004 0.000008 0.000007 0.064250 0.000002 -0.144945
#
#
# Mechanical properties :
#
#
# Convention : Reuss Voigt Hill
#
# Bulk Modulus (GPa) = 59.18262 70.33594 64.75928
# Shear Modulus (GPa) = 41.80957 30.70970 36.25964
#
# Velocity S-wave (km/s) = 4.14609 3.55336 3.86111
# Velocity P-wave (km/s) = 6.87409 6.76416 6.81934
#
# Compressibility (1/GPa) = 0.01689685
#
# Stress axis : x y z
#
# Youngs Moduli (GPa) = 91.15333 117.39761 101.97811
#
# Poissons Ratio (x) = -0.17376 0.67464
# Poissons Ratio (y) = -0.13491 0.10845
# Poissons Ratio (z) = 0.60302 0.12485
#
# Static dielectric constant tensor:
#      x y z
#    x 2.126730 0.000000 0.122700 
#    y 0.000000 1.925220 0.000010 
#    z 0.122700 0.000010 1.999330 
# 
# From -- ./inp_files/329174.got.cif
#   From: 2010.05.17/outbox.cif.g08.bks.cpg/sg12_165_cif.got.tgz:329174.got - 2010.06.03 13:09:07.
