data_PCOD9209614
_publ_section_title
;
Structure prediction by ZEFSAII (Michael W. Deem and Ramdas Pophale) SiO2 
 PCOD9209614
Probable space group: C 2/M
;
_chemical_formula_sum "Si O2"
_cell_formula_units_Z 56
_cell_length_a 27.272312
_cell_length_b 14.295293
_cell_length_c 14.081972
_cell_angle_alpha 90.000000
_cell_angle_beta 26.022022
_cell_angle_gamma 90.000000
_cell_volume 2408.588085
_symmetry_space_group_name_H-M "C 2/M"
_symmetry_group_IT_number 12
_symmetry_cell_setting 'monoclinic'
loop_
_space_group_symop_operation_xyz
x,y,z
-x,y,-z
-x,-y,-z
x,-y,z
1/2+x,1/2+y,z
1/2-x,1/2+y,-z
1/2-x,1/2-y,-z
1/2+x,1/2-y,z
loop_
_atom_site_type_symbol
_atom_site_label
_atom_site_fract_x
_atom_site_fract_y
_atom_site_fract_z
Si Si1 0.477967 0.272716 0.727713
Si Si2 0.762747 0.853497 0.016076
Si Si3 0.240610 0.678473 0.378672
Si Si4 0.226896 0.890633 0.472146
Si Si5 0.892843 0.902311 0.616560
Si Si6 0.986210 0.183741 0.920374
Si Si7 0.081619 0.394318 0.487839
O O1 0.375105 0.342409 0.885514
O O2 0.588344 0.321508 0.491111
O O3 0.485449 0.255269 0.826381
O O4 0.477175 0.176387 0.671251
O O5 0.792594 0.902980 0.865335
O O6 0.750000 0.750000 0.000000
O O7 0.661867 0.886342 0.256728
O O8 0.249505 0.793416 0.372195
O O9 0.216685 0.636659 0.524822
O O10 0.156669 0.639851 0.446141
O O11 0.363532 0.640679 0.137882
O O12 0.092337 0.883749 0.722614
O O13 0.253900 0.000000 0.398156
O O14 0.000000 0.895172 0.500000
O O15 0.896310 0.000000 0.557163
O O16 0.000000 0.230657 0.000000
O O17 0.044988 0.500000 0.562290
#
# Coordination Sequence:
#
# PCOD9209614 Si02
#       7
#     8   8   8   8   8   8   8
#     4  11  22  41  63  92 129 162 206 269 315 373
#     4  11  22  41  66  90 126 163 206 263 326 379
#     4  10  21  40  61  90 132 168 213 266 317 379
#     4  10  21  38  64  93 125 167 218 270 320 369
#     4   9  19  36  60  88 115 149 196 252 317 375
#     4  10  21  38  63  91 132 165 206 261 322 367
#     4  12  24  40  65  94 125 172 217 255 318 391
#
# _framework density 23.250136999999999
#
# number of rings (size 3 to 8) (size 9 to 14) (size 15 to 20)
#    0.000    1.571    4.286    0.857    0.000    4.286 
#    0.000    2.857    0.000    2.571    0.000    0.000 
#    0.000    0.000    0.000    0.000    0.000    0.000 
#
# Total GULP energy -156024.385538 kJ/mol
# GULP energy per Si atom -5572.299484 kJ/mol
# Density = 2.319722 g / cm^3
# Si number density = 23.250137 Si / 1000 Ang^3
#
#
#
# Elastic Constant Matrix: (Units=GPa)
#
#
# Indices 1 2 3 4 5 6 
#
# 1 86.6073 5.8443 18.8099 0.0000 16.4882 0.0000
# 2 5.8443 134.5591 1.6940 0.0000 18.1557 0.0000
# 3 18.8099 1.6940 49.1432 0.0000 22.0360 0.0000
# 4 0.0000 0.0000 0.0000 9.6642 0.0000 3.4280
# 5 16.4882 18.1557 22.0360 0.0000 37.2754 0.0000
# 6 0.0000 0.0000 0.0000 3.4280 0.0000 -10.0875
#
#
#
# Elastic Compliance Matrix: (Units=1/GPa)
#
#
# Indices 1 2 3 4 5 6 
#
# 1 0.012980 -0.000009 -0.003259 0.000000 -0.003811 0.000000
# 2 -0.000009 0.008100 0.002029 0.000000 -0.005141 0.000000
# 3 -0.003259 0.002029 0.029014 0.000000 -0.016699 0.000000
# 4 0.000000 0.000000 0.000000 0.092344 0.000000 0.031380
# 5 -0.003811 -0.005141 -0.016699 0.000000 0.040889 0.000000
# 6 0.000000 0.000000 0.000000 0.031380 0.000000 -0.088469
#
#
# Mechanical properties :
#
#
# Convention : Reuss Voigt Hill
#
# Bulk Modulus (GPa) = 21.00050 35.88955 28.44502
# Shear Modulus (GPa) = 44.16641 23.63451 33.90046
#
# Velocity S-wave (km/s) = 4.36319 3.19177 3.82262
# Velocity P-wave (km/s) = 5.86816 5.39008 5.63419
#
# Compressibility (1/GPa) = 0.04761793
#
# Stress axis : x y z
#
# Youngs Moduli (GPa) = 77.03987 123.45361 34.46591
#
# Poissons Ratio (x) = 0.00106 0.11233
# Poissons Ratio (y) = 0.00066 -0.06995
# Poissons Ratio (z) = 0.25109 -0.25054
#
# Static dielectric constant tensor:
#      x y z
#    x 1.959280 0.000000 -0.042670 
#    y 0.000000 1.783250 0.000000 
#    z -0.042670 0.000000 1.921960 
# 
# From -- ./inp_files/251015.got.cif
#   From: 2010.05.17/outbox.cif.g08.bks.cpg/sg12_126_cif.got.tgz:251015.got - 2010.06.03 13:09:07.
