data_PCOD9209365
_publ_section_title
;
Structure prediction by ZEFSAII (Michael W. Deem and Ramdas Pophale) SiO2 
 PCOD9209365
Probable space group: C 2/M
;
_chemical_formula_sum "Si O2"
_cell_formula_units_Z 56
_cell_length_a 20.407757
_cell_length_b 7.675786
_cell_length_c 15.476977
_cell_angle_alpha 90.000000
_cell_angle_beta 62.277530
_cell_angle_gamma 90.000000
_cell_volume 2146.106146
_symmetry_space_group_name_H-M "C 2/M"
_symmetry_group_IT_number 12
_symmetry_cell_setting 'monoclinic'
loop_
_space_group_symop_operation_xyz
x,y,z
-x,y,-z
-x,-y,-z
x,-y,z
1/2+x,1/2+y,z
1/2-x,1/2+y,-z
1/2-x,1/2-y,-z
1/2+x,1/2-y,z
loop_
_atom_site_type_symbol
_atom_site_label
_atom_site_fract_x
_atom_site_fract_y
_atom_site_fract_z
Si Si1 0.157098 0.294261 0.111869
Si Si2 0.368580 0.199799 0.409577
Si Si3 0.655717 0.788784 0.391064
Si Si4 0.455369 0.798907 0.947611
Si Si5 0.099579 0.798106 0.793494
Si Si6 0.728558 0.712623 0.828038
Si Si7 0.537090 0.704231 0.331466
O O1 0.167171 0.500000 0.090744
O O2 0.232523 0.222638 0.108006
O O3 0.096485 0.276623 0.225873
O O4 0.116426 0.215837 0.052873
O O5 0.332306 0.274985 0.518722
O O6 0.357728 0.285365 0.323226
O O7 0.456871 0.210091 0.375145
O O8 0.346435 0.000000 0.413904
O O9 0.717457 0.735696 0.283997
O O10 0.578094 0.728100 0.397886
O O11 0.654618 0.000000 0.394177
O O12 0.521534 0.797496 0.836351
O O13 0.439461 0.000000 0.977751
O O14 0.500000 0.716565 0.000000
O O15 0.148561 0.730108 0.843564
O O16 0.084015 0.000000 0.816940
O O17 0.727693 0.500000 0.831530
O O18 0.526691 0.500000 0.319245
#
# Coordination Sequence:
#
# PCOD9209365 Si02
#       7
#     8   8   8   8   8   8   8
#     4   9  17  35  60  79 106 148 186 219 265 331
#     4  11  21  33  51  75 107 148 192 230 271 325
#     4   9  19  35  53  73 104 151 196 227 263 322
#     4  10  21  38  62  88 110 138 181 227 271 330
#     4  11  22  36  56  82 113 144 179 230 284 329
#     4   8  17  35  56  78 107 149 191 221 266 327
#     4  11  20  30  49  79 112 142 182 234 282 319
#
# _framework density 26.093771
#
# number of rings (size 3 to 8) (size 9 to 14) (size 15 to 20)
#    0.000    2.143    1.429    3.429    0.000    3.714 
#    0.000    6.429    0.000    0.000    0.000    0.000 
#    0.000    0.000    0.000    0.000    0.000    0.000 
#
# Total GULP energy -156633.728757 kJ/mol
# GULP energy per Si atom -5594.061741 kJ/mol
# Density = 2.603438 g / cm^3
# Si number density = 26.093771 Si / 1000 Ang^3
#
#
#
# Elastic Constant Matrix: (Units=GPa)
#
#
# Indices 1 2 3 4 5 6 
#
# 1 156.4362 7.0209 45.5281 0.0000 30.0136 0.0000
# 2 7.0209 87.4745 18.1867 0.0002 1.0955 0.0002
# 3 45.5281 18.1867 129.0991 0.0000 32.1605 0.0000
# 4 0.0000 0.0002 0.0000 20.3104 0.0000 1.4084
# 5 30.0136 1.0955 32.1605 0.0000 51.9343 0.0000
# 6 0.0000 0.0002 0.0000 1.4084 0.0000 11.4032
#
#
#
# Elastic Compliance Matrix: (Units=1/GPa)
#
#
# Indices 1 2 3 4 5 6 
#
# 1 0.007553 -0.000184 -0.001834 0.000000 -0.003225 0.000000
# 2 -0.000184 0.011819 -0.001850 0.000000 0.001003 0.000000
# 3 -0.001834 -0.001850 0.009908 0.000000 -0.005037 0.000000
# 4 0.000000 0.000000 0.000000 0.049661 0.000000 -0.006134
# 5 -0.003225 0.001003 -0.005037 0.000000 0.024217 0.000000
# 6 0.000000 0.000000 0.000000 -0.006134 0.000000 0.088453
#
#
# Mechanical properties :
#
#
# Convention : Reuss Voigt Hill
#
# Bulk Modulus (GPa) = 46.41821 57.16458 51.79140
# Shear Modulus (GPa) = 24.20971 36.88119 30.54545
#
# Velocity S-wave (km/s) = 3.04928 3.76361 3.42512
# Velocity P-wave (km/s) = 5.49774 6.39072 5.96097
#
# Compressibility (1/GPa) = 0.02154327
#
# Stress axis : x y z
#
# Youngs Moduli (GPa) = 132.39214 84.61159 100.92733
#
# Poissons Ratio (x) = 0.01561 0.18513
# Poissons Ratio (y) = 0.02443 0.18668
# Poissons Ratio (z) = 0.24284 0.15650
#
# Static dielectric constant tensor:
#      x y z
#    x 2.054650 0.000000 -0.000700 
#    y 0.000000 1.926140 0.000000 
#    z -0.000700 0.000000 2.144510 
# 
# From -- ./inp_files/280341.got.cif
#   From: 2010.05.17/outbox.cif.g08.bks.cpg/sg12_141_cif.got.tgz:280341.got - 2010.06.03 13:09:07.
