data_PCOD9209121
_publ_section_title
;
Structure prediction by ZEFSAII (Michael W. Deem and Ramdas Pophale) SiO2 
 PCOD9209121
Probable space group: C 2/M
;
_chemical_formula_sum "Si O2"
_cell_formula_units_Z 64
_cell_length_a 9.343735
_cell_length_b 14.979807
_cell_length_c 30.879850
_cell_angle_alpha 90.000000
_cell_angle_beta 135.900120
_cell_angle_gamma 90.000000
_cell_volume 3007.847384
_symmetry_space_group_name_H-M "C 2/M"
_symmetry_group_IT_number 12
_symmetry_cell_setting 'monoclinic'
loop_
_space_group_symop_operation_xyz
x,y,z
-x,y,-z
-x,-y,-z
x,-y,z
1/2+x,1/2+y,z
1/2-x,1/2+y,-z
1/2-x,1/2-y,-z
1/2+x,1/2-y,z
loop_
_atom_site_type_symbol
_atom_site_label
_atom_site_fract_x
_atom_site_fract_y
_atom_site_fract_z
Si Si1 0.615148 0.391374 0.480405
Si Si2 0.929947 0.595844 0.741371
Si Si3 0.357267 0.604448 0.011883
Si Si4 0.506053 0.666766 0.364079
Si Si5 0.356877 0.141680 0.300169
Si Si6 0.518729 0.735927 0.818510
Si Si7 0.086296 0.400833 0.590462
Si Si8 0.969024 0.276646 0.903659
O O1 0.500000 0.369890 0.500000
O O2 0.601722 0.500000 0.471696
O O3 0.517039 0.342961 0.418083
O O4 0.855035 0.365617 0.535399
O O5 0.999294 0.500000 0.774161
O O6 0.683004 0.603351 0.690842
O O7 0.021089 0.681342 0.785586
O O8 0.002882 0.602212 0.707316
O O9 0.342753 0.500000 0.022622
O O10 0.138035 0.649477 0.952571
O O11 0.500000 0.606100 0.000000
O O12 0.456473 0.677469 0.065884
O O13 0.441553 0.761435 0.331437
O O14 0.729471 0.647364 0.393590
O O15 0.128885 0.159371 0.232199
O O16 0.362729 0.094203 0.347503
O O17 0.749904 0.704873 0.877628
O O18 0.432671 0.774271 0.844515
O O19 0.083341 0.500000 0.570990
#
# Coordination Sequence:
#
# PCOD9209121 Si02
#       8
#     8   8   8   8   8   8   8   8
#     4  10  21  38  61  87 119 160 205 256 318 385
#     4  11  23  40  64  90 121 165 214 257 308 386
#     4  10  22  41  70 101 131 175 221 259 314 378
#     4  11  22  39  62  88 119 156 203 260 322 378
#     4  11  24  42  61  87 125 162 204 254 314 377
#     4  11  23  41  64  92 129 174 209 252 321 367
#     4  11  23  39  61  88 119 155 202 262 317 369
#     4  11  22  43  67  96 137 172 208 272 316 363
#
# _framework density 21.277674999999999
#
# number of rings (size 3 to 8) (size 9 to 14) (size 15 to 20)
#    0.000    1.250    2.500    4.125    1.750    3.500 
#    0.000    3.750    0.000    0.000    0.000    0.000 
#    0.000    0.000    0.000    0.000    0.000    0.000 
#
# Total GULP energy -178841.578227 kJ/mol
# GULP energy per Si atom -5588.799320 kJ/mol
# Density = 2.122925 g / cm^3
# Si number density = 21.277675 Si / 1000 Ang^3
#
#
#
# Elastic Constant Matrix: (Units=GPa)
#
#
# Indices 1 2 3 4 5 6 
#
# 1 89.2414 27.3218 9.1037 0.0000 14.1770 0.0000
# 2 27.3218 90.2549 13.5515 0.0000 15.4416 0.0000
# 3 9.1037 13.5515 68.1210 0.0000 15.3162 0.0000
# 4 0.0000 0.0000 0.0000 18.9744 0.0000 -13.8320
# 5 14.1770 15.4416 15.3162 0.0000 50.3754 0.0000
# 6 0.0000 0.0000 0.0000 -13.8320 0.0000 31.0903
#
#
#
# Elastic Compliance Matrix: (Units=1/GPa)
#
#
# Indices 1 2 3 4 5 6 
#
# 1 0.012661 -0.003351 -0.000489 0.000000 -0.002387 0.000000
# 2 -0.003351 0.012751 -0.001526 0.000000 -0.002502 0.000000
# 3 -0.000489 -0.001526 0.016007 0.000000 -0.004261 0.000000
# 4 0.000000 0.000000 0.000000 0.078000 0.000000 0.034702
# 5 -0.002387 -0.002502 -0.004261 0.000000 0.022585 0.000000
# 6 0.000000 0.000000 0.000000 0.034702 0.000000 0.047603
#
#
# Mechanical properties :
#
#
# Convention : Reuss Voigt Hill
#
# Bulk Modulus (GPa) = 32.58705 38.61902 35.60304
# Shear Modulus (GPa) = 23.74537 33.26404 28.50471
#
# Velocity S-wave (km/s) = 3.34425 3.95819 3.66410
# Velocity P-wave (km/s) = 5.50094 6.25133 5.88810
#
# Compressibility (1/GPa) = 0.03068703
#
# Stress axis : x y z
#
# Youngs Moduli (GPa) = 78.98570 78.42374 62.47335
#
# Poissons Ratio (x) = 0.26278 0.03053
# Poissons Ratio (y) = 0.26466 0.09536
# Poissons Ratio (z) = 0.03859 0.11971
#
# Static dielectric constant tensor:
#      x y z
#    x 1.741790 0.000000 0.009150 
#    y 0.000000 1.807480 0.000000 
#    z 0.009150 0.000000 1.763440 
# 
# From -- ./inp_files/372616.got.cif
#   From: 2010.05.17/outbox.cif.g08.bks.cpg/sg12_187_cif.got.tgz:372616.got - 2010.06.03 13:09:07.
