data_PCOD9209364
_publ_section_title
;
Structure prediction by ZEFSAII (Michael W. Deem and Ramdas Pophale) SiO2 
 PCOD9209364
Probable space group: C 2/M
;
_chemical_formula_sum "Si O2"
_cell_formula_units_Z 32
_cell_length_a 7.689955
_cell_length_b 35.927871
_cell_length_c 5.449478
_cell_angle_alpha 90.000000
_cell_angle_beta 113.889196
_cell_angle_gamma 90.000000
_cell_volume 1376.617586
_symmetry_space_group_name_H-M "C 2/M"
_symmetry_group_IT_number 12
_symmetry_cell_setting 'monoclinic'
loop_
_space_group_symop_operation_xyz
x,y,z
-x,y,-z
-x,-y,-z
x,-y,z
1/2+x,1/2+y,z
1/2-x,1/2+y,-z
1/2-x,1/2-y,-z
1/2+x,1/2-y,z
loop_
_atom_site_type_symbol
_atom_site_label
_atom_site_fract_x
_atom_site_fract_y
_atom_site_fract_z
Si Si1 0.500000 0.264738 0.000000
Si Si2 0.774590 0.917933 0.868321
Si Si3 0.232234 0.121531 0.636735
Si Si4 0.717171 0.704726 0.717766
Si Si5 0.879251 0.500000 0.182032
O O1 0.663058 0.290574 0.975194
O O2 0.376443 0.235839 0.765571
O O3 0.706621 0.901017 0.570037
O O4 0.735534 0.961601 0.873222
O O5 0.704998 0.897240 0.073110
O O6 0.000000 0.912256 0.000000
O O7 0.288590 0.164740 0.674073
O O8 0.000000 0.121597 0.500000
O O9 0.500000 0.709316 0.500000
O O10 0.000000 0.500000 0.500000
O O11 0.000000 0.500000 0.000000
#
# Coordination Sequence:
#
# PCOD9209364 Si02
#       5
#     4   8   8   8   4
#     4  10  22  38  60  94 120 174 220 266 338 384
#     4  10  21  42  66  94 119 170 215 255 308 389
#     4   9  20  36  66  91 125 162 214 264 318 365
#     4  10  21  38  62  87 131 166 219 271 326 385
#     4  12  25  42  65  94 136 166 198 262 325 372
#
# _framework density 23.245381999999999
#
# number of rings (size 3 to 8) (size 9 to 14) (size 15 to 20)
#    0.000    2.000    0.000    2.625    8.750    0.000 
#    6.750    5.000    0.000    0.000    0.000    0.000 
#    0.000    0.000    0.000    0.000    0.000    0.000 
#
# Total GULP energy -89312.721927 kJ/mol
# GULP energy per Si atom -5582.045120 kJ/mol
# Density = 2.319247 g / cm^3
# Si number density = 23.245382 Si / 1000 Ang^3
#
#
#
# Elastic Constant Matrix: (Units=GPa)
#
#
# Indices 1 2 3 4 5 6 
#
# 1 93.6455 32.1413 33.8036 0.0000 -6.9770 0.0000
# 2 32.1413 146.4817 65.4004 0.0000 -33.6823 0.0000
# 3 33.8036 65.4004 125.1719 0.0000 -38.5297 0.0000
# 4 0.0000 0.0000 0.0000 28.0556 0.0000 19.4234
# 5 -6.9770 -33.6823 -38.5297 0.0000 30.9137 0.0000
# 6 0.0000 0.0000 0.0000 19.4234 0.0000 -3.8476
#
#
#
# Elastic Compliance Matrix: (Units=1/GPa)
#
#
# Indices 1 2 3 4 5 6 
#
# 1 0.012329 -0.002031 -0.003396 0.000000 -0.003663 0.000000
# 2 -0.002031 0.010074 -0.002397 0.000000 0.007530 0.000000
# 3 -0.003396 -0.002397 0.014795 0.000000 0.015061 0.000000
# 4 0.000000 0.000000 0.000000 0.007930 0.000000 0.040030
# 5 -0.003663 0.007530 0.015061 0.000000 0.058498 0.000000
# 6 0.000000 0.000000 0.000000 0.040030 0.000000 -0.057821
#
#
# Mechanical properties :
#
#
# Convention : Reuss Voigt Hill
#
# Bulk Modulus (GPa) = 46.40518 69.77661 58.09089
# Shear Modulus (GPa) = 72.84840 26.62125 49.73482
#
# Velocity S-wave (km/s) = 5.60419 3.38779 4.63055
# Velocity P-wave (km/s) = 7.86654 6.73687 7.32352
#
# Compressibility (1/GPa) = 0.02154932
#
# Stress axis : x y z
#
# Youngs Moduli (GPa) = 81.11220 99.26216 67.59252
#
# Poissons Ratio (x) = 0.20164 0.22952
# Poissons Ratio (y) = 0.16477 0.16203
# Poissons Ratio (z) = 0.27542 0.23794
#
# Static dielectric constant tensor:
#      x y z
#    x 1.884950 0.000000 -0.070160 
#    y 0.000000 1.869230 0.000000 
#    z -0.070160 0.000000 2.108940 
# 
# From -- ./inp_files/3944.got.cif
#   From: 2010.05.17/outbox.cif.g08.bks.cpg/sg12_2_cif.got.tgz:3944.got - 2010.06.03 13:09:07.
