data_PCOD9209673
_publ_section_title
;
Structure prediction by ZEFSAII (Michael W. Deem and Ramdas Pophale) SiO2 
 PCOD9209673
Probable space group: C 2/M
;
_chemical_formula_sum "Si O2"
_cell_formula_units_Z 36
_cell_length_a 14.905575
_cell_length_b 15.826996
_cell_length_c 13.278191
_cell_angle_alpha 90.000000
_cell_angle_beta 141.356034
_cell_angle_gamma 90.000000
_cell_volume 1956.158566
_symmetry_space_group_name_H-M "C 2/M"
_symmetry_group_IT_number 12
_symmetry_cell_setting 'monoclinic'
loop_
_space_group_symop_operation_xyz
x,y,z
-x,y,-z
-x,-y,-z
x,-y,z
1/2+x,1/2+y,z
1/2-x,1/2+y,-z
1/2-x,1/2-y,-z
1/2+x,1/2-y,z
loop_
_atom_site_type_symbol
_atom_site_label
_atom_site_fract_x
_atom_site_fract_y
_atom_site_fract_z
Si Si1 0.515373 0.097429 0.393457
Si Si2 0.220276 0.740170 0.857110
Si Si3 0.500000 0.669209 0.000000
Si Si4 0.659353 0.399804 0.338314
Si Si5 0.548814 0.403659 0.658628
O O1 0.500000 0.091642 0.500000
O O2 0.394219 0.163753 0.254309
O O3 0.676319 0.132537 0.514173
O O4 0.497634 0.000000 0.338563
O O5 0.365735 0.719209 0.926590
O O6 0.161850 0.829105 0.766810
O O7 0.250000 0.750000 0.000000
O O8 0.430864 0.622843 0.841285
O O9 0.678156 0.500000 0.350542
O O10 0.572966 0.380968 0.365080
O O11 0.500000 0.404642 0.500000
O O12 0.597119 0.500000 0.725635
#
# Coordination Sequence:
#
# PCOD9209673 Si02
#       5
#     8   8   4   8   8
#     4  10  21  38  63  95 127 160 201 260 322 371
#     4  12  25  40  60  95 130 168 204 256 317 372
#     4  12  23  38  61  98 128 162 208 262 318 368
#     4  10  21  39  66  96 124 162 209 261 316 370
#     4  10  23  43  65  89 124 169 213 252 304 375
#
# _framework density 18.403416
#
# number of rings (size 3 to 8) (size 9 to 14) (size 15 to 20)
#    0.000    1.333    4.444    1.000    0.000    4.444 
#    0.000    0.556    0.000    0.000    0.000    0.000 
#    0.000    0.000    0.000    0.000    0.000    0.000 
#
# Total GULP energy -100334.192344 kJ/mol
# GULP energy per Si atom -5574.121797 kJ/mol
# Density = 1.836153 g / cm^3
# Si number density = 18.403416 Si / 1000 Ang^3
#
#
#
# Elastic Constant Matrix: (Units=GPa)
#
#
# Indices 1 2 3 4 5 6 
#
# 1 141.4108 29.9235 59.2798 0.0000 12.0179 0.0000
# 2 29.9235 69.2900 57.1156 0.0000 13.4546 0.0000
# 3 59.2798 57.1156 108.2702 0.0000 6.4659 0.0000
# 4 0.0000 0.0000 0.0000 1.8450 0.0000 -12.5892
# 5 12.0179 13.4546 6.4659 0.0000 44.4550 0.0000
# 6 0.0000 0.0000 0.0000 -12.5892 0.0000 18.7859
#
#
#
# Elastic Compliance Matrix: (Units=1/GPa)
#
#
# Indices 1 2 3 4 5 6 
#
# 1 0.009343 0.000831 -0.005435 0.000000 -0.001987 0.000000
# 2 0.000831 0.027196 -0.014422 0.000000 -0.006358 0.000000
# 3 -0.005435 -0.014422 0.019642 0.000000 0.002977 0.000000
# 4 0.000000 0.000000 0.000000 -0.151710 0.000000 -0.101667
# 5 -0.001987 -0.006358 0.002977 0.000000 0.024523 0.000000
# 6 0.000000 0.000000 0.000000 -0.101667 0.000000 -0.014900
#
#
# Mechanical properties :
#
#
# Convention : Reuss Voigt Hill
#
# Bulk Modulus (GPa) = 55.16032 67.95652 61.55842
# Shear Modulus (GPa) = -119.58463 24.52734 -47.52864
#
# Velocity S-wave (km/s) = -8.06974 3.65466 -5.08744
# Velocity P-wave (km/s) = 7.53589 7.40371 0.99365
#
# Compressibility (1/GPa) = 0.01812897
#
# Stress axis : x y z
#
# Youngs Moduli (GPa) = 107.03139 36.77065 50.91073
#
# Poissons Ratio (x) = -0.03057 0.27672
# Poissons Ratio (y) = -0.08897 0.73423
# Poissons Ratio (z) = 0.58175 0.53030
#
# Static dielectric constant tensor:
#      x y z
#    x 1.634030 0.000000 0.009410 
#    y 0.000000 1.661580 0.000000 
#    z 0.009410 0.000000 1.653220 
# 
# From -- ./inp_files/58344.got.cif
#   From: 2010.05.17/outbox.cif.g08.bks.cpg/sg12_30_cif.got.tgz:58344.got - 2010.06.03 13:09:07.
