data_PCOD9209290
_publ_section_title
;
Structure prediction by ZEFSAII (Michael W. Deem and Ramdas Pophale) SiO2 
 PCOD9209290
Probable space group: C 2/M
;
_chemical_formula_sum "Si O2"
_cell_formula_units_Z 56
_cell_length_a 15.518572
_cell_length_b 26.505824
_cell_length_c 9.666789
_cell_angle_alpha 90.000000
_cell_angle_beta 46.657359
_cell_angle_gamma 90.000000
_cell_volume 2891.786937
_symmetry_space_group_name_H-M "C 2/M"
_symmetry_group_IT_number 12
_symmetry_cell_setting 'monoclinic'
loop_
_space_group_symop_operation_xyz
x,y,z
-x,y,-z
-x,-y,-z
x,-y,z
1/2+x,1/2+y,z
1/2-x,1/2+y,-z
1/2-x,1/2-y,-z
1/2+x,1/2-y,z
loop_
_atom_site_type_symbol
_atom_site_label
_atom_site_fract_x
_atom_site_fract_y
_atom_site_fract_z
Si Si1 0.121197 0.940148 0.438110
Si Si2 0.532042 0.135676 0.814340
Si Si3 0.575137 0.213885 0.280755
Si Si4 0.703875 0.631165 0.572718
Si Si5 0.990719 0.198567 0.849996
Si Si6 0.328825 0.059958 0.984870
Si Si7 0.272443 0.364873 0.131189
O O1 0.136668 0.912844 0.566398
O O2 0.000000 0.922217 0.500000
O O3 0.112734 0.000000 0.467193
O O4 0.233265 0.931062 0.212905
O O5 0.488052 0.170937 0.739815
O O6 0.671734 0.134017 0.642522
O O7 0.456272 0.083962 0.883840
O O8 0.500000 0.156794 0.000000
O O9 0.500000 0.225302 0.500000
O O10 0.570075 0.262059 0.186451
O O11 0.697409 0.186929 0.190264
O O12 0.621237 0.680987 0.658429
O O13 0.730325 0.621274 0.704448
O O14 0.906882 0.149373 0.946466
O O15 0.000000 0.216399 0.000000
O O16 0.280552 0.091440 0.906671
O O17 0.336297 0.000000 0.952262
#
# Coordination Sequence:
#
# PCOD9209290 Si02
#       7
#     8   8   8   8   8   8   8
#     4  10  21  38  61  92 125 161 207 253 301 360
#     4  11  22  40  61  87 123 163 198 252 306 357
#     4  11  22  40  62  90 124 159 201 252 304 364
#     4  11  22  40  63  89 122 159 206 251 300 363
#     4  10  23  41  61  89 120 164 206 250 303 364
#     4  10  22  38  62  91 125 163 202 250 306 365
#     4  10  22  42  63  88 128 159 202 252 306 360
#
# _framework density 19.365189000000001
#
# number of rings (size 3 to 8) (size 9 to 14) (size 15 to 20)
#    0.000    1.571    2.857    1.714    0.000    3.714 
#    2.571    0.714    0.000    5.143    0.000    0.000 
#    0.000    0.000    0.000    0.000    0.000    0.000 
#
# Total GULP energy -156237.818076 kJ/mol
# GULP energy per Si atom -5579.922074 kJ/mol
# Density = 1.932111 g / cm^3
# Si number density = 19.365189 Si / 1000 Ang^3
#
#
#
# Elastic Constant Matrix: (Units=GPa)
#
#
# Indices 1 2 3 4 5 6 
#
# 1 111.0178 33.8528 59.8944 0.0000 11.2413 0.0000
# 2 33.8528 65.5113 53.2006 0.0000 8.0722 0.0000
# 3 59.8944 53.2006 114.8863 0.0000 -3.5149 0.0000
# 4 0.0000 0.0000 0.0000 20.5797 0.0000 -3.2678
# 5 11.2413 8.0722 -3.5149 0.0000 42.4428 0.0000
# 6 0.0000 0.0000 0.0000 -3.2678 0.0000 37.1570
#
#
#
# Elastic Compliance Matrix: (Units=1/GPa)
#
#
# Indices 1 2 3 4 5 6 
#
# 1 0.013244 -0.001070 -0.006527 0.000000 -0.003845 0.000000
# 2 -0.001070 0.025958 -0.011634 0.000000 -0.005617 0.000000
# 3 -0.006527 -0.011634 0.017660 0.000000 0.005404 0.000000
# 4 0.000000 0.000000 0.000000 0.049280 0.000000 0.004334
# 5 -0.003845 -0.005617 0.005404 0.000000 0.026095 0.000000
# 6 0.000000 0.000000 0.000000 0.004334 0.000000 0.027294
#
#
# Mechanical properties :
#
#
# Convention : Reuss Voigt Hill
#
# Bulk Modulus (GPa) = 54.34913 65.03455 59.69184
# Shear Modulus (GPa) = 24.49463 29.66709 27.08086
#
# Velocity S-wave (km/s) = 3.56037 3.91830 3.74362
# Velocity P-wave (km/s) = 6.71029 7.35710 7.04112
#
# Compressibility (1/GPa) = 0.01839956
#
# Stress axis : x y z
#
# Youngs Moduli (GPa) = 75.50322 38.52451 56.62531
#
# Poissons Ratio (x) = 0.04121 0.36960
# Poissons Ratio (y) = 0.08077 0.65880
# Poissons Ratio (z) = 0.49282 0.44821
#
# Static dielectric constant tensor:
#      x y z
#    x 1.697320 0.000000 -0.031100 
#    y 0.000000 1.655190 0.000000 
#    z -0.031100 0.000000 1.674870 
# 
# From -- ./inp_files/68103.got.cif
#   From: 2010.05.17/outbox.cif.g08.bks.cpg/sg12_35_cif.got.tgz:68103.got - 2010.06.03 13:09:07.
