data_PCOD9209003
_publ_section_title
;
Structure prediction by ZEFSAII (Michael W. Deem and Ramdas Pophale) SiO2 
 PCOD9209003
Probable space group: C 2/M
;
_chemical_formula_sum "Si O2"
_cell_formula_units_Z 48
_cell_length_a 11.199448
_cell_length_b 19.064466
_cell_length_c 12.645293
_cell_angle_alpha 90.000000
_cell_angle_beta 111.155452
_cell_angle_gamma 90.000000
_cell_volume 2517.953773
_symmetry_space_group_name_H-M "C 2/M"
_symmetry_group_IT_number 12
_symmetry_cell_setting 'monoclinic'
loop_
_space_group_symop_operation_xyz
x,y,z
-x,y,-z
-x,-y,-z
x,-y,z
1/2+x,1/2+y,z
1/2-x,1/2+y,-z
1/2-x,1/2-y,-z
1/2+x,1/2-y,z
loop_
_atom_site_type_symbol
_atom_site_label
_atom_site_fract_x
_atom_site_fract_y
_atom_site_fract_z
Si Si1 0.260301 0.833506 0.730863
Si Si2 0.383209 0.313610 0.751029
Si Si3 0.501980 0.082710 0.124407
Si Si4 0.371837 0.298387 0.509195
Si Si5 0.653743 0.309748 0.922747
Si Si6 0.787169 0.918239 0.885828
O O1 0.283568 0.749817 0.731901
O O2 0.393401 0.874620 0.776715
O O3 0.178082 0.849616 0.599847
O O4 0.201617 0.842875 0.827924
O O5 0.409767 0.327575 0.636246
O O6 0.510796 0.285074 0.850192
O O7 0.327033 0.381642 0.789804
O O8 0.363031 0.089953 0.132964
O O9 0.535446 0.000000 0.133543
O O10 0.500000 0.106196 0.000000
O O11 0.500000 0.263638 0.500000
O O12 0.250000 0.250000 0.500000
O O13 0.750000 0.250000 0.000000
O O14 0.644809 0.372046 0.003364
O O15 0.818945 0.000000 0.899198
#
# Coordination Sequence:
#
# PCOD9209003 Si02
#       6
#     8   8   8   8   8   8
#     4  11  22  36  64  90 121 156 206 253 307 370
#     4  11  24  38  60  88 128 163 206 254 305 372
#     4  10  21  38  60  89 123 157 197 252 317 381
#     4  10  22  41  62  91 126 169 212 260 314 369
#     4  12  22  35  59  93 126 156 201 251 310 372
#     4  11  24  40  60  90 128 165 202 252 318 379
#
# _framework density 19.063099000000001
#
# number of rings (size 3 to 8) (size 9 to 14) (size 15 to 20)
#    0.000    1.167    5.000    1.500    0.000    2.667 
#    0.000    0.833    0.000    3.000    0.000    0.000 
#    0.000    0.000    0.000    0.000    0.000    0.000 
#
# Total GULP energy -133830.077421 kJ/mol
# GULP energy per Si atom -5576.253226 kJ/mol
# Density = 1.901971 g / cm^3
# Si number density = 19.063099 Si / 1000 Ang^3
#
#
#
# Elastic Constant Matrix: (Units=GPa)
#
#
# Indices 1 2 3 4 5 6 
#
# 1 89.4432 24.4660 45.5386 0.0000 -11.9282 0.0000
# 2 24.4660 66.5098 41.4216 0.0000 -4.2690 0.0000
# 3 45.5386 41.4216 136.7594 0.0000 -12.8642 0.0000
# 4 0.0000 0.0000 0.0000 11.3032 0.0000 -1.4208
# 5 -11.9282 -4.2690 -12.8642 0.0000 40.5302 0.0000
# 6 0.0000 0.0000 0.0000 -1.4208 0.0000 27.9549
#
#
#
# Elastic Compliance Matrix: (Units=1/GPa)
#
#
# Indices 1 2 3 4 5 6 
#
# 1 0.014142 -0.002778 -0.003611 0.000000 0.002723 0.000000
# 2 -0.002778 0.019078 -0.004887 0.000000 -0.000359 0.000000
# 3 -0.003611 -0.004887 0.010149 0.000000 0.001644 0.000000
# 4 0.000000 0.000000 0.000000 0.089039 0.000000 0.004525
# 5 0.002723 -0.000359 0.001644 0.000000 0.025958 0.000000
# 6 0.000000 0.000000 0.000000 0.004525 0.000000 0.036002
#
#
# Mechanical properties :
#
#
# Convention : Reuss Voigt Hill
#
# Bulk Modulus (GPa) = 48.03992 57.28499 52.66246
# Shear Modulus (GPa) = 22.33529 28.04340 25.18934
#
# Velocity S-wave (km/s) = 3.42665 3.83963 3.63900
# Velocity P-wave (km/s) = 6.39618 7.05496 6.73363
#
# Compressibility (1/GPa) = 0.02081602
#
# Stress axis : x y z
#
# Youngs Moduli (GPa) = 70.71078 52.41670 98.52752
#
# Poissons Ratio (x) = 0.14563 0.35583
# Poissons Ratio (y) = 0.19646 0.48150
# Poissons Ratio (z) = 0.25537 0.25616
#
# Static dielectric constant tensor:
#      x y z
#    x 1.729430 0.000000 0.004840 
#    y 0.000000 1.634210 0.000000 
#    z 0.004840 0.000000 1.741700 
# 
# From -- ./inp_files/131739.got.cif
#   From: 2010.05.17/outbox.cif.g08.bks.cpg/sg12_66_cif.got.tgz:131739.got - 2010.06.03 13:09:07.
