data_PCOD9209859
_publ_section_title
;
Structure prediction by ZEFSAII (Michael W. Deem and Ramdas Pophale) SiO2 
 PCOD9209859
Probable space group: C 2/M
;
_chemical_formula_sum "Si O2"
_cell_formula_units_Z 48
_cell_length_a 18.811209
_cell_length_b 14.646493
_cell_length_c 18.801077
_cell_angle_alpha 90.000000
_cell_angle_beta 154.885282
_cell_angle_gamma 90.000000
_cell_volume 2198.574745
_symmetry_space_group_name_H-M "C 2/M"
_symmetry_group_IT_number 12
_symmetry_cell_setting 'monoclinic'
loop_
_space_group_symop_operation_xyz
x,y,z
-x,y,-z
-x,-y,-z
x,-y,z
1/2+x,1/2+y,z
1/2-x,1/2+y,-z
1/2-x,1/2-y,-z
1/2+x,1/2-y,z
loop_
_atom_site_type_symbol
_atom_site_label
_atom_site_fract_x
_atom_site_fract_y
_atom_site_fract_z
Si Si1 0.431846 0.713893 0.091904
Si Si2 0.403518 0.605959 0.483308
Si Si3 0.065415 0.245332 0.364469
Si Si4 0.491605 0.102421 0.907457
Si Si5 0.157192 0.895183 0.198029
Si Si6 0.137965 0.391242 0.748747
O O1 0.448917 0.724947 0.191139
O O2 0.410560 0.814345 0.039131
O O3 0.601727 0.671870 0.210285
O O4 0.288087 0.646348 0.934492
O O5 0.500000 0.636939 0.500000
O O6 0.448918 0.500000 0.535713
O O7 0.451506 0.666159 0.593497
O O8 0.203338 0.610510 0.290862
O O9 0.250000 0.250000 0.500000
O O10 0.020305 0.338700 0.364063
O O11 0.549911 0.000000 0.940917
O O12 0.500000 0.111273 0.000000
O O13 0.310899 0.867735 0.286342
O O14 0.180468 0.000000 0.243524
O O15 0.000000 0.895496 0.000000
O O16 0.125858 0.500000 0.741775
#
# Coordination Sequence:
#
# PCOD9209859 Si02
#       6
#     8   8   8   8   8   8
#     4  11  21  39  67 102 131 173 217 274 334 397
#     4  10  24  45  67  93 130 174 223 275 327 394
#     4  12  26  42  64  96 136 179 217 266 342 402
#     4  10  21  38  65  99 129 168 221 273 327 384
#     4   8  16  34  63  93 121 157 208 265 316 373
#     4  10  23  43  67  96 132 175 223 272 320 388
#
# _framework density 21.832326999999999
#
# number of rings (size 3 to 8) (size 9 to 14) (size 15 to 20)
#    0.000    1.833    1.667    3.500    4.667    2.667 
#    0.000    0.000    0.000    2.500    0.000    0.000 
#    0.000    0.000    0.000    0.000    0.000    0.000 
#
# Total GULP energy -134258.164545 kJ/mol
# GULP energy per Si atom -5594.090189 kJ/mol
# Density = 2.178264 g / cm^3
# Si number density = 21.832327 Si / 1000 Ang^3
#
#
#
# Elastic Constant Matrix: (Units=GPa)
#
#
# Indices 1 2 3 4 5 6 
#
# 1 135.1797 79.5946 18.1861 0.0016 3.0332 -0.0021
# 2 79.5946 130.1154 24.2533 0.0108 -9.0264 -0.0047
# 3 18.1861 24.2533 43.4774 0.0070 -1.1504 -0.0042
# 4 0.0016 0.0108 0.0070 23.8270 0.0026 7.3599
# 5 3.0332 -9.0264 -1.1504 0.0026 38.4871 -0.0026
# 6 -0.0021 -0.0047 -0.0042 7.3599 -0.0026 -42.0917
#
#
#
# Elastic Compliance Matrix: (Units=1/GPa)
#
#
# Indices 1 2 3 4 5 6 
#
# 1 0.011864 -0.007259 -0.000984 0.000003 -0.002667 0.000001
# 2 -0.007259 0.013156 -0.004209 -0.000004 0.003532 -0.000002
# 3 -0.000984 -0.004209 0.025756 -0.000005 -0.000140 -0.000003
# 4 0.000003 -0.000004 -0.000005 0.039819 -0.000004 0.006962
# 5 -0.002667 0.003532 -0.000140 -0.000004 0.027017 -0.000003
# 6 0.000001 -0.000002 -0.000003 0.006962 -0.000003 -0.022540
#
#
# Mechanical properties :
#
#
# Convention : Reuss Voigt Hill
#
# Bulk Modulus (GPa) = 38.65138 61.42672 50.03905
# Shear Modulus (GPa) = 38.88077 16.49370 27.68724
#
# Velocity S-wave (km/s) = 4.22463 2.75157 3.56501
# Velocity P-wave (km/s) = 6.44506 6.18802 6.31785
#
# Compressibility (1/GPa) = 0.02587230
#
# Stress axis : x y z
#
# Youngs Moduli (GPa) = 84.28904 76.01357 38.82585
#
# Poissons Ratio (x) = 0.55179 0.03819
# Poissons Ratio (y) = 0.61186 0.16341
# Poissons Ratio (z) = 0.08292 0.31993
#
# Static dielectric constant tensor:
#      x y z
#    x 1.791170 0.000000 0.048550 
#    y 0.000000 1.759530 0.000000 
#    z 0.048550 0.000000 1.874730 
# 
# From -- ./inp_files/278243.got.cif
#   From: 2010.05.17/outbox.cif.g08.bks.cpg/sg12_140_cif.got.tgz:278243.got - 2010.06.03 13:09:07.
