data_PCOD9209893
_publ_section_title
;
Structure prediction by ZEFSAII (Michael W. Deem and Ramdas Pophale) SiO2 
 PCOD9209893
Probable space group: C 2/M
;
_chemical_formula_sum "Si O2"
_cell_formula_units_Z 48
_cell_length_a 11.729420
_cell_length_b 27.443132
_cell_length_c 9.104765
_cell_angle_alpha 90.000000
_cell_angle_beta 125.284043
_cell_angle_gamma 90.000000
_cell_volume 2392.367796
_symmetry_space_group_name_H-M "C 2/M"
_symmetry_group_IT_number 12
_symmetry_cell_setting 'monoclinic'
loop_
_space_group_symop_operation_xyz
x,y,z
-x,y,-z
-x,-y,-z
x,-y,z
1/2+x,1/2+y,z
1/2-x,1/2+y,-z
1/2-x,1/2-y,-z
1/2+x,1/2-y,z
loop_
_atom_site_type_symbol
_atom_site_label
_atom_site_fract_x
_atom_site_fract_y
_atom_site_fract_z
Si Si1 0.862407 0.271389 0.858721
Si Si2 0.588796 0.379628 0.421699
Si Si3 0.335359 0.142472 0.247629
Si Si4 0.645089 0.177207 0.427692
Si Si5 0.369855 0.309461 0.118384
Si Si6 0.140810 0.943066 0.197438
O O1 0.863581 0.275068 0.681618
O O2 0.708400 0.287229 0.799121
O O3 0.891875 0.229651 0.005035
O O4 0.000000 0.304593 0.000000
O O5 0.500000 0.387691 0.500000
O O6 0.740695 0.357264 0.562725
O O7 0.505745 0.339162 0.263725
O O8 0.604773 0.427591 0.336125
O O9 0.496548 0.149844 0.328850
O O10 0.310914 0.179983 0.367385
O O11 0.272673 0.090919 0.253053
O O12 0.243550 0.155589 0.039802
O O13 0.169643 0.000000 0.200893
O O14 0.000000 0.930895 0.000000
#
# Coordination Sequence:
#
# PCOD9209893 Si02
#       6
#     8   8   8   8   8   8
#     4  11  23  38  57  85 121 164 212 257 296 359
#     4  11  22  40  65  91 123 164 207 258 314 368
#     4  10  21  41  62  87 121 162 207 248 311 374
#     4  10  22  39  59  88 122 159 205 261 305 353
#     4  11  23  39  58  87 120 165 209 252 310 356
#     4  10  21  38  66  98 123 156 202 256 311 381
#
# _framework density 20.063804000000001
#
# number of rings (size 3 to 8) (size 9 to 14) (size 15 to 20)
#    0.000    1.500    5.000    0.000    4.667    1.000 
#    0.000    6.667    0.000    0.000    0.000    3.500 
#    0.000    0.000    0.000    0.000    0.000    0.000 
#
# Total GULP energy -133707.236513 kJ/mol
# GULP energy per Si atom -5571.134855 kJ/mol
# Density = 2.001814 g / cm^3
# Si number density = 20.063804 Si / 1000 Ang^3
#
#
#
# Elastic Constant Matrix: (Units=GPa)
#
#
# Indices 1 2 3 4 5 6 
#
# 1 147.8460 30.6921 33.2036 0.0000 -1.3188 0.0000
# 2 30.6921 70.2289 32.0659 0.0000 -6.4079 0.0000
# 3 33.2036 32.0659 76.3461 0.0000 -6.6892 0.0000
# 4 0.0000 0.0000 0.0000 22.6959 0.0000 -0.8696
# 5 -1.3188 -6.4079 -6.6892 0.0000 32.8544 0.0000
# 6 0.0000 0.0000 0.0000 -0.8696 0.0000 22.1807
#
#
#
# Elastic Compliance Matrix: (Units=1/GPa)
#
#
# Indices 1 2 3 4 5 6 
#
# 1 0.007798 -0.002341 -0.002464 0.000000 -0.000645 0.000000
# 2 -0.002341 0.018446 -0.006539 0.000000 0.002172 0.000000
# 3 -0.002464 -0.006539 0.017101 0.000000 0.002108 0.000000
# 4 0.000000 0.000000 0.000000 0.044127 0.000000 0.001730
# 5 -0.000645 0.002172 0.002108 0.000000 0.031264 0.000000
# 6 0.000000 0.000000 0.000000 0.001730 0.000000 0.045152
#
#
# Mechanical properties :
#
#
# Convention : Reuss Voigt Hill
#
# Bulk Modulus (GPa) = 48.41333 54.03826 51.22579
# Shear Modulus (GPa) = 25.84477 28.77684 27.31080
#
# Velocity S-wave (km/s) = 3.59294 3.79128 3.69344
# Velocity P-wave (km/s) = 6.43385 6.79388 6.61631
#
# Compressibility (1/GPa) = 0.02065547
#
# Stress axis : x y z
#
# Youngs Moduli (GPa) = 128.24522 54.21152 58.47592
#
# Poissons Ratio (x) = 0.12693 0.14411
# Poissons Ratio (y) = 0.30028 0.38237
# Poissons Ratio (z) = 0.31604 0.35448
#
# Static dielectric constant tensor:
#      x y z
#    x 1.765190 0.000000 0.019600 
#    y 0.000000 1.723250 0.000000 
#    z 0.019600 0.000000 1.765630 
# 
# From -- ./inp_files/52796.got.cif
#   From: 2010.05.17/outbox.cif.g08.bks.cpg/sg12_27_cif.got.tgz:52796.got - 2010.06.03 13:09:07.
