data_PCOD9209172
_publ_section_title
;
Structure prediction by ZEFSAII (Michael W. Deem and Ramdas Pophale) SiO2 
 PCOD9209172
Probable space group: C 2/M
;
_chemical_formula_sum "Si O2"
_cell_formula_units_Z 56
_cell_length_a 11.990552
_cell_length_b 28.305033
_cell_length_c 15.065750
_cell_angle_alpha 90.000000
_cell_angle_beta 142.635797
_cell_angle_gamma 90.000000
_cell_volume 3103.101548
_symmetry_space_group_name_H-M "C 2/M"
_symmetry_group_IT_number 12
_symmetry_cell_setting 'monoclinic'
loop_
_space_group_symop_operation_xyz
x,y,z
-x,y,-z
-x,-y,-z
x,-y,z
1/2+x,1/2+y,z
1/2-x,1/2+y,-z
1/2-x,1/2-y,-z
1/2+x,1/2-y,z
loop_
_atom_site_type_symbol
_atom_site_label
_atom_site_fract_x
_atom_site_fract_y
_atom_site_fract_z
Si Si1 0.850954 0.235125 0.154422
Si Si2 0.301957 0.330842 0.668972
Si Si3 0.622120 0.898718 0.308248
Si Si4 0.530892 0.000000 0.164221
Si Si5 0.447700 0.172690 0.323548
Si Si6 0.538480 0.406481 0.346239
Si Si7 0.818159 0.345566 0.834307
Si Si8 0.184998 0.000000 0.820129
O O1 0.915438 0.282979 0.240723
O O2 0.728568 0.205231 0.149117
O O3 0.027235 0.203731 0.238907
O O4 0.750000 0.250000 0.000000
O O5 0.221925 0.331072 0.716573
O O6 0.364428 0.382366 0.676197
O O7 0.132268 0.317703 0.497254
O O8 0.558829 0.950018 0.232778
O O9 0.483566 0.874789 0.290554
O O10 0.815479 0.906464 0.481285
O O11 0.644348 0.858845 0.244793
O O12 0.686819 0.000000 0.186386
O O13 0.330515 0.000000 0.992192
O O14 0.365554 0.374347 0.262218
O O15 0.448993 0.455759 0.266870
O O16 0.000000 0.363542 0.000000
#
# Coordination Sequence:
#
# PCOD9209172 Si02
#       8
#     8   8   8   4   8   8   8   4
#     4  11  24  38  59  86 119 161 203 251 297 367
#     4   9  22  43  59  86 116 160 204 250 302 352
#     4  11  22  38  62  93 118 157 200 253 300 358
#     4  11  23  37  62  91 129 153 198 237 309 368
#     4  10  22  41  64  82 120 158 204 255 296 356
#     4  10  21  38  61  88 120 156 200 246 301 355
#     4  11  22  36  55  85 124 155 194 244 300 358
#     4  11  21  37  60  91 123 161 186 247 303 364
#
# _framework density 18.04646
#
# number of rings (size 3 to 8) (size 9 to 14) (size 15 to 20)
#    0.000    1.571    1.429    3.000    4.000    1.714 
#    5.143    0.714    0.000    4.286    0.000    0.000 
#    0.000    0.000    0.000    0.000    0.000    0.000 
#
# Total GULP energy -156152.313961 kJ/mol
# GULP energy per Si atom -5576.868356 kJ/mol
# Density = 1.800539 g / cm^3
# Si number density = 18.046460 Si / 1000 Ang^3
#
#
#
# Elastic Constant Matrix: (Units=GPa)
#
#
# Indices 1 2 3 4 5 6 
#
# 1 112.4516 64.1696 61.8560 0.0000 5.8102 0.0000
# 2 64.1696 106.0514 81.9765 0.0000 -41.9991 0.0000
# 3 61.8560 81.9765 116.4241 0.0000 3.0626 0.0000
# 4 0.0000 0.0000 0.0000 -5.8345 0.0000 30.6174
# 5 5.8102 -41.9991 3.0626 0.0000 -17.9649 0.0000
# 6 0.0000 0.0000 0.0000 30.6174 0.0000 29.8620
#
#
#
# Elastic Compliance Matrix: (Units=1/GPa)
#
#
# Indices 1 2 3 4 5 6 
#
# 1 0.012521 -0.000831 -0.006197 0.000000 0.004936 0.000000
# 2 -0.000831 0.006450 -0.003680 0.000000 -0.015975 0.000000
# 3 -0.006197 -0.003680 0.014235 0.000000 0.009025 0.000000
# 4 0.000000 0.000000 0.000000 -0.026863 0.000000 0.027542
# 5 0.004936 -0.015975 0.009025 0.000000 -0.015181 0.000000
# 6 0.000000 0.000000 0.000000 0.027542 0.000000 0.005248
#
#
# Mechanical properties :
#
#
# Convention : Reuss Voigt Hill
#
# Bulk Modulus (GPa) = 84.81443 83.43679 84.12561
# Shear Modulus (GPa) = 229.81817 9.67418 119.74618
#
# Velocity S-wave (km/s) = 11.29710 2.31783 8.15466
# Velocity P-wave (km/s) = 14.73994 7.31423 11.63537
#
# Compressibility (1/GPa) = 0.01179045
#
# Stress axis : x y z
#
# Youngs Moduli (GPa) = 79.86815 155.03688 70.24799
#
# Poissons Ratio (x) = 0.12885 0.43532
# Poissons Ratio (y) = 0.06638 0.25850
# Poissons Ratio (z) = 0.49493 0.57051
#
# Static dielectric constant tensor:
#      x y z
#    x 1.622440 0.000000 -0.014400 
#    y 0.000000 1.635480 0.000000 
#    z -0.014400 0.000000 1.611410 
# 
# From -- ./inp_files/91576.got.cif
#   From: 2010.05.17/outbox.cif.g08.bks.cpg/sg12_46_cif.got.tgz:91576.got - 2010.06.03 13:09:07.
