data_PCOD9209409
_publ_section_title
;
Structure prediction by ZEFSAII (Michael W. Deem and Ramdas Pophale) SiO2 
 PCOD9209409
Probable space group: C 2/M
;
_chemical_formula_sum "Si O2"
_cell_formula_units_Z 60
_cell_length_a 22.320420
_cell_length_b 11.309709
_cell_length_c 25.357352
_cell_angle_alpha 90.000000
_cell_angle_beta 29.499322
_cell_angle_gamma 90.000000
_cell_volume 3152.008881
_symmetry_space_group_name_H-M "C 2/M"
_symmetry_group_IT_number 12
_symmetry_cell_setting 'monoclinic'
loop_
_space_group_symop_operation_xyz
x,y,z
-x,y,-z
-x,-y,-z
x,-y,z
1/2+x,1/2+y,z
1/2-x,1/2+y,-z
1/2-x,1/2-y,-z
1/2+x,1/2-y,z
loop_
_atom_site_type_symbol
_atom_site_label
_atom_site_fract_x
_atom_site_fract_y
_atom_site_fract_z
Si Si1 0.606963 0.131744 0.310241
Si Si2 0.500000 0.779139 0.500000
Si Si3 0.824649 0.633591 0.037432
Si Si4 0.777641 0.135060 0.623426
Si Si5 0.446976 0.293150 0.749022
Si Si6 0.013032 0.638072 0.799210
Si Si7 0.693867 0.373420 0.523567
Si Si8 0.869122 0.866797 0.073279
O O1 0.540392 0.152231 0.416479
O O2 0.570021 0.221391 0.292555
O O3 0.754100 0.141083 0.201176
O O4 0.578344 0.000000 0.313357
O O5 0.381000 0.703891 0.575427
O O6 0.850849 0.500000 0.039102
O O7 0.679920 0.644229 0.140656
O O8 0.858730 0.749953 0.045241
O O9 0.901548 0.644218 0.925025
O O10 0.638727 0.182040 0.730032
O O11 0.812354 0.133919 0.534934
O O12 0.775341 0.000000 0.644776
O O13 0.482414 0.207481 0.769819
O O14 0.561012 0.375377 0.650641
O O15 0.034967 0.500000 0.769779
O O16 0.756295 0.500000 0.488771
O O17 0.750000 0.250000 0.500000
O O18 0.856849 0.000000 0.057352
O O19 0.000000 0.864289 0.000000
#
# Coordination Sequence:
#
# PCOD9209409 Si02
#       8
#     8   4   8   8   8   8   8   8
#     4  10  22  37  58  87 119 156 201 249 304 359
#     4  12  22  38  58  88 120 160 204 252 302 352
#     4  10  22  38  60  93 125 156 201 257 306 355
#     4  10  22  39  58  84 119 159 202 246 302 364
#     4  11  20  39  61  88 121 161 198 248 309 364
#     4  10  21  38  62  89 123 160 203 252 303 366
#     4  11  22  39  61  88 119 155 202 251 299 359
#     4   9  20  40  62  84 118 165 207 247 299 361
#
# _framework density 19.03548
#
# number of rings (size 3 to 8) (size 9 to 14) (size 15 to 20)
#    0.000    1.733    2.667    1.600    1.867    1.333 
#    0.000    2.000    0.000    0.000    0.000    0.000 
#    0.000    0.000    0.000    0.000    0.000    0.000 
#
# Total GULP energy -167182.462104 kJ/mol
# GULP energy per Si atom -5572.748737 kJ/mol
# Density = 1.899215 g / cm^3
# Si number density = 19.035480 Si / 1000 Ang^3
#
#
#
# Elastic Constant Matrix: (Units=GPa)
#
#
# Indices 1 2 3 4 5 6 
#
# 1 51.5081 40.2630 27.5863 0.0000 -9.3972 -0.0001
# 2 40.2630 123.4655 37.2555 0.0001 -5.0304 -0.0001
# 3 27.5863 37.2555 127.1192 0.0002 -2.4834 -0.0002
# 4 0.0000 0.0001 0.0002 27.7561 -0.0001 17.3864
# 5 -9.3972 -5.0304 -2.4834 -0.0001 27.4123 0.0001
# 6 -0.0001 -0.0001 -0.0002 17.3864 0.0001 65.9158
#
#
#
# Elastic Compliance Matrix: (Units=1/GPa)
#
#
# Indices 1 2 3 4 5 6 
#
# 1 0.029255 -0.008051 -0.003829 0.000000 0.008205 0.000000
# 2 -0.008051 0.011154 -0.001539 0.000000 -0.000852 0.000000
# 3 -0.003829 -0.001539 0.009133 0.000000 -0.000767 0.000000
# 4 0.000000 0.000000 0.000000 0.043159 0.000000 -0.011384
# 5 0.008205 -0.000852 -0.000767 0.000000 0.039067 0.000000
# 6 0.000000 0.000000 0.000000 -0.011384 0.000000 0.018174
#
#
# Mechanical properties :
#
#
# Convention : Reuss Voigt Hill
#
# Bulk Modulus (GPa) = 44.04038 56.92250 50.48144
# Shear Modulus (GPa) = 27.12273 37.34937 32.23605
#
# Velocity S-wave (km/s) = 3.77882 4.43436 4.11965
# Velocity P-wave (km/s) = 6.49811 7.49575 7.01469
#
# Compressibility (1/GPa) = 0.02270643
#
# Stress axis : x y z
#
# Youngs Moduli (GPa) = 34.18226 89.65112 109.48707
#
# Poissons Ratio (x) = 0.72175 0.41922
# Poissons Ratio (y) = 0.27519 0.16846
# Poissons Ratio (z) = 0.13088 0.13794
#
# Static dielectric constant tensor:
#      x y z
#    x 1.634200 0.000000 -0.028620 
#    y 0.000000 1.711910 0.000000 
#    z -0.028620 0.000000 1.674290 
# 
# From -- ./inp_files/347139.got.cif
#   From: 2010.05.17/outbox.cif.g08.bks.cpg/sg12_174_cif.got.tgz:347139.got - 2010.06.03 13:09:07.
