data_PCOD9209020
_publ_section_title
;
Structure prediction by ZEFSAII (Michael W. Deem and Ramdas Pophale) SiO2 
 PCOD9209020
Probable space group: C 2/M
;
_chemical_formula_sum "Si O2"
_cell_formula_units_Z 56
_cell_length_a 16.210052
_cell_length_b 19.195308
_cell_length_c 9.941856
_cell_angle_alpha 90.000000
_cell_angle_beta 125.740329
_cell_angle_gamma 90.000000
_cell_volume 2510.890883
_symmetry_space_group_name_H-M "C 2/M"
_symmetry_group_IT_number 12
_symmetry_cell_setting 'monoclinic'
loop_
_space_group_symop_operation_xyz
x,y,z
-x,y,-z
-x,-y,-z
x,-y,z
1/2+x,1/2+y,z
1/2-x,1/2+y,-z
1/2-x,1/2-y,-z
1/2+x,1/2-y,z
loop_
_atom_site_type_symbol
_atom_site_label
_atom_site_fract_x
_atom_site_fract_y
_atom_site_fract_z
Si Si1 0.593449 0.418426 0.262902
Si Si2 0.378719 0.624907 0.122810
Si Si3 0.818229 0.916611 0.363015
Si Si4 0.251569 0.151792 0.236891
Si Si5 0.072181 0.255114 0.684629
Si Si6 0.906481 0.578350 0.838186
Si Si7 0.944047 0.603275 0.573607
O O1 0.624730 0.500000 0.266828
O O2 0.471787 0.414715 0.142826
O O3 0.623633 0.397721 0.445023
O O4 0.647134 0.361237 0.218539
O O5 0.364431 0.600603 0.262513
O O6 0.410399 0.705549 0.172958
O O7 0.277331 0.620580 0.936658
O O8 0.703518 0.887332 0.256586
O O9 0.812193 0.000000 0.365592
O O10 0.317049 0.221858 0.268250
O O11 0.331038 0.113137 0.409302
O O12 0.000000 0.221881 0.500000
O O13 0.008393 0.325054 0.655690
O O14 0.897098 0.500000 0.889281
O O15 0.935189 0.571574 0.710247
O O16 0.000000 0.614999 0.000000
O O17 0.000000 0.570068 0.500000
#
# Coordination Sequence:
#
# PCOD9209020 Si02
#       7
#     8   8   8   8   8   8   8
#     4  11  23  42  64  90 126 166 208 254 305 363
#     4  12  23  39  63  91 124 163 207 252 299 363
#     4  10  22  39  61  89 122 160 202 250 307 366
#     4  10  22  40  62  90 125 159 203 257 306 364
#     4   9  21  42  62  86 121 157 205 252 303 367
#     4  10  21  38  60  90 122 152 201 256 301 360
#     4   9  20  40  64  85 121 158 198 249 307 366
#
# _framework density 22.302841999999998
#
# number of rings (size 3 to 8) (size 9 to 14) (size 15 to 20)
#    0.000    2.143    1.429    2.571    4.000    3.143 
#    2.571    4.286    0.000    0.429    0.000    0.000 
#    0.000    0.000    0.000    0.000    0.000    0.000 
#
# Total GULP energy -155972.660865 kJ/mol
# GULP energy per Si atom -5570.452174 kJ/mol
# Density = 2.225208 g / cm^3
# Si number density = 22.302842 Si / 1000 Ang^3
#
#
#
# Elastic Constant Matrix: (Units=GPa)
#
#
# Indices 1 2 3 4 5 6 
#
# 1 93.1055 8.7876 8.0921 0.0000 2.0186 0.0000
# 2 8.7876 53.0029 7.4836 0.0000 2.9729 0.0000
# 3 8.0921 7.4836 102.9063 0.0000 13.1325 0.0000
# 4 0.0000 0.0000 0.0000 22.7232 0.0000 6.8773
# 5 2.0186 2.9729 13.1325 0.0000 32.6482 0.0000
# 6 0.0000 0.0000 0.0000 6.8773 0.0000 23.1373
#
#
#
# Elastic Compliance Matrix: (Units=1/GPa)
#
#
# Indices 1 2 3 4 5 6 
#
# 1 0.010968 -0.001705 -0.000708 0.000000 -0.000238 0.000000
# 2 -0.001705 0.019376 -0.001121 0.000000 -0.001208 0.000000
# 3 -0.000708 -0.001121 0.010368 0.000000 -0.004025 0.000000
# 4 0.000000 0.000000 0.000000 0.048358 0.000000 -0.014374
# 5 -0.000238 -0.001208 -0.004025 0.000000 0.032373 0.000000
# 6 0.000000 0.000000 0.000000 -0.014374 0.000000 0.047493
#
#
# Mechanical properties :
#
#
# Convention : Reuss Voigt Hill
#
# Bulk Modulus (GPa) = 29.72290 33.08236 31.40263
# Shear Modulus (GPa) = 26.70671 30.67850 28.69261
#
# Velocity S-wave (km/s) = 3.46418 3.71285 3.59067
# Velocity P-wave (km/s) = 5.41818 5.76592 5.59475
#
# Compressibility (1/GPa) = 0.03364409
#
# Stress axis : x y z
#
# Youngs Moduli (GPa) = 91.17312 51.61127 96.44697
#
# Poissons Ratio (x) = 0.08800 0.06829
# Poissons Ratio (y) = 0.15546 0.10810
# Poissons Ratio (z) = 0.06456 0.05785
#
# Static dielectric constant tensor:
#      x y z
#    x 1.854130 0.000000 0.034720 
#    y 0.000000 1.849650 0.000000 
#    z 0.034720 0.000000 1.831220 
# 
# From -- ./inp_files/65944.got.cif
#   From: 2010.05.17/outbox.cif.g08.bks.cpg/sg12_33_cif.got.tgz:65944.got - 2010.06.03 13:09:07.
