data_PCOD9209313
_publ_section_title
;
Structure prediction by ZEFSAII (Michael W. Deem and Ramdas Pophale) SiO2 
 PCOD9209313
Probable space group: C 2/M
;
_chemical_formula_sum "Si O2"
_cell_formula_units_Z 32
_cell_length_a 4.806347
_cell_length_b 12.945413
_cell_length_c 18.001273
_cell_angle_alpha 90.000000
_cell_angle_beta 95.004260
_cell_angle_gamma 90.000000
_cell_volume 1115.772493
_symmetry_space_group_name_H-M "C 2/M"
_symmetry_group_IT_number 12
_symmetry_cell_setting 'monoclinic'
loop_
_space_group_symop_operation_xyz
x,y,z
-x,y,-z
-x,-y,-z
x,-y,z
1/2+x,1/2+y,z
1/2-x,1/2+y,-z
1/2-x,1/2-y,-z
1/2+x,1/2-y,z
loop_
_atom_site_type_symbol
_atom_site_label
_atom_site_fract_x
_atom_site_fract_y
_atom_site_fract_z
Si Si1 0.723013 0.883054 0.445411
Si Si2 0.336618 0.618611 0.925967
Si Si3 0.674796 0.882285 0.177932
Si Si4 0.461466 0.250418 0.312489
O O1 0.500000 0.845934 0.500000
O O2 0.733427 0.806151 0.376050
O O3 0.000000 0.885694 0.500000
O O4 0.658398 0.000000 0.420507
O O5 0.264601 0.500000 0.947539
O O6 0.541845 0.613637 0.861065
O O7 0.050943 0.661024 0.886011
O O8 0.500000 0.663945 0.000000
O O9 0.690987 0.806050 0.248384
O O10 0.600852 0.000000 0.196938
O O11 0.711960 0.341554 0.312983
#
# Coordination Sequence:
#
# PCOD9209313 Si02
#       4
#     8   8   8   8
#     4  10  23  45  71  97 125 162 214 274 328 377
#     4   9  17  33  62  96 128 169 220 269 318 374
#     4  10  21  38  61  93 133 171 210 262 323 386
#     4  12  26  41  65  95 132 173 214 258 322 393
#
# _framework density 28.679680000000001
#
# number of rings (size 3 to 8) (size 9 to 14) (size 15 to 20)
#    0.000    1.750    0.000    3.750    0.000    8.000 
#    0.000    0.000    0.000   16.500    0.000    0.000 
#    0.000    6.000    0.000    0.000    0.000    0.000 
#
# Total GULP energy -89423.191906 kJ/mol
# GULP energy per Si atom -5588.949494 kJ/mol
# Density = 2.861440 g / cm^3
# Si number density = 28.679680 Si / 1000 Ang^3
#
#
#
# Elastic Constant Matrix: (Units=GPa)
#
#
# Indices 1 2 3 4 5 6 
#
# 1 288.1800 -9.8937 20.7866 0.0000 13.7288 0.0000
# 2 -9.8937 167.4272 79.1265 0.0000 -4.3439 0.0000
# 3 20.7866 79.1265 212.3283 0.0000 5.1635 0.0000
# 4 0.0000 0.0000 0.0000 55.0707 0.0000 4.8991
# 5 13.7288 -4.3439 5.1635 0.0000 58.6903 0.0000
# 6 0.0000 0.0000 0.0000 4.8991 0.0000 30.7636
#
#
#
# Elastic Compliance Matrix: (Units=1/GPa)
#
#
# Indices 1 2 3 4 5 6 
#
# 1 0.003556 0.000420 -0.000486 0.000000 -0.000758 0.000000
# 2 0.000420 0.007335 -0.002791 0.000000 0.000690 0.000000
# 3 -0.000486 -0.002791 0.005812 0.000000 -0.000604 0.000000
# 4 0.000000 0.000000 0.000000 0.018419 0.000000 -0.002933
# 5 -0.000758 0.000690 -0.000604 0.000000 0.017320 0.000000
# 6 0.000000 0.000000 0.000000 -0.002933 0.000000 0.032973
#
#
# Mechanical properties :
#
#
# Convention : Reuss Voigt Hill
#
# Bulk Modulus (GPa) = 91.00891 94.21937 92.61414
# Shear Modulus (GPa) = 52.74692 67.43268 60.08980
#
# Velocity S-wave (km/s) = 4.29321 4.85421 4.58231
# Velocity P-wave (km/s) = 7.50848 8.02131 7.76913
#
# Compressibility (1/GPa) = 0.01098793
#
# Stress axis : x y z
#
# Youngs Moduli (GPa) = 281.24166 136.33929 172.05243
#
# Poissons Ratio (x) = -0.05730 0.08367
# Poissons Ratio (y) = -0.11820 0.48024
# Poissons Ratio (z) = 0.13676 0.38056
#
# Static dielectric constant tensor:
#      x y z
#    x 2.455580 0.000000 0.062870 
#    y 0.000000 2.144360 0.000000 
#    z 0.062870 0.000000 2.214660 
# 
# From -- ./inp_files/252382.got.cif
#   From: 2010.05.17/outbox.cif.g08.bks.cpg/sg12_127_cif.got.tgz:252382.got - 2010.06.03 13:09:07.
