data_PCOD9209775
_publ_section_title
;
Structure prediction by ZEFSAII (Michael W. Deem and Ramdas Pophale) SiO2 
 PCOD9209775
Probable space group: C 2/M
;
_chemical_formula_sum "Si O2"
_cell_formula_units_Z 48
_cell_length_a 22.472858
_cell_length_b 20.854293
_cell_length_c 11.366732
_cell_angle_alpha 90.000000
_cell_angle_beta 28.236623
_cell_angle_gamma 90.000000
_cell_volume 2520.317122
_symmetry_space_group_name_H-M "C 2/M"
_symmetry_group_IT_number 12
_symmetry_cell_setting 'monoclinic'
loop_
_space_group_symop_operation_xyz
x,y,z
-x,y,-z
-x,-y,-z
x,-y,z
1/2+x,1/2+y,z
1/2-x,1/2+y,-z
1/2-x,1/2-y,-z
1/2+x,1/2-y,z
loop_
_atom_site_type_symbol
_atom_site_label
_atom_site_fract_x
_atom_site_fract_y
_atom_site_fract_z
Si Si1 0.772183 0.696817 0.285630
Si Si2 0.639784 0.246261 0.289211
Si Si3 0.860770 0.823783 0.236077
Si Si4 0.310294 0.929826 0.586103
Si Si5 0.860125 0.596912 0.744955
Si Si6 0.886762 0.425284 0.963631
O O1 0.689125 0.720482 0.320573
O O2 0.863025 0.756506 0.160344
O O3 0.688417 0.688365 0.547079
O O4 0.839078 0.630241 0.133914
O O5 0.500000 0.271095 0.500000
O O6 0.625842 0.169864 0.323499
O O7 0.750000 0.250000 0.000000
O O8 0.765279 0.872699 0.341161
O O9 0.000000 0.851200 0.000000
O O10 0.280908 0.931961 0.777094
O O11 0.461268 0.919483 0.310963
O O12 0.281704 0.000000 0.584330
O O13 0.824805 0.589808 0.942910
O O14 0.000000 0.568072 0.500000
O O15 0.859849 0.500000 0.041044
#
# Coordination Sequence:
#
# PCOD9209775 Si02
#       6
#     8   8   8   8   8   8
#     4  11  25  41  63  90 126 161 210 255 310 376
#     4  11  22  36  64  97 126 159 203 262 318 373
#     4  11  27  41  61  86 123 170 210 255 307 366
#     4  10  21  39  63  92 125 164 210 252 304 369
#     4   9  17  32  59  93 122 152 196 253 314 367
#     4  10  21  38  64  95 126 158 201 261 316 366
#
# _framework density 19.045221999999999
#
# number of rings (size 3 to 8) (size 9 to 14) (size 15 to 20)
#    0.000    1.667    3.333    0.500    7.000    3.000 
#    0.000    1.667    0.000    0.500    0.000    0.000 
#    0.000    0.000    0.000    0.000    0.000    0.000 
#
# Total GULP energy -133757.973697 kJ/mol
# GULP energy per Si atom -5573.248904 kJ/mol
# Density = 1.900187 g / cm^3
# Si number density = 19.045222 Si / 1000 Ang^3
#
#
#
# Elastic Constant Matrix: (Units=GPa)
#
#
# Indices 1 2 3 4 5 6 
#
# 1 118.6245 52.5003 46.1399 0.0001 -0.4805 -0.0002
# 2 52.5003 144.8903 32.2865 0.0000 -0.8276 -0.0001
# 3 46.1399 32.2865 62.3988 -0.0002 -4.4128 -0.0002
# 4 0.0001 0.0000 -0.0002 19.2074 0.0001 3.6490
# 5 -0.4805 -0.8276 -4.4128 0.0001 23.1040 0.0002
# 6 -0.0002 -0.0001 -0.0002 3.6490 0.0002 1.7681
#
#
#
# Elastic Compliance Matrix: (Units=1/GPa)
#
#
# Indices 1 2 3 4 5 6 
#
# 1 0.012845 -0.002853 -0.008120 0.000000 -0.001386 0.000001
# 2 -0.002853 0.008441 -0.002271 0.000000 -0.000191 0.000000
# 3 -0.008120 -0.002271 0.023505 0.000000 0.004239 0.000001
# 4 0.000000 0.000000 0.000000 0.085640 0.000001 -0.176740
# 5 -0.001386 -0.000191 0.004239 0.000001 0.044057 -0.000006
# 6 0.000001 0.000000 0.000001 -0.176740 -0.000006 0.930315
#
#
# Mechanical properties :
#
#
# Convention : Reuss Voigt Hill
#
# Bulk Modulus (GPa) = 54.63736 65.30743 59.97240
# Shear Modulus (GPa) = 4.39602 21.81503 13.10552
#
# Velocity S-wave (km/s) = 1.52092 3.38810 2.62606
# Velocity P-wave (km/s) = 5.64223 7.04775 6.38379
#
# Compressibility (1/GPa) = 0.01830249
#
# Stress axis : x y z
#
# Youngs Moduli (GPa) = 77.84889 118.47579 42.54359
#
# Poissons Ratio (x) = 0.33800 0.34546
# Poissons Ratio (y) = 0.22210 0.09663
# Poissons Ratio (z) = 0.63215 0.26909
#
# Static dielectric constant tensor:
#      x y z
#    x 1.682800 0.000000 0.012600 
#    y 0.000000 1.832230 0.000000 
#    z 0.012600 0.000000 1.706350 
# 
# From -- ./inp_files/169606.got.cif
#   From: 2010.05.17/outbox.cif.g08.bks.cpg/sg12_85_cif.got.tgz:169606.got - 2010.06.03 13:09:07.
