data_PCOD9209605
_publ_section_title
;
Structure prediction by ZEFSAII (Michael W. Deem and Ramdas Pophale) SiO2 
 PCOD9209605
Probable space group: C 2/M
;
_chemical_formula_sum "Si O2"
_cell_formula_units_Z 56
_cell_length_a 29.875825
_cell_length_b 14.667996
_cell_length_c 12.049690
_cell_angle_alpha 90.000000
_cell_angle_beta 30.502378
_cell_angle_gamma 90.000000
_cell_volume 2680.192806
_symmetry_space_group_name_H-M "C 2/M"
_symmetry_group_IT_number 12
_symmetry_cell_setting 'monoclinic'
loop_
_space_group_symop_operation_xyz
x,y,z
-x,y,-z
-x,-y,-z
x,-y,z
1/2+x,1/2+y,z
1/2-x,1/2+y,-z
1/2-x,1/2-y,-z
1/2+x,1/2-y,z
loop_
_atom_site_type_symbol
_atom_site_label
_atom_site_fract_x
_atom_site_fract_y
_atom_site_fract_z
Si Si1 0.433570 0.898380 0.745899
Si Si2 0.800716 0.896014 0.566062
Si Si3 0.078017 0.105177 0.479253
Si Si4 0.094728 0.602227 0.955594
Si Si5 0.121031 0.107320 0.006767
Si Si6 0.596674 0.709776 0.832016
Si Si7 0.667109 0.278822 0.105542
O O1 0.500000 0.896520 0.500000
O O2 0.371531 0.813818 0.858871
O O3 0.392455 0.000000 0.831247
O O4 0.466290 0.886875 0.803670
O O5 0.847965 0.883362 0.583508
O O6 0.695170 0.893259 0.787759
O O7 0.837518 0.818848 0.405817
O O8 0.826221 0.000000 0.474869
O O9 0.099757 0.171533 0.332596
O O10 0.980968 0.120690 0.736540
O O11 0.081848 0.000000 0.432269
O O12 0.081282 0.500000 0.939076
O O13 0.087716 0.684237 0.884264
O O14 0.181174 0.153462 0.972326
O O15 0.137406 0.000000 0.961830
O O16 0.128342 0.157761 0.874457
O O17 0.500000 0.676897 0.000000
O O18 0.750000 0.250000 0.000000
#
# Coordination Sequence:
#
# PCOD9209605 Si02
#       7
#     8   8   8   8   8   8   8
#     4  10  21  39  64  87 116 160 209 255 300 362
#     4  10  21  39  64  92 126 166 211 258 312 380
#     4  10  21  38  63  91 122 163 207 254 313 381
#     4  10  22  41  62  89 124 166 212 259 312 367
#     4  11  23  40  62  92 126 160 205 261 315 371
#     4  12  23  38  65  96 126 169 210 259 312 374
#     4  12  24  38  61  90 125 161 203 254 320 381
#
# _framework density 20.894020000000001
#
# number of rings (size 3 to 8) (size 9 to 14) (size 15 to 20)
#    0.000    1.286    2.857    3.429    0.000    4.286 
#    0.000    0.000    0.000    0.857    0.000    0.000 
#    0.000    0.000    0.000    0.000    0.000    0.000 
#
# Total GULP energy -156449.510993 kJ/mol
# GULP energy per Si atom -5587.482535 kJ/mol
# Density = 2.084646 g / cm^3
# Si number density = 20.894020 Si / 1000 Ang^3
#
#
#
# Elastic Constant Matrix: (Units=GPa)
#
#
# Indices 1 2 3 4 5 6 
#
# 1 83.6672 40.3537 2.9029 0.0000 5.5328 0.0000
# 2 40.3537 126.7895 17.1059 0.0000 28.6454 0.0000
# 3 2.9029 17.1059 43.6940 0.0000 15.1303 0.0000
# 4 0.0000 0.0000 0.0000 83.7524 0.0000 -46.8303
# 5 5.5328 28.6454 15.1303 0.0000 29.7044 0.0000
# 6 0.0000 0.0000 0.0000 -46.8303 0.0000 88.7390
#
#
#
# Elastic Compliance Matrix: (Units=1/GPa)
#
#
# Indices 1 2 3 4 5 6 
#
# 1 0.014234 -0.005035 0.000318 0.000000 0.002042 0.000000
# 2 -0.005035 0.011883 -0.000819 0.000000 -0.010104 0.000000
# 3 0.000318 -0.000819 0.027844 0.000000 -0.013453 0.000000
# 4 0.000000 0.000000 0.000000 0.016938 0.000000 0.008939
# 5 0.002042 -0.010104 -0.013453 0.000000 0.049881 0.000000
# 6 0.000000 0.000000 0.000000 0.008939 0.000000 0.015986
#
#
# Mechanical properties :
#
#
# Convention : Reuss Voigt Hill
#
# Bulk Modulus (GPa) = 23.31464 41.65285 32.48375
# Shear Modulus (GPa) = 30.83873 53.35837 42.09855
#
# Velocity S-wave (km/s) = 3.84599 5.05896 4.49359
# Velocity P-wave (km/s) = 5.55922 7.35545 6.51949
#
# Compressibility (1/GPa) = 0.04289150
#
# Stress axis : x y z
#
# Youngs Moduli (GPa) = 70.25278 84.15523 35.91422
#
# Poissons Ratio (x) = 0.42369 -0.01143
# Poissons Ratio (y) = 0.35370 0.02940
# Poissons Ratio (z) = -0.02236 0.06889
#
# Static dielectric constant tensor:
#      x y z
#    x 1.424310 0.000000 0.005120 
#    y 0.000000 1.741730 0.000000 
#    z 0.005120 0.000000 1.776210 
# 
# From -- ./inp_files/143722.got.cif
#   From: 2010.05.17/outbox.cif.g08.bks.cpg/sg12_72_cif.got.tgz:143722.got - 2010.06.03 13:09:07.
