data_PCOD9209919
_publ_section_title
;
Structure prediction by ZEFSAII (Michael W. Deem and Ramdas Pophale) SiO2 
 PCOD9209919
Probable space group: C 2/M
;
_chemical_formula_sum "Si O2"
_cell_formula_units_Z 64
_cell_length_a 13.837891
_cell_length_b 21.930537
_cell_length_c 9.198854
_cell_angle_alpha 90.000000
_cell_angle_beta 81.429150
_cell_angle_gamma 90.000000
_cell_volume 2760.422479
_symmetry_space_group_name_H-M "C 2/M"
_symmetry_group_IT_number 12
_symmetry_cell_setting 'monoclinic'
loop_
_space_group_symop_operation_xyz
x,y,z
-x,y,-z
-x,-y,-z
x,-y,z
1/2+x,1/2+y,z
1/2-x,1/2+y,-z
1/2-x,1/2-y,-z
1/2+x,1/2-y,z
loop_
_atom_site_type_symbol
_atom_site_label
_atom_site_fract_x
_atom_site_fract_y
_atom_site_fract_z
Si Si1 0.739890 0.747445 0.677888
Si Si2 0.851760 0.068911 0.315322
Si Si3 0.255368 0.620076 0.807006
Si Si4 0.534320 0.624024 0.154339
Si Si5 0.189187 0.430165 0.104562
Si Si6 0.332501 0.929755 0.446889
Si Si7 0.978748 0.741266 0.165643
Si Si8 0.409493 0.150672 0.667222
O O1 0.750000 0.750000 0.500000
O O2 0.767143 0.813823 0.733232
O O3 0.631959 0.738824 0.770864
O O4 0.812272 0.693140 0.706649
O O5 0.774873 0.081696 0.459167
O O6 0.946091 0.109836 0.282421
O O7 0.886946 0.000000 0.323764
O O8 0.785425 0.071771 0.185233
O O9 0.364327 0.595504 0.815291
O O10 0.203447 0.617783 0.973577
O O11 0.186267 0.581556 0.716694
O O12 0.543001 0.697134 0.147741
O O13 0.500000 0.603946 0.000000
O O14 0.177563 0.500000 0.057642
O O15 0.101464 0.407618 0.225537
O O16 0.400271 0.879959 0.510094
O O17 0.359693 0.000000 0.472936
O O18 0.009685 0.695709 0.286981
O O19 0.000000 0.714004 0.000000
#
# Coordination Sequence:
#
# PCOD9209919 Si02
#       8
#     8   8   8   8   8   8   8   8
#     4  12  26  45  67 104 144 187 230 292 356 427
#     4   9  19  36  57  86 127 177 223 269 337 414
#     4  12  23  39  63  96 139 177 229 288 354 412
#     4  11  22  37  58  95 133 176 222 281 339 414
#     4  10  21  38  67  98 131 179 231 287 347 411
#     4  10  22  41  64  92 131 180 226 281 353 418
#     4  11  25  42  70 102 138 181 240 291 349 418
#     4  11  22  44  71  97 137 186 232 285 352 421
#
# _framework density 23.184856
#
# number of rings (size 3 to 8) (size 9 to 14) (size 15 to 20)
#    0.000    1.250    3.750    3.750    1.750    3.250 
#    0.000    1.250    0.000    9.000    0.000    0.000 
#    0.000    0.000    0.000    0.000    0.000    0.000 
#
# Total GULP energy -178788.737692 kJ/mol
# GULP energy per Si atom -5587.148053 kJ/mol
# Density = 2.313209 g / cm^3
# Si number density = 23.184856 Si / 1000 Ang^3
#
#
#
# Elastic Constant Matrix: (Units=GPa)
#
#
# Indices 1 2 3 4 5 6 
#
# 1 61.8087 4.2904 6.7715 0.0000 3.7019 0.0000
# 2 4.2904 61.4835 -9.9096 0.0000 5.8328 0.0000
# 3 6.7715 -9.9096 83.7361 0.0000 -1.8051 0.0000
# 4 0.0000 0.0000 0.0000 30.6874 0.0000 -4.4412
# 5 3.7019 5.8328 -1.8051 0.0000 14.5896 0.0000
# 6 0.0000 0.0000 0.0000 -4.4412 0.0000 13.6938
#
#
#
# Elastic Compliance Matrix: (Units=1/GPa)
#
#
# Indices 1 2 3 4 5 6 
#
# 1 0.016661 -0.001033 -0.001556 0.000000 -0.004007 0.000000
# 2 -0.001033 0.017264 0.001989 0.000000 -0.006394 0.000000
# 3 -0.001556 0.001989 0.012328 0.000000 0.001125 0.000000
# 4 0.000000 0.000000 0.000000 0.034192 0.000000 0.011089
# 5 -0.004007 -0.006394 0.001125 0.000000 0.072254 0.000000
# 6 0.000000 0.000000 0.000000 0.011089 0.000000 0.076622
#
#
# Mechanical properties :
#
#
# Convention : Reuss Voigt Hill
#
# Bulk Modulus (GPa) = 22.19683 23.25922 22.72803
# Shear Modulus (GPa) = 20.36345 25.51924 22.94134
#
# Velocity S-wave (km/s) = 2.96684 3.32126 3.14904
# Velocity P-wave (km/s) = 4.61853 4.97610 4.80064
#
# Compressibility (1/GPa) = 0.04505148
#
# Stress axis : x y z
#
# Youngs Moduli (GPa) = 60.01998 57.92495 81.11806
#
# Poissons Ratio (x) = 0.05985 0.12622
# Poissons Ratio (y) = 0.06202 -0.16133
# Poissons Ratio (z) = 0.09339 -0.11520
#
# Static dielectric constant tensor:
#      x y z
#    x 1.890940 0.000000 0.005450 
#    y 0.000000 1.876900 0.000000 
#    z 0.005450 0.000000 1.883290 
# 
# From -- ./inp_files/65874.got.cif
#   From: 2010.05.17/outbox.cif.g08.bks.cpg/sg12_33_cif.got.tgz:65874.got - 2010.06.03 13:09:07.
