data_PCOD9209652
_publ_section_title
;
Structure prediction by ZEFSAII (Michael W. Deem and Ramdas Pophale) SiO2 
 PCOD9209652
Probable space group: C 2/M
;
_chemical_formula_sum "Si O2"
_cell_formula_units_Z 56
_cell_length_a 22.307813
_cell_length_b 10.919870
_cell_length_c 12.414461
_cell_angle_alpha 90.000000
_cell_angle_beta 68.280771
_cell_angle_gamma 90.000000
_cell_volume 2809.454392
_symmetry_space_group_name_H-M "C 2/M"
_symmetry_group_IT_number 12
_symmetry_cell_setting 'monoclinic'
loop_
_space_group_symop_operation_xyz
x,y,z
-x,y,-z
-x,-y,-z
x,-y,z
1/2+x,1/2+y,z
1/2-x,1/2+y,-z
1/2-x,1/2-y,-z
1/2+x,1/2-y,z
loop_
_atom_site_type_symbol
_atom_site_label
_atom_site_fract_x
_atom_site_fract_y
_atom_site_fract_z
Si Si1 0.407872 0.141006 0.542993
Si Si2 0.058847 0.645215 0.717406
Si Si3 0.467117 0.500000 0.686653
Si Si4 0.305892 0.853018 0.970475
Si Si5 0.170580 0.354313 0.798532
Si Si6 0.892003 0.000000 0.507714
Si Si7 0.710395 0.275418 0.417735
Si Si8 0.427982 0.763372 0.763412
O O1 0.430751 0.190201 0.411873
O O2 0.331196 0.157924 0.587260
O O3 0.432422 0.208126 0.632641
O O4 0.426182 0.000000 0.541217
O O5 0.068590 0.500000 0.705539
O O6 0.111251 0.695304 0.766165
O O7 0.984823 0.670504 0.790999
O O8 0.428330 0.500000 0.598837
O O9 0.545213 0.500000 0.614086
O O10 0.442512 0.620320 0.764026
O O11 0.360172 0.814799 0.848622
O O12 0.288565 0.000000 0.971083
O O13 0.250000 0.750000 0.000000
O O14 0.335239 0.836176 0.070712
O O15 0.173118 0.500000 0.779327
O O16 0.237931 0.305213 0.708235
O O17 0.842571 0.115528 0.534236
O O18 0.750000 0.250000 0.500000
#
# Coordination Sequence:
#
# PCOD9209652 Si02
#       8
#     8   8   4   8   8   4   8   8
#     4  11  22  36  59  94 130 166 208 273 336 400
#     4  10  21  38  63  93 130 165 212 274 340 400
#     4  11  26  40  66  98 131 183 225 283 336 424
#     4  11  26  45  74  98 130 177 233 284 336 404
#     4  10  22  41  64  96 126 172 224 273 325 398
#     4  11  24  42  64  97 134 178 233 272 346 413
#     4  12  22  36  63  91 133 171 214 267 334 403
#     4  12  24  42  65  94 132 174 226 274 344 397
#
# _framework density 19.932694999999999
#
# number of rings (size 3 to 8) (size 9 to 14) (size 15 to 20)
#    0.000    1.000    3.571    3.429    4.000    1.714 
#    0.000    2.143    1.571    0.857    0.000    0.000 
#    0.000    0.000    0.000    0.000    0.000    0.000 
#
# Total GULP energy -156241.774362 kJ/mol
# GULP energy per Si atom -5580.063370 kJ/mol
# Density = 1.988733 g / cm^3
# Si number density = 19.932695 Si / 1000 Ang^3
#
#
#
# Elastic Constant Matrix: (Units=GPa)
#
#
# Indices 1 2 3 4 5 6 
#
# 1 141.7521 34.4181 29.6815 0.0000 -2.7998 0.0000
# 2 34.4181 73.2850 34.0742 0.0000 -1.0471 0.0000
# 3 29.6815 34.0742 53.8580 0.0000 3.9307 0.0000
# 4 0.0000 0.0000 0.0000 20.3482 0.0000 -1.8548
# 5 -2.7998 -1.0471 3.9307 0.0000 18.1602 0.0000
# 6 0.0000 0.0000 0.0000 -1.8548 0.0000 36.1568
#
#
#
# Elastic Compliance Matrix: (Units=1/GPa)
#
#
# Indices 1 2 3 4 5 6 
#
# 1 0.008347 -0.002398 -0.003218 0.000000 0.001845 0.000000
# 2 -0.002398 0.020286 -0.011757 0.000000 0.003345 0.000000
# 3 -0.003218 -0.011757 0.028312 0.000000 -0.007302 0.000000
# 4 0.000000 0.000000 0.000000 0.049375 0.000000 0.002533
# 5 0.001845 0.003345 -0.007302 0.000000 0.057123 0.000000
# 6 0.000000 0.000000 0.000000 0.002533 0.000000 0.027787
#
#
# Mechanical properties :
#
#
# Convention : Reuss Voigt Hill
#
# Bulk Modulus (GPa) = 45.04541 51.69364 48.36952
# Shear Modulus (GPa) = 21.42482 26.31447 23.86964
#
# Velocity S-wave (km/s) = 3.28206 3.63735 3.46426
# Velocity P-wave (km/s) = 6.08361 6.60536 6.34985
#
# Compressibility (1/GPa) = 0.02219982
#
# Stress axis : x y z
#
# Youngs Moduli (GPa) = 119.80422 49.29617 35.32104
#
# Poissons Ratio (x) = 0.11819 0.11366
# Poissons Ratio (y) = 0.28724 0.41526
# Poissons Ratio (z) = 0.38551 0.57956
#
# Static dielectric constant tensor:
#      x y z
#    x 1.725850 0.000000 -0.019200 
#    y 0.000000 1.725990 0.000000 
#    z -0.019200 0.000000 1.714000 
# 
# From -- ./inp_files/165642.got.cif
#   From: 2010.05.17/outbox.cif.g08.bks.cpg/sg12_83_cif.got.tgz:165642.got - 2010.06.03 13:09:07.
