data_PCOD9209283
_publ_section_title
;
Structure prediction by ZEFSAII (Michael W. Deem and Ramdas Pophale) SiO2 
 PCOD9209283
Probable space group: C 2/M
;
_chemical_formula_sum "Si O2"
_cell_formula_units_Z 56
_cell_length_a 9.331949
_cell_length_b 23.832135
_cell_length_c 13.461183
_cell_angle_alpha 90.000000
_cell_angle_beta 109.228624
_cell_angle_gamma 90.000000
_cell_volume 2826.754100
_symmetry_space_group_name_H-M "C 2/M"
_symmetry_group_IT_number 12
_symmetry_cell_setting 'monoclinic'
loop_
_space_group_symop_operation_xyz
x,y,z
-x,y,-z
-x,-y,-z
x,-y,z
1/2+x,1/2+y,z
1/2-x,1/2+y,-z
1/2-x,1/2-y,-z
1/2+x,1/2-y,z
loop_
_atom_site_type_symbol
_atom_site_label
_atom_site_fract_x
_atom_site_fract_y
_atom_site_fract_z
Si Si1 0.375670 0.136576 0.771692
Si Si2 0.655007 0.593597 0.865302
Si Si3 0.691829 0.437059 0.246726
Si Si4 0.875538 0.438089 0.084833
Si Si5 0.052066 0.787402 0.903117
Si Si6 0.428725 0.149208 0.375613
Si Si7 0.241042 0.260594 0.775567
O O1 0.232032 0.100961 0.775382
O O2 0.507279 0.113524 0.876173
O O3 0.447958 0.130601 0.679545
O O4 0.313740 0.199994 0.769344
O O5 0.487156 0.570943 0.810354
O O6 0.639185 0.654056 0.917518
O O7 0.770677 0.562458 0.964137
O O8 0.719677 0.500000 0.291226
O O9 0.765722 0.432901 0.154316
O O10 0.785019 0.392517 0.333544
O O11 0.951143 0.500000 0.109053
O O12 0.150679 0.744871 0.859310
O O13 0.889476 0.798962 0.815750
O O14 0.000000 0.767668 0.000000
O O15 0.500000 0.149627 0.500000
O O16 0.371202 0.210942 0.328089
#
# Coordination Sequence:
#
# PCOD9209283 Si02
#       7
#     8   8   8   8   8   8   8
#     4  10  24  40  59  90 124 158 204 251 299 361
#     4  11  21  35  61  92 129 161 198 244 294 359
#     4  10  21  39  65  93 123 158 203 254 298 358
#     4  10  21  38  61  91 130 171 202 231 289 368
#     4  11  22  34  58  89 128 166 191 236 296 365
#     4  11  24  45  67  83 114 161 209 262 315 364
#     4  11  22  41  59  88 126 158 207 246 294 368
#
# _framework density 19.810708000000002
#
# number of rings (size 3 to 8) (size 9 to 14) (size 15 to 20)
#    0.000    1.429    2.857    2.571    2.000    6.000 
#    0.000    0.714    0.000    0.857    0.000    0.000 
#    0.000    0.000    0.000    0.000    0.000    0.000 
#
# Total GULP energy -156158.674597 kJ/mol
# GULP energy per Si atom -5577.095521 kJ/mol
# Density = 1.976562 g / cm^3
# Si number density = 19.810708 Si / 1000 Ang^3
#
#
#
# Elastic Constant Matrix: (Units=GPa)
#
#
# Indices 1 2 3 4 5 6 
#
# 1 123.0935 37.4990 45.3038 0.0000 -1.4254 0.0000
# 2 37.4990 102.1117 48.5042 0.0000 7.2472 0.0000
# 3 45.3038 48.5042 111.2207 0.0000 1.5138 0.0000
# 4 0.0000 0.0000 0.0000 8.2149 0.0000 -2.9564
# 5 -1.4254 7.2472 1.5138 0.0000 14.5826 0.0000
# 6 0.0000 0.0000 0.0000 -2.9564 0.0000 27.1255
#
#
#
# Elastic Compliance Matrix: (Units=1/GPa)
#
#
# Indices 1 2 3 4 5 6 
#
# 1 0.010011 -0.002396 -0.003067 0.000000 0.002488 0.000000
# 2 -0.002396 0.013398 -0.004780 0.000000 -0.006396 0.000000
# 3 -0.003067 -0.004780 0.012314 0.000000 0.000797 0.000000
# 4 0.000000 0.000000 0.000000 0.126700 0.000000 0.013809
# 5 0.002488 -0.006396 0.000797 0.000000 0.071914 0.000000
# 6 0.000000 0.000000 0.000000 0.013809 0.000000 0.038371
#
#
# Mechanical properties :
#
#
# Convention : Reuss Voigt Hill
#
# Bulk Modulus (GPa) = 65.62795 66.56000 66.09397
# Shear Modulus (GPa) = 16.76318 23.65918 20.21118
#
# Velocity S-wave (km/s) = 2.91205 3.45956 3.19755
# Velocity P-wave (km/s) = 6.67129 7.04478 6.86058
#
# Compressibility (1/GPa) = 0.01523741
#
# Stress axis : x y z
#
# Youngs Moduli (GPa) = 99.88567 74.64052 81.20912
#
# Poissons Ratio (x) = 0.17887 0.24905
# Poissons Ratio (y) = 0.23936 0.38815
# Poissons Ratio (z) = 0.30633 0.35675
#
# Static dielectric constant tensor:
#      x y z
#    x 1.715610 0.000000 0.002870 
#    y 0.000000 1.766430 0.000000 
#    z 0.002870 0.000000 1.657360 
# 
# From -- ./inp_files/198520.got.cif
#   From: 2010.05.17/outbox.cif.g08.bks.cpg/sg12_100_cif.got.tgz:198520.got - 2010.06.03 13:09:07.
