data_PCOD9209326
_publ_section_title
;
Structure prediction by ZEFSAII (Michael W. Deem and Ramdas Pophale) SiO2 
 PCOD9209326
Probable space group: C 2/M
;
_chemical_formula_sum "Si O2"
_cell_formula_units_Z 58
_cell_length_a 18.172754
_cell_length_b 11.670590
_cell_length_c 19.767642
_cell_angle_alpha 90.000000
_cell_angle_beta 36.526465
_cell_angle_gamma 90.000000
_cell_volume 2495.324269
_symmetry_space_group_name_H-M "C 2/M"
_symmetry_group_IT_number 12
_symmetry_cell_setting 'monoclinic'
loop_
_space_group_symop_operation_xyz
x,y,z
-x,y,-z
-x,-y,-z
x,-y,z
1/2+x,1/2+y,z
1/2-x,1/2+y,-z
1/2-x,1/2-y,-z
1/2+x,1/2-y,z
loop_
_atom_site_type_symbol
_atom_site_label
_atom_site_fract_x
_atom_site_fract_y
_atom_site_fract_z
Si Si1 0.500000 0.500000 0.000000
Si Si2 0.825978 0.298817 0.238034
Si Si3 0.053300 0.333586 0.222476
Si Si4 0.082534 0.129826 0.715132
Si Si5 0.718588 0.316017 0.861903
Si Si6 0.643090 0.128493 0.529855
Si Si7 0.099422 0.128500 0.487285
Si Si8 0.910286 0.621811 0.960702
O O1 0.607588 0.401781 0.929875
O O2 0.880692 0.195391 0.243241
O O3 0.752622 0.247717 0.229301
O O4 0.734549 0.368826 0.352816
O O5 0.946897 0.363912 0.122689
O O6 0.158285 0.367128 0.197103
O O7 0.083591 0.374278 0.125278
O O8 0.031162 0.196971 0.233275
O O9 0.922508 0.373814 0.349044
O O10 0.208115 0.135504 0.578247
O O11 0.051570 0.000000 0.753166
O O12 0.668670 0.224923 0.952826
O O13 0.596010 0.247063 0.528867
O O14 0.617889 0.000000 0.516886
O O15 0.000000 0.133797 0.500000
O O16 0.083240 0.000000 0.532479
O O17 0.860245 0.500000 0.020506
#
# Coordination Sequence:
#
# PCOD9209326 Si02
#       8
#     2   8   8   8   8   8   8   8
#     4  12  28  48  70  92 134 176 222 298 340 400
#     4  10  21  41  66  95 125 174 221 269 334 406
#     4  11  24  42  66  99 133 174 229 272 334 402
#     4   9  21  40  67 100 140 174 214 268 337 406
#     4  12  26  45  68  98 126 175 228 281 342 392
#     4  10  21  40  64  99 136 178 222 277 333 405
#     4  10  21  38  61  95 137 178 223 277 337 406
#     4  11  24  44  63  93 127 169 218 280 335 395
#
# _framework density 23.243472000000001
#
# number of rings (size 3 to 8) (size 9 to 14) (size 15 to 20)
#    0.000    1.517    1.379    2.483    2.897    3.034 
#    0.000    3.448    0.000    0.000    0.000    0.000 
#    0.000    0.000    0.000    0.000    0.000    0.000 
#
# Total GULP energy -161780.773060 kJ/mol
# GULP energy per Si atom -5578.647347 kJ/mol
# Density = 2.319057 g / cm^3
# Si number density = 23.243472 Si / 1000 Ang^3
#
#
#
# Elastic Constant Matrix: (Units=GPa)
#
#
# Indices 1 2 3 4 5 6 
#
# 1 86.6095 30.2207 7.7519 0.0019 -7.6108 -0.0003
# 2 30.2207 174.6614 20.8439 -0.0028 2.7633 0.0004
# 3 7.7519 20.8439 64.8770 0.0026 6.4532 -0.0004
# 4 0.0019 -0.0028 0.002635035.9250 -0.0012-5020.6739
# 5 -7.6108 2.7633 6.4532 -0.0012 30.7463 0.0002
# 6 -0.0003 0.0004 -0.0004-5020.6739 0.0002 722.5286
#
#
#
# Elastic Compliance Matrix: (Units=1/GPa)
#
#
# Indices 1 2 3 4 5 6 
#
# 1 0.012705 -0.002112 -0.001196 0.000000 0.003586 0.000000
# 2 -0.002112 0.006305 -0.001701 0.000000 -0.000733 0.000000
# 3 -0.001196 -0.001701 0.016461 0.000000 -0.003598 0.000000
# 4 0.000000 0.000000 0.000000 0.006734 0.000000 0.046795
# 5 0.003586 -0.000733 -0.003598 0.000000 0.034233 0.000000
# 6 0.000000 0.000000 0.000000 0.046795 0.000000 0.326554
#
#
# Mechanical properties :
#
#
# Convention : Reuss Voigt Hill
#
# Bulk Modulus (GPa) = 39.28712 49.30899 44.29806
# Shear Modulus (GPa) = 11.86254 7175.66208 3593.76231
#
# Velocity S-wave (km/s) = 2.26157 55.62261 39.36362
# Velocity P-wave (km/s) = 4.87429 64.39276 45.66282
#
# Compressibility (1/GPa) = 0.02545363
#
# Stress axis : x y z
#
# Youngs Moduli (GPa) = 78.70730 158.59473 60.74985
#
# Poissons Ratio (x) = 0.33500 0.07267
# Poissons Ratio (y) = 0.16625 0.10331
# Poissons Ratio (z) = 0.09414 0.26970
#
# Static dielectric constant tensor:
#      x y z
#    x 1.873200 0.000000 0.040620 
#    y 0.000000 1.921110 0.000000 
#    z 0.040620 0.000000 1.840300 
# 
# From -- ./inp_files/315931.got.cif
#   From: 2010.05.17/outbox.cif.g08.bks.cpg/sg12_158_cif.got.tgz:315931.got - 2010.06.03 13:09:07.
