data_PCOD9209220
_publ_section_title
;
Structure prediction by ZEFSAII (Michael W. Deem and Ramdas Pophale) SiO2 
 PCOD9209220
Probable space group: C 2/M
;
_chemical_formula_sum "Si O2"
_cell_formula_units_Z 48
_cell_length_a 14.325109
_cell_length_b 27.271171
_cell_length_c 8.178705
_cell_angle_alpha 90.000000
_cell_angle_beta 38.456758
_cell_angle_gamma 90.000000
_cell_volume 1987.117058
_symmetry_space_group_name_H-M "C 2/M"
_symmetry_group_IT_number 12
_symmetry_cell_setting 'monoclinic'
loop_
_space_group_symop_operation_xyz
x,y,z
-x,y,-z
-x,-y,-z
x,-y,z
1/2+x,1/2+y,z
1/2-x,1/2+y,-z
1/2-x,1/2-y,-z
1/2+x,1/2-y,z
loop_
_atom_site_type_symbol
_atom_site_label
_atom_site_fract_x
_atom_site_fract_y
_atom_site_fract_z
Si Si1 0.919066 0.122458 0.934010
Si Si2 0.410059 0.901926 0.294127
Si Si3 0.934073 0.302353 0.422382
Si Si4 0.820519 0.555893 0.878987
Si Si5 0.149018 0.054306 0.462537
Si Si6 0.130856 0.232537 0.954920
O O1 0.768652 0.090398 0.123533
O O2 0.881072 0.178704 0.948952
O O3 0.033257 0.097689 0.651243
O O4 0.000000 0.119702 0.000000
O O5 0.369216 0.846751 0.404309
O O6 0.274643 0.936933 0.428641
O O7 0.500000 0.896257 0.000000
O O8 0.518917 0.924884 0.280402
O O9 0.000000 0.322509 0.500000
O O10 0.076893 0.275597 0.146264
O O11 0.796501 0.265356 0.649476
O O12 0.827386 0.500000 0.812456
O O13 0.726242 0.556434 0.179827
O O14 0.080287 0.000000 0.576824
O O15 0.000000 0.233402 0.000000
#
# Coordination Sequence:
#
# PCOD9209220 Si02
#       6
#     8   8   8   8   8   8
#     4  11  23  39  59  88 124 161 202 257 316 372
#     4  10  21  39  64  91 124 165 209 259 314 370
#     4  12  25  43  66  95 128 164 210 264 321 383
#     4  10  21  38  61  90 123 163 211 257 303 366
#     4  10  21  38  61  89 122 163 211 257 303 365
#     4  11  25  44  66  91 126 166 212 262 317 382
#
# _framework density 24.155597
#
# number of rings (size 3 to 8) (size 9 to 14) (size 15 to 20)
#    0.000    1.333    0.000    6.000    0.000    8.667 
#    0.000    0.000    0.000    4.000    0.000    0.000 
#    0.000    0.000    0.000    0.000    0.000    0.000 
#
# Total GULP energy -134414.077677 kJ/mol
# GULP energy per Si atom -5600.586570 kJ/mol
# Density = 2.410062 g / cm^3
# Si number density = 24.155597 Si / 1000 Ang^3
#
#
#
# Elastic Constant Matrix: (Units=GPa)
#
#
# Indices 1 2 3 4 5 6 
#
# 1 127.8229 26.2438 -8.2439 0.0000 -14.3447 0.0000
# 2 26.2438 104.5863 9.5171 0.0000 15.1295 0.0000
# 3 -8.2439 9.5171 67.7582 0.0000 -9.7522 0.0000
# 4 0.0000 0.0000 0.0000 35.8266 0.0000 -0.7025
# 5 -14.3447 15.1295 -9.7522 0.0000 27.5064 0.0000
# 6 0.0000 0.0000 0.0000 -0.7025 0.0000 22.2875
#
#
#
# Elastic Compliance Matrix: (Units=1/GPa)
#
#
# Indices 1 2 3 4 5 6 
#
# 1 0.009741 -0.003906 0.002923 0.000000 0.008265 0.000000
# 2 -0.003906 0.012340 -0.003666 0.000000 -0.010124 0.000000
# 3 0.002923 -0.003666 0.017006 0.000000 0.009570 0.000000
# 4 0.000000 0.000000 0.000000 0.027929 0.000000 0.000880
# 5 0.008265 -0.010124 0.009570 0.000000 0.049627 0.000000
# 6 0.000000 0.000000 0.000000 0.000880 0.000000 0.044896
#
#
# Mechanical properties :
#
#
# Convention : Reuss Voigt Hill
#
# Bulk Modulus (GPa) = 33.56720 39.46683 36.51702
# Shear Modulus (GPa) = 27.66003 35.30081 31.48042
#
# Velocity S-wave (km/s) = 3.38757 3.82696 3.61395
# Velocity P-wave (km/s) = 5.40622 5.99179 5.70652
#
# Compressibility (1/GPa) = 0.02979098
#
# Stress axis : x y z
#
# Youngs Moduli (GPa) = 102.65502 81.03924 58.80187
#
# Poissons Ratio (x) = 0.31654 -0.17190
# Poissons Ratio (y) = 0.40098 0.21554
# Poissons Ratio (z) = -0.30010 0.29705
#
# Static dielectric constant tensor:
#      x y z
#    x 1.919490 0.000000 -0.006920 
#    y 0.000000 1.849560 0.000000 
#    z -0.006920 0.000000 1.995320 
# 
# From -- ./inp_files/67312.got.cif
#   From: 2010.05.17/outbox.cif.g08.bks.cpg/sg12_34_cif.got.tgz:67312.got - 2010.06.03 13:09:07.
