data_PCOD9209411
_publ_section_title
;
Structure prediction by ZEFSAII (Michael W. Deem and Ramdas Pophale) SiO2 
 PCOD9209411
Probable space group: C 2/M
;
_chemical_formula_sum "Si O2"
_cell_formula_units_Z 48
_cell_length_a 23.646222
_cell_length_b 14.325013
_cell_length_c 20.735390
_cell_angle_alpha 90.000000
_cell_angle_beta 160.514454
_cell_angle_gamma 90.000000
_cell_volume 2342.905337
_symmetry_space_group_name_H-M "C 2/M"
_symmetry_group_IT_number 12
_symmetry_cell_setting 'monoclinic'
loop_
_space_group_symop_operation_xyz
x,y,z
-x,y,-z
-x,-y,-z
x,-y,z
1/2+x,1/2+y,z
1/2-x,1/2+y,-z
1/2-x,1/2-y,-z
1/2+x,1/2-y,z
loop_
_atom_site_type_symbol
_atom_site_label
_atom_site_fract_x
_atom_site_fract_y
_atom_site_fract_z
Si Si1 0.260071 0.860803 0.013934
Si Si2 0.487747 0.893368 0.833263
Si Si3 0.115317 0.607013 0.710244
Si Si4 0.397984 0.267248 0.944651
Si Si5 0.601803 0.396131 0.422303
Si Si6 0.103371 0.778724 0.550125
O O1 0.063160 0.892011 0.800146
O O2 0.250000 0.750000 0.000000
O O3 0.373794 0.890659 0.075106
O O4 0.350252 0.891422 0.176314
O O5 0.291453 0.879529 0.598695
O O6 0.496296 0.000000 0.869941
O O7 0.527349 0.806940 0.923896
O O8 0.104523 0.500000 0.677453
O O9 0.270897 0.664865 0.846080
O O10 0.951536 0.670574 0.517965
O O11 0.291702 0.207690 0.777787
O O12 0.500000 0.325550 0.000000
O O13 0.605718 0.500000 0.454478
O O14 0.569435 0.326460 0.446238
O O15 0.000000 0.816540 0.500000
#
# Coordination Sequence:
#
# PCOD9209411 Si02
#       6
#     8   8   8   8   8   8
#     4  12  22  43  70  93 128 174 215 267 328 381
#     4  11  24  42  68 101 134 167 207 264 328 393
#     4  11  24  43  65  89 124 173 221 272 322 370
#     4  11  22  40  64  92 129 167 213 260 317 386
#     4  11  23  40  65  99 133 165 210 265 322 394
#     4  10  21  38  62  89 124 170 213 258 315 381
#
# _framework density 20.487382
#
# number of rings (size 3 to 8) (size 9 to 14) (size 15 to 20)
#    0.000    1.000    5.000    2.500    0.000    5.333 
#    3.000    0.000    0.000    0.000    0.000    0.000 
#    0.000    0.000    0.000    0.000    0.000    0.000 
#
# Total GULP energy -133654.961217 kJ/mol
# GULP energy per Si atom -5568.956717 kJ/mol
# Density = 2.044075 g / cm^3
# Si number density = 20.487382 Si / 1000 Ang^3
#
#
#
# Elastic Constant Matrix: (Units=GPa)
#
#
# Indices 1 2 3 4 5 6 
#
# 1 79.7840 16.7403 26.3324 -0.0002 -0.7995 -0.0002
# 2 16.7403 122.2970 14.7161 0.0002 9.4648 0.0001
# 3 26.3324 14.7161 108.4137 -0.0006 -2.1424 -0.0003
# 4 -0.0002 0.0002 -0.0006 29.7176 0.0000 5.0648
# 5 -0.7995 9.4648 -2.1424 0.0000 29.4916 0.0001
# 6 -0.0002 0.0001 -0.0003 5.0648 0.0001 0.3380
#
#
#
# Elastic Compliance Matrix: (Units=1/GPa)
#
#
# Indices 1 2 3 4 5 6 
#
# 1 0.013911 -0.001576 -0.003152 0.000000 0.000654 -0.000002
# 2 -0.001576 0.008720 -0.000858 0.000000 -0.002904 0.000001
# 3 -0.003152 -0.000858 0.010124 0.000001 0.000926 -0.000003
# 4 0.000000 0.000000 0.000001 -0.021651 -0.000001 0.324476
# 5 0.000654 -0.002904 0.000926 -0.000001 0.034925 0.000005
# 6 -0.000002 0.000001 -0.000003 0.324476 0.000005 -1.903851
#
#
# Mechanical properties :
#
#
# Convention : Reuss Voigt Hill
#
# Bulk Modulus (GPa) = 46.33053 47.34138 46.83595
# Shear Modulus (GPa) = -2.71820 28.75650 13.01915
#
# Velocity S-wave (km/s) = -1.15310 3.75056 2.52359
# Velocity P-wave (km/s) = 4.57060 6.47405 5.60374
#
# Compressibility (1/GPa) = 0.02158404
#
# Stress axis : x y z
#
# Youngs Moduli (GPa) = 71.88394 114.67237 98.77172
#
# Poissons Ratio (x) = 0.18067 0.31134
# Poissons Ratio (y) = 0.11325 0.08479
# Poissons Ratio (z) = 0.22659 0.09844
#
# Static dielectric constant tensor:
#      x y z
#    x 1.933390 0.000000 0.258800 
#    y 0.000000 1.733670 0.000000 
#    z 0.258800 0.000000 2.019060 
# 
# From -- ./inp_files/325706.got.cif
#   From: 2010.05.17/outbox.cif.g08.bks.cpg/sg12_163_cif.got.tgz:325706.got - 2010.06.03 13:09:07.
