data_PCOD9209110
_publ_section_title
;
Structure prediction by ZEFSAII (Michael W. Deem and Ramdas Pophale) SiO2 
 PCOD9209110
Probable space group: C 2/M
;
_chemical_formula_sum "Si O2"
_cell_formula_units_Z 46
_cell_length_a 15.602704
_cell_length_b 29.719342
_cell_length_c 5.053351
_cell_angle_alpha 90.000000
_cell_angle_beta 112.507698
_cell_angle_gamma 90.000000
_cell_volume 2164.759709
_symmetry_space_group_name_H-M "C 2/M"
_symmetry_group_IT_number 12
_symmetry_cell_setting 'monoclinic'
loop_
_space_group_symop_operation_xyz
x,y,z
-x,y,-z
-x,-y,-z
x,-y,z
1/2+x,1/2+y,z
1/2-x,1/2+y,-z
1/2-x,1/2-y,-z
1/2+x,1/2-y,z
loop_
_atom_site_type_symbol
_atom_site_label
_atom_site_fract_x
_atom_site_fract_y
_atom_site_fract_z
Si Si1 0.500000 0.500000 0.000000
Si Si2 0.561779 0.947991 0.832901
Si Si3 0.936322 0.680813 0.663496
Si Si4 0.736541 0.588603 0.988972
Si Si5 0.563515 0.286199 0.332565
Si Si6 0.728197 0.645459 0.479439
Si Si7 0.865543 0.000000 0.340682
O O1 0.401411 0.500000 0.687174
O O2 0.556701 0.500000 0.795541
O O3 0.500000 0.949164 0.500000
O O4 0.586827 0.000000 0.932109
O O5 0.500000 0.929709 0.000000
O O6 0.654224 0.921049 0.885290
O O7 0.916083 0.733789 0.585346
O O8 0.836024 0.658040 0.566158
O O9 0.000000 0.663054 0.500000
O O10 0.000000 0.678031 0.000000
O O11 0.716547 0.628425 0.762836
O O12 0.690985 0.544784 0.803945
O O13 0.705595 0.605932 0.240837
O O14 0.500000 0.304162 0.500000
O O15 0.656568 0.313454 0.376346
O O16 0.500000 0.288018 0.000000
#
# Coordination Sequence:
#
# PCOD9209110 Si02
#       7
#     2   8   8   8   8   8   4
#     4  10  24  46  76  84 112 160 240 266 324 394
#     4  10  21  38  61  87 117 165 208 248 304 374
#     4  10  22  41  68  95 133 173 214 261 320 392
#     4  12  25  42  65  92 137 164 215 270 321 376
#     4  10  22  44  66  93 128 172 217 265 322 393
#     4  12  25  40  64 101 129 173 209 274 328 380
#     4  11  24  50  64  95 120 173 220 268 334 385
#
# _framework density 21.249469000000001
#
# number of rings (size 3 to 8) (size 9 to 14) (size 15 to 20)
#    0.000    1.217    0.870    4.696    0.000    4.174 
#   15.652    6.957    0.000    0.000    0.000    0.000 
#    0.000    0.000    0.000    0.000    0.000    0.000 
#
# Total GULP energy -128289.067569 kJ/mol
# GULP energy per Si atom -5577.785546 kJ/mol
# Density = 2.120110 g / cm^3
# Si number density = 21.249469 Si / 1000 Ang^3
#
#
#
# Elastic Constant Matrix: (Units=GPa)
#
#
# Indices 1 2 3 4 5 6 
#
# 1 74.4617 12.0481 26.9623 0.0000 -6.3665 0.0000
# 2 12.0481 66.3158 7.3031 0.0000 19.3612 0.0000
# 3 26.9623 7.3031 96.5135 0.0000 -7.9324 0.0000
# 4 0.0000 0.0000 0.0000 19.1739 0.0000 -1.1515
# 5 -6.3665 19.3612 -7.9324 0.0000 42.3299 0.0000
# 6 0.0000 0.0000 0.0000 -1.1515 0.0000 36.5263
#
#
#
# Elastic Compliance Matrix: (Units=1/GPa)
#
#
# Indices 1 2 3 4 5 6 
#
# 1 0.015636 -0.003337 -0.003856 0.000000 0.003155 0.000000
# 2 -0.003337 0.018505 -0.001224 0.000000 -0.009195 0.000000
# 3 -0.003856 -0.001224 0.011710 0.000000 0.002174 0.000000
# 4 0.000000 0.000000 0.000000 0.052253 0.000000 0.001647
# 5 0.003155 -0.009195 0.002174 0.000000 0.028712 0.000000
# 6 0.000000 0.000000 0.000000 0.001647 0.000000 0.027429
#
#
# Mechanical properties :
#
#
# Convention : Reuss Voigt Hill
#
# Bulk Modulus (GPa) = 34.46335 36.65755 35.56045
# Shear Modulus (GPa) = 27.66229 32.33784 30.00007
#
# Velocity S-wave (km/s) = 3.61194 3.90528 3.76147
# Velocity P-wave (km/s) = 5.80073 6.13380 5.96959
#
# Compressibility (1/GPa) = 0.02901633
#
# Stress axis : x y z
#
# Youngs Moduli (GPa) = 63.95574 54.03941 85.39845
#
# Poissons Ratio (x) = 0.18034 0.32931
# Poissons Ratio (y) = 0.21344 0.10450
# Poissons Ratio (z) = 0.24663 0.06613
#
# Static dielectric constant tensor:
#      x y z
#    x 1.744960 0.000000 0.012110 
#    y 0.000000 1.786850 0.000000 
#    z 0.012110 0.000000 1.742980 
# 
# From -- ./inp_files/13270.got.cif
#   From: 2010.05.17/outbox.cif.g08.bks.cpg/sg12_7_cif.got.tgz:13270.got - 2010.06.03 13:09:07.
