data_PCOD9209606
_publ_section_title
;
Structure prediction by ZEFSAII (Michael W. Deem and Ramdas Pophale) SiO2 
 PCOD9209606
Probable space group: C 2/M
;
_chemical_formula_sum "Si O2"
_cell_formula_units_Z 42
_cell_length_a 9.307116
_cell_length_b 20.797641
_cell_length_c 12.015246
_cell_angle_alpha 90.000000
_cell_angle_beta 108.367226
_cell_angle_gamma 90.000000
_cell_volume 2207.262062
_symmetry_space_group_name_H-M "C 2/M"
_symmetry_group_IT_number 12
_symmetry_cell_setting 'monoclinic'
loop_
_space_group_symop_operation_xyz
x,y,z
-x,y,-z
-x,-y,-z
x,-y,z
1/2+x,1/2+y,z
1/2-x,1/2+y,-z
1/2-x,1/2-y,-z
1/2+x,1/2-y,z
loop_
_atom_site_type_symbol
_atom_site_label
_atom_site_fract_x
_atom_site_fract_y
_atom_site_fract_z
Si Si1 0.636786 0.571151 0.120480
Si Si2 0.500000 0.500000 0.500000
Si Si3 0.152510 0.336223 0.501125
Si Si4 0.279328 0.281238 0.322077
Si Si5 0.174627 0.208520 0.078157
Si Si6 0.027841 0.112055 0.336927
O O1 0.710498 0.500000 0.144013
O O2 0.730760 0.634680 0.107732
O O3 0.563443 0.588560 0.221531
O O4 0.500000 0.566347 0.000000
O O5 0.464508 0.555895 0.397982
O O6 0.162534 0.319252 0.373348
O O7 0.153373 0.272191 0.577892
O O8 0.309125 0.369937 0.571206
O O9 0.000000 0.372428 0.500000
O O10 0.200545 0.245502 0.200454
O O11 0.413101 0.327964 0.313505
O O12 0.250000 0.250000 0.000000
O O13 0.000000 0.204194 0.000000
#
# Coordination Sequence:
#
# PCOD9209606 Si02
#       6
#     8   2   8   8   8   8
#     4  10  21  38  63  91 122 165 209 255 310 374
#     4  12  24  40  64  92 126 168 222 260 302 384
#     4  11  23  35  60  91 122 159 202 264 319 369
#     4  11  21  37  61  89 125 161 208 257 316 374
#     4  11  24  39  63  96 127 159 208 267 316 372
#     4  12  22  42  64  91 125 168 215 257 313 382
#
# _framework density 19.028098
#
# number of rings (size 3 to 8) (size 9 to 14) (size 15 to 20)
#    0.000    0.952    4.762    4.571    2.667    0.000 
#    0.000    0.476    0.000    0.571    0.000    0.000 
#    0.000    0.000    0.000    0.000    0.000    0.000 
#
# Total GULP energy -116921.415441 kJ/mol
# GULP energy per Si atom -5567.686450 kJ/mol
# Density = 1.898479 g / cm^3
# Si number density = 19.028098 Si / 1000 Ang^3
#
#
#
# Elastic Constant Matrix: (Units=GPa)
#
#
# Indices 1 2 3 4 5 6 
#
# 1 69.5742 39.9281 17.8594 0.0000 1.2320 0.0000
# 2 39.9281 136.4052 51.2398 0.0000 -6.1199 0.0000
# 3 17.8594 51.2398 120.4094 0.0000 -19.4240 0.0000
# 4 0.0000 0.0000 0.0000 67.3841 0.0000 7.8958
# 5 1.2320 -6.1199 -19.4240 0.0000 30.3823 0.0000
# 6 0.0000 0.0000 0.0000 7.8958 0.0000 0.9065
#
#
#
# Elastic Compliance Matrix: (Units=1/GPa)
#
#
# Indices 1 2 3 4 5 6 
#
# 1 0.017436 -0.004876 -0.000874 0.000000 -0.002248 0.000000
# 2 -0.004876 0.010103 -0.003586 0.000000 -0.000060 0.000000
# 3 -0.000874 -0.003586 0.010982 0.000000 0.006334 0.000000
# 4 0.000000 0.000000 0.000000 -0.718383 0.000000 6.257469
# 5 -0.002248 -0.000060 0.006334 0.000000 0.037043 0.000000
# 6 0.000000 0.000000 0.000000 6.257469 0.000000-53.402406
#
#
# Mechanical properties :
#
#
# Convention : Reuss Voigt Hill
#
# Bulk Modulus (GPa) = 50.37866 60.49369 55.43618
# Shear Modulus (GPa) = -0.09256 34.22535 17.06639
#
# Velocity S-wave (km/s) = -0.22079 4.24568 2.99809
# Velocity P-wave (km/s) = 5.14475 7.47631 6.41730
#
# Compressibility (1/GPa) = 0.01984967
#
# Stress axis : x y z
#
# Youngs Moduli (GPa) = 57.35351 98.98329 91.05641
#
# Poissons Ratio (x) = 0.48268 0.07954
# Poissons Ratio (y) = 0.27968 0.32648
# Poissons Ratio (z) = 0.05010 0.35491
#
# Static dielectric constant tensor:
#      x y z
#    x 1.698390 0.000000 -0.008580 
#    y 0.000000 1.689700 0.000000 
#    z -0.008580 0.000000 1.665150 
# 
# From -- ./inp_files/120915.got.cif
#   From: 2010.05.17/outbox.cif.g08.bks.cpg/sg12_61_cif.got.tgz:120915.got - 2010.06.03 13:09:07.
