data_PCOD9209925
_publ_section_title
;
Structure prediction by ZEFSAII (Michael W. Deem and Ramdas Pophale) SiO2 
 PCOD9209925
Probable space group: C 2/M
;
_chemical_formula_sum "Si O2"
_cell_formula_units_Z 44
_cell_length_a 5.895196
_cell_length_b 22.400467
_cell_length_c 14.902643
_cell_angle_alpha 90.000000
_cell_angle_beta 115.424730
_cell_angle_gamma 90.000000
_cell_volume 1777.372842
_symmetry_space_group_name_H-M "C 2/M"
_symmetry_group_IT_number 12
_symmetry_cell_setting 'monoclinic'
loop_
_space_group_symop_operation_xyz
x,y,z
-x,y,-z
-x,-y,-z
x,-y,z
1/2+x,1/2+y,z
1/2-x,1/2+y,-z
1/2-x,1/2-y,-z
1/2+x,1/2-y,z
loop_
_atom_site_type_symbol
_atom_site_label
_atom_site_fract_x
_atom_site_fract_y
_atom_site_fract_z
Si Si1 0.271408 0.000000 0.212997
Si Si2 0.250171 0.000000 0.898916
Si Si3 0.494057 0.233690 0.116062
Si Si4 0.397833 0.106832 0.798925
Si Si5 0.959393 0.870155 0.592836
Si Si6 0.219618 0.000000 0.415488
Si Si7 0.733459 0.774626 0.655310
O O1 0.420475 0.939479 0.219133
O O2 0.209118 0.000000 0.306532
O O3 0.026893 0.000000 0.108742
O O4 0.260441 0.061523 0.843657
O O5 0.500000 0.000000 0.000000
O O6 0.711059 0.241083 0.077378
O O7 0.474900 0.162627 0.130945
O O8 0.633310 0.267074 0.225054
O O9 0.207507 0.136286 0.695763
O O10 0.000000 0.845734 0.500000
O O11 0.738601 0.840743 0.614275
O O12 0.912617 0.940045 0.576761
O O13 0.500000 0.000000 0.500000
O O14 0.445553 0.754568 0.623660
#
# Coordination Sequence:
#
# PCOD9209925 Si02
#       7
#     4   4   8   8   8   4   8
#     4  11  24  39  75  96 136 179 237 284 367 418
#     4  11  26  48  75 106 134 175 240 305 366 424
#     4  10  21  38  68 100 143 185 238 283 355 421
#     4  11  23  43  67 103 139 185 229 299 354 422
#     4  12  24  41  61  93 142 183 238 288 342 418
#     4  12  25  40  63  96 137 190 235 285 348 419
#     4  10  22  39  61  92 136 184 242 288 341 401
#
# _framework density 24.75564
#
# number of rings (size 3 to 8) (size 9 to 14) (size 15 to 20)
#    0.000    1.091    5.455    1.909    7.636    3.636 
#    0.000    0.000    0.000    1.091    0.000    0.000 
#    0.000    0.000    0.000    0.000    0.000    0.000 
#
# Total GULP energy -122987.598267 kJ/mol
# GULP energy per Si atom -5590.345376 kJ/mol
# Density = 2.469930 g / cm^3
# Si number density = 24.755640 Si / 1000 Ang^3
#
#
#
# Elastic Constant Matrix: (Units=GPa)
#
#
# Indices 1 2 3 4 5 6 
#
# 1 143.1851 46.9801 55.4794 0.0000 -16.0370 0.0000
# 2 46.9801 93.1323 -9.7513 0.0000 -14.4294 0.0000
# 3 55.4794 -9.7513 67.4167 0.0000 11.1641 0.0000
# 4 0.0000 0.0000 0.0000 -2.2299 0.0000 -1.0570
# 5 -16.0370 -14.4294 11.1641 0.0000 53.8007 0.0000
# 6 0.0000 0.0000 0.0000 -1.0570 0.0000 120.3121
#
#
#
# Elastic Compliance Matrix: (Units=1/GPa)
#
#
# Indices 1 2 3 4 5 6 
#
# 1 0.017120 -0.009431 -0.016444 0.000000 0.005986 0.000000
# 2 -0.009431 0.016486 0.010230 0.000000 -0.000512 0.000000
# 3 -0.016444 0.010230 0.031277 0.000000 -0.008648 0.000000
# 4 0.000000 0.000000 0.000000 -0.446592 0.000000 -0.003924
# 5 0.005986 -0.000512 -0.008648 0.000000 0.022029 0.000000
# 6 0.000000 0.000000 0.000000 -0.003924 0.000000 0.008277
#
#
# Mechanical properties :
#
#
# Convention : Reuss Voigt Hill
#
# Bulk Modulus (GPa) = 29.76636 54.35005 42.05820
# Shear Modulus (GPa) = -16.18571 48.44497 16.12963
#
# Velocity S-wave (km/s) = -2.55976 4.42852 2.55532
# Velocity P-wave (km/s) = 1.82035 6.93911 5.07272
#
# Compressibility (1/GPa) = 0.03359497
#
# Stress axis : x y z
#
# Youngs Moduli (GPa) = 58.41035 60.65613 31.97188
#
# Poissons Ratio (x) = 0.57202 0.52575
# Poissons Ratio (y) = 0.55084 -0.32708
# Poissons Ratio (z) = 0.96051 -0.62052
#
# Static dielectric constant tensor:
#      x y z
#    x 1.957190 0.000000 0.010690 
#    y 0.000000 1.944260 0.000000 
#    z 0.010690 0.000000 2.019940 
# 
# From -- ./inp_files/253271.got.cif
#   From: 2010.05.17/outbox.cif.g08.bks.cpg/sg12_127_cif.got.tgz:253271.got - 2010.06.03 13:09:07.
