data_PCOD9209114
_publ_section_title
;
Structure prediction by ZEFSAII (Michael W. Deem and Ramdas Pophale) SiO2 
 PCOD9209114
Probable space group: C 2/M
;
_chemical_formula_sum "Si O2"
_cell_formula_units_Z 48
_cell_length_a 7.569175
_cell_length_b 27.906863
_cell_length_c 20.051305
_cell_angle_alpha 90.000000
_cell_angle_beta 144.226298
_cell_angle_gamma 90.000000
_cell_volume 2475.997114
_symmetry_space_group_name_H-M "C 2/M"
_symmetry_group_IT_number 12
_symmetry_cell_setting 'monoclinic'
loop_
_space_group_symop_operation_xyz
x,y,z
-x,y,-z
-x,-y,-z
x,-y,z
1/2+x,1/2+y,z
1/2-x,1/2+y,-z
1/2-x,1/2-y,-z
1/2+x,1/2-y,z
loop_
_atom_site_type_symbol
_atom_site_label
_atom_site_fract_x
_atom_site_fract_y
_atom_site_fract_z
Si Si1 0.906822 0.306987 0.265208
Si Si2 0.940891 0.444999 0.581945
Si Si3 0.293137 0.797393 0.775160
Si Si4 0.825902 0.346630 0.378683
Si Si5 0.229880 0.054984 0.671268
Si Si6 0.205917 0.624957 0.876443
O O1 0.721361 0.257696 0.208908
O O2 0.985519 0.322548 0.363571
O O3 0.727305 0.350324 0.174695
O O4 0.187162 0.299833 0.300094
O O5 0.026287 0.500000 0.592411
O O6 0.623631 0.433441 0.447447
O O7 0.867498 0.442736 0.638349
O O8 0.171578 0.403594 0.633402
O O9 0.584773 0.829482 0.882083
O O10 0.002011 0.823577 0.714672
O O11 0.000000 0.336488 0.500000
O O12 0.426854 0.089546 0.777637
O O13 0.250358 0.000000 0.700029
O O14 0.500000 0.603221 0.000000
#
# Coordination Sequence:
#
# PCOD9209114 Si02
#       6
#     8   8   8   8   8   8
#     4  10  22  41  57  84 123 150 202 246 285 356
#     4   9  18  34  59  89 119 156 194 240 291 348
#     4  10  22  41  58  83 120 156 200 240 295 345
#     4  12  22  35  61  86 120 161 190 240 299 348
#     4   9  17  34  61  88 120 156 194 239 293 351
#     4  10  21  38  61  87 118 154 201 246 294 345
#
# _framework density 19.386130000000001
#
# number of rings (size 3 to 8) (size 9 to 14) (size 15 to 20)
#    1.000    1.000    3.333    2.000    0.000    2.667 
#    0.000    1.667    0.000    0.000    0.000    2.333 
#    0.000    0.000    0.000    0.000    0.000    0.000 
#
# Total GULP energy -133694.303284 kJ/mol
# GULP energy per Si atom -5570.595970 kJ/mol
# Density = 1.934201 g / cm^3
# Si number density = 19.386130 Si / 1000 Ang^3
#
#
#
# Elastic Constant Matrix: (Units=GPa)
#
#
# Indices 1 2 3 4 5 6 
#
# 1 70.0718 12.0900 -13.8320 0.0000 -3.3265 0.0001
# 2 12.0900 86.0554 30.0845 0.0000 -0.8011 0.0000
# 3 -13.8320 30.0845 42.4223 0.0004 -4.1025 -0.0008
# 4 0.0000 0.0000 0.0004 8.5529 0.0001 7.8226
# 5 -3.3265 -0.8011 -4.1025 0.0001 10.6231 -0.0002
# 6 0.0001 0.0000 -0.0008 7.8226 -0.0002 26.4702
#
#
#
# Elastic Compliance Matrix: (Units=1/GPa)
#
#
# Indices 1 2 3 4 5 6 
#
# 1 0.018082 -0.006430 0.011381 -0.000001 0.009572 0.000001
# 2 -0.006430 0.017842 -0.015389 0.000002 -0.006611 -0.000001
# 3 0.011381 -0.015389 0.039920 -0.000005 0.017820 0.000003
# 4 -0.000001 0.000002 -0.000005 0.160227 -0.000005 -0.047351
# 5 0.009572 -0.006611 0.017820 -0.000005 0.103515 0.000003
# 6 0.000001 -0.000001 0.000003 -0.047351 0.000003 0.051772
#
#
# Mechanical properties :
#
#
# Convention : Reuss Voigt Hill
#
# Bulk Modulus (GPa) = 18.19228 28.35938 23.27583
# Shear Modulus (GPa) = 11.61287 20.47637 16.04462
#
# Velocity S-wave (km/s) = 2.45016 3.25351 2.87998
# Velocity P-wave (km/s) = 4.17240 5.36416 4.80537
#
# Compressibility (1/GPa) = 0.05496838
#
# Stress axis : x y z
#
# Youngs Moduli (GPa) = 55.30498 56.04708 25.05003
#
# Poissons Ratio (x) = 0.36038 -0.28510
# Poissons Ratio (y) = 0.35561 0.38549
# Poissons Ratio (z) = -0.62944 0.86251
#
# Static dielectric constant tensor:
#      x y z
#    x 1.725830 0.000000 -0.013080 
#    y 0.000000 1.712490 0.000000 
#    z -0.013080 0.000000 1.653390 
# 
# From -- ./inp_files/334175.got.cif
#   From: 2010.05.17/outbox.cif.g08.bks.cpg/sg12_168_cif.got.tgz:334175.got - 2010.06.03 13:09:07.
