data_PCOD9209178
_publ_section_title
;
Structure prediction by ZEFSAII (Michael W. Deem and Ramdas Pophale) SiO2 
 PCOD9209178
Probable space group: C 2/M
;
_chemical_formula_sum "Si O2"
_cell_formula_units_Z 64
_cell_length_a 29.864224
_cell_length_b 8.080760
_cell_length_c 14.618083
_cell_angle_alpha 90.000000
_cell_angle_beta 53.957496
_cell_angle_gamma 90.000000
_cell_volume 2852.444837
_symmetry_space_group_name_H-M "C 2/M"
_symmetry_group_IT_number 12
_symmetry_cell_setting 'monoclinic'
loop_
_space_group_symop_operation_xyz
x,y,z
-x,y,-z
-x,-y,-z
x,-y,z
1/2+x,1/2+y,z
1/2-x,1/2+y,-z
1/2-x,1/2-y,-z
1/2+x,1/2-y,z
loop_
_atom_site_type_symbol
_atom_site_label
_atom_site_fract_x
_atom_site_fract_y
_atom_site_fract_z
Si Si1 0.579151 0.308348 0.452387
Si Si2 0.424711 0.194958 0.740128
Si Si3 0.803204 0.313055 0.664941
Si Si4 0.689087 0.802127 0.039657
Si Si5 0.322137 0.697620 0.153206
Si Si6 0.096831 0.810319 0.792431
Si Si7 0.030814 0.195541 0.704249
Si Si8 0.806634 0.811731 0.472794
O O1 0.563252 0.500000 0.471061
O O2 0.557023 0.228261 0.385977
O O3 0.645463 0.290487 0.360439
O O4 0.560563 0.240466 0.574652
O O5 0.361446 0.247960 0.833799
O O6 0.466528 0.282073 0.759589
O O7 0.428169 0.000000 0.752861
O O8 0.804468 0.500000 0.702597
O O9 0.740662 0.244831 0.747080
O O10 0.817593 0.312998 0.540886
O O11 0.689860 0.000000 0.032627
O O12 0.750000 0.750000 0.000000
O O13 0.673910 0.731129 0.958609
O O14 0.321159 0.500000 0.172779
O O15 0.373462 0.764083 0.152713
O O16 0.050034 0.735820 0.780409
O O17 0.147999 0.814077 0.660095
O O18 0.079556 0.000000 0.836811
O O19 0.045037 0.000000 0.691463
O O20 0.750000 0.750000 0.500000
O O21 0.803189 0.000000 0.513284
#
# Coordination Sequence:
#
# PCOD9209178 Si02
#       8
#     8   8   8   8   8   8   8   8
#     4  11  22  37  60  90 122 159 202 247 295 356
#     4  11  25  43  61  86 120 154 195 252 308 357
#     4  11  21  33  53  86 124 161 198 241 298 357
#     4  11  25  45  67  91 118 151 195 248 303 357
#     4  10  21  38  61  88 121 160 201 248 298 350
#     4   9  18  36  57  83 122 161 197 242 290 343
#     4  10  21  39  62  88 120 160 202 241 288 354
#     4  11  19  32  51  78 119 164 203 244 290 347
#
# _framework density 22.436895
#
# number of rings (size 3 to 8) (size 9 to 14) (size 15 to 20)
#    0.000    1.500    2.500    3.000    0.000    8.500 
#    0.000    1.250    0.000    3.750    0.000    0.000 
#    0.000    0.000    0.000    0.000    0.000    0.000 
#
# Total GULP energy -178479.085376 kJ/mol
# GULP energy per Si atom -5577.471418 kJ/mol
# Density = 2.238583 g / cm^3
# Si number density = 22.436895 Si / 1000 Ang^3
#
#
#
# Elastic Constant Matrix: (Units=GPa)
#
#
# Indices 1 2 3 4 5 6 
#
# 1 168.4929 2.1275 37.9848 0.0000 7.3903 0.0000
# 2 2.1275 23.5715 0.8271 0.0000 -3.3403 0.0001
# 3 37.9848 0.8271 66.3545 0.0000 9.2854 0.0000
# 4 0.0000 0.0000 0.0000 19.9251 0.0000 -0.8410
# 5 7.3903 -3.3403 9.2854 0.0000 38.0595 0.0000
# 6 0.0000 0.0001 0.0000 -0.8410 0.0000 24.0715
#
#
#
# Elastic Compliance Matrix: (Units=1/GPa)
#
#
# Indices 1 2 3 4 5 6 
#
# 1 0.006827 -0.000543 -0.003840 0.000000 -0.000436 0.000000
# 2 -0.000543 0.043079 -0.000797 0.000000 0.004081 0.000000
# 3 -0.003840 -0.000797 0.017792 0.000000 -0.003665 0.000000
# 4 0.000000 0.000000 0.000000 0.050262 0.000000 0.001756
# 5 -0.000436 0.004081 -0.003665 0.000000 0.027612 0.000000
# 6 0.000000 0.000000 0.000000 0.001756 0.000000 0.041604
#
#
# Mechanical properties :
#
#
# Convention : Reuss Voigt Hill
#
# Bulk Modulus (GPa) = 17.44079 37.81085 27.62582
# Shear Modulus (GPa) = 23.07884 30.90987 26.99435
#
# Velocity S-wave (km/s) = 3.21068 3.71568 3.47237
# Velocity P-wave (km/s) = 4.64055 5.94113 5.33065
#
# Compressibility (1/GPa) = 0.05733686
#
# Stress axis : x y z
#
# Youngs Moduli (GPa) = 146.48415 23.21298 56.20621
#
# Poissons Ratio (x) = 0.01261 0.21584
# Poissons Ratio (y) = 0.07958 0.04480
# Poissons Ratio (z) = 0.56251 0.01850
#
# Static dielectric constant tensor:
#      x y z
#    x 1.916290 0.000000 0.006410 
#    y 0.000000 1.794660 0.000000 
#    z 0.006410 0.000000 1.817940 
# 
# From -- ./inp_files/249776.got.cif
#   From: 2010.05.17/outbox.cif.g08.bks.cpg/sg12_125_cif.got.tgz:249776.got - 2010.06.03 13:09:07.
