data_PCOD9209927
_publ_section_title
;
Structure prediction by ZEFSAII (Michael W. Deem and Ramdas Pophale) SiO2 
 PCOD9209927
Probable space group: C 2/M
;
_chemical_formula_sum "Si O2"
_cell_formula_units_Z 40
_cell_length_a 19.341756
_cell_length_b 17.084622
_cell_length_c 5.614411
_cell_angle_alpha 90.000000
_cell_angle_beta 75.724169
_cell_angle_gamma 90.000000
_cell_volume 1797.972146
_symmetry_space_group_name_H-M "C 2/M"
_symmetry_group_IT_number 12
_symmetry_cell_setting 'monoclinic'
loop_
_space_group_symop_operation_xyz
x,y,z
-x,y,-z
-x,-y,-z
x,-y,z
1/2+x,1/2+y,z
1/2-x,1/2+y,-z
1/2-x,1/2-y,-z
1/2+x,1/2-y,z
loop_
_atom_site_type_symbol
_atom_site_label
_atom_site_fract_x
_atom_site_fract_y
_atom_site_fract_z
Si Si1 0.191145 0.711952 0.220557
Si Si2 0.416802 0.622369 0.085053
Si Si3 0.417624 0.812071 0.067235
Si Si4 0.843278 0.117708 0.638833
Si Si5 0.801951 0.411681 0.430470
O O1 0.162265 0.787914 0.379705
O O2 0.228050 0.644087 0.337522
O O3 0.250000 0.750000 0.000000
O O4 0.124055 0.674776 0.143781
O O5 0.413803 0.717893 0.100672
O O6 0.382942 0.591530 0.361959
O O7 0.500000 0.600560 0.000000
O O8 0.380232 0.600547 0.862189
O O9 0.370837 0.863423 0.287237
O O10 0.500000 0.834551 0.000000
O O11 0.761913 0.087913 0.706143
O O12 0.818291 0.500000 0.486333
#
# Coordination Sequence:
#
# PCOD9209927 Si02
#       5
#     8   8   8   8   8
#     4  11  21  41  67  92 127 176 225 281 333 390
#     4  10  21  38  68 101 129 163 220 284 341 394
#     4  10  22  39  61  93 132 173 216 274 331 401
#     4  11  21  39  67  95 130 172 222 279 334 396
#     4  12  25  40  62  95 132 177 227 274 333 402
#
# _framework density 22.247284000000001
#
# number of rings (size 3 to 8) (size 9 to 14) (size 15 to 20)
#    0.000    1.200    4.000    3.600    0.000    2.000 
#    0.000    1.000    0.000    3.600    0.000    0.000 
#    0.000    0.000    0.000    0.000    0.000    0.000 
#
# Total GULP energy -111686.639035 kJ/mol
# GULP energy per Si atom -5584.331952 kJ/mol
# Density = 2.219665 g / cm^3
# Si number density = 22.247284 Si / 1000 Ang^3
#
#
#
# Elastic Constant Matrix: (Units=GPa)
#
#
# Indices 1 2 3 4 5 6 
#
# 1 175.8434 19.0664 73.5434 0.0000 1.9789 0.0000
# 2 19.0664 114.0305 38.5977 0.0000 10.7177 0.0000
# 3 73.5434 38.5977 136.4215 0.0000 -3.5841 0.0000
# 4 0.0000 0.0000 0.0000 -7.5112 0.0000 6.3684
# 5 1.9789 10.7177 -3.5841 0.0000 33.9550 0.0000
# 6 0.0000 0.0000 0.0000 6.3684 0.0000 -10.4273
#
#
#
# Elastic Compliance Matrix: (Units=1/GPa)
#
#
# Indices 1 2 3 4 5 6 
#
# 1 0.007372 0.000230 -0.004064 0.000000 -0.000931 0.000000
# 2 0.000230 0.010104 -0.003076 0.000000 -0.003527 0.000000
# 3 -0.004064 -0.003076 0.010452 0.000000 0.002311 0.000000
# 4 0.000000 0.000000 0.000000 -0.276112 0.000000 -0.168633
# 5 -0.000931 -0.003527 0.002311 0.000000 0.030862 0.000000
# 6 0.000000 0.000000 0.000000 -0.168633 0.000000 -0.198894
#
#
# Mechanical properties :
#
#
# Convention : Reuss Voigt Hill
#
# Bulk Modulus (GPa) = 70.87342 76.52338 73.69840
# Shear Modulus (GPa) = -12.57245 22.87585 5.15170
#
# Velocity S-wave (km/s) = -2.37981 3.21012 1.52338
# Velocity P-wave (km/s) = 4.93710 6.94343 6.02437
#
# Compressibility (1/GPa) = 0.01410966
#
# Stress axis : x y z
#
# Youngs Moduli (GPa) = 135.64843 98.97478 95.67673
#
# Poissons Ratio (x) = -0.02281 0.38881
# Poissons Ratio (y) = -0.03126 0.29425
# Poissons Ratio (z) = 0.55125 0.30440
#
# Static dielectric constant tensor:
#      x y z
#    x 1.816800 0.000000 0.004130 
#    y 0.000000 1.817860 0.000000 
#    z 0.004130 0.000000 1.943900 
# 
# From -- ./inp_files/15282.got.cif
#   From: 2010.05.17/outbox.cif.g08.bks.cpg/sg12_8_cif.got.tgz:15282.got - 2010.06.03 13:09:07.
