data_PCOD9209971
_publ_section_title
;
Structure prediction by ZEFSAII (Michael W. Deem and Ramdas Pophale) SiO2 
 PCOD9209971
Probable space group: C 2/M
;
_chemical_formula_sum "Si O2"
_cell_formula_units_Z 56
_cell_length_a 31.719664
_cell_length_b 8.544204
_cell_length_c 19.303753
_cell_angle_alpha 90.000000
_cell_angle_beta 142.098824
_cell_angle_gamma 90.000000
_cell_volume 3213.834003
_symmetry_space_group_name_H-M "C 2/M"
_symmetry_group_IT_number 12
_symmetry_cell_setting 'monoclinic'
loop_
_space_group_symop_operation_xyz
x,y,z
-x,y,-z
-x,-y,-z
x,-y,z
1/2+x,1/2+y,z
1/2-x,1/2+y,-z
1/2-x,1/2-y,-z
1/2+x,1/2-y,z
loop_
_atom_site_type_symbol
_atom_site_label
_atom_site_fract_x
_atom_site_fract_y
_atom_site_fract_z
Si Si1 0.551675 0.812744 0.246657
Si Si2 0.940450 0.819160 0.363933
Si Si3 0.953467 0.810959 0.005059
Si Si4 0.838034 0.189700 0.341793
Si Si5 0.301760 0.187700 0.624822
Si Si6 0.298230 0.312602 0.773365
Si Si7 0.048190 0.810029 0.397733
O O1 0.488211 0.749933 0.119906
O O2 0.621418 0.763563 0.297584
O O3 0.553374 0.749660 0.326825
O O4 0.550072 0.000000 0.246227
O O5 0.874907 0.751478 0.319089
O O6 0.000000 0.822185 0.500000
O O7 0.978902 0.751730 0.346862
O O8 0.923814 0.000000 0.325711
O O9 0.954541 0.000000 0.007107
O O10 0.874853 0.759626 0.893532
O O11 0.000000 0.758589 0.000000
O O12 0.761902 0.248921 0.255977
O O13 0.887029 0.236216 0.470131
O O14 0.838608 0.000000 0.340678
O O15 0.250000 0.250000 0.500000
O O16 0.284639 0.254214 0.677871
O O17 0.298471 0.000000 0.622821
O O18 0.297080 0.500000 0.772675
O O19 0.046615 0.000000 0.395675
#
# Coordination Sequence:
#
# PCOD9209971 Si02
#       7
#     8   8   8   8   8   8   8
#     4  11  23  35  51  76 104 132 168 217 261 299
#     4   7  12  26  49  76 103 134 173 207 240 296
#     4  10  21  39  58  72  92 132 180 217 254 305
#     4   9  17  31  53  80 108 138 170 207 254 304
#     4  11  23  36  51  74 105 138 168 203 252 305
#     4  11  22  35  53  76 102 132 171 215 255 303
#     4   9  17  31  53  78 106 140 173 205 246 305
#
# _framework density 17.424671
#
# number of rings (size 3 to 8) (size 9 to 14) (size 15 to 20)
#    0.000    2.286    1.429    3.857    0.000    6.000 
#    0.000    0.714    0.000    3.429    0.000    0.000 
#    0.000    0.000    0.000    0.000    0.000    0.000 
#
# Total GULP energy -156158.335415 kJ/mol
# GULP energy per Si atom -5577.083408 kJ/mol
# Density = 1.738501 g / cm^3
# Si number density = 17.424671 Si / 1000 Ang^3
#
#
#
# Elastic Constant Matrix: (Units=GPa)
#
#
# Indices 1 2 3 4 5 6 
#
# 1 105.8801 14.2962 12.5822 0.0000 31.2223 0.0000
# 2 14.2962 12.3728 10.3306 0.0000 8.0142 0.0000
# 3 12.5822 10.3306 60.4107 0.0000 26.0750 0.0000
# 4 0.0000 0.0000 0.0000 18.8291 0.0000 3.5785
# 5 31.2223 8.0142 26.0750 0.0000 25.9982 0.0000
# 6 0.0000 0.0000 0.0000 3.5785 0.0000 19.8297
#
#
#
# Elastic Compliance Matrix: (Units=1/GPa)
#
#
# Indices 1 2 3 4 5 6 
#
# 1 0.018335 -0.011144 0.010771 0.000000 -0.029387 0.000000
# 2 -0.011144 0.109349 -0.013412 0.000000 -0.006873 0.000000
# 3 0.010771 -0.013412 0.035977 0.000000 -0.044885 0.000000
# 4 0.000000 0.000000 0.000000 0.054995 0.000000 -0.009925
# 5 -0.029387 -0.006873 -0.044885 0.000000 0.120893 0.000000
# 6 0.000000 0.000000 0.000000 -0.009925 0.000000 0.052220
#
#
# Mechanical properties :
#
#
# Convention : Reuss Voigt Hill
#
# Bulk Modulus (GPa) = 7.34794 28.12015 17.73404
# Shear Modulus (GPa) = 10.75957 22.36171 16.56064
#
# Velocity S-wave (km/s) = 2.48763 3.58625 3.08622
# Velocity P-wave (km/s) = 3.53231 5.77247 4.78532
#
# Compressibility (1/GPa) = 0.13609261
#
# Stress axis : x y z
#
# Youngs Moduli (GPa) = 54.53990 9.14504 27.79550
#
# Poissons Ratio (x) = 0.10191 -0.29940
# Poissons Ratio (y) = 0.60779 0.37278
# Poissons Ratio (z) = -0.58747 0.12265
#
# Static dielectric constant tensor:
#      x y z
#    x 1.615300 0.000000 0.025030 
#    y 0.000000 1.598470 0.000000 
#    z 0.025030 0.000000 1.565410 
# 
# From -- ./inp_files/288247.got.cif
#   From: 2010.05.17/outbox.cif.g08.bks.cpg/sg12_145_cif.got.tgz:288247.got - 2010.06.03 13:09:07.
