data_PCOD9209442
_publ_section_title
;
Structure prediction by ZEFSAII (Michael W. Deem and Ramdas Pophale) SiO2 
 PCOD9209442
Probable space group: C 2/M
;
_chemical_formula_sum "Si O2"
_cell_formula_units_Z 64
_cell_length_a 20.396423
_cell_length_b 8.688441
_cell_length_c 19.253533
_cell_angle_alpha 90.000000
_cell_angle_beta 87.377270
_cell_angle_gamma 90.000000
_cell_volume 3408.404548
_symmetry_space_group_name_H-M "C 2/M"
_symmetry_group_IT_number 12
_symmetry_cell_setting 'monoclinic'
loop_
_space_group_symop_operation_xyz
x,y,z
-x,y,-z
-x,-y,-z
x,-y,z
1/2+x,1/2+y,z
1/2-x,1/2+y,-z
1/2-x,1/2-y,-z
1/2+x,1/2-y,z
loop_
_atom_site_type_symbol
_atom_site_label
_atom_site_fract_x
_atom_site_fract_y
_atom_site_fract_z
Si Si1 0.644709 0.683635 0.689857
Si Si2 0.081088 0.684000 0.561334
Si Si3 0.201771 0.315941 0.944180
Si Si4 0.058302 0.185217 0.945904
Si Si5 0.251851 0.684964 0.788734
Si Si6 0.482587 0.683624 0.209101
Si Si7 0.887562 0.682656 0.731446
Si Si8 0.564977 0.315669 0.413682
O O1 0.651359 0.500000 0.682008
O O2 0.632964 0.760815 0.615954
O O3 0.704844 0.749922 0.730896
O O4 0.578827 0.714788 0.737767
O O5 0.077356 0.500000 0.558632
O O6 0.093943 0.752063 0.484348
O O7 0.009446 0.750333 0.586244
O O8 0.204050 0.500000 0.946371
O O9 0.127854 0.259360 0.959884
O O10 0.224409 0.266700 0.865640
O O11 0.250000 0.250000 0.000000
O O12 0.038257 0.222783 0.868040
O O13 0.065214 0.000000 0.950324
O O14 0.000000 0.233067 0.000000
O O15 0.251947 0.500000 0.785999
O O16 0.324581 0.747985 0.772769
O O17 0.496499 0.500000 0.211871
O O18 0.546416 0.773624 0.230595
O O19 0.881268 0.500000 0.725426
O O20 0.895863 0.757138 0.654912
O O21 0.561914 0.500000 0.414956
#
# Coordination Sequence:
#
# PCOD9209442 Si02
#       8
#     8   8   8   8   8   8   8   8
#     4  11  21  38  64  92 122 162 207 254 309 366
#     4  11  21  35  59  91 125 162 206 254 307 364
#     4  11  25  43  65  90 123 164 207 253 306 369
#     4  10  22  41  65  93 125 161 202 253 309 365
#     4  11  25  44  64  88 123 165 208 255 309 370
#     4  10  21  38  62  90 125 162 204 255 308 364
#     4  12  25  40  62  92 126 163 207 257 309 367
#     4  11  21  37  59  88 125 163 205 255 310 363
#
# _framework density 18.777113
#
# number of rings (size 3 to 8) (size 9 to 14) (size 15 to 20)
#    0.000    1.125    2.500    5.250    1.750    2.750 
#    0.000    0.625    0.000    0.000    0.000    0.000 
#    0.000    0.000    0.000    0.000    0.000    0.000 
#
# Total GULP energy -178975.214751 kJ/mol
# GULP energy per Si atom -5592.975461 kJ/mol
# Density = 1.873438 g / cm^3
# Si number density = 18.777113 Si / 1000 Ang^3
#
#
#
# Elastic Constant Matrix: (Units=GPa)
#
#
# Indices 1 2 3 4 5 6 
#
# 1 94.3618 45.2423 36.1040 0.0000 -2.0793 0.0000
# 2 45.2423 90.6083 29.6031 0.0000 6.0314 0.0000
# 3 36.1040 29.6031 90.9692 0.0000 8.6287 0.0000
# 4 0.0000 0.0000 0.0000 20.9469 0.0000 5.9572
# 5 -2.0793 6.0314 8.6287 0.0000 29.0581 0.0000
# 6 0.0000 0.0000 0.0000 5.9572 0.0000 36.0780
#
#
#
# Elastic Compliance Matrix: (Units=1/GPa)
#
#
# Indices 1 2 3 4 5 6 
#
# 1 0.015500 -0.006561 -0.004374 0.000000 0.003770 0.000000
# 2 -0.006561 0.015183 -0.002051 0.000000 -0.003012 0.000000
# 3 -0.004374 -0.002051 0.013773 0.000000 -0.003977 0.000000
# 4 0.000000 0.000000 0.000000 0.050092 0.000000 -0.008271
# 5 0.003770 -0.003012 -0.003977 0.000000 0.036490 0.000000
# 6 0.000000 0.000000 0.000000 -0.008271 0.000000 0.029084
#
#
# Mechanical properties :
#
#
# Convention : Reuss Voigt Hill
#
# Bulk Modulus (GPa) = 54.10183 55.31535 54.70859
# Shear Modulus (GPa) = 26.00692 28.21592 27.11142
#
# Velocity S-wave (km/s) = 3.72564 3.88064 3.80393
# Velocity P-wave (km/s) = 6.88349 7.04287 6.96364
#
# Compressibility (1/GPa) = 0.01848366
#
# Stress axis : x y z
#
# Youngs Moduli (GPa) = 64.51616 65.86171 72.60336
#
# Poissons Ratio (x) = 0.43214 0.31757
# Poissons Ratio (y) = 0.42331 0.14892
# Poissons Ratio (z) = 0.28220 0.13510
#
# Static dielectric constant tensor:
#      x y z
#    x 1.615180 0.000000 -0.003040 
#    y 0.000000 1.628010 0.000000 
#    z -0.003040 0.000000 1.646800 
# 
# From -- ./inp_files/281412.got.cif
#   From: 2010.05.17/outbox.cif.g08.bks.cpg/sg12_141_cif.got.tgz:281412.got - 2010.06.03 13:09:07.
