data_PCOD9209830
_publ_section_title
;
Structure prediction by ZEFSAII (Michael W. Deem and Ramdas Pophale) SiO2 
 PCOD9209830
Probable space group: C 2/M
;
_chemical_formula_sum "Si O2"
_cell_formula_units_Z 64
_cell_length_a 18.641737
_cell_length_b 13.477159
_cell_length_c 23.968407
_cell_angle_alpha 90.000000
_cell_angle_beta 149.814701
_cell_angle_gamma 90.000000
_cell_volume 3027.733116
_symmetry_space_group_name_H-M "C 2/M"
_symmetry_group_IT_number 12
_symmetry_cell_setting 'monoclinic'
loop_
_space_group_symop_operation_xyz
x,y,z
-x,y,-z
-x,-y,-z
x,-y,z
1/2+x,1/2+y,z
1/2-x,1/2+y,-z
1/2-x,1/2-y,-z
1/2+x,1/2-y,z
loop_
_atom_site_type_symbol
_atom_site_label
_atom_site_fract_x
_atom_site_fract_y
_atom_site_fract_z
Si Si1 0.651761 0.724153 0.987099
Si Si2 0.175925 0.114198 0.776525
Si Si3 0.087583 0.309173 0.777190
Si Si4 0.573546 0.617390 0.107836
Si Si5 0.159194 0.382004 0.313307
Si Si6 0.031398 0.181888 0.459246
Si Si7 0.088758 0.614476 0.659074
Si Si8 0.440112 0.884264 0.878206
O O1 0.506973 0.660596 0.892015
O O2 0.586897 0.824725 0.969870
O O3 0.750000 0.750000 0.000000
O O4 0.757586 0.659760 0.096795
O O5 0.116240 0.194710 0.779864
O O6 0.331013 0.141534 0.854607
O O7 0.065174 0.125577 0.650568
O O8 0.179659 0.000000 0.797815
O O9 0.042854 0.369305 0.692500
O O10 0.974328 0.327380 0.748842
O O11 0.558520 0.500000 0.097481
O O12 0.741834 0.638359 0.225642
O O13 0.500000 0.653692 0.000000
O O14 0.151853 0.500000 0.319070
O O15 0.301656 0.337522 0.435646
O O16 0.146249 0.369086 0.237894
O O17 0.000000 0.144159 0.500000
O O18 0.990439 0.298341 0.427276
O O19 0.067228 0.500000 0.627319
O O20 0.472261 0.000000 0.905252
#
# Coordination Sequence:
#
# PCOD9209830 Si02
#       8
#     8   8   8   8   8   8   8   8
#     4  12  23  37  60  91 130 163 204 254 312 367
#     4  10  22  40  63  92 125 162 205 257 310 370
#     4  11  23  39  61  91 126 166 204 255 309 374
#     4  10  21  38  65  93 118 158 210 254 299 364
#     4  11  23  40  64  93 124 160 210 263 311 366
#     4  11  22  38  66  92 122 160 210 259 311 366
#     4  10  22  40  62  92 127 162 206 257 310 372
#     4  10  22  39  62  92 125 162 207 257 311 370
#
# _framework density 21.137927000000001
#
# number of rings (size 3 to 8) (size 9 to 14) (size 15 to 20)
#    0.000    1.375    3.750    2.250    0.000    4.250 
#    0.000    3.125    0.000    0.000    0.000    0.000 
#    0.000    0.000    0.000    0.000    0.000    0.000 
#
# Total GULP energy -178654.208370 kJ/mol
# GULP energy per Si atom -5582.944012 kJ/mol
# Density = 2.108982 g / cm^3
# Si number density = 21.137927 Si / 1000 Ang^3
#
#
#
# Elastic Constant Matrix: (Units=GPa)
#
#
# Indices 1 2 3 4 5 6 
#
# 1 89.1352 40.7818 31.2079 0.0001 19.9871 0.0000
# 2 40.7818 124.6450 28.2519 0.0009 21.0304 0.0003
# 3 31.2079 28.2519 76.7211 0.0015 16.5811 0.0006
# 4 0.0001 0.0009 0.0015 20.7506 0.0004 2.2512
# 5 19.9871 21.0304 16.5811 0.0004 32.5393 0.0001
# 6 0.0000 0.0003 0.0006 2.2512 0.0001 23.6096
#
#
#
# Elastic Compliance Matrix: (Units=1/GPa)
#
#
# Indices 1 2 3 4 5 6 
#
# 1 0.015233 -0.003212 -0.003866 0.000000 -0.005311 0.000000
# 2 -0.003212 0.010062 -0.001596 0.000000 -0.003718 0.000000
# 3 -0.003866 -0.001596 0.016248 -0.000001 -0.004874 0.000000
# 4 0.000000 0.000000 -0.000001 0.048695 0.000000 -0.004643
# 5 -0.005311 -0.003718 -0.004874 0.000000 0.038881 0.000000
# 6 0.000000 0.000000 0.000000 -0.004643 0.000000 0.042798
#
#
# Mechanical properties :
#
#
# Convention : Reuss Voigt Hill
#
# Bulk Modulus (GPa) = 41.32760 54.55384 47.94072
# Shear Modulus (GPa) = 25.33849 28.06387 26.70118
#
# Velocity S-wave (km/s) = 3.46601 3.64765 3.55799
# Velocity P-wave (km/s) = 5.96754 6.60341 6.29351
#
# Compressibility (1/GPa) = 0.02419691
#
# Stress axis : x y z
#
# Youngs Moduli (GPa) = 65.64834 99.37917 61.54776
#
# Poissons Ratio (x) = 0.31916 0.23793
# Poissons Ratio (y) = 0.21083 0.09820
# Poissons Ratio (z) = 0.25378 0.15857
#
# Static dielectric constant tensor:
#      x y z
#    x 1.813790 0.000000 -0.026430 
#    y 0.000000 1.791490 0.000000 
#    z -0.026430 0.000000 1.788690 
# 
# From -- ./inp_files/344056.got.cif
#   From: 2010.05.17/outbox.cif.g08.bks.cpg/sg12_173_cif.got.tgz:344056.got - 2010.06.03 13:09:07.
