data_PCOD9209684
_publ_section_title
;
Structure prediction by ZEFSAII (Michael W. Deem and Ramdas Pophale) SiO2 
 PCOD9209684
Probable space group: C 2/M
;
_chemical_formula_sum "Si O2"
_cell_formula_units_Z 64
_cell_length_a 15.718649
_cell_length_b 15.237029
_cell_length_c 16.204274
_cell_angle_alpha 90.000000
_cell_angle_beta 129.142958
_cell_angle_gamma 90.000000
_cell_volume 3010.010131
_symmetry_space_group_name_H-M "C 2/M"
_symmetry_group_IT_number 12
_symmetry_cell_setting 'monoclinic'
loop_
_space_group_symop_operation_xyz
x,y,z
-x,y,-z
-x,-y,-z
x,-y,z
1/2+x,1/2+y,z
1/2-x,1/2+y,-z
1/2-x,1/2-y,-z
1/2+x,1/2-y,z
loop_
_atom_site_type_symbol
_atom_site_label
_atom_site_fract_x
_atom_site_fract_y
_atom_site_fract_z
Si Si1 0.862986 0.800987 0.577156
Si Si2 0.781294 0.404713 0.242920
Si Si3 0.928481 0.293780 0.773254
Si Si4 0.596134 0.724195 0.668389
Si Si5 0.961456 0.138049 0.885198
Si Si6 0.708395 0.400474 0.609132
Si Si7 0.151989 0.600921 0.902496
Si Si8 0.853391 0.103780 0.140247
O O1 0.750000 0.750000 0.500000
O O2 0.898112 0.786444 0.692600
O O3 0.834415 0.889919 0.511455
O O4 0.966603 0.759093 0.594027
O O5 0.832337 0.500000 0.295285
O O6 0.843140 0.316468 0.307194
O O7 0.657793 0.403656 0.199760
O O8 0.783418 0.397957 0.144521
O O9 0.938493 0.243283 0.865444
O O10 0.830771 0.362450 0.699243
O O11 0.045088 0.338774 0.828156
O O12 0.631180 0.659462 0.617549
O O13 0.626390 0.669700 0.770902
O O14 0.054886 0.114358 0.875603
O O15 0.000000 0.113796 0.000000
O O16 0.703652 0.500000 0.632293
O O17 0.116745 0.500000 0.895418
O O18 0.236546 0.625786 0.026267
O O19 0.853305 0.000000 0.164764
#
# Coordination Sequence:
#
# PCOD9209684 Si02
#       8
#     8   8   8   8   8   8   8   8
#     4  10  23  43  66  94 123 164 216 271 328 379
#     4  11  23  39  63  92 128 176 220 263 318 381
#     4  11  22  42  66  95 133 173 216 271 323 386
#     4  12  23  44  68  94 133 172 216 273 327 391
#     4  12  23  38  64  95 132 175 218 265 322 386
#     4  11  25  44  70  98 128 171 220 271 335 393
#     4  10  21  38  63  95 132 176 221 262 318 391
#     4  11  24  39  63  99 136 174 220 267 321 391
#
# _framework density 21.262387
#
# number of rings (size 3 to 8) (size 9 to 14) (size 15 to 20)
#    0.000    1.000    5.000    1.500    1.750    3.000 
#    0.000    0.000    0.000    5.250    0.000    0.000 
#    0.000    0.000    0.000    0.000    0.000    0.000 
#
# Total GULP energy -178538.352561 kJ/mol
# GULP energy per Si atom -5579.323518 kJ/mol
# Density = 2.121399 g / cm^3
# Si number density = 21.262387 Si / 1000 Ang^3
#
#
#
# Elastic Constant Matrix: (Units=GPa)
#
#
# Indices 1 2 3 4 5 6 
#
# 1 92.9271 37.0798 43.9918 0.0000 18.7059 0.0000
# 2 37.0798 137.4560 46.3490 0.0000 2.0010 0.0000
# 3 43.9918 46.3490 91.0706 0.0000 15.2443 0.0000
# 4 0.0000 0.0000 0.0000 18.3324 0.0000 -3.0103
# 5 18.7059 2.0010 15.2443 0.0000 36.9889 0.0000
# 6 0.0000 0.0000 0.0000 -3.0103 0.0000 26.0539
#
#
#
# Elastic Compliance Matrix: (Units=1/GPa)
#
#
# Indices 1 2 3 4 5 6 
#
# 1 0.015266 -0.002243 -0.005328 0.000000 -0.005403 0.000000
# 2 -0.002243 0.009187 -0.003973 0.000000 0.002275 0.000000
# 3 -0.005328 -0.003973 0.016207 0.000000 -0.003770 0.000000
# 4 0.000000 0.000000 0.000000 0.055603 0.000000 0.006425
# 5 -0.005403 0.002275 -0.003770 0.000000 0.031198 0.000000
# 6 0.000000 0.000000 0.000000 0.006425 0.000000 0.039124
#
#
# Mechanical properties :
#
#
# Convention : Reuss Voigt Hill
#
# Bulk Modulus (GPa) = 56.90855 64.03274 60.47064
# Shear Modulus (GPa) = 25.57139 29.21058 27.39099
#
# Velocity S-wave (km/s) = 3.47170 3.71052 3.59310
# Velocity P-wave (km/s) = 6.54929 6.96693 6.76134
#
# Compressibility (1/GPa) = 0.01757205
#
# Stress axis : x y z
#
# Youngs Moduli (GPa) = 65.50435 108.85527 61.70050
#
# Poissons Ratio (x) = 0.24414 0.32877
# Poissons Ratio (y) = 0.14691 0.24512
# Poissons Ratio (z) = 0.34904 0.43245
#
# Static dielectric constant tensor:
#      x y z
#    x 1.775810 0.000000 -0.030740 
#    y 0.000000 1.776730 0.000000 
#    z -0.030740 0.000000 1.811420 
# 
# From -- ./inp_files/270728.got.cif
#   From: 2010.05.17/outbox.cif.g08.bks.cpg/sg12_136_cif.got.tgz:270728.got - 2010.06.03 13:09:07.
