data_PCOD9209118
_publ_section_title
;
Structure prediction by ZEFSAII (Michael W. Deem and Ramdas Pophale) SiO2 
 PCOD9209118
Probable space group: C 2/M
;
_chemical_formula_sum "Si O2"
_cell_formula_units_Z 48
_cell_length_a 17.123664
_cell_length_b 8.926800
_cell_length_c 14.911443
_cell_angle_alpha 90.000000
_cell_angle_beta 89.341317
_cell_angle_gamma 90.000000
_cell_volume 2279.205455
_symmetry_space_group_name_H-M "C 2/M"
_symmetry_group_IT_number 12
_symmetry_cell_setting 'monoclinic'
loop_
_space_group_symop_operation_xyz
x,y,z
-x,y,-z
-x,-y,-z
x,-y,z
1/2+x,1/2+y,z
1/2-x,1/2+y,-z
1/2-x,1/2-y,-z
1/2+x,1/2-y,z
loop_
_atom_site_type_symbol
_atom_site_label
_atom_site_fract_x
_atom_site_fract_y
_atom_site_fract_z
Si Si1 0.837168 0.322287 0.132418
Si Si2 0.831881 0.177771 0.471471
Si Si3 0.423652 0.677782 0.293887
Si Si4 0.420481 0.177692 0.627967
Si Si5 0.834750 0.177998 0.786595
Si Si6 0.085928 0.820305 0.032216
O O1 0.849562 0.500000 0.131128
O O2 0.897144 0.244905 0.200066
O O3 0.750358 0.294215 0.170800
O O4 0.852019 0.256099 0.034184
O O5 0.750000 0.250000 0.500000
O O6 0.855572 0.204006 0.368189
O O7 0.898092 0.248935 0.533794
O O8 0.828844 0.000000 0.486536
O O9 0.436977 0.500000 0.285509
O O10 0.500631 0.754698 0.332128
O O11 0.353232 0.226155 0.699031
O O12 0.425460 0.000000 0.619381
O O13 0.896392 0.214661 0.864659
O O14 0.841020 0.000000 0.765321
O O15 0.092792 0.000000 0.023000
O O16 0.000000 0.775202 0.000000
#
# Coordination Sequence:
#
# PCOD9209118 Si02
#       6
#     8   8   8   8   8   8
#     4  11  23  38  60  90 122 158 201 251 302 354
#     4  11  24  42  65  92 123 161 203 248 299 355
#     4  11  24  42  63  87 119 160 203 248 301 360
#     4  12  25  40  63  93 123 158 200 249 303 358
#     4  10  22  40  61  88 124 163 202 247 300 358
#     4  10  21  38  61  87 118 161 206 248 300 359
#
# _framework density 21.059972999999999
#
# number of rings (size 3 to 8) (size 9 to 14) (size 15 to 20)
#    0.000    1.167    0.000    6.000    0.000   11.000 
#    0.000    0.000    0.000    0.000    0.000    0.000 
#    0.000    0.000    0.000    0.000    0.000    0.000 
#
# Total GULP energy -134387.700387 kJ/mol
# GULP energy per Si atom -5599.487516 kJ/mol
# Density = 2.101204 g / cm^3
# Si number density = 21.059973 Si / 1000 Ang^3
#
#
#
# Elastic Constant Matrix: (Units=GPa)
#
#
# Indices 1 2 3 4 5 6 
#
# 1 53.8988 13.2375 -9.4494 0.0000 1.9053 0.0000
# 2 13.2375 42.1960 18.1615 0.0000 -11.1537 0.0000
# 3 -9.4494 18.1615 64.6702 0.0000 1.4848 0.0000
# 4 0.0000 0.0000 0.0000 31.8057 0.0000 -3.0529
# 5 1.9053 -11.1537 1.4848 0.0000 36.9997 0.0000
# 6 0.0000 0.0000 0.0000 -3.0529 0.0000 31.5312
#
#
#
# Elastic Compliance Matrix: (Units=1/GPa)
#
#
# Indices 1 2 3 4 5 6 
#
# 1 0.022620 -0.011187 0.006557 0.000000 -0.004800 0.000000
# 2 -0.011187 0.035407 -0.011847 0.000000 0.011725 0.000000
# 3 0.006557 -0.011847 0.019856 0.000000 -0.004706 0.000000
# 4 0.000000 0.000000 0.000000 0.031736 0.000000 0.003073
# 5 -0.004800 0.011725 -0.004706 0.000000 0.030998 0.000000
# 6 0.000000 0.000000 0.000000 0.003073 0.000000 0.032012
#
#
# Mechanical properties :
#
#
# Convention : Reuss Voigt Hill
#
# Bulk Modulus (GPa) = 22.25761 22.74047 22.49904
# Shear Modulus (GPa) = 22.66947 29.32167 25.99557
#
# Velocity S-wave (km/s) = 3.28445 3.73539 3.51716
# Velocity P-wave (km/s) = 4.99751 5.42454 5.21540
#
# Compressibility (1/GPa) = 0.04492845
#
# Stress axis : x y z
#
# Youngs Moduli (GPa) = 44.20825 28.24293 50.36174
#
# Poissons Ratio (x) = 0.31597 -0.33023
# Poissons Ratio (y) = 0.49458 0.59665
# Poissons Ratio (z) = -0.28988 0.33460
#
# Static dielectric constant tensor:
#      x y z
#    x 1.773580 0.000000 -0.010560 
#    y 0.000000 1.695520 0.000000 
#    z -0.010560 0.000000 1.726370 
# 
# From -- ./inp_files/221682.got.cif
#   From: 2010.05.17/outbox.cif.g08.bks.cpg/sg12_111_cif.got.tgz:221682.got - 2010.06.03 13:09:07.
