data_PCOD9209706
_publ_section_title
;
Structure prediction by ZEFSAII (Michael W. Deem and Ramdas Pophale) SiO2 
 PCOD9209706
Probable space group: C 2/M
;
_chemical_formula_sum "Si O2"
_cell_formula_units_Z 64
_cell_length_a 33.293961
_cell_length_b 21.611036
_cell_length_c 9.871065
_cell_angle_alpha 90.000000
_cell_angle_beta 23.575667
_cell_angle_gamma 90.000000
_cell_volume 2840.674254
_symmetry_space_group_name_H-M "C 2/M"
_symmetry_group_IT_number 12
_symmetry_cell_setting 'monoclinic'
loop_
_space_group_symop_operation_xyz
x,y,z
-x,y,-z
-x,-y,-z
x,-y,z
1/2+x,1/2+y,z
1/2-x,1/2+y,-z
1/2-x,1/2-y,-z
1/2+x,1/2-y,z
loop_
_atom_site_type_symbol
_atom_site_label
_atom_site_fract_x
_atom_site_fract_y
_atom_site_fract_z
Si Si1 0.765313 0.927646 0.577325
Si Si2 0.562525 0.072980 0.071289
Si Si3 0.998873 0.261869 0.349832
Si Si4 0.843912 0.838079 0.105021
Si Si5 0.872336 0.340685 0.601370
Si Si6 0.602405 0.566708 0.266689
Si Si7 0.197634 0.928524 0.230010
Si Si8 0.136907 0.679349 0.684572
O O1 0.819308 0.882362 0.306097
O O2 0.781547 0.000000 0.491551
O O3 0.643405 0.918062 0.943923
O O4 0.808419 0.915865 0.592772
O O5 0.457612 0.110076 0.392248
O O6 0.546139 0.000000 0.105699
O O7 0.624401 0.106146 0.759119
O O8 0.000000 0.288073 0.500000
O O9 0.888041 0.278400 0.640872
O O10 0.050128 0.195373 0.207120
O O11 0.066056 0.289318 0.017667
O O12 0.747155 0.795065 0.379912
O O13 0.841026 0.878065 0.978106
O O14 0.771783 0.378352 0.937108
O O15 0.886091 0.319435 0.403077
O O16 0.500000 0.564746 0.500000
O O17 0.653097 0.500000 0.085268
O O18 0.599343 0.573516 0.438076
O O19 0.235899 0.000000 0.103489
#
# Coordination Sequence:
#
# PCOD9209706 Si02
#       8
#     8   8   8   8   8   8   8   8
#     4   9  20  37  62  98 136 168 207 257 325 397
#     4   9  18  31  56  93 130 169 204 247 315 393
#     4  11  25  41  63  87 122 172 223 274 323 372
#     4  11  21  42  66  89 124 171 227 264 322 382
#     4  11  22  38  61  91 132 173 212 267 318 384
#     4  10  21  40  68  98 131 164 207 269 331 390
#     4  10  21  38  64 103 138 168 207 259 324 397
#     4  10  22  41  61  87 128 169 216 272 320 377
#
# _framework density 22.529862000000001
#
# number of rings (size 3 to 8) (size 9 to 14) (size 15 to 20)
#    0.000    1.875    1.250    3.000    5.250    2.000 
#    0.000    8.125    0.000    3.000    0.000    0.000 
#    0.000    0.000    0.000    0.000    0.000    0.000 
#
# Total GULP energy -178143.270249 kJ/mol
# GULP energy per Si atom -5566.977195 kJ/mol
# Density = 2.247858 g / cm^3
# Si number density = 22.529862 Si / 1000 Ang^3
#
#
#
# Elastic Constant Matrix: (Units=GPa)
#
#
# Indices 1 2 3 4 5 6 
#
# 1 197.0530 44.4246 29.3159 0.0000 18.3244 0.0000
# 2 44.4246 61.8603 17.1988 0.0000 4.6388 0.0000
# 3 29.3159 17.1988 36.4504 0.0000 6.0641 0.0000
# 4 0.0000 0.0000 0.0000 31.0966 0.0000 3.9316
# 5 18.3244 4.6388 6.0641 0.0000 32.1087 0.0000
# 6 0.0000 0.0000 0.0000 3.9316 0.0000 8.2174
#
#
#
# Elastic Compliance Matrix: (Units=1/GPa)
#
#
# Indices 1 2 3 4 5 6 
#
# 1 0.006619 -0.003680 -0.003146 0.000000 -0.002652 0.000000
# 2 -0.003680 0.020687 -0.006870 0.000000 0.000409 0.000000
# 3 -0.003146 -0.006870 0.033804 0.000000 -0.003597 0.000000
# 4 0.000000 0.000000 0.000000 0.034228 0.000000 -0.016376
# 5 -0.002652 0.000409 -0.003597 0.000000 0.033278 0.000000
# 6 0.000000 0.000000 0.000000 -0.016376 0.000000 0.129528
#
#
# Mechanical properties :
#
#
# Convention : Reuss Voigt Hill
#
# Bulk Modulus (GPa) = 29.65603 53.02692 41.34148
# Shear Modulus (GPa) = 16.84774 27.91283 22.38028
#
# Velocity S-wave (km/s) = 2.73755 3.52366 3.15518
# Velocity P-wave (km/s) = 4.81496 6.33579 5.62699
#
# Compressibility (1/GPa) = 0.03371995
#
# Stress axis : x y z
#
# Youngs Moduli (GPa) = 151.08014 48.33860 29.58195
#
# Poissons Ratio (x) = 0.17788 0.09306
# Poissons Ratio (y) = 0.55596 0.20322
# Poissons Ratio (z) = 0.47529 0.33207
#
# Static dielectric constant tensor:
#      x y z
#    x 1.880970 0.000000 -0.085550 
#    y 0.000000 1.904980 0.000000 
#    z -0.085550 0.000000 1.936540 
# 
# From -- ./inp_files/113607.got.cif
#   From: 2010.05.17/outbox.cif.g08.bks.cpg/sg12_57_cif.got.tgz:113607.got - 2010.06.03 13:09:07.
