data_PCOD9209837
_publ_section_title
;
Structure prediction by ZEFSAII (Michael W. Deem and Ramdas Pophale) SiO2 
 PCOD9209837
Probable space group: C 2/M
;
_chemical_formula_sum "Si O2"
_cell_formula_units_Z 48
_cell_length_a 23.640607
_cell_length_b 15.850318
_cell_length_c 12.235136
_cell_angle_alpha 90.000000
_cell_angle_beta 27.970235
_cell_angle_gamma 90.000000
_cell_volume 2150.255709
_symmetry_space_group_name_H-M "C 2/M"
_symmetry_group_IT_number 12
_symmetry_cell_setting 'monoclinic'
loop_
_space_group_symop_operation_xyz
x,y,z
-x,y,-z
-x,-y,-z
x,-y,z
1/2+x,1/2+y,z
1/2-x,1/2+y,-z
1/2-x,1/2-y,-z
1/2+x,1/2-y,z
loop_
_atom_site_type_symbol
_atom_site_label
_atom_site_fract_x
_atom_site_fract_y
_atom_site_fract_z
Si Si1 0.906917 0.316109 0.400410
Si Si2 0.785613 0.902507 0.129307
Si Si3 0.473446 0.349921 0.168122
Si Si4 0.364931 0.602454 0.748194
Si Si5 0.205703 0.404067 0.617413
Si Si6 0.345430 0.101811 0.051948
O O1 0.943533 0.221728 0.307810
O O2 0.844756 0.350440 0.395547
O O3 0.030594 0.365933 0.209446
O O4 0.811661 0.338294 0.656148
O O5 0.818265 0.880697 0.949363
O O6 0.908077 0.896833 0.991197
O O7 0.741622 0.000000 0.210039
O O8 0.350746 0.403072 0.369834
O O9 0.500000 0.317155 0.000000
O O10 0.500000 0.635270 0.500000
O O11 0.370497 0.500000 0.728900
O O12 0.269310 0.631581 0.821336
O O13 0.162005 0.500000 0.678912
O O14 0.162988 0.370008 0.807633
O O15 0.343765 0.000000 0.056368
#
# Coordination Sequence:
#
# PCOD9209837 Si02
#       6
#     8   8   8   8   8   8
#     4  12  25  39  62  95 137 167 209 266 332 381
#     4  11  24  43  69  96 126 167 221 272 313 376
#     4  12  25  40  64  92 134 175 211 261 330 386
#     4   9  19  40  68  97 125 164 217 269 315 373
#     4  11  22  39  66  95 128 169 221 266 310 381
#     4  10  21  38  65  94 128 170 214 260 320 386
#
# _framework density 22.322925999999999
#
# number of rings (size 3 to 8) (size 9 to 14) (size 15 to 20)
#    0.000    1.167    1.667    5.000    2.333    5.333 
#    0.000    3.333    3.667    0.000    0.000    0.000 
#    0.000    0.000    0.000    0.000    0.000    0.000 
#
# Total GULP energy -134348.674716 kJ/mol
# GULP energy per Si atom -5597.861446 kJ/mol
# Density = 2.227212 g / cm^3
# Si number density = 22.322926 Si / 1000 Ang^3
#
#
#
# Elastic Constant Matrix: (Units=GPa)
#
#
# Indices 1 2 3 4 5 6 
#
# 1 68.0858 6.4380 32.4548 0.0000 2.3812 0.0000
# 2 6.4380 48.8660 32.2638 0.0000 14.0221 0.0000
# 3 32.4548 32.2638 114.0472 0.0000 -9.0241 0.0000
# 4 0.0000 0.0000 0.0000 28.0605 0.0000 -1.7864
# 5 2.3812 14.0221 -9.0241 0.0000 34.8435 0.0000
# 6 0.0000 0.0000 0.0000 -1.7864 0.0000 17.2004
#
#
#
# Elastic Compliance Matrix: (Units=1/GPa)
#
#
# Indices 1 2 3 4 5 6 
#
# 1 0.017453 0.002835 -0.006078 0.000000 -0.003908 0.000000
# 2 0.002835 0.032017 -0.011127 0.000000 -0.015960 0.000000
# 3 -0.006078 -0.011127 0.014327 0.000000 0.008604 0.000000
# 4 0.000000 0.000000 0.000000 0.035874 0.000000 0.003726
# 5 -0.003908 -0.015960 0.008604 0.000000 0.037618 0.000000
# 6 0.000000 0.000000 0.000000 0.003726 0.000000 0.058525
#
#
# Mechanical properties :
#
#
# Convention : Reuss Voigt Hill
#
# Bulk Modulus (GPa) = 28.52557 41.47914 35.00235
# Shear Modulus (GPa) = 21.16490 26.67704 23.92097
#
# Velocity S-wave (km/s) = 3.08250 3.46070 3.27706
# Velocity P-wave (km/s) = 5.04732 5.88136 5.48023
#
# Compressibility (1/GPa) = 0.03505627
#
# Stress axis : x y z
#
# Youngs Moduli (GPa) = 57.29637 31.23332 69.80061
#
# Poissons Ratio (x) = -0.08854 0.42424
# Poissons Ratio (y) = -0.16242 0.77668
# Poissons Ratio (z) = 0.34824 0.34754
#
# Static dielectric constant tensor:
#      x y z
#    x 1.782870 0.000000 0.009610 
#    y 0.000000 1.820780 0.000000 
#    z 0.009610 0.000000 1.798580 
# 
# From -- ./inp_files/177308.got.cif
#   From: 2010.05.17/outbox.cif.g08.bks.cpg/sg12_89_cif.got.tgz:177308.got - 2010.06.03 13:09:07.
