data_PCOD9209564
_publ_section_title
;
Structure prediction by ZEFSAII (Michael W. Deem and Ramdas Pophale) SiO2 
 PCOD9209564
Probable space group: C 2/M
;
_chemical_formula_sum "Si O2"
_cell_formula_units_Z 40
_cell_length_a 27.155945
_cell_length_b 10.216470
_cell_length_c 6.297855
_cell_angle_alpha 90.000000
_cell_angle_beta 100.507958
_cell_angle_gamma 90.000000
_cell_volume 1717.961316
_symmetry_space_group_name_H-M "C 2/M"
_symmetry_group_IT_number 12
_symmetry_cell_setting 'monoclinic'
loop_
_space_group_symop_operation_xyz
x,y,z
-x,y,-z
-x,-y,-z
x,-y,z
1/2+x,1/2+y,z
1/2-x,1/2+y,-z
1/2-x,1/2-y,-z
1/2+x,1/2-y,z
loop_
_atom_site_type_symbol
_atom_site_label
_atom_site_fract_x
_atom_site_fract_y
_atom_site_fract_z
Si Si1 0.681929 0.145093 0.899277
Si Si2 0.371586 0.733745 0.767009
Si Si3 0.785653 0.151325 0.400062
Si Si4 0.075693 0.355452 0.569454
Si Si5 0.544126 0.355201 0.865124
O O1 0.665186 0.172548 0.126904
O O2 0.792130 0.226731 0.181202
O O3 0.705927 0.000000 0.892996
O O4 0.630247 0.138834 0.725479
O O5 0.337731 0.654525 0.574059
O O6 0.411897 0.812274 0.658995
O O7 0.403613 0.654173 0.963821
O O8 0.750000 0.250000 0.500000
O O9 0.769676 0.000000 0.371072
O O10 0.054544 0.500000 0.561497
O O11 0.045189 0.252482 0.683832
O O12 0.539300 0.500000 0.768188
O O13 0.500000 0.336176 0.000000
#
# Coordination Sequence:
#
# PCOD9209564 Si02
#       5
#     8   8   8   8   8
#     4   9  19  37  61  87 116 151 192 237 287 344
#     4  10  21  38  63  87 115 153 193 237 290 342
#     4  11  24  40  60  87 118 152 194 240 286 342
#     4   9  19  36  59  87 117 152 194 238 286 342
#     4  10  22  39  59  86 119 154 194 239 287 342
#
# _framework density 23.283411000000001
#
# number of rings (size 3 to 8) (size 9 to 14) (size 15 to 20)
#    0.000    2.200    0.000    1.800    0.000   14.000 
#    0.000    3.000    0.000    0.000    0.000    0.000 
#    0.000    0.000    0.000    0.000    0.000    0.000 
#
# Total GULP energy -111770.229784 kJ/mol
# GULP energy per Si atom -5588.511489 kJ/mol
# Density = 2.323042 g / cm^3
# Si number density = 23.283411 Si / 1000 Ang^3
#
#
#
# Elastic Constant Matrix: (Units=GPa)
#
#
# Indices 1 2 3 4 5 6 
#
# 1 67.2063 61.6500 20.3845 0.0000 -5.7941 0.0000
# 2 61.6500 256.0317 64.2031 0.0000 -51.0286 0.0000
# 3 20.3845 64.2031 91.9865 0.0000 -10.5710 0.0000
# 4 0.0000 0.0000 0.0000 3.4916 0.0000 -17.6439
# 5 -5.7941 -51.0286 -10.5710 0.0000 56.9767 0.0000
# 6 0.0000 0.0000 0.0000 -17.6439 0.0000 15.3830
#
#
#
# Elastic Compliance Matrix: (Units=1/GPa)
#
#
# Indices 1 2 3 4 5 6 
#
# 1 0.019539 -0.004935 -0.001190 0.000000 -0.002654 0.000000
# 2 -0.004935 0.006895 -0.003133 0.000000 0.005092 0.000000
# 3 -0.001190 -0.003133 0.013268 0.000000 -0.000466 0.000000
# 4 0.000000 0.000000 0.000000 -0.059718 0.000000 -0.068494
# 5 -0.002654 0.005092 -0.000466 0.000000 0.021755 0.000000
# 6 0.000000 0.000000 0.000000 -0.068494 0.000000 -0.013554
#
#
# Mechanical properties :
#
#
# Convention : Reuss Voigt Hill
#
# Bulk Modulus (GPa) = 47.20496 78.63329 62.91912
# Shear Modulus (GPa) = 363.25496 33.10271 198.17884
#
# Velocity S-wave (km/s) = 12.50413 3.77467 9.23584
# Velocity P-wave (km/s) = 15.12577 7.26933 11.86659
#
# Compressibility (1/GPa) = 0.02118422
#
# Stress axis : x y z
#
# Youngs Moduli (GPa) = 51.17961 145.03940 75.36693
#
# Poissons Ratio (x) = 0.71581 0.08971
# Poissons Ratio (y) = 0.25259 0.23616
# Poissons Ratio (z) = 0.06092 0.45447
#
# Static dielectric constant tensor:
#      x y z
#    x 1.922610 0.000000 0.033500 
#    y 0.000000 1.856860 0.000000 
#    z 0.033500 0.000000 1.863600 
# 
# From -- ./inp_files/27506.got.cif
#   From: 2010.05.17/outbox.cif.g08.bks.cpg/sg12_14_cif.got.tgz:27506.got - 2010.06.03 13:09:07.
