data_PCOD9209909
_publ_section_title
;
Structure prediction by ZEFSAII (Michael W. Deem and Ramdas Pophale) SiO2 
 PCOD9209909
Probable space group: C 2/M
;
_chemical_formula_sum "Si O2"
_cell_formula_units_Z 50
_cell_length_a 8.467638
_cell_length_b 24.780618
_cell_length_c 9.916570
_cell_angle_alpha 90.000000
_cell_angle_beta 77.256646
_cell_angle_gamma 90.000000
_cell_volume 2029.571533
_symmetry_space_group_name_H-M "C 2/M"
_symmetry_group_IT_number 12
_symmetry_cell_setting 'monoclinic'
loop_
_space_group_symop_operation_xyz
x,y,z
-x,y,-z
-x,-y,-z
x,-y,z
1/2+x,1/2+y,z
1/2-x,1/2+y,-z
1/2-x,1/2-y,-z
1/2+x,1/2-y,z
loop_
_atom_site_type_symbol
_atom_site_label
_atom_site_fract_x
_atom_site_fract_y
_atom_site_fract_z
Si Si1 0.897144 0.655000 0.304165
Si Si2 0.781046 0.900285 0.425319
Si Si3 0.087013 0.732003 0.106991
Si Si4 0.089568 0.560917 0.194983
Si Si5 0.061171 0.164592 0.255233
Si Si6 0.000000 0.000000 0.500000
Si Si7 0.354696 0.557481 0.919567
O O1 0.850514 0.628353 0.454846
O O2 0.730514 0.683707 0.289184
O O3 0.049540 0.694405 0.243833
O O4 0.942345 0.601664 0.211345
O O5 0.701157 0.919207 0.299270
O O6 0.915206 0.854042 0.375266
O O7 0.869844 0.951659 0.476011
O O8 0.007440 0.788912 0.163595
O O9 0.250000 0.750000 0.000000
O O10 0.000000 0.701869 0.000000
O O11 0.036106 0.500000 0.232374
O O12 0.196147 0.561103 0.040557
O O13 0.109541 0.109298 0.173563
O O14 0.357985 0.500000 0.840443
O O15 0.500000 0.555108 0.000000
#
# Coordination Sequence:
#
# PCOD9209909 Si02
#       7
#     8   8   8   8   8   2   8
#     4  12  28  46  68 109 144 186 247 304 366 434
#     4  12  26  45  73 108 149 200 237 293 348 448
#     4  12  27  50  77 103 138 191 244 312 378 436
#     4  11  25  43  69 105 150 193 235 293 371 432
#     4  12  25  45  76 100 141 189 247 300 361 432
#     4  12  24  44  78 106 150 210 252 264 360 442
#     4  10  21  38  67 105 138 181 238 296 351 431
#
# _framework density 24.635742
#
# number of rings (size 3 to 8) (size 9 to 14) (size 15 to 20)
#    0.000    0.480    5.600    1.920    4.480    1.920 
#    0.000    3.200    0.000    0.000    0.000    0.000 
#    0.000    0.000    0.000    0.000    0.000    0.000 
#
# Total GULP energy -139451.948548 kJ/mol
# GULP energy per Si atom -5578.077942 kJ/mol
# Density = 2.457967 g / cm^3
# Si number density = 24.635742 Si / 1000 Ang^3
#
#
#
# Elastic Constant Matrix: (Units=GPa)
#
#
# Indices 1 2 3 4 5 6 
#
# 1 90.2078 14.4861 27.0308 0.0000 -9.9442 0.0000
# 2 14.4861 143.6237 76.5479 0.0000 -22.0996 0.0000
# 3 27.0308 76.5479 115.5876 0.0000 -34.3528 0.0000
# 4 0.0000 0.0000 0.0000 34.0654 0.0000 -3.5423
# 5 -9.9442 -22.0996 -34.3528 0.0000 43.8800 0.0000
# 6 0.0000 0.0000 0.0000 -3.5423 0.0000 20.4280
#
#
#
# Elastic Compliance Matrix: (Units=1/GPa)
#
#
# Indices 1 2 3 4 5 6 
#
# 1 0.011954 0.000435 -0.002884 0.000000 0.000670 0.000000
# 2 0.000435 0.010778 -0.007294 0.000000 -0.000184 0.000000
# 3 -0.002884 -0.007294 0.016773 0.000000 0.008804 0.000000
# 4 0.000000 0.000000 0.000000 0.029894 0.000000 0.005184
# 5 0.000670 -0.000184 0.008804 0.000000 0.029741 0.000000
# 6 0.000000 0.000000 0.000000 0.005184 0.000000 0.049851
#
#
# Mechanical properties :
#
#
# Convention : Reuss Voigt Hill
#
# Bulk Modulus (GPa) = 49.95571 65.06096 57.50833
# Shear Modulus (GPa) = 28.54670 35.09828 31.82249
#
# Velocity S-wave (km/s) = 3.40774 3.77860 3.59795
# Velocity P-wave (km/s) = 5.98375 6.74564 6.37608
#
# Compressibility (1/GPa) = 0.02001773
#
# Stress axis : x y z
#
# Youngs Moduli (GPa) = 83.65525 92.78105 59.61979
#
# Poissons Ratio (x) = -0.04032 0.17195
# Poissons Ratio (y) = -0.03636 0.43486
# Poissons Ratio (z) = 0.24128 0.67674
#
# Static dielectric constant tensor:
#      x y z
#    x 2.093650 0.000000 -0.004300 
#    y 0.000000 1.906640 0.000000 
#    z -0.004300 0.000000 2.295760 
# 
# From -- ./inp_files/124148.got.cif
#   From: 2010.05.17/outbox.cif.g08.bks.cpg/sg12_63_cif.got.tgz:124148.got - 2010.06.03 13:09:07.
