data_PCOD9209922
_publ_section_title
;
Structure prediction by ZEFSAII (Michael W. Deem and Ramdas Pophale) SiO2 
 PCOD9209922
Probable space group: C 2/M
;
_chemical_formula_sum "Si O2"
_cell_formula_units_Z 56
_cell_length_a 10.749252
_cell_length_b 17.697055
_cell_length_c 13.112343
_cell_angle_alpha 90.000000
_cell_angle_beta 116.237089
_cell_angle_gamma 90.000000
_cell_volume 2237.374162
_symmetry_space_group_name_H-M "C 2/M"
_symmetry_group_IT_number 12
_symmetry_cell_setting 'monoclinic'
loop_
_space_group_symop_operation_xyz
x,y,z
-x,y,-z
-x,-y,-z
x,-y,z
1/2+x,1/2+y,z
1/2-x,1/2+y,-z
1/2-x,1/2-y,-z
1/2+x,1/2-y,z
loop_
_atom_site_type_symbol
_atom_site_label
_atom_site_fract_x
_atom_site_fract_y
_atom_site_fract_z
Si Si1 0.965719 0.361403 0.197843
Si Si2 0.111013 0.907547 0.702693
Si Si3 0.689049 0.912842 0.045941
Si Si4 0.338796 0.207041 0.446973
Si Si5 0.779882 0.586073 0.577730
Si Si6 0.670082 0.585652 0.111391
Si Si7 0.421385 0.695085 0.762971
O O1 0.934976 0.378070 0.067376
O O2 0.828936 0.396177 0.200524
O O3 0.092151 0.402795 0.297836
O O4 0.991180 0.271840 0.213992
O O5 0.152689 0.885473 0.602648
O O6 0.978871 0.863333 0.698675
O O7 0.097895 0.000000 0.703737
O O8 0.237403 0.883402 0.825469
O O9 0.811356 0.911296 0.003954
O O10 0.655181 0.000000 0.052780
O O11 0.500000 0.226335 0.500000
O O12 0.250000 0.250000 0.500000
O O13 0.326288 0.123603 0.489817
O O14 0.239451 0.216246 0.314960
O O15 0.748296 0.500000 0.546609
O O16 0.630333 0.500000 0.125760
O O17 0.580825 0.650086 0.132029
#
# Coordination Sequence:
#
# PCOD9209922 Si02
#       7
#     8   8   8   8   8   8   8
#     4  10  21  38  67  99 136 185 233 301 357 421
#     4  10  24  43  67 105 146 196 240 295 360 434
#     4   8  18  41  68  96 142 194 245 286 356 432
#     4  12  29  49  78 102 136 189 237 298 381 444
#     4  11  24  43  70 102 143 185 245 300 357 437
#     4   9  20  41  66  95 137 188 240 291 350 432
#     4  12  25  39  73 101 145 180 247 306 375 431
#
# _framework density 25.029340999999999
#
# number of rings (size 3 to 8) (size 9 to 14) (size 15 to 20)
#    0.857    0.857    1.429    2.143    4.000    3.143 
#    0.000    7.143    0.000    0.000    0.000    0.000 
#    0.000    0.000    0.000    0.000    0.000    0.000 
#
# Total GULP energy -156347.670783 kJ/mol
# GULP energy per Si atom -5583.845385 kJ/mol
# Density = 2.497237 g / cm^3
# Si number density = 25.029341 Si / 1000 Ang^3
#
#
#
# Elastic Constant Matrix: (Units=GPa)
#
#
# Indices 1 2 3 4 5 6 
#
# 1 69.6989 -0.7729 20.7942 0.0000 20.8936 0.0000
# 2 -0.7729 55.4601 24.3676 0.0000 -6.7582 0.0000
# 3 20.7942 24.3676 64.9715 0.0000 28.4900 0.0000
# 4 0.0000 0.0000 0.0000 24.6417 0.0000 -21.6022
# 5 20.8936 -6.7582 28.4900 0.0000 47.5843 0.0000
# 6 0.0000 0.0000 0.0000 -21.6022 0.0000 44.9886
#
#
#
# Elastic Compliance Matrix: (Units=1/GPa)
#
#
# Indices 1 2 3 4 5 6 
#
# 1 0.016979 0.001226 -0.003663 0.000000 -0.005088 0.000000
# 2 0.001226 0.026649 -0.016015 0.000000 0.012835 0.000000
# 3 -0.003663 -0.016015 0.031002 0.000000 -0.019228 0.000000
# 4 0.000000 0.000000 0.000000 0.070082 0.000000 0.033651
# 5 -0.005088 0.012835 -0.019228 0.000000 0.036584 0.000000
# 6 0.000000 0.000000 0.000000 0.033651 0.000000 0.038386
#
#
# Mechanical properties :
#
#
# Convention : Reuss Voigt Hill
#
# Bulk Modulus (GPa) = 26.50758 30.98983 28.74870
# Shear Modulus (GPa) = 18.57622 33.15903 25.86762
#
# Velocity S-wave (km/s) = 2.72725 3.64374 3.21828
# Velocity P-wave (km/s) = 4.53109 5.48732 5.03197
#
# Compressibility (1/GPa) = 0.03772506
#
# Stress axis : x y z
#
# Youngs Moduli (GPa) = 58.89611 37.52521 32.25648
#
# Poissons Ratio (x) = -0.04600 0.11815
# Poissons Ratio (y) = -0.07220 0.51660
# Poissons Ratio (z) = 0.21572 0.60098
#
# Static dielectric constant tensor:
#      x y z
#    x 2.032070 0.000000 -0.028890 
#    y 0.000000 1.962440 0.000000 
#    z -0.028890 0.000000 2.240430 
# 
# From -- ./inp_files/206776.got.cif
#   From: 2010.05.17/outbox.cif.g08.bks.cpg/sg12_104_cif.got.tgz:206776.got - 2010.06.03 13:09:07.
