data_PCOD9209101
_publ_section_title
;
Structure prediction by ZEFSAII (Michael W. Deem and Ramdas Pophale) SiO2 
 PCOD9209101
Probable space group: C 2/M
;
_chemical_formula_sum "Si O2"
_cell_formula_units_Z 48
_cell_length_a 29.497415
_cell_length_b 8.317353
_cell_length_c 18.292763
_cell_angle_alpha 90.000000
_cell_angle_beta 153.602415
_cell_angle_gamma 90.000000
_cell_volume 1995.332805
_symmetry_space_group_name_H-M "C 2/M"
_symmetry_group_IT_number 12
_symmetry_cell_setting 'monoclinic'
loop_
_space_group_symop_operation_xyz
x,y,z
-x,y,-z
-x,-y,-z
x,-y,z
1/2+x,1/2+y,z
1/2-x,1/2+y,-z
1/2-x,1/2-y,-z
1/2+x,1/2-y,z
loop_
_atom_site_type_symbol
_atom_site_label
_atom_site_fract_x
_atom_site_fract_y
_atom_site_fract_z
Si Si1 0.834183 0.191997 0.365235
Si Si2 0.339772 0.191287 0.220432
Si Si3 0.412595 0.687815 0.634710
Si Si4 0.111836 0.310626 0.868122
Si Si5 0.122526 0.812047 0.108576
Si Si6 0.103939 0.315209 0.234960
O O1 0.881545 0.265072 0.360291
O O2 0.876803 0.252548 0.504403
O O3 0.715489 0.241349 0.197263
O O4 0.844691 0.000000 0.377799
O O5 0.401228 0.237827 0.236266
O O6 0.324269 0.000000 0.193643
O O7 0.229886 0.276806 0.054991
O O8 0.388209 0.500000 0.603603
O O9 0.534489 0.712850 0.806547
O O10 0.367613 0.769540 0.641575
O O11 0.090734 0.500000 0.846556
O O12 0.147078 0.788709 0.230428
O O13 0.106109 0.000000 0.069815
O O14 0.018089 0.716049 0.945005
O O15 0.127531 0.500000 0.253821
#
# Coordination Sequence:
#
# PCOD9209101 Si02
#       6
#     8   8   8   8   8   8
#     4  11  24  40  58  83 117 155 193 234 284 341
#     4  10  21  38  61  87 115 149 191 238 286 338
#     4  11  24  40  58  83 117 155 193 234 284 341
#     4  10  21  38  61  87 115 149 191 238 286 338
#     4  11  22  39  63  88 116 149 190 237 284 337
#     4  11  22  39  63  88 116 149 190 237 284 337
#
# _framework density 24.056135999999999
#
# number of rings (size 3 to 8) (size 9 to 14) (size 15 to 20)
#    0.000    1.333    0.000    7.000    0.000    6.000 
#    0.000    3.333    0.000    0.000    0.000    0.000 
#    0.000    0.000    0.000    0.000    0.000    0.000 
#
# Total GULP energy -134410.926059 kJ/mol
# GULP energy per Si atom -5600.455252 kJ/mol
# Density = 2.400138 g / cm^3
# Si number density = 24.056136 Si / 1000 Ang^3
#
#
#
# Elastic Constant Matrix: (Units=GPa)
#
#
# Indices 1 2 3 4 5 6 
#
# 1 138.7861 8.5262 21.1119 0.0000 -23.2873 0.0000
# 2 8.5262 58.8776 -10.1757 0.0000 -10.0653 0.0000
# 3 21.1119 -10.1757 58.7613 0.0000 -17.7926 0.0000
# 4 0.0000 0.0000 0.0000 19.4836 0.0000 -14.2089
# 5 -23.2873 -10.0653 -17.7926 0.0000 47.3112 0.0000
# 6 0.0000 0.0000 0.0000 -14.2089 0.0000 30.3122
#
#
#
# Elastic Compliance Matrix: (Units=1/GPa)
#
#
# Indices 1 2 3 4 5 6 
#
# 1 0.008097 -0.001052 -0.002203 0.000000 0.002933 0.000000
# 2 -0.001052 0.019007 0.005346 0.000000 0.005536 0.000000
# 3 -0.002203 0.005346 0.021161 0.000000 0.008011 0.000000
# 4 0.000000 0.000000 0.000000 0.077984 0.000000 0.036555
# 5 0.002933 0.005536 0.008011 0.000000 0.026771 0.000000
# 6 0.000000 0.000000 0.000000 0.036555 0.000000 0.050125
#
#
# Mechanical properties :
#
#
# Convention : Reuss Voigt Hill
#
# Bulk Modulus (GPa) = 19.06699 32.81664 25.94182
# Shear Modulus (GPa) = 23.10042 35.21891 29.15966
#
# Velocity S-wave (km/s) = 3.10219 3.83042 3.48537
# Velocity P-wave (km/s) = 4.55792 5.76490 5.19657
#
# Compressibility (1/GPa) = 0.05244667
#
# Stress axis : x y z
#
# Youngs Moduli (GPa) = 123.49823 52.61199 47.25676
#
# Poissons Ratio (x) = 0.05534 0.10412
# Poissons Ratio (y) = 0.12991 -0.25262
# Poissons Ratio (z) = 0.27209 -0.28125
#
# Static dielectric constant tensor:
#      x y z
#    x 1.904160 0.000000 -0.050290 
#    y 0.000000 1.800820 0.000000 
#    z -0.050290 0.000000 2.026970 
# 
# From -- ./inp_files/295899.got.cif
#   From: 2010.05.17/outbox.cif.g08.bks.cpg/sg12_148_cif.got.tgz:295899.got - 2010.06.03 13:09:07.
