data_PCOD9209999
_publ_section_title
;
Structure prediction by ZEFSAII (Michael W. Deem and Ramdas Pophale) SiO2 
 PCOD9209999
Probable space group: C 2/M
;
_chemical_formula_sum "Si O2"
_cell_formula_units_Z 40
_cell_length_a 23.487121
_cell_length_b 9.867179
_cell_length_c 15.206103
_cell_angle_alpha 90.000000
_cell_angle_beta 146.206689
_cell_angle_gamma 90.000000
_cell_volume 1960.065615
_symmetry_space_group_name_H-M "C 2/M"
_symmetry_group_IT_number 12
_symmetry_cell_setting 'monoclinic'
loop_
_space_group_symop_operation_xyz
x,y,z
-x,y,-z
-x,-y,-z
x,-y,z
1/2+x,1/2+y,z
1/2-x,1/2+y,-z
1/2-x,1/2-y,-z
1/2+x,1/2-y,z
loop_
_atom_site_type_symbol
_atom_site_label
_atom_site_fract_x
_atom_site_fract_y
_atom_site_fract_z
Si Si1 0.231159 0.500000 0.595452
Si Si2 0.118814 0.000000 0.628436
Si Si3 0.699871 0.218715 0.704888
Si Si4 0.092274 0.778473 0.916518
Si Si5 0.181547 0.000000 0.906602
Si Si6 0.462938 0.500000 0.851221
Si Si7 0.491381 0.000000 0.728316
Si Si8 0.110667 0.500000 0.716513
O O1 0.223417 0.629696 0.649842
O O2 0.340650 0.500000 0.690092
O O3 0.129012 0.500000 0.406447
O O4 0.149729 0.862427 0.619781
O O5 0.000000 0.000000 0.500000
O O6 0.178012 0.000000 0.797923
O O7 0.627900 0.131033 0.677852
O O8 0.806103 0.236585 0.894056
O O9 0.044635 0.635197 0.831606
O O10 0.012273 0.870345 0.867068
O O11 0.125859 0.866912 0.874523
O O12 0.294856 0.000000 0.092867
O O13 0.500000 0.500000 0.000000
O O14 0.510057 0.000000 0.646548
#
# Coordination Sequence:
#
# PCOD9209999 Si02
#       8
#     4   4   8   8   4   4   4   4
#     4  11  25  40  65  87 122 159 206 257 304 361
#     4  12  25  32  54  87 139 164 190 239 296 350
#     4  10  21  39  58  92 117 166 210 234 291 373
#     4  10  21  39  69  87 115 156 211 249 301 363
#     4   9  19  38  57  89 115 168 202 235 286 370
#     4  11  20  46  70  84 108 165 206 251 313 368
#     4  12  24  35  58  98 125 150 190 267 303 344
#     4   9  19  36  64  79 124 163 198 236 295 365
#
# _framework density 20.40748
#
# number of rings (size 3 to 8) (size 9 to 14) (size 15 to 20)
#    0.000    1.600    2.000    4.200    5.600    4.800 
#    0.000    1.500    0.000    0.000    0.000    0.000 
#    0.000    0.000    0.000    0.000    0.000    0.000 
#
# Total GULP energy -111931.265954 kJ/mol
# GULP energy per Si atom -5596.563298 kJ/mol
# Density = 2.036103 g / cm^3
# Si number density = 20.407480 Si / 1000 Ang^3
#
#
#
# Elastic Constant Matrix: (Units=GPa)
#
#
# Indices 1 2 3 4 5 6 
#
# 1 69.4539 38.8396 9.3731 0.0000 25.5739 0.0000
# 2 38.8396 176.1632 47.0087 0.0000 20.8750 0.0000
# 3 9.3731 47.0087 84.7307 0.0000 21.6216 0.0000
# 4 0.0000 0.0000 0.0000 -43.1893 0.0000 21.2977
# 5 25.5739 20.8750 21.6216 0.0000 36.9837 0.0000
# 6 0.0000 0.0000 0.0000 21.2977 0.0000 5.6874
#
#
#
# Elastic Compliance Matrix: (Units=1/GPa)
#
#
# Indices 1 2 3 4 5 6 
#
# 1 0.021569 -0.003960 0.003581 0.000000 -0.014773 0.000000
# 2 -0.003960 0.007503 -0.003929 0.000000 0.000800 0.000000
# 3 0.003581 -0.003929 0.016046 0.000000 -0.009639 0.000000
# 4 0.000000 0.000000 0.000000 -0.008134 0.000000 0.030459
# 5 -0.014773 0.000800 -0.009639 0.000000 0.042438 0.000000
# 6 0.000000 0.000000 0.000000 0.030459 0.000000 0.061767
#
#
# Mechanical properties :
#
#
# Convention : Reuss Voigt Hill
#
# Bulk Modulus (GPa) = 27.39646 57.86560 42.63103
# Shear Modulus (GPa) = 30.86937 15.57145 23.22041
#
# Velocity S-wave (km/s) = 3.89350 2.76529 3.37685
# Velocity P-wave (km/s) = 5.80227 6.21389 6.01160
#
# Compressibility (1/GPa) = 0.03650106
#
# Stress axis : x y z
#
# Youngs Moduli (GPa) = 46.36255 133.27415 62.32275
#
# Poissons Ratio (x) = 0.52783 -0.22318
# Poissons Ratio (y) = 0.18362 0.24487
# Poissons Ratio (z) = -0.16603 0.52363
#
# Static dielectric constant tensor:
#      x y z
#    x 1.700850 0.000000 -0.003650 
#    y 0.000000 1.710380 0.000000 
#    z -0.003650 0.000000 1.739580 
# 
# From -- ./inp_files/273999.got.cif
#   From: 2010.05.17/outbox.cif.g08.bks.cpg/sg12_137_cif.got.tgz:273999.got - 2010.06.03 13:09:07.
