data_PCOD9209337
_publ_section_title
;
Structure prediction by ZEFSAII (Michael W. Deem and Ramdas Pophale) SiO2 
 PCOD9209337
Probable space group: C 2/M
;
_chemical_formula_sum "Si O2"
_cell_formula_units_Z 40
_cell_length_a 13.480273
_cell_length_b 10.030515
_cell_length_c 14.475062
_cell_angle_alpha 90.000000
_cell_angle_beta 118.226774
_cell_angle_gamma 90.000000
_cell_volume 1724.483108
_symmetry_space_group_name_H-M "C 2/M"
_symmetry_group_IT_number 12
_symmetry_cell_setting 'monoclinic'
loop_
_space_group_symop_operation_xyz
x,y,z
-x,y,-z
-x,-y,-z
x,-y,z
1/2+x,1/2+y,z
1/2-x,1/2+y,-z
1/2-x,1/2-y,-z
1/2+x,1/2-y,z
loop_
_atom_site_type_symbol
_atom_site_label
_atom_site_fract_x
_atom_site_fract_y
_atom_site_fract_z
Si Si1 0.083519 0.842455 0.148042
Si Si2 0.107837 0.860324 0.478934
Si Si3 0.712279 0.844534 0.068486
Si Si4 0.556074 0.281542 0.745933
Si Si5 0.680417 0.857045 0.642497
O O1 0.119200 0.746135 0.079545
O O2 0.199609 0.853761 0.255784
O O3 0.994110 0.766812 0.173866
O O4 0.050058 0.000000 0.115514
O O5 0.177928 0.744865 0.556983
O O6 0.000000 0.864983 0.500000
O O7 0.047197 0.849368 0.353984
O O8 0.170680 0.000000 0.512523
O O9 0.824009 0.852723 0.183372
O O10 0.682123 0.000000 0.032690
O O11 0.750000 0.750000 0.000000
O O12 0.592508 0.170207 0.687622
O O13 0.654297 0.000000 0.591213
#
# Coordination Sequence:
#
# PCOD9209337 Si02
#       5
#     8   8   8   8   8
#     4  10  21  39  62  87 115 150 192 233 278 336
#     4   9  17  31  54  82 114 155 197 230 269 330
#     4  11  24  43  64  86 113 145 186 237 292 345
#     4  10  21  38  62  84 112 155 198 232 275 341
#     4   9  20  36  55  85 123 155 188 236 284 323
#
# _framework density 23.195356
#
# number of rings (size 3 to 8) (size 9 to 14) (size 15 to 20)
#    0.000    2.200    0.000    2.400    0.000   12.400 
#    0.000    3.000    0.000    0.000    0.000    0.000 
#    0.000    0.000    0.000    0.000    0.000    0.000 
#
# Total GULP energy -111399.647559 kJ/mol
# GULP energy per Si atom -5569.982378 kJ/mol
# Density = 2.314256 g / cm^3
# Si number density = 23.195356 Si / 1000 Ang^3
#
#
#
# Elastic Constant Matrix: (Units=GPa)
#
#
# Indices 1 2 3 4 5 6 
#
# 1 118.5959 35.4984 29.3184 0.0000 -45.2602 0.0000
# 2 35.4984 172.8936 53.7982 0.0000 -16.0788 0.0000
# 3 29.3184 53.7982 116.6640 0.0000 -13.7497 0.0000
# 4 0.0000 0.0000 0.0000 24.3925 0.0000 0.6743
# 5 -45.2602 -16.0788 -13.7497 0.0000 55.6759 0.0000
# 6 0.0000 0.0000 0.0000 0.6743 0.0000 -8.8372
#
#
#
# Elastic Compliance Matrix: (Units=1/GPa)
#
#
# Indices 1 2 3 4 5 6 
#
# 1 0.012908 -0.001274 -0.001507 0.000000 0.009753 0.000000
# 2 -0.001274 0.006960 -0.002857 0.000000 0.000268 0.000000
# 3 -0.001507 -0.002857 0.010327 0.000000 0.000500 0.000000
# 4 0.000000 0.000000 0.000000 0.040910 0.000000 0.003122
# 5 0.009753 0.000268 0.000500 0.000000 0.026091 0.000000
# 6 0.000000 0.000000 0.000000 0.003122 0.000000 -0.112920
#
#
# Mechanical properties :
#
#
# Convention : Reuss Voigt Hill
#
# Bulk Modulus (GPa) = 52.86140 71.70928 62.28534
# Shear Modulus (GPa) = 2690.36607 33.54881 1361.95744
#
# Velocity S-wave (km/s) = 34.09385 3.80723 24.25784
# Velocity P-wave (km/s) = 39.65720 7.09289 28.48686
#
# Compressibility (1/GPa) = 0.01891740
#
# Stress axis : x y z
#
# Youngs Moduli (GPa) = 77.47105 143.68529 96.83420
#
# Poissons Ratio (x) = 0.18311 0.14590
# Poissons Ratio (y) = 0.09873 0.27670
# Poissons Ratio (z) = 0.11673 0.41058
#
# Static dielectric constant tensor:
#      x y z
#    x 1.893660 0.000000 -0.004240 
#    y 0.000000 1.937330 0.000000 
#    z -0.004240 0.000000 1.905000 
# 
# From -- ./inp_files/211450.got.cif
#   From: 2010.05.17/outbox.cif.g08.bks.cpg/sg12_106_cif.got.tgz:211450.got - 2010.06.03 13:09:07.
