data_PCOD9209398
_publ_section_title
;
Structure prediction by ZEFSAII (Michael W. Deem and Ramdas Pophale) SiO2 
 PCOD9209398
Probable space group: C 2/M
;
_chemical_formula_sum "Si O2"
_cell_formula_units_Z 56
_cell_length_a 12.323258
_cell_length_b 15.297386
_cell_length_c 27.955141
_cell_angle_alpha 90.000000
_cell_angle_beta 29.365171
_cell_angle_gamma 90.000000
_cell_volume 2584.234678
_symmetry_space_group_name_H-M "C 2/M"
_symmetry_group_IT_number 12
_symmetry_cell_setting 'monoclinic'
loop_
_space_group_symop_operation_xyz
x,y,z
-x,y,-z
-x,-y,-z
x,-y,z
1/2+x,1/2+y,z
1/2-x,1/2+y,-z
1/2-x,1/2-y,-z
1/2+x,1/2-y,z
loop_
_atom_site_type_symbol
_atom_site_label
_atom_site_fract_x
_atom_site_fract_y
_atom_site_fract_z
Si Si1 0.843998 0.719166 0.106646
Si Si2 0.096681 0.398530 0.825186
Si Si3 0.731462 0.595705 0.883807
Si Si4 0.654398 0.279761 0.695235
Si Si5 0.389864 0.596183 0.375388
Si Si6 0.604017 0.162830 0.566296
Si Si7 0.745935 0.100881 0.612790
O O1 0.928298 0.663590 0.119196
O O2 0.810270 0.821181 0.133707
O O3 0.589392 0.693625 0.193105
O O4 0.000000 0.712518 0.000000
O O5 0.070839 0.500000 0.849621
O O6 0.352481 0.388758 0.709859
O O7 0.915196 0.383498 0.853845
O O8 0.778637 0.500000 0.844221
O O9 0.500000 0.588332 0.000000
O O10 0.677387 0.328420 0.635369
O O11 0.683228 0.176605 0.673925
O O12 0.853554 0.313403 0.650644
O O13 0.380144 0.500000 0.355969
O O14 0.223707 0.598098 0.483387
O O15 0.750000 0.250000 0.500000
O O16 0.616528 0.123100 0.614055
O O17 0.000000 0.113267 0.500000
O O18 0.723507 0.000000 0.637235
#
# Coordination Sequence:
#
# PCOD9209398 Si02
#       7
#     8   8   8   8   8   8   8
#     4  10  23  39  63  89 116 157 204 251 301 353
#     4   9  20  39  62  88 121 158 198 244 300 358
#     4   9  19  36  59  86 114 149 198 248 291 346
#     4  11  23  40  61  87 123 155 200 252 295 347
#     4  10  21  38  62  89 119 159 198 238 295 363
#     4  12  22  37  60  88 122 158 190 240 292 353
#     4  11  23  39  59  89 126 163 197 238 297 361
#
# _framework density 21.669858000000001
#
# number of rings (size 3 to 8) (size 9 to 14) (size 15 to 20)
#    0.000    1.714    2.857    0.857    2.000    4.857 
#    0.000    0.000    0.000    4.286    0.000    0.000 
#    0.000    0.000    0.000    0.000    0.000    0.000 
#
# Total GULP energy -156418.652283 kJ/mol
# GULP energy per Si atom -5586.380439 kJ/mol
# Density = 2.162054 g / cm^3
# Si number density = 21.669858 Si / 1000 Ang^3
#
#
#
# Elastic Constant Matrix: (Units=GPa)
#
#
# Indices 1 2 3 4 5 6 
#
# 1 93.5234 67.5906 37.3306 0.0009 -17.6541 -0.0001
# 2 67.5906 145.7504 18.2930 0.0026 3.2203 0.0015
# 3 37.3306 18.2930 121.3751 0.0073 -4.3214 0.0057
# 4 0.0009 0.0026 0.0073 12.8290 -0.0023 -6.4103
# 5 -17.6541 3.2203 -4.3214 -0.0023 30.2892 0.0003
# 6 -0.0001 0.0015 0.0057 -6.4103 0.0003 24.4917
#
#
#
# Elastic Compliance Matrix: (Units=1/GPa)
#
#
# Indices 1 2 3 4 5 6 
#
# 1 0.022523 -0.010126 -0.004921 0.000008 0.013502 0.000004
# 2 -0.010126 0.011570 0.001122 -0.000005 -0.006972 -0.000002
# 3 -0.004921 0.001122 0.009525 -0.000008 -0.001628 -0.000004
# 4 0.000008 -0.000005 -0.000008 0.089676 0.000010 0.023471
# 5 0.013502 -0.006972 -0.001628 0.000010 0.041394 0.000003
# 6 0.000004 -0.000002 -0.000004 0.023471 0.000003 0.046973
#
#
# Mechanical properties :
#
#
# Convention : Reuss Voigt Hill
#
# Bulk Modulus (GPa) = 63.40930 67.45303 65.43117
# Shear Modulus (GPa) = 19.62580 29.35098 24.48839
#
# Velocity S-wave (km/s) = 3.01270 3.68429 3.36529
# Velocity P-wave (km/s) = 6.43637 7.02096 6.73501
#
# Compressibility (1/GPa) = 0.01577056
#
# Stress axis : x y z
#
# Youngs Moduli (GPa) = 44.39810 86.43047 104.98481
#
# Poissons Ratio (x) = 0.87518 0.51659
# Poissons Ratio (y) = 0.44957 -0.11783
# Poissons Ratio (z) = 0.21846 -0.09701
#
# Static dielectric constant tensor:
#      x y z
#    x 1.761070 0.000000 -0.006820 
#    y 0.000000 1.862220 0.000000 
#    z -0.006820 0.000000 1.812230 
# 
# From -- ./inp_files/374215.got.cif
#   From: 2010.05.17/outbox.cif.g08.bks.cpg/sg12_188_cif.got.tgz:374215.got - 2010.06.03 13:09:07.
