data_PCOD9209929
_publ_section_title
;
Structure prediction by ZEFSAII (Michael W. Deem and Ramdas Pophale) SiO2 
 PCOD9209929
Probable space group: C 2/M
;
_chemical_formula_sum "Si O2"
_cell_formula_units_Z 28
_cell_length_a 5.380017
_cell_length_b 12.963793
_cell_length_c 15.505983
_cell_angle_alpha 90.000000
_cell_angle_beta 72.234597
_cell_angle_gamma 90.000000
_cell_volume 1029.900148
_symmetry_space_group_name_H-M "C 2/M"
_symmetry_group_IT_number 12
_symmetry_cell_setting 'monoclinic'
loop_
_space_group_symop_operation_xyz
x,y,z
-x,y,-z
-x,-y,-z
x,-y,z
1/2+x,1/2+y,z
1/2-x,1/2+y,-z
1/2-x,1/2-y,-z
1/2+x,1/2-y,z
loop_
_atom_site_type_symbol
_atom_site_label
_atom_site_fract_x
_atom_site_fract_y
_atom_site_fract_z
Si Si1 0.198607 0.000000 0.561936
Si Si2 0.363002 0.878316 0.211698
Si Si3 0.250940 0.720159 0.379204
Si Si4 0.972488 0.121149 0.097966
O O1 0.500000 0.000000 0.500000
O O2 0.166647 0.898635 0.624156
O O3 0.000000 0.000000 0.500000
O O4 0.296471 0.792883 0.290638
O O5 0.184679 0.850081 0.147983
O O6 0.671613 0.872959 0.159058
O O7 0.316764 0.000000 0.240566
O O8 0.442543 0.777960 0.423179
O O9 0.032983 0.000000 0.081772
O O10 0.000000 0.169641 0.000000
#
# Coordination Sequence:
#
# PCOD9209929 Si02
#       4
#     4   8   8   8
#     4  12  30  56  86 118 153 200 253 310 384 472
#     4  10  21  38  68 108 152 200 258 321 378 449
#     4  12  28  48  82 115 157 201 255 312 384 466
#     4   9  17  33  62 106 155 205 260 321 382 441
#
# _framework density 27.187101999999999
#
# number of rings (size 3 to 8) (size 9 to 14) (size 15 to 20)
#    0.000    1.429    0.000    4.286    4.000    6.857 
#    0.000    0.000    0.000   17.143    0.000    6.000 
#    0.000    0.000    0.000    0.000    0.000    0.000 
#
# Total GULP energy -78398.936257 kJ/mol
# GULP energy per Si atom -5599.924018 kJ/mol
# Density = 2.712522 g / cm^3
# Si number density = 27.187102 Si / 1000 Ang^3
#
#
#
# Elastic Constant Matrix: (Units=GPa)
#
#
# Indices 1 2 3 4 5 6 
#
# 1 258.2573 35.1970 86.6576 0.0000 54.8895 0.0000
# 2 35.1970 231.1670 68.2966 0.0000 31.7858 0.0000
# 3 86.6576 68.2966 153.5434 0.0000 41.0700 0.0000
# 4 0.0000 0.0000 0.0000 35.0974 0.0000 3.6871
# 5 54.8895 31.7858 41.0700 0.0000 52.9008 0.0000
# 6 0.0000 0.0000 0.0000 3.6871 0.0000 19.7230
#
#
#
# Elastic Compliance Matrix: (Units=1/GPa)
#
#
# Indices 1 2 3 4 5 6 
#
# 1 0.005422 0.000375 -0.002097 0.000000 -0.004223 0.000000
# 2 0.000375 0.005117 -0.001970 0.000000 -0.001934 0.000000
# 3 -0.002097 -0.001970 0.009685 0.000000 -0.004159 0.000000
# 4 0.000000 0.000000 0.000000 0.029063 0.000000 -0.005433
# 5 -0.004223 -0.001934 -0.004159 0.000000 0.027676 0.000000
# 6 0.000000 0.000000 0.000000 -0.005433 0.000000 0.051718
#
#
# Mechanical properties :
#
#
# Convention : Reuss Voigt Hill
#
# Bulk Modulus (GPa) = 77.88880 113.69667 95.79273
# Shear Modulus (GPa) = 35.62599 51.73201 43.67900
#
# Velocity S-wave (km/s) = 3.62387 4.36686 4.01260
# Velocity P-wave (km/s) = 6.79863 8.20590 7.53519
#
# Compressibility (1/GPa) = 0.01283882
#
# Stress axis : x y z
#
# Youngs Moduli (GPa) = 184.42106 195.43483 103.24745
#
# Poissons Ratio (x) = -0.07324 0.21655
# Poissons Ratio (y) = -0.06911 0.20342
# Poissons Ratio (z) = 0.38681 0.38505
#
# Static dielectric constant tensor:
#      x y z
#    x 2.201040 0.000000 0.088750 
#    y 0.000000 2.114990 0.000000 
#    z 0.088750 0.000000 2.355270 
# 
# From -- ./inp_files/252205.got.cif
#   From: 2010.05.17/outbox.cif.g08.bks.cpg/sg12_127_cif.got.tgz:252205.got - 2010.06.03 13:09:07.
