data_PCOD9209419
_publ_section_title
;
Structure prediction by ZEFSAII (Michael W. Deem and Ramdas Pophale) SiO2 
 PCOD9209419
Probable space group: C 2/M
;
_chemical_formula_sum "Si O2"
_cell_formula_units_Z 48
_cell_length_a 16.119156
_cell_length_b 8.293705
_cell_length_c 15.263127
_cell_angle_alpha 90.000000
_cell_angle_beta 109.364806
_cell_angle_gamma 90.000000
_cell_volume 1925.052047
_symmetry_space_group_name_H-M "C 2/M"
_symmetry_group_IT_number 12
_symmetry_cell_setting 'monoclinic'
loop_
_space_group_symop_operation_xyz
x,y,z
-x,y,-z
-x,-y,-z
x,-y,z
1/2+x,1/2+y,z
1/2-x,1/2+y,-z
1/2-x,1/2-y,-z
1/2+x,1/2-y,z
loop_
_atom_site_type_symbol
_atom_site_label
_atom_site_fract_x
_atom_site_fract_y
_atom_site_fract_z
Si Si1 0.018462 0.812211 0.696147
Si Si2 0.983362 0.314999 0.869038
Si Si3 0.242583 0.313563 0.355289
Si Si4 0.114695 0.689896 0.473990
Si Si5 0.861721 0.187672 0.974959
Si Si6 0.291639 0.188239 0.196714
O O1 0.974679 0.726547 0.764829
O O2 0.121280 0.786957 0.750854
O O3 0.981759 0.733503 0.594490
O O4 0.997082 0.000000 0.687371
O O5 0.959697 0.500000 0.877714
O O6 0.924927 0.204989 0.911645
O O7 0.084777 0.285879 0.933622
O O8 0.230616 0.500000 0.326948
O O9 0.175143 0.273568 0.409407
O O10 0.338619 0.286910 0.432418
O O11 0.235361 0.207554 0.266200
O O12 0.121081 0.500000 0.495803
O O13 0.767523 0.244885 0.905704
O O14 0.856188 0.000000 0.997990
O O15 0.313712 0.000000 0.192201
#
# Coordination Sequence:
#
# PCOD9209419 Si02
#       6
#     8   8   8   8   8   8
#     4  12  25  40  59  84 118 156 195 239 289 346
#     4  11  22  38  62  89 118 152 193 239 288 343
#     4  10  21  38  62  90 118 151 192 237 287 342
#     4  10  21  39  63  89 118 151 192 240 287 340
#     4  10  21  39  63  89 117 151 194 241 288 340
#     4  11  24  40  59  85 118 155 194 238 290 345
#
# _framework density 24.93439
#
# number of rings (size 3 to 8) (size 9 to 14) (size 15 to 20)
#    0.000    1.333    0.000    7.000    0.000    8.667 
#    0.000    3.333    0.000    0.000    0.000    0.000 
#    0.000    0.000    0.000    0.000    0.000    0.000 
#
# Total GULP energy -134469.842482 kJ/mol
# GULP energy per Si atom -5602.910103 kJ/mol
# Density = 2.487764 g / cm^3
# Si number density = 24.934390 Si / 1000 Ang^3
#
#
#
# Elastic Constant Matrix: (Units=GPa)
#
#
# Indices 1 2 3 4 5 6 
#
# 1 60.5894 -15.0329 2.3971 0.0000 16.0217 0.0000
# 2 -15.0329 64.8052 13.9401 0.0000 -6.4422 0.0000
# 3 2.3971 13.9401 153.1184 0.0000 22.4736 0.0000
# 4 0.0000 0.0000 0.0000 30.9660 0.0000 0.1277
# 5 16.0217 -6.4422 22.4736 0.0000 44.0506 0.0000
# 6 0.0000 0.0000 0.0000 0.1277 0.0000 29.2480
#
#
#
# Elastic Compliance Matrix: (Units=1/GPa)
#
#
# Indices 1 2 3 4 5 6 
#
# 1 0.019157 0.003718 0.000329 0.000000 -0.006592 0.000000
# 2 0.003718 0.016911 -0.001905 0.000000 0.002093 0.000000
# 3 0.000329 -0.001905 0.007305 0.000000 -0.004125 0.000000
# 4 0.000000 0.000000 0.000000 0.032294 0.000000 -0.000141
# 5 -0.006592 0.002093 -0.004125 0.000000 0.027509 0.000000
# 6 0.000000 0.000000 0.000000 -0.000141 0.000000 0.034191
#
#
# Mechanical properties :
#
#
# Convention : Reuss Voigt Hill
#
# Bulk Modulus (GPa) = 20.98347 31.23574 26.10960
# Shear Modulus (GPa) = 33.56411 39.33351 36.44881
#
# Velocity S-wave (km/s) = 3.67290 3.97606 3.82748
# Velocity P-wave (km/s) = 5.14010 5.79940 5.47968
#
# Compressibility (1/GPa) = 0.04765656
#
# Stress axis : x y z
#
# Youngs Moduli (GPa) = 52.20016 59.13274 136.90004
#
# Poissons Ratio (x) = -0.21984 -0.04506
# Poissons Ratio (y) = -0.19407 0.26079
# Poissons Ratio (z) = -0.01718 0.11265
#
# Static dielectric constant tensor:
#      x y z
#    x 2.107040 0.000000 0.018300 
#    y 0.000000 1.809040 0.000000 
#    z 0.018300 0.000000 1.945880 
# 
# From -- ./inp_files/274584.got.cif
#   From: 2010.05.17/outbox.cif.g08.bks.cpg/sg12_138_cif.got.tgz:274584.got - 2010.06.03 13:09:07.
