data_PCOD9209417
_publ_section_title
;
Structure prediction by ZEFSAII (Michael W. Deem and Ramdas Pophale) SiO2 
 PCOD9209417
Probable space group: C 2/M
;
_chemical_formula_sum "Si O2"
_cell_formula_units_Z 56
_cell_length_a 24.172432
_cell_length_b 14.483545
_cell_length_c 9.659594
_cell_angle_alpha 90.000000
_cell_angle_beta 66.661287
_cell_angle_gamma 90.000000
_cell_volume 3105.141590
_symmetry_space_group_name_H-M "C 2/M"
_symmetry_group_IT_number 12
_symmetry_cell_setting 'monoclinic'
loop_
_space_group_symop_operation_xyz
x,y,z
-x,y,-z
-x,-y,-z
x,-y,z
1/2+x,1/2+y,z
1/2-x,1/2+y,-z
1/2-x,1/2-y,-z
1/2+x,1/2-y,z
loop_
_atom_site_type_symbol
_atom_site_label
_atom_site_fract_x
_atom_site_fract_y
_atom_site_fract_z
Si Si1 0.901360 0.749887 0.344845
Si Si2 0.364048 0.890463 0.873732
Si Si3 0.820528 0.745482 0.152119
Si Si4 0.501688 0.109296 0.659369
Si Si5 0.320631 0.745435 0.697519
Si Si6 0.501313 0.609229 0.837524
Si Si7 0.863895 0.109541 0.890163
O O1 0.861682 0.745918 0.246397
O O2 0.945855 0.662908 0.315143
O O3 0.858724 0.754439 0.520133
O O4 0.946352 0.836611 0.291417
O O5 0.436050 0.874809 0.790334
O O6 0.335138 0.837741 0.771611
O O7 0.352799 0.000000 0.883707
O O8 0.338615 0.839328 0.033892
O O9 0.750389 0.739914 0.257659
O O10 0.832955 0.837539 0.049089
O O11 0.500000 0.140053 0.500000
O O12 0.513384 0.000000 0.648215
O O13 0.340702 0.660719 0.776175
O O14 0.513172 0.500000 0.824466
O O15 0.435648 0.625108 0.837040
O O16 0.500000 0.639530 0.000000
O O17 0.852537 0.000000 0.901777
#
# Coordination Sequence:
#
# PCOD9209417 Si02
#       7
#     8   8   8   8   8   8   8
#     4  12  23  38  62  86 125 156 186 240 308 340
#     4  10  21  40  64  87 114 152 198 246 291 341
#     4  11  24  39  58  87 119 158 202 236 281 350
#     4  10  21  38  62  90 117 148 193 243 297 356
#     4  11  24  39  58  87 119 158 202 236 281 350
#     4  10  21  38  62  90 117 148 193 243 297 356
#     4  10  21  40  64  87 114 152 198 246 291 341
#
# _framework density 18.034604000000002
#
# number of rings (size 3 to 8) (size 9 to 14) (size 15 to 20)
#    0.000    1.429    2.857    3.857    0.000    3.429 
#    0.000    2.857    0.000    5.143    0.000    0.000 
#    0.000    0.000    0.000    0.000    0.000    0.000 
#
# Total GULP energy -156468.358776 kJ/mol
# GULP energy per Si atom -5588.155671 kJ/mol
# Density = 1.799356 g / cm^3
# Si number density = 18.034604 Si / 1000 Ang^3
#
#
#
# Elastic Constant Matrix: (Units=GPa)
#
#
# Indices 1 2 3 4 5 6 
#
# 1 58.2379 34.8030 30.6541 0.0000 -34.9990 0.0000
# 2 34.8030 97.2906 28.1012 0.0000 -13.9317 0.0000
# 3 30.6541 28.1012 44.3653 0.0000 -11.1801 0.0000
# 4 0.0000 0.0000 0.0000 10.3427 0.0000 0.9178
# 5 -34.9990 -13.9317 -11.1801 0.0000 25.5500 0.0000
# 6 0.0000 0.0000 0.0000 0.9178 0.0000 10.1468
#
#
#
# Elastic Compliance Matrix: (Units=1/GPa)
#
#
# Indices 1 2 3 4 5 6 
#
# 1 0.272403 -0.025218 -0.091798 0.000000 0.319225 0.000000
# 2 -0.025218 0.015250 0.001298 0.000000 -0.025660 0.000000
# 3 -0.091798 0.001298 0.060283 0.000000 -0.098661 0.000000
# 4 0.000000 0.000000 0.000000 0.097469 0.000000 -0.008816
# 5 0.319225 -0.025660 -0.098661 0.000000 0.419257 0.000000
# 6 0.000000 0.000000 0.000000 -0.008816 0.000000 0.099351
#
#
# Mechanical properties :
#
#
# Convention : Reuss Voigt Hill
#
# Bulk Modulus (GPa) = 8.58364 43.00114 25.79239
# Shear Modulus (GPa) = 4.05094 16.29694 10.17394
#
# Velocity S-wave (km/s) = 1.50036 3.00934 2.37773
# Velocity P-wave (km/s) = 2.78771 5.99752 4.67662
#
# Compressibility (1/GPa) = 0.11650076
#
# Stress axis : x y z
#
# Youngs Moduli (GPa) = 3.67103 65.57410 16.58848
#
# Poissons Ratio (x) = 1.65363 1.52279
# Poissons Ratio (y) = 0.09257 -0.02154
# Poissons Ratio (z) = 0.33699 -0.08513
#
# Static dielectric constant tensor:
#      x y z
#    x 1.604330 0.000000 -0.005030 
#    y 0.000000 1.621140 0.000000 
#    z -0.005030 0.000000 1.599600 
# 
# From -- ./inp_files/96762.got.cif
#   From: 2010.05.17/outbox.cif.g08.bks.cpg/sg12_49_cif.got.tgz:96762.got - 2010.06.03 13:09:07.
