data_PCOD9209095
_publ_section_title
;
Structure prediction by ZEFSAII (Michael W. Deem and Ramdas Pophale) SiO2 
 PCOD9209095
Probable space group: C 2/M
;
_chemical_formula_sum "Si O2"
_cell_formula_units_Z 56
_cell_length_a 30.462966
_cell_length_b 9.231671
_cell_length_c 13.417291
_cell_angle_alpha 90.000000
_cell_angle_beta 50.913383
_cell_angle_gamma 90.000000
_cell_volume 2928.784756
_symmetry_space_group_name_H-M "C 2/M"
_symmetry_group_IT_number 12
_symmetry_cell_setting 'monoclinic'
loop_
_space_group_symop_operation_xyz
x,y,z
-x,y,-z
-x,-y,-z
x,-y,z
1/2+x,1/2+y,z
1/2-x,1/2+y,-z
1/2-x,1/2-y,-z
1/2+x,1/2-y,z
loop_
_atom_site_type_symbol
_atom_site_label
_atom_site_fract_x
_atom_site_fract_y
_atom_site_fract_z
Si Si1 0.918080 0.334763 0.160638
Si Si2 0.008936 0.332732 0.741355
Si Si3 0.192479 0.671359 0.554633
Si Si4 0.811300 0.670818 0.024840
Si Si5 0.380025 0.825083 0.535852
Si Si6 0.679408 0.671314 0.199584
Si Si7 0.411195 0.329170 0.976206
O O1 0.921982 0.500000 0.115299
O O2 0.957606 0.327827 0.201101
O O3 0.855140 0.308265 0.292517
O O4 0.932169 0.223055 0.054320
O O5 0.991713 0.500000 0.749449
O O6 0.056257 0.292363 0.592259
O O7 0.954968 0.231718 0.831563
O O8 0.203120 0.500000 0.531998
O O9 0.250000 0.750000 0.500000
O O10 0.162829 0.716036 0.492962
O O11 0.823734 0.500000 0.003646
O O12 0.823483 0.745160 0.900951
O O13 0.851404 0.750853 0.045039
O O14 0.744676 0.688187 0.141708
O O15 0.361444 0.742696 0.661110
O O16 0.376527 0.000000 0.552883
O O17 0.668769 0.500000 0.201295
O O18 0.406082 0.500000 0.977343
#
# Coordination Sequence:
#
# PCOD9209095 Si02
#       7
#     8   8   8   8   8   8   8
#     4   9  19  36  55  76 109 152 192 225 270 332
#     4   9  19  38  59  79 109 152 193 226 268 332
#     4   9  19  33  50  77 111 145 185 227 266 319
#     4  10  22  40  60  82 111 147 184 223 274 338
#     4   9  19  36  58  81 109 148 185 220 274 336
#     4  10  21  38  61  87 112 140 179 229 281 328
#     4  12  24  35  54  84 115 144 185 239 282 319
#
# _framework density 19.120560000000001
#
# number of rings (size 3 to 8) (size 9 to 14) (size 15 to 20)
#    0.000    2.286    0.000    4.286    2.000    5.714 
#    0.000    3.571    0.000    4.286    0.000    0.000 
#    0.000    0.000    0.000    0.000    0.000    0.000 
#
# Total GULP energy -156357.244914 kJ/mol
# GULP energy per Si atom -5584.187318 kJ/mol
# Density = 1.907704 g / cm^3
# Si number density = 19.120560 Si / 1000 Ang^3
#
#
#
# Elastic Constant Matrix: (Units=GPa)
#
#
# Indices 1 2 3 4 5 6 
#
# 1 18.8614 13.1712 -9.4268 0.0000 -6.8036 0.0000
# 2 13.1712 82.6962 35.8182 0.0000 -5.8737 0.0000
# 3 -9.4268 35.8182 63.5630 0.0000 6.1946 0.0000
# 4 0.0000 0.0000 0.0000 26.1712 0.0000 -5.4302
# 5 -6.8036 -5.8737 6.1946 0.0000 13.4876 0.0000
# 6 0.0000 0.0000 0.0000 -5.4302 0.0000 22.9950
#
#
#
# Elastic Compliance Matrix: (Units=1/GPa)
#
#
# Indices 1 2 3 4 5 6 
#
# 1 0.089665 -0.022866 0.023811 0.000000 0.024336 0.000000
# 2 -0.022866 0.023783 -0.017460 0.000000 0.006841 0.000000
# 3 0.023811 -0.017460 0.030016 0.000000 -0.009378 0.000000
# 4 0.000000 0.000000 0.000000 0.040179 0.000000 0.009488
# 5 0.024336 0.006841 -0.009378 0.000000 0.093704 0.000000
# 6 0.000000 0.000000 0.000000 0.009488 0.000000 0.045728
#
#
# Mechanical properties :
#
#
# Convention : Reuss Voigt Hill
#
# Bulk Modulus (GPa) = 9.05508 27.13845 18.09676
# Shear Modulus (GPa) = 12.72539 20.90130 16.81334
#
# Velocity S-wave (km/s) = 2.58259 3.30984 2.96857
# Velocity P-wave (km/s) = 3.69312 5.36944 4.60814
#
# Compressibility (1/GPa) = 0.11043527
#
# Stress axis : x y z
#
# Youngs Moduli (GPa) = 11.15263 42.04756 33.31518
#
# Poissons Ratio (x) = 0.96146 -0.79328
# Poissons Ratio (y) = 0.25502 0.58167
# Poissons Ratio (z) = -0.26556 0.73413
#
# Static dielectric constant tensor:
#      x y z
#    x 1.687600 0.000000 -0.000170 
#    y 0.000000 1.632470 0.000000 
#    z -0.000170 0.000000 1.665430 
# 
# From -- ./inp_files/187210.got.cif
#   From: 2010.05.17/outbox.cif.g08.bks.cpg/sg12_94_cif.got.tgz:187210.got - 2010.06.03 13:09:07.
