data_PCOD9209485
_publ_section_title
;
Structure prediction by ZEFSAII (Michael W. Deem and Ramdas Pophale) SiO2 
 PCOD9209485
Probable space group: C 2/M
;
_chemical_formula_sum "Si O2"
_cell_formula_units_Z 40
_cell_length_a 5.409258
_cell_length_b 18.458492
_cell_length_c 17.453609
_cell_angle_alpha 90.000000
_cell_angle_beta 90.002428
_cell_angle_gamma 90.000000
_cell_volume 1742.686055
_symmetry_space_group_name_H-M "C 2/M"
_symmetry_group_IT_number 12
_symmetry_cell_setting 'monoclinic'
loop_
_space_group_symop_operation_xyz
x,y,z
-x,y,-z
-x,-y,-z
x,-y,z
1/2+x,1/2+y,z
1/2-x,1/2+y,-z
1/2-x,1/2-y,-z
1/2+x,1/2-y,z
loop_
_atom_site_type_symbol
_atom_site_label
_atom_site_fract_x
_atom_site_fract_y
_atom_site_fract_z
Si Si1 0.499998 0.917783 0.407451
Si Si2 0.000001 0.827870 0.589962
Si Si3 0.500158 0.412298 0.087010
Si Si4 0.499978 0.779910 0.269732
Si Si5 0.999836 0.413708 0.821295
O O1 0.500000 0.923533 0.500000
O O2 0.242499 0.875621 0.393249
O O3 0.757509 0.875628 0.393256
O O4 0.499981 0.000000 0.376837
O O5 0.000000 0.806243 0.500000
O O6 0.000029 0.759574 0.646979
O O7 0.500160 0.500000 0.082569
O O8 0.752420 0.394494 0.131604
O O9 0.248015 0.394497 0.131664
O O10 0.500000 0.384190 0.000000
O O11 0.749953 0.749984 0.232797
O O12 0.500053 0.865581 0.255247
O O13 0.999861 0.500000 0.807782
#
# Coordination Sequence:
#
# PCOD9209485 Si02
#       5
#     8   8   8   8   8
#     4   9  17  33  59  91 126 159 200 265 337 396
#     4  10  21  38  62  92 123 165 221 275 332 389
#     4   9  17  33  65 106 135 160 207 267 318 367
#     4  12  26  44  64  88 126 175 219 263 320 384
#     4  10  21  40  66  94 130 174 215 260 313 376
#
# _framework density 22.953071000000001
#
# number of rings (size 3 to 8) (size 9 to 14) (size 15 to 20)
#    0.000    2.000    0.000    3.600    0.000    5.600 
#    0.000    6.000    0.000   12.600    0.000    0.000 
#    0.000    9.600    0.000    0.000    0.000    0.000 
#
# Total GULP energy -111748.769487 kJ/mol
# GULP energy per Si atom -5587.438474 kJ/mol
# Density = 2.290083 g / cm^3
# Si number density = 22.953071 Si / 1000 Ang^3
#
#
#
# Elastic Constant Matrix: (Units=GPa)
#
#
# Indices 1 2 3 4 5 6 
#
# 1 259.6682 84.4536 78.6036 0.0000 -8.1146 0.0000
# 2 84.4536 169.8793 67.9211 0.0000 -1.2407 0.0000
# 3 78.6036 67.9211 142.2809 0.0000 -1.2388 0.0000
# 4 0.0000 0.0000 0.0000 35.1257 0.0000 1.6522
# 5 -8.1146 -1.2407 -1.2388 0.0000 41.5948 0.0000
# 6 0.0000 0.0000 0.0000 1.6522 0.0000 15.1904
#
#
#
# Elastic Compliance Matrix: (Units=1/GPa)
#
#
# Indices 1 2 3 4 5 6 
#
# 1 0.005026 -0.001712 -0.001952 0.000000 0.000871 0.000000
# 2 -0.001712 0.007859 -0.002807 0.000000 -0.000183 0.000000
# 3 -0.001952 -0.002807 0.009445 0.000000 -0.000183 0.000000
# 4 0.000000 0.000000 0.000000 0.028616 0.000000 -0.003112
# 5 0.000871 -0.000183 -0.000183 0.000000 0.024201 0.000000
# 6 0.000000 0.000000 0.000000 -0.003112 0.000000 0.066170
#
#
# Mechanical properties :
#
#
# Convention : Reuss Voigt Hill
#
# Bulk Modulus (GPa) = 106.52245 114.86501 110.69373
# Shear Modulus (GPa) = 31.76885 41.10552 36.43718
#
# Velocity S-wave (km/s) = 3.72436 4.23644 3.98862
# Velocity P-wave (km/s) = 8.06251 8.60708 8.33924
#
# Compressibility (1/GPa) = 0.00938769
#
# Stress axis : x y z
#
# Youngs Moduli (GPa) = 198.97062 127.24801 105.87373
#
# Poissons Ratio (x) = 0.21783 0.20664
# Poissons Ratio (y) = 0.34060 0.29723
# Poissons Ratio (z) = 0.38835 0.35724
#
# Static dielectric constant tensor:
#      x y z
#    x 1.855820 0.000000 0.006620 
#    y 0.000000 1.884240 0.000000 
#    z 0.006620 0.000000 1.933430 
# 
# From -- ./inp_files/252545.got.cif
#   From: 2010.05.17/outbox.cif.g08.bks.cpg/sg12_127_cif.got.tgz:252545.got - 2010.06.03 13:09:07.
