data_PCOD9209099
_publ_section_title
;
Structure prediction by ZEFSAII (Michael W. Deem and Ramdas Pophale) SiO2 
 PCOD9209099
Probable space group: C 2/M
;
_chemical_formula_sum "Si O2"
_cell_formula_units_Z 56
_cell_length_a 18.739783
_cell_length_b 7.700487
_cell_length_c 26.923295
_cell_angle_alpha 90.000000
_cell_angle_beta 147.239174
_cell_angle_gamma 90.000000
_cell_volume 2102.399672
_symmetry_space_group_name_H-M "C 2/M"
_symmetry_group_IT_number 12
_symmetry_cell_setting 'monoclinic'
loop_
_space_group_symop_operation_xyz
x,y,z
-x,y,-z
-x,-y,-z
x,-y,z
1/2+x,1/2+y,z
1/2-x,1/2+y,-z
1/2-x,1/2-y,-z
1/2+x,1/2-y,z
loop_
_atom_site_type_symbol
_atom_site_label
_atom_site_fract_x
_atom_site_fract_y
_atom_site_fract_z
Si Si1 0.483139 0.706341 0.256001
Si Si2 0.281183 0.292216 0.337806
Si Si3 0.354355 0.306203 0.894189
Si Si4 0.026589 0.704643 0.139591
Si Si5 0.247738 0.697945 0.062551
Si Si6 0.473555 0.793113 0.359885
Si Si7 0.725464 0.797733 0.559481
O O1 0.491224 0.500000 0.250932
O O2 0.391287 0.781726 0.157764
O O3 0.426958 0.727921 0.279167
O O4 0.629581 0.782958 0.349106
O O5 0.274153 0.500000 0.338631
O O6 0.131953 0.221800 0.240593
O O7 0.374633 0.251987 0.346224
O O8 0.333979 0.215835 0.420012
O O9 0.292665 0.500000 0.853413
O O10 0.385352 0.224734 0.859190
O O11 0.297538 0.196280 0.906343
O O12 0.500000 0.334408 0.000000
O O13 0.010025 0.500000 0.137702
O O14 0.877383 0.775264 0.041147
O O15 0.262375 0.500000 0.054378
O O16 0.619021 0.721615 0.459256
O O17 0.484411 0.000000 0.364212
O O18 0.744422 0.000000 0.558067
#
# Coordination Sequence:
#
# PCOD9209099 Si02
#       7
#     8   8   8   8   8   8   8
#     4  10  21  38  61  87 114 148 190 232 278 337
#     4  11  23  38  59  86 115 150 192 235 279 333
#     4   9  16  25  41  69 103 137 176 223 270 313
#     4   9  18  32  49  73 107 145 183 222 268 324
#     4   9  17  31  51  74 105 145 183 220 267 326
#     4  11  23  39  61  87 115 147 185 235 291 341
#     4  10  23  42  60  82 115 151 187 233 289 341
#
# _framework density 26.636229
#
# number of rings (size 3 to 8) (size 9 to 14) (size 15 to 20)
#    0.000    2.143    0.000    3.000    0.000   10.286 
#    0.000    0.714    0.000    0.000    0.000    0.000 
#    0.000    0.000    0.000    0.000    0.000    0.000 
#
# Total GULP energy -156439.826346 kJ/mol
# GULP energy per Si atom -5587.136655 kJ/mol
# Density = 2.657560 g / cm^3
# Si number density = 26.636229 Si / 1000 Ang^3
#
#
#
# Elastic Constant Matrix: (Units=GPa)
#
#
# Indices 1 2 3 4 5 6 
#
# 1 86.9229 19.1902 17.8813 0.0000 -8.0715 0.0000
# 2 19.1902 97.2263 10.7786 0.0000 1.6073 0.0000
# 3 17.8813 10.7786 202.5096 0.0000 -19.6802 -0.0001
# 4 0.0000 0.0000 0.0000 16.7311 0.0000 -1.0672
# 5 -8.0715 1.6073 -19.6802 0.0000 44.0347 0.0000
# 6 0.0000 0.0000 -0.0001 -1.0672 0.0000 28.1901
#
#
#
# Elastic Compliance Matrix: (Units=1/GPa)
#
#
# Indices 1 2 3 4 5 6 
#
# 1 0.012378 -0.002391 -0.000770 0.000000 0.002012 0.000000
# 2 -0.002391 0.010826 -0.000466 0.000000 -0.001042 0.000000
# 3 -0.000770 -0.000466 0.005247 0.000000 0.002221 0.000000
# 4 0.000000 0.000000 0.000000 0.059914 0.000000 0.002268
# 5 0.002012 -0.001042 0.002221 0.000000 0.024109 0.000000
# 6 0.000000 0.000000 0.000000 0.002268 0.000000 0.035559
#
#
# Mechanical properties :
#
#
# Convention : Reuss Voigt Hill
#
# Bulk Modulus (GPa) = 47.17981 53.59544 50.38762
# Shear Modulus (GPa) = 30.79728 40.37842 35.58785
#
# Velocity S-wave (km/s) = 3.40401 3.89771 3.65919
# Velocity P-wave (km/s) = 5.76201 6.35776 6.06720
#
# Compressibility (1/GPa) = 0.02119551
#
# Stress axis : x y z
#
# Youngs Moduli (GPa) = 80.79148 92.36918 190.59688
#
# Poissons Ratio (x) = 0.22085 0.14679
# Poissons Ratio (y) = 0.19317 0.08889
# Poissons Ratio (z) = 0.06222 0.04308
#
# Static dielectric constant tensor:
#      x y z
#    x 2.222140 0.000000 0.092130 
#    y 0.000000 2.029400 0.000000 
#    z 0.092130 0.000000 2.161880 
# 
# From -- ./inp_files/380771.got.cif
#   From: 2010.05.17/outbox.cif.g08.bks.cpg/sg12_191_cif.got.tgz:380771.got - 2010.06.03 13:09:07.
