data_PCOD9209499
_publ_section_title
;
Structure prediction by ZEFSAII (Michael W. Deem and Ramdas Pophale) SiO2 
 PCOD9209499
Probable space group: C 2/M
;
_chemical_formula_sum "Si O2"
_cell_formula_units_Z 64
_cell_length_a 24.979122
_cell_length_b 8.554442
_cell_length_c 15.044952
_cell_angle_alpha 90.000000
_cell_angle_beta 108.543860
_cell_angle_gamma 90.000000
_cell_volume 3047.929145
_symmetry_space_group_name_H-M "C 2/M"
_symmetry_group_IT_number 12
_symmetry_cell_setting 'monoclinic'
loop_
_space_group_symop_operation_xyz
x,y,z
-x,y,-z
-x,-y,-z
x,-y,z
1/2+x,1/2+y,z
1/2-x,1/2+y,-z
1/2-x,1/2-y,-z
1/2+x,1/2-y,z
loop_
_atom_site_type_symbol
_atom_site_label
_atom_site_fract_x
_atom_site_fract_y
_atom_site_fract_z
Si Si1 0.846443 0.316738 0.859108
Si Si2 0.671796 0.683266 0.597751
Si Si3 0.292756 0.684807 0.660156
Si Si4 0.512629 0.315249 0.723404
Si Si5 0.033667 0.184330 0.108458
Si Si6 0.186154 0.187251 0.968379
Si Si7 0.632788 0.816033 0.759754
Si Si8 0.605244 0.184545 0.405424
O O1 0.832833 0.500000 0.850697
O O2 0.805926 0.226630 0.769565
O O3 0.910149 0.286606 0.860094
O O4 0.841144 0.249319 0.955089
O O5 0.663288 0.500000 0.578845
O O6 0.734878 0.731294 0.602827
O O7 0.663729 0.727608 0.696083
O O8 0.626886 0.778084 0.515604
O O9 0.286903 0.500000 0.645498
O O10 0.346027 0.746042 0.632439
O O11 0.522715 0.500000 0.715585
O O12 0.503719 0.287340 0.824207
O O13 0.566259 0.220076 0.718174
O O14 0.454234 0.265251 0.646960
O O15 0.050262 0.000000 0.119026
O O16 0.000000 0.212903 0.000000
O O17 0.154093 0.251961 0.865385
O O18 0.185279 0.000000 0.966925
O O19 0.250000 0.250000 0.000000
O O20 0.644061 0.000000 0.759258
O O21 0.600586 0.000000 0.388116
#
# Coordination Sequence:
#
# PCOD9209499 Si02
#       8
#     8   8   8   8   8   8   8   8
#     4  12  24  39  63  96 131 170 218 268 327 390
#     4  12  26  46  70  98 131 174 225 277 338 403
#     4  12  24  43  68  99 137 176 220 275 338 402
#     4  11  23  42  68  98 136 179 223 273 333 397
#     4  10  21  38  62  92 128 169 215 264 323 387
#     4  12  25  44  67  95 133 177 225 275 332 396
#     4  12  26  46  69  99 136 176 225 279 334 397
#     4  12  25  44  69 101 136 174 222 278 337 396
#
# _framework density 20.997864
#
# number of rings (size 3 to 8) (size 9 to 14) (size 15 to 20)
#    0.000    0.375    1.250    9.000    0.000    2.250 
#    0.000    2.500    0.000    0.000    0.000    0.000 
#    0.000    0.000    0.000    0.000    0.000    0.000 
#
# Total GULP energy -179316.257180 kJ/mol
# GULP energy per Si atom -5603.633037 kJ/mol
# Density = 2.095007 g / cm^3
# Si number density = 20.997864 Si / 1000 Ang^3
#
#
#
# Elastic Constant Matrix: (Units=GPa)
#
#
# Indices 1 2 3 4 5 6 
#
# 1 69.6819 1.0910 -9.1680 0.0000 5.6497 0.0000
# 2 1.0910 73.6938 -13.8620 0.0000 -3.3810 0.0000
# 3 -9.1680 -13.8620 59.5974 0.0000 -1.1730 0.0000
# 4 0.0000 0.0000 0.0000 33.8579 0.0000 2.1603
# 5 5.6497 -3.3810 -1.1730 0.0000 29.6023 0.0000
# 6 0.0000 0.0000 0.0000 2.1603 0.0000 39.1038
#
#
#
# Elastic Compliance Matrix: (Units=1/GPa)
#
#
# Indices 1 2 3 4 5 6 
#
# 1 0.014868 0.000078 0.002251 0.000000 -0.002740 0.000000
# 2 0.000078 0.014282 0.003368 0.000000 0.001750 0.000000
# 3 0.002251 0.003368 0.017922 0.000000 0.000665 0.000000
# 4 0.000000 0.000000 0.000000 0.029640 0.000000 -0.001637
# 5 -0.002740 0.001750 0.000665 0.000000 0.034530 0.000000
# 6 0.000000 0.000000 0.000000 -0.001637 0.000000 0.025663
#
#
# Mechanical properties :
#
#
# Convention : Reuss Voigt Hill
#
# Bulk Modulus (GPa) = 17.10354 17.67722 17.39038
# Shear Modulus (GPa) = 34.48271 35.50694 34.99483
#
# Velocity S-wave (km/s) = 4.05680 4.11661 4.08682
# Velocity P-wave (km/s) = 5.48695 5.57065 5.52896
#
# Compressibility (1/GPa) = 0.05846742
#
# Stress axis : x y z
#
# Youngs Moduli (GPa) = 67.25835 70.01624 55.79688
#
# Poissons Ratio (x) = -0.00544 -0.12562
# Poissons Ratio (y) = -0.00522 -0.18795
# Poissons Ratio (z) = -0.15142 -0.23584
#
# Static dielectric constant tensor:
#      x y z
#    x 1.760900 0.000000 -0.021620 
#    y 0.000000 1.702320 0.000000 
#    z -0.021620 0.000000 1.759770 
# 
# From -- ./inp_files/244263.got.cif
#   From: 2010.05.17/outbox.cif.g08.bks.cpg/sg12_123_cif.got.tgz:244263.got - 2010.06.03 13:09:07.
