data_PCOD9209756
_publ_section_title
;
Structure prediction by ZEFSAII (Michael W. Deem and Ramdas Pophale) SiO2 
 PCOD9209756
Probable space group: C 2/M
;
_chemical_formula_sum "Si O2"
_cell_formula_units_Z 48
_cell_length_a 12.531893
_cell_length_b 29.149671
_cell_length_c 8.434842
_cell_angle_alpha 90.000000
_cell_angle_beta 52.173139
_cell_angle_gamma 90.000000
_cell_volume 2433.781468
_symmetry_space_group_name_H-M "C 2/M"
_symmetry_group_IT_number 12
_symmetry_cell_setting 'monoclinic'
loop_
_space_group_symop_operation_xyz
x,y,z
-x,y,-z
-x,-y,-z
x,-y,z
1/2+x,1/2+y,z
1/2-x,1/2+y,-z
1/2-x,1/2-y,-z
1/2+x,1/2-y,z
loop_
_atom_site_type_symbol
_atom_site_label
_atom_site_fract_x
_atom_site_fract_y
_atom_site_fract_z
Si Si1 0.970532 0.855661 0.335817
Si Si2 0.216800 0.699443 0.602491
Si Si3 0.723217 0.699268 0.077568
Si Si4 0.462678 0.145300 0.716766
Si Si5 0.419531 0.550704 0.740942
Si Si6 0.401451 0.948275 0.938407
O O1 0.071103 0.816438 0.186398
O O2 0.013898 0.905569 0.234429
O O3 0.000000 0.857591 0.500000
O O4 0.820929 0.838512 0.439295
O O5 0.250000 0.750000 0.500000
O O6 0.243709 0.698368 0.765814
O O7 0.069157 0.679265 0.705095
O O8 0.750000 0.750000 0.000000
O O9 0.817913 0.665511 0.893378
O O10 0.500000 0.147358 0.500000
O O11 0.456343 0.092878 0.780959
O O12 0.500000 0.548226 0.500000
O O13 0.434411 0.500000 0.801294
O O14 0.257547 0.559328 0.870405
O O15 0.408298 0.000000 0.863351
O O16 0.500000 0.947745 0.000000
#
# Coordination Sequence:
#
# PCOD9209756 Si02
#       6
#     8   8   8   8   8   8
#     4   9  19  34  56  86 114 148 189 245 307 357
#     4  11  23  40  61  89 121 157 201 256 308 367
#     4  11  21  38  63  87 119 154 201 254 308 369
#     4  12  25  40  58  86 125 169 207 247 302 364
#     4   9  17  32  58  91 121 146 185 244 308 366
#     4  10  21  38  64  94 120 155 206 258 312 371
#
# _framework density 19.722394000000001
#
# number of rings (size 3 to 8) (size 9 to 14) (size 15 to 20)
#    0.000    1.667    1.667    3.500    4.667    1.667 
#    0.000    2.500    0.000    0.000    0.000    2.333 
#    0.000    0.000    0.000    0.000    0.000    0.000 
#
# Total GULP energy -133839.132572 kJ/mol
# GULP energy per Si atom -5576.630524 kJ/mol
# Density = 1.967751 g / cm^3
# Si number density = 19.722394 Si / 1000 Ang^3
#
#
#
# Elastic Constant Matrix: (Units=GPa)
#
#
# Indices 1 2 3 4 5 6 
#
# 1 13.2012 -5.7468 6.9113 0.0000 -6.9100 0.0000
# 2 -5.7468 130.5161 16.1420 0.0000 3.0813 0.0000
# 3 6.9113 16.1420 63.7427 0.0000 -0.8646 0.0000
# 4 0.0000 0.0000 0.0000 41.2939 0.0000 -8.1181
# 5 -6.9100 3.0813 -0.8646 0.0000 28.0232 0.0000
# 6 0.0000 0.0000 0.0000 -8.1181 0.0000 22.1087
#
#
#
# Elastic Compliance Matrix: (Units=1/GPa)
#
#
# Indices 1 2 3 4 5 6 
#
# 1 0.095806 0.005088 -0.011368 0.000000 0.022714 0.000000
# 2 0.005088 0.008204 -0.002626 0.000000 0.000272 0.000000
# 3 -0.011368 -0.002626 0.017559 0.000000 -0.001973 0.000000
# 4 0.000000 0.000000 0.000000 0.026101 0.000000 0.009584
# 5 0.022714 0.000272 -0.001973 0.000000 0.041195 0.000000
# 6 0.000000 0.000000 0.000000 0.009584 0.000000 0.048750
#
#
# Mechanical properties :
#
#
# Convention : Reuss Voigt Hill
#
# Bulk Modulus (GPa) = 9.63780 26.89702 18.26741
# Shear Modulus (GPa) = 17.24064 30.96207 24.10135
#
# Velocity S-wave (km/s) = 2.95984 3.96649 3.49955
# Velocity P-wave (km/s) = 4.07163 5.88598 5.06078
#
# Compressibility (1/GPa) = 0.10375813
#
# Stress axis : x y z
#
# Youngs Moduli (GPa) = 10.43772 121.88807 56.95147
#
# Poissons Ratio (x) = -0.62019 0.64744
# Poissons Ratio (y) = -0.05311 0.14953
# Poissons Ratio (z) = 0.11866 0.32003
#
# Static dielectric constant tensor:
#      x y z
#    x 1.685840 0.000000 0.005830 
#    y 0.000000 1.697000 0.000000 
#    z 0.005830 0.000000 1.693280 
# 
# From -- ./inp_files/67332.got.cif
#   From: 2010.05.17/outbox.cif.g08.bks.cpg/sg12_34_cif.got.tgz:67332.got - 2010.06.03 13:09:07.
