data_PCOD9209842
_publ_section_title
;
Structure prediction by ZEFSAII (Michael W. Deem and Ramdas Pophale) SiO2 
 PCOD9209842
Probable space group: C 2/M
;
_chemical_formula_sum "Si O2"
_cell_formula_units_Z 56
_cell_length_a 23.360098
_cell_length_b 14.241186
_cell_length_c 9.403761
_cell_angle_alpha 90.000000
_cell_angle_beta 121.719808
_cell_angle_gamma 90.000000
_cell_volume 2661.109764
_symmetry_space_group_name_H-M "C 2/M"
_symmetry_group_IT_number 12
_symmetry_cell_setting 'monoclinic'
loop_
_space_group_symop_operation_xyz
x,y,z
-x,y,-z
-x,-y,-z
x,-y,z
1/2+x,1/2+y,z
1/2-x,1/2+y,-z
1/2-x,1/2-y,-z
1/2+x,1/2-y,z
loop_
_atom_site_type_symbol
_atom_site_label
_atom_site_fract_x
_atom_site_fract_y
_atom_site_fract_z
Si Si1 0.851955 0.390301 0.716607
Si Si2 0.940410 0.392468 0.305812
Si Si3 0.794218 0.105717 0.612345
Si Si4 0.479786 0.770141 0.809670
Si Si5 0.152196 0.770194 0.763747
Si Si6 0.917214 0.891631 0.553411
Si Si7 0.805277 0.255326 0.870238
O O1 0.869571 0.500000 0.738387
O O2 0.780779 0.377105 0.543900
O O3 0.910068 0.328510 0.722122
O O4 0.838831 0.350702 0.857459
O O5 0.923819 0.500000 0.251265
O O6 0.878635 0.333991 0.289794
O O7 0.000000 0.391426 0.500000
O O8 0.968209 0.335489 0.206901
O O9 0.848435 0.109800 0.556859
O O10 0.812575 0.181230 0.753671
O O11 0.795988 0.000000 0.673792
O O12 0.468331 0.674569 0.706915
O O13 0.500000 0.753357 0.000000
O O14 0.102559 0.841772 0.620154
O O15 0.226595 0.773493 0.795460
O O16 0.162152 0.784838 0.944527
O O17 0.938161 0.000000 0.565094
#
# Coordination Sequence:
#
# PCOD9209842 Si02
#       7
#     8   8   8   8   8   8   8
#     4  11  22  39  68  99 131 167 209 265 325 380
#     4  11  25  44  65  92 130 174 216 257 310 384
#     4  10  21  38  65  95 125 163 212 267 321 376
#     4  12  25  43  68  95 129 169 217 267 315 377
#     4  11  24  41  63  92 133 173 209 261 324 381
#     4  11  23  44  68  91 126 168 215 270 325 378
#     4  11  22  38  64  97 130 166 211 266 321 382
#
# _framework density 21.043851
#
# number of rings (size 3 to 8) (size 9 to 14) (size 15 to 20)
#    0.000    1.000    4.286    2.571    0.000    4.286 
#    0.000    4.286    0.000    0.000    0.000    0.000 
#    0.000    0.000    0.000    0.000    0.000    0.000 
#
# Total GULP energy -156662.963423 kJ/mol
# GULP energy per Si atom -5595.105837 kJ/mol
# Density = 2.099595 g / cm^3
# Si number density = 21.043851 Si / 1000 Ang^3
#
#
#
# Elastic Constant Matrix: (Units=GPa)
#
#
# Indices 1 2 3 4 5 6 
#
# 1 53.2896 24.2689 -5.0628 0.0000 3.0374 0.0000
# 2 24.2689 168.4851 69.7662 0.0000 -1.2920 0.0000
# 3 -5.0628 69.7662 109.7365 0.0000 -10.2781 0.0000
# 4 0.0000 0.0000 0.0000 8.7982 0.0000 -5.8049
# 5 3.0374 -1.2920 -10.2781 0.0000 25.9105 0.0000
# 6 0.0000 0.0000 0.0000 -5.8049 0.0000 28.5407
#
#
#
# Elastic Compliance Matrix: (Units=1/GPa)
#
#
# Indices 1 2 3 4 5 6 
#
# 1 0.021327 -0.004672 0.003841 0.000000 -0.001210 0.000000
# 2 -0.004672 0.009151 -0.006169 0.000000 -0.001443 0.000000
# 3 0.003841 -0.006169 0.013648 0.000000 0.004656 0.000000
# 4 0.000000 0.000000 0.000000 0.131276 0.000000 0.026700
# 5 -0.001210 -0.001443 0.004656 0.000000 0.040511 0.000000
# 6 0.000000 0.000000 0.000000 0.026700 0.000000 0.040468
#
#
# Mechanical properties :
#
#
# Convention : Reuss Voigt Hill
#
# Bulk Modulus (GPa) = 33.19326 56.60619 44.89972
# Shear Modulus (GPa) = 17.83019 28.81914 23.32466
#
# Velocity S-wave (km/s) = 2.91398 3.70466 3.33285
# Velocity P-wave (km/s) = 5.20858 6.72733 6.01607
#
# Compressibility (1/GPa) = 0.03012660
#
# Stress axis : x y z
#
# Youngs Moduli (GPa) = 46.88958 109.27222 73.27121
#
# Poissons Ratio (x) = 0.51047 -0.28141
# Poissons Ratio (y) = 0.21905 0.45200
# Poissons Ratio (z) = -0.18008 0.67408
#
# Static dielectric constant tensor:
#      x y z
#    x 1.772670 0.000000 0.007960 
#    y 0.000000 1.738240 0.000000 
#    z 0.007960 0.000000 1.762210 
# 
# From -- ./inp_files/96981.got.cif
#   From: 2010.05.17/outbox.cif.g08.bks.cpg/sg12_49_cif.got.tgz:96981.got - 2010.06.03 13:09:07.
