data_PCOD9209818
_publ_section_title
;
Structure prediction by ZEFSAII (Michael W. Deem and Ramdas Pophale) SiO2 
 PCOD9209818
Probable space group: C 2/M
;
_chemical_formula_sum "Si O2"
_cell_formula_units_Z 64
_cell_length_a 9.769091
_cell_length_b 28.311312
_cell_length_c 25.178105
_cell_angle_alpha 90.000000
_cell_angle_beta 152.585914
_cell_angle_gamma 90.000000
_cell_volume 3206.191961
_symmetry_space_group_name_H-M "C 2/M"
_symmetry_group_IT_number 12
_symmetry_cell_setting 'monoclinic'
loop_
_space_group_symop_operation_xyz
x,y,z
-x,y,-z
-x,-y,-z
x,-y,z
1/2+x,1/2+y,z
1/2-x,1/2+y,-z
1/2-x,1/2-y,-z
1/2+x,1/2-y,z
loop_
_atom_site_type_symbol
_atom_site_label
_atom_site_fract_x
_atom_site_fract_y
_atom_site_fract_z
Si Si1 0.663963 0.297656 0.000979
Si Si2 0.723814 0.620700 0.443347
Si Si3 0.666606 0.884854 0.397330
Si Si4 0.744729 0.298245 0.744440
Si Si5 0.685373 0.056740 0.232821
Si Si6 0.761255 0.443023 0.182176
Si Si7 0.917077 0.442587 0.030458
Si Si8 0.426239 0.203187 0.252929
O O1 0.397331 0.319095 0.874030
O O2 0.500000 0.286621 0.000000
O O3 0.750000 0.250000 0.000000
O O4 0.981712 0.319864 0.126157
O O5 0.850544 0.622955 0.546187
O O6 0.521737 0.665741 0.358043
O O7 0.492915 0.577631 0.359215
O O8 0.000000 0.615543 0.500000
O O9 0.438303 0.921333 0.292583
O O10 0.608271 0.835259 0.348145
O O11 0.000000 0.901418 0.500000
O O12 0.631652 0.251005 0.734444
O O13 0.895492 0.286341 0.739763
O O14 0.425249 0.072597 0.184164
O O15 0.626184 0.071330 0.151585
O O16 0.687788 0.000000 0.234963
O O17 0.775094 0.500000 0.188412
O O18 0.417074 0.429633 0.067814
O O19 0.927060 0.500000 0.031452
O O20 0.000000 0.424972 0.000000
#
# Coordination Sequence:
#
# PCOD9209818 Si02
#       8
#     8   8   8   8   8   8   8   8
#     4   8  16  33  58  88 114 143 187 237 296 357
#     4  12  28  43  58  86 124 162 210 258 298 359
#     4  12  24  43  59  87 123 159 211 256 293 359
#     4  10  21  40  63  89 119 157 196 248 306 362
#     4  10  21  41  66  91 121 160 204 250 305 365
#     4  10  21  39  67  93 120 161 202 249 304 362
#     4   9  19  36  61  95 127 155 196 249 307 364
#     4  10  21  38  65  90 119 155 195 248 308 360
#
# _framework density 19.961375
#
# number of rings (size 3 to 8) (size 9 to 14) (size 15 to 20)
#    0.000    1.875    2.500    0.375    3.500    4.500 
#    0.000    2.500    0.000    0.000    0.000    0.000 
#    0.000    0.000    0.000    0.000    0.000    0.000 
#
# Total GULP energy -178615.227672 kJ/mol
# GULP energy per Si atom -5581.725865 kJ/mol
# Density = 1.991594 g / cm^3
# Si number density = 19.961375 Si / 1000 Ang^3
#
#
#
# Elastic Constant Matrix: (Units=GPa)
#
#
# Indices 1 2 3 4 5 6 
#
# 1 104.1653 15.5212 32.3182 0.0012 -4.4954 0.0007
# 2 15.5212 39.2468 3.3284 -0.0011 -3.9451 -0.0001
# 3 32.3182 3.3284 72.1253 0.0081 -15.2299 -0.0006
# 4 0.0012 -0.0011 0.0081 33.7555 0.0026 -3.0922
# 5 -4.4954 -3.9451 -15.2299 0.0026 37.0923 0.0009
# 6 0.0007 -0.0001 -0.0006 -3.0922 0.0009 17.1995
#
#
#
# Elastic Compliance Matrix: (Units=1/GPa)
#
#
# Indices 1 2 3 4 5 6 
#
# 1 0.011864 -0.004360 -0.005375 0.000001 -0.001233 0.000000
# 2 -0.004360 0.027387 0.001307 0.000001 0.002921 0.000000
# 3 -0.005375 0.001307 0.017634 -0.000005 0.006728 0.000000
# 4 0.000001 0.000001 -0.000005 0.030121 -0.000004 0.005415
# 5 -0.001233 0.002921 0.006728 -0.000004 0.029883 -0.000002
# 6 0.000000 0.000000 0.000000 0.005415 -0.000002 0.059115
#
#
# Mechanical properties :
#
#
# Convention : Reuss Voigt Hill
#
# Bulk Modulus (GPa) = 24.98295 35.31921 30.15108
# Shear Modulus (GPa) = 24.24782 28.56744 26.40763
#
# Velocity S-wave (km/s) = 3.48909 3.78714 3.64117
# Velocity P-wave (km/s) = 5.36418 6.07087 5.72843
#
# Compressibility (1/GPa) = 0.04002731
#
# Stress axis : x y z
#
# Youngs Moduli (GPa) = 84.28598 36.51380 56.70944
#
# Poissons Ratio (x) = 0.15921 0.30484
# Poissons Ratio (y) = 0.36750 -0.07410
# Poissons Ratio (z) = 0.45307 -0.04771
#
# Static dielectric constant tensor:
#      x y z
#    x 1.691570 0.000000 -0.012560 
#    y 0.000000 1.706550 0.000000 
#    z -0.012560 0.000000 1.720270 
# 
# From -- ./inp_files/334356.got.cif
#   From: 2010.05.17/outbox.cif.g08.bks.cpg/sg12_168_cif.got.tgz:334356.got - 2010.06.03 13:09:07.
