data_PCOD9209875
_publ_section_title
;
Structure prediction by ZEFSAII (Michael W. Deem and Ramdas Pophale) SiO2 
 PCOD9209875
Probable space group: C 2/M
;
_chemical_formula_sum "Si O2"
_cell_formula_units_Z 50
_cell_length_a 8.247145
_cell_length_b 17.131987
_cell_length_c 17.133930
_cell_angle_alpha 90.000000
_cell_angle_beta 104.529087
_cell_angle_gamma 90.000000
_cell_volume 2343.434760
_symmetry_space_group_name_H-M "C 2/M"
_symmetry_group_IT_number 12
_symmetry_cell_setting 'monoclinic'
loop_
_space_group_symop_operation_xyz
x,y,z
-x,y,-z
-x,-y,-z
x,-y,z
1/2+x,1/2+y,z
1/2-x,1/2+y,-z
1/2-x,1/2-y,-z
1/2+x,1/2-y,z
loop_
_atom_site_type_symbol
_atom_site_label
_atom_site_fract_x
_atom_site_fract_y
_atom_site_fract_z
Si Si1 0.705526 0.587419 0.263224
Si Si2 0.019162 0.149958 0.108467
Si Si3 0.214479 0.834056 0.598977
Si Si4 0.000000 0.000000 0.000000
Si Si5 0.927470 0.591562 0.764319
Si Si6 0.867224 0.680578 0.919077
Si Si7 0.183459 0.156116 0.423359
O O1 0.641892 0.500000 0.247375
O O2 0.571928 0.642872 0.205397
O O3 0.879384 0.596949 0.238527
O O4 0.733555 0.603517 0.357102
O O5 0.820816 0.161656 0.078958
O O6 0.060681 0.070095 0.068468
O O7 0.110792 0.226430 0.087361
O O8 0.318587 0.872192 0.681030
O O9 0.250665 0.867831 0.516685
O O10 0.255462 0.742698 0.592503
O O11 0.017848 0.842678 0.593189
O O12 0.885430 0.500000 0.770234
O O13 0.901441 0.638732 0.840909
O O14 0.000000 0.653249 0.000000
#
# Coordination Sequence:
#
# PCOD9209875 Si02
#       7
#     8   8   8   2   8   8   8
#     4  11  24  42  65  93 132 174 217 271 334 397
#     4  12  26  47  72 102 137 178 224 279 337 402
#     4  10  21  40  63  94 126 168 217 277 329 406
#     4  12  28  44  78 100 138 180 222 284 336 398
#     4  11  26  43  64  97 134 175 224 281 336 397
#     4  12  27  45  73  99 134 178 226 277 334 401
#     4  10  21  38  66  92 126 169 220 268 338 398
#
# _framework density 21.336202
#
# number of rings (size 3 to 8) (size 9 to 14) (size 15 to 20)
#    0.000    0.960    1.600    4.320    3.360    4.800 
#    0.000    3.200    0.000    0.000    0.000    0.000 
#    0.000    0.000    0.000    0.000    0.000    0.000 
#
# Total GULP energy -139606.239358 kJ/mol
# GULP energy per Si atom -5584.249574 kJ/mol
# Density = 2.128764 g / cm^3
# Si number density = 21.336202 Si / 1000 Ang^3
#
#
#
# Elastic Constant Matrix: (Units=GPa)
#
#
# Indices 1 2 3 4 5 6 
#
# 1 43.8589 31.0598 20.5604 0.0000 0.0176 0.0000
# 2 31.0598 102.2594 63.8610 0.0000 -10.2527 0.0000
# 3 20.5604 63.8610 178.8951 0.0000 -1.6151 0.0000
# 4 0.0000 0.0000 0.0000 41.8322 0.0000 -0.7731
# 5 0.0176 -10.2527 -1.6151 0.0000 37.8474 0.0000
# 6 0.0000 0.0000 0.0000 -0.7731 0.0000 14.2191
#
#
#
# Elastic Compliance Matrix: (Units=1/GPa)
#
#
# Indices 1 2 3 4 5 6 
#
# 1 0.029279 -0.009041 -0.000160 0.000000 -0.002470 0.000000
# 2 -0.009041 0.015781 -0.004557 0.000000 0.004085 0.000000
# 3 -0.000160 -0.004557 0.007227 0.000000 -0.000926 0.000000
# 4 0.000000 0.000000 0.000000 0.023929 0.000000 0.001301
# 5 -0.002470 0.004085 -0.000926 0.000000 0.027490 0.000000
# 6 0.000000 0.000000 0.000000 0.001301 0.000000 0.070399
#
#
# Mechanical properties :
#
#
# Convention : Reuss Voigt Hill
#
# Bulk Modulus (GPa) = 40.37128 61.77508 51.07318
# Shear Modulus (GPa) = 23.82350 32.74855 28.28602
#
# Velocity S-wave (km/s) = 3.34515 3.92201 3.64501
# Velocity P-wave (km/s) = 5.82087 7.03744 6.45787
#
# Compressibility (1/GPa) = 0.02477008
#
# Stress axis : x y z
#
# Youngs Moduli (GPa) = 34.15439 63.36874 138.37455
#
# Poissons Ratio (x) = 0.57290 0.02214
# Poissons Ratio (y) = 0.30878 0.63062
# Poissons Ratio (z) = 0.00546 0.28879
#
# Static dielectric constant tensor:
#      x y z
#    x 1.758110 0.000000 0.004030 
#    y 0.000000 1.754830 0.000000 
#    z 0.004030 0.000000 1.813910 
# 
# From -- ./inp_files/256675.got.cif
#   From: 2010.05.17/outbox.cif.g08.bks.cpg/sg12_129_cif.got.tgz:256675.got - 2010.06.03 13:09:07.
