data_PCOD9209916
_publ_section_title
;
Structure prediction by ZEFSAII (Michael W. Deem and Ramdas Pophale) SiO2 
 PCOD9209916
Probable space group: C 2/M
;
_chemical_formula_sum "Si O2"
_cell_formula_units_Z 34
_cell_length_a 24.096182
_cell_length_b 7.513145
_cell_length_c 19.795744
_cell_angle_alpha 90.000000
_cell_angle_beta 25.715605
_cell_angle_gamma 90.000000
_cell_volume 1555.019978
_symmetry_space_group_name_H-M "C 2/M"
_symmetry_group_IT_number 12
_symmetry_cell_setting 'monoclinic'
loop_
_space_group_symop_operation_xyz
x,y,z
-x,y,-z
-x,-y,-z
x,-y,z
1/2+x,1/2+y,z
1/2-x,1/2+y,-z
1/2-x,1/2-y,-z
1/2+x,1/2-y,z
loop_
_atom_site_type_symbol
_atom_site_label
_atom_site_fract_x
_atom_site_fract_y
_atom_site_fract_z
Si Si1 0.886268 0.213122 0.815842
Si Si2 0.463600 0.715870 0.964970
Si Si3 0.395921 0.286855 0.321769
Si Si4 0.500000 0.000000 0.500000
Si Si5 0.668733 0.706668 0.273183
O O1 0.883138 0.278466 0.742319
O O2 0.002505 0.281654 0.734069
O O3 0.897657 0.000000 0.798369
O O4 0.750000 0.250000 0.000000
O O5 0.462363 0.500000 0.966512
O O6 0.560371 0.776281 0.800205
O O7 0.500000 0.776162 0.000000
O O8 0.321339 0.778048 0.103343
O O9 0.410930 0.500000 0.304763
O O10 0.250000 0.250000 0.500000
O O11 0.391489 0.158225 0.607900
O O12 0.635855 0.500000 0.319337
#
# Coordination Sequence:
#
# PCOD9209916 Si02
#       5
#     8   8   8   2   8
#     4  10  21  38  67  96 126 167 221 275 329 398
#     4  10  21  41  67  95 132 181 224 270 341 409
#     4  10  22  40  62  95 135 170 220 280 333 392
#     4  12  26  44  66  94 144 172 216 288 330 400
#     4  11  24  43  68 100 129 177 230 274 336 405
#
# _framework density 21.864671999999999
#
# number of rings (size 3 to 8) (size 9 to 14) (size 15 to 20)
#    0.000    1.647    3.529    0.353    1.647    4.235 
#    4.235    2.353    0.000    0.000    0.000    0.000 
#    0.000    0.000    0.000    0.000    0.000    0.000 
#
# Total GULP energy -94759.202833 kJ/mol
# GULP energy per Si atom -5574.070755 kJ/mol
# Density = 2.181491 g / cm^3
# Si number density = 21.864672 Si / 1000 Ang^3
#
#
#
# Elastic Constant Matrix: (Units=GPa)
#
#
# Indices 1 2 3 4 5 6 
#
# 1 162.3273 11.1261 70.8915 0.0003 -9.2179 -0.0001
# 2 11.1261 102.8627 11.8134 -0.0009 4.2918 0.0002
# 3 70.8915 11.8134 172.3486 -0.0007 -16.4441 0.0002
# 4 0.0003 -0.0009 -0.0007 27.0714 0.0009 -12.7198
# 5 -9.2179 4.2918 -16.4441 0.0009 26.3825 -0.0001
# 6 -0.0001 0.0002 0.0002 -12.7198 -0.0001 6.8498
#
#
#
# Elastic Compliance Matrix: (Units=1/GPa)
#
#
# Indices 1 2 3 4 5 6 
#
# 1 0.007549 -0.000509 -0.002988 -0.000001 0.000858 -0.000001
# 2 -0.000509 0.009948 -0.000685 0.000002 -0.002223 0.000003
# 3 -0.002988 -0.000685 0.007431 0.000000 0.003699 0.000000
# 4 -0.000001 0.000002 0.000000 0.289760 -0.000008 0.538074
# 5 0.000858 -0.002223 0.003699 -0.000008 0.040871 -0.000014
# 6 -0.000001 0.000003 0.000000 0.538074 -0.000014 1.145177
#
#
# Mechanical properties :
#
#
# Convention : Reuss Voigt Hill
#
# Bulk Modulus (GPa) = 60.37069 69.46671 64.91870
# Shear Modulus (GPa) = 3.30115 34.97457 19.13786
#
# Velocity S-wave (km/s) = 1.23008 4.00383 2.96173
# Velocity P-wave (km/s) = 5.44871 7.29482 6.43828
#
# Compressibility (1/GPa) = 0.01656433
#
# Stress axis : x y z
#
# Youngs Moduli (GPa) = 132.46620 100.52142 134.56662
#
# Poissons Ratio (x) = 0.05118 0.40214
# Poissons Ratio (y) = 0.06744 0.09212
# Poissons Ratio (z) = 0.39586 0.06881
#
# Static dielectric constant tensor:
#      x y z
#    x 1.967180 -0.000010 -0.009200 
#    y -0.000010 1.811550 0.000000 
#    z -0.009200 0.000000 1.846310 
# 
# From -- ./inp_files/180349.got.cif
#   From: 2010.05.17/outbox.cif.g08.bks.cpg/sg12_91_cif.got.tgz:180349.got - 2010.06.03 13:09:07.
