data_PCOD9209734
_publ_section_title
;
Structure prediction by ZEFSAII (Michael W. Deem and Ramdas Pophale) SiO2 
 PCOD9209734
Probable space group: C 2/M
;
_chemical_formula_sum "Si O2"
_cell_formula_units_Z 40
_cell_length_a 10.204609
_cell_length_b 25.919110
_cell_length_c 17.840788
_cell_angle_alpha 90.000000
_cell_angle_beta 154.774061
_cell_angle_gamma 90.000000
_cell_volume 2011.095075
_symmetry_space_group_name_H-M "C 2/M"
_symmetry_group_IT_number 12
_symmetry_cell_setting 'monoclinic'
loop_
_space_group_symop_operation_xyz
x,y,z
-x,y,-z
-x,-y,-z
x,-y,z
1/2+x,1/2+y,z
1/2-x,1/2+y,-z
1/2-x,1/2-y,-z
1/2+x,1/2-y,z
loop_
_atom_site_type_symbol
_atom_site_label
_atom_site_fract_x
_atom_site_fract_y
_atom_site_fract_z
Si Si1 0.133694 0.000000 0.803727
Si Si2 0.301680 0.386800 0.474022
Si Si3 0.700799 0.799441 0.805113
Si Si4 0.309114 0.500000 0.477789
Si Si5 0.663916 0.715957 0.289238
Si Si6 0.629819 0.613383 0.804007
O O1 0.038039 0.000000 0.667122
O O2 0.029290 0.944097 0.779519
O O3 0.500000 0.000000 0.000000
O O4 0.500000 0.382705 0.500000
O O5 0.151159 0.444162 0.398876
O O6 0.514565 0.381320 0.658110
O O7 0.048011 0.342726 0.342760
O O8 0.548315 0.757273 0.779711
O O9 0.801712 0.772719 0.780328
O O10 0.000000 0.822072 0.000000
O O11 0.500000 0.500000 0.500000
O O12 0.523163 0.659184 0.228635
O O13 0.000000 0.717659 0.500000
O O14 0.000000 0.616866 0.000000
#
# Coordination Sequence:
#
# PCOD9209734 Si02
#       6
#     4   8   8   4   8   8
#     4   8  16  34  58  89 120 158 200 242 294 355
#     4  10  21  38  64  91 124 162 205 247 299 359
#     4  12  27  43  64  89 123 161 205 251 308 362
#     4   8  16  34  58  88 120 160 200 242 291 359
#     4  12  25  44  63  90 123 158 204 254 307 363
#     4  10  21  38  64  92 124 160 204 250 297 359
#
# _framework density 19.889661
#
# number of rings (size 3 to 8) (size 9 to 14) (size 15 to 20)
#    0.000    1.600    2.000    2.400    5.600    0.000 
#    0.000    2.000    0.000    0.000    0.000    0.000 
#    0.000    0.000    0.000    0.000    0.000    0.000 
#
# Total GULP energy -111665.258948 kJ/mol
# GULP energy per Si atom -5583.262947 kJ/mol
# Density = 1.984439 g / cm^3
# Si number density = 19.889661 Si / 1000 Ang^3
#
#
#
# Elastic Constant Matrix: (Units=GPa)
#
#
# Indices 1 2 3 4 5 6 
#
# 1 97.8144 40.6465 26.5970 -0.0012 0.1662 -0.0020
# 2 40.6465 133.7896 42.7478 0.0128 7.8979 0.0090
# 3 26.5970 42.7478 99.9006 -0.0067 -6.9257 0.0171
# 4 -0.0012 0.0128 -0.0067 9.3129 0.0017 -2.5926
# 5 0.1662 7.8979 -6.9257 0.0017 15.9157 0.0034
# 6 -0.0020 0.0090 0.0171 -2.5926 0.0034 22.3878
#
#
#
# Elastic Compliance Matrix: (Units=1/GPa)
#
#
# Indices 1 2 3 4 5 6 
#
# 1 0.012008 -0.003101 -0.001827 0.000006 0.000618 0.000004
# 2 -0.003101 0.010072 -0.003948 -0.000017 -0.006684 -0.000002
# 3 -0.001827 -0.003948 0.012706 0.000011 0.007507 -0.000008
# 4 0.000006 -0.000017 0.000011 0.110955 -0.000002 0.012849
# 5 0.000618 -0.006684 0.007507 -0.000002 0.069408 -0.000014
# 6 0.000004 -0.000002 -0.000008 0.012849 -0.000014 0.046155
#
#
# Mechanical properties :
#
#
# Convention : Reuss Voigt Hill
#
# Bulk Modulus (GPa) = 58.70362 61.27634 59.98998
# Shear Modulus (GPa) = 17.56019 24.29083 20.92551
#
# Velocity S-wave (km/s) = 2.97455 3.49847 3.24710
# Velocity P-wave (km/s) = 6.43242 6.86980 6.65470
#
# Compressibility (1/GPa) = 0.01703472
#
# Stress axis : x y z
#
# Youngs Moduli (GPa) = 83.27971 99.28103 78.70192
#
# Poissons Ratio (x) = 0.30784 0.14380
# Poissons Ratio (y) = 0.25823 0.31070
# Poissons Ratio (z) = 0.15217 0.39195
#
# Static dielectric constant tensor:
#      x y z
#    x 1.692250 0.000000 -0.005750 
#    y 0.000000 1.742700 -0.000010 
#    z -0.005750 -0.000010 1.673110 
# 
# From -- ./inp_files/201135.got.cif
#   From: 2010.05.17/outbox.cif.g08.bks.cpg/sg12_101_cif.got.tgz:201135.got - 2010.06.03 13:09:07.
