data_PCOD9209640
_publ_section_title
;
Structure prediction by ZEFSAII (Michael W. Deem and Ramdas Pophale) SiO2 
 PCOD9209640
Probable space group: C 2/M
;
_chemical_formula_sum "Si O2"
_cell_formula_units_Z 48
_cell_length_a 16.073890
_cell_length_b 23.353414
_cell_length_c 5.287414
_cell_angle_alpha 90.000000
_cell_angle_beta 75.245411
_cell_angle_gamma 90.000000
_cell_volume 1919.343177
_symmetry_space_group_name_H-M "C 2/M"
_symmetry_group_IT_number 12
_symmetry_cell_setting 'monoclinic'
loop_
_space_group_symop_operation_xyz
x,y,z
-x,y,-z
-x,-y,-z
x,-y,z
1/2+x,1/2+y,z
1/2-x,1/2+y,-z
1/2-x,1/2-y,-z
1/2+x,1/2-y,z
loop_
_atom_site_type_symbol
_atom_site_label
_atom_site_fract_x
_atom_site_fract_y
_atom_site_fract_z
Si Si1 0.827146 0.566170 0.062061
Si Si2 0.742666 0.656495 0.519227
Si Si3 0.659908 0.559496 0.849949
Si Si4 0.660295 0.265620 0.946707
Si Si5 0.585300 0.838990 0.263976
Si Si6 0.947939 0.862863 0.792459
O O1 0.841638 0.500000 0.151017
O O2 0.787783 0.618176 0.263158
O O3 0.752326 0.558348 0.912183
O O4 0.908620 0.598203 0.872181
O O5 0.669048 0.610589 0.650786
O O6 0.827681 0.663698 0.631837
O O7 0.685076 0.713146 0.644657
O O8 0.641884 0.500000 0.734435
O O9 0.588886 0.575072 0.111327
O O10 0.596935 0.212560 0.050022
O O11 0.630786 0.319266 0.138861
O O12 0.750000 0.250000 0.000000
O O13 0.500000 0.832232 0.500000
O O14 0.000000 0.859363 0.500000
O O15 0.000000 0.843341 0.000000
#
# Coordination Sequence:
#
# PCOD9209640 Si02
#       6
#     8   8   8   8   8   8
#     4  10  21  38  63  93 124 168 222 273 326 398
#     4   9  19  37  62  90 120 163 219 275 329 394
#     4   9  20  38  62  88 125 173 222 269 322 396
#     4   9  20  43  66  90 122 170 222 274 326 408
#     4  10  21  39  59  90 128 164 214 269 343 403
#     4  11  25  43  63  97 140 176 217 280 350 406
#
# _framework density 25.008557
#
# number of rings (size 3 to 8) (size 9 to 14) (size 15 to 20)
#    0.000    2.333    0.000    2.000    4.667    3.000 
#    9.000    0.833    0.000    0.000    0.000    0.000 
#    0.000    0.000    0.000    0.000    0.000    0.000 
#
# Total GULP energy -133646.484494 kJ/mol
# GULP energy per Si atom -5568.603521 kJ/mol
# Density = 2.495164 g / cm^3
# Si number density = 25.008557 Si / 1000 Ang^3
#
#
#
# Elastic Constant Matrix: (Units=GPa)
#
#
# Indices 1 2 3 4 5 6 
#
# 1 74.1527 30.0149 29.3521 0.0000 -23.2649 0.0000
# 2 30.0149 155.3748 74.7941 0.0000 -31.5483 0.0000
# 3 29.3521 74.7941 128.5595 0.0000 -49.1375 0.0000
# 4 0.0000 0.0000 0.0000 19.6670 0.0000 11.1981
# 5 -23.2649 -31.5483 -49.1375 0.0000 42.6835 0.0000
# 6 0.0000 0.0000 0.0000 11.1981 0.0000 5.5625
#
#
#
# Elastic Compliance Matrix: (Units=1/GPa)
#
#
# Indices 1 2 3 4 5 6 
#
# 1 0.016610 -0.001705 0.000319 0.000000 0.008160 0.000000
# 2 -0.001705 0.009144 -0.004826 0.000000 0.000273 0.000000
# 3 0.000319 -0.004826 0.016458 0.000000 0.015553 0.000000
# 4 0.000000 0.000000 0.000000 -0.347674 0.000000 0.699915
# 5 0.008160 0.000273 0.015553 0.000000 0.045983 0.000000
# 6 0.000000 0.000000 0.000000 0.699915 0.000000 -1.229251
#
#
# Mechanical properties :
#
#
# Convention : Reuss Voigt Hill
#
# Bulk Modulus (GPa) = 33.57203 69.60101 51.58652
# Shear Modulus (GPa) = -3.40977 28.51099 12.55061
#
# Velocity S-wave (km/s) = -1.16893 3.38012 2.24264
# Velocity P-wave (km/s) = 3.41050 6.56696 5.23242
#
# Compressibility (1/GPa) = 0.02978670
#
# Stress axis : x y z
#
# Youngs Moduli (GPa) = 60.20523 109.35945 60.75950
#
# Poissons Ratio (x) = 0.18648 -0.01935
# Poissons Ratio (y) = 0.10266 0.29323
# Poissons Ratio (z) = -0.01918 0.52778
#
# Static dielectric constant tensor:
#      x y z
#    x 1.989790 0.000000 0.036960 
#    y 0.000000 2.141880 0.000000 
#    z 0.036960 0.000000 2.087740 
# 
# From -- ./inp_files/16896.got.cif
#   From: 2010.05.17/outbox.cif.g08.bks.cpg/sg12_9_cif.got.tgz:16896.got - 2010.06.03 13:09:07.
