data_PCOD9209469
_publ_section_title
;
Structure prediction by ZEFSAII (Michael W. Deem and Ramdas Pophale) SiO2 
 PCOD9209469
Probable space group: C 2/M
;
_chemical_formula_sum "Si O2"
_cell_formula_units_Z 56
_cell_length_a 14.725210
_cell_length_b 13.948697
_cell_length_c 26.012660
_cell_angle_alpha 90.000000
_cell_angle_beta 30.980051
_cell_angle_gamma 90.000000
_cell_volume 2750.220290
_symmetry_space_group_name_H-M "C 2/M"
_symmetry_group_IT_number 12
_symmetry_cell_setting 'monoclinic'
loop_
_space_group_symop_operation_xyz
x,y,z
-x,y,-z
-x,-y,-z
x,-y,z
1/2+x,1/2+y,z
1/2-x,1/2+y,-z
1/2-x,1/2-y,-z
1/2+x,1/2-y,z
loop_
_atom_site_type_symbol
_atom_site_label
_atom_site_fract_x
_atom_site_fract_y
_atom_site_fract_z
Si Si1 0.111645 0.393027 0.397768
Si Si2 0.039547 0.884981 0.599335
Si Si3 0.639413 0.884655 0.071268
Si Si4 0.298220 0.790474 0.288859
Si Si5 0.171355 0.732514 0.953087
Si Si6 0.577993 0.894489 0.615634
Si Si7 0.011746 0.760807 0.277556
O O1 0.175522 0.500000 0.380702
O O2 0.263886 0.323769 0.303232
O O3 0.000000 0.353232 0.500000
O O4 0.975418 0.401317 0.417632
O O5 0.879407 0.841037 0.644123
O O6 0.037263 0.844075 0.658760
O O7 0.222956 0.856491 0.483593
O O8 0.029360 0.000000 0.605195
O O9 0.454863 0.838485 0.180510
O O10 0.783994 0.830487 0.037002
O O11 0.641280 0.000000 0.074853
O O12 0.659478 0.848626 0.002890
O O13 0.359648 0.792458 0.318296
O O14 0.336460 0.711834 0.835512
O O15 0.000000 0.738546 0.000000
O O16 0.435738 0.825807 0.710473
O O17 0.575589 0.000000 0.640402
#
# Coordination Sequence:
#
# PCOD9209469 Si02
#       7
#     8   8   8   8   8   8   8
#     4  10  21  38  62  91 125 168 215 261 310 364
#     4  11  23  39  60  91 129 172 216 254 311 384
#     4  10  23  45  66  95 134 164 207 270 325 378
#     4  11  23  37  66  93 127 171 208 257 320 378
#     4  10  23  42  69  95 121 167 218 262 324 388
#     4  10  22  39  59  87 126 167 209 261 315 371
#     4  11  23  39  63  91 127 160 210 269 317 369
#
# _framework density 20.362006000000001
#
# number of rings (size 3 to 8) (size 9 to 14) (size 15 to 20)
#    0.000    1.571    1.429    2.571    2.000    5.714 
#    0.000    7.143    0.000    0.000    0.000    0.000 
#    0.000    0.000    0.000    0.000    0.000    0.000 
#
# Total GULP energy -156053.362417 kJ/mol
# GULP energy per Si atom -5573.334372 kJ/mol
# Density = 2.031566 g / cm^3
# Si number density = 20.362006 Si / 1000 Ang^3
#
#
#
# Elastic Constant Matrix: (Units=GPa)
#
#
# Indices 1 2 3 4 5 6 
#
# 1 79.6290 17.6948 38.4485 -0.0002 19.8253 0.0000
# 2 17.6948 127.3207 56.7773 -0.0004 10.1105 0.0000
# 3 38.4485 56.7773 80.6647 -0.0021 17.4150 0.0003
# 4 -0.0002 -0.0004 -0.0021 13.7934 0.0000 -2.0662
# 5 19.8253 10.1105 17.4150 0.0000 17.6176 0.0000
# 6 0.0000 0.0000 0.0003 -2.0662 0.0000 15.9379
#
#
#
# Elastic Compliance Matrix: (Units=1/GPa)
#
#
# Indices 1 2 3 4 5 6 
#
# 1 0.019586 0.001706 -0.007077 -0.000001 -0.016023 0.000000
# 2 0.001706 0.011640 -0.009089 -0.000001 0.000385 0.000000
# 3 -0.007077 -0.009089 0.024565 0.000003 -0.011102 0.000000
# 4 -0.000001 -0.000001 0.000003 0.073934 -0.000002 0.009585
# 5 -0.016023 0.000385 -0.011102 -0.000002 0.085547 0.000000
# 6 0.000000 0.000000 0.000000 0.009585 0.000000 0.063986
#
#
# Mechanical properties :
#
#
# Convention : Reuss Voigt Hill
#
# Bulk Modulus (GPa) = 37.21587 57.05060 47.13323
# Shear Modulus (GPa) = 15.76622 21.11603 18.44113
#
# Velocity S-wave (km/s) = 2.78564 3.22379 3.01269
# Velocity P-wave (km/s) = 5.35380 6.47581 5.94135
#
# Compressibility (1/GPa) = 0.02687026
#
# Stress axis : x y z
#
# Youngs Moduli (GPa) = 51.05799 85.91265 40.70871
#
# Poissons Ratio (x) = -0.14660 0.28810
# Poissons Ratio (y) = -0.08713 0.37001
# Poissons Ratio (z) = 0.36134 0.78088
#
# Static dielectric constant tensor:
#      x y z
#    x 1.810820 0.000000 -0.015930 
#    y 0.000000 1.755560 0.000000 
#    z -0.015930 0.000000 1.712900 
# 
# From -- ./inp_files/340306.got.cif
#   From: 2010.05.17/outbox.cif.g08.bks.cpg/sg12_171_cif.got.tgz:340306.got - 2010.06.03 13:09:07.
