data_PCOD9209453
_publ_section_title
;
Structure prediction by ZEFSAII (Michael W. Deem and Ramdas Pophale) SiO2 
 PCOD9209453
Probable space group: C 2/M
;
_chemical_formula_sum "Si O2"
_cell_formula_units_Z 40
_cell_length_a 16.590423
_cell_length_b 8.737598
_cell_length_c 12.058199
_cell_angle_alpha 90.000000
_cell_angle_beta 97.485427
_cell_angle_gamma 90.000000
_cell_volume 1733.065833
_symmetry_space_group_name_H-M "C 2/M"
_symmetry_group_IT_number 12
_symmetry_cell_setting 'monoclinic'
loop_
_space_group_symop_operation_xyz
x,y,z
-x,y,-z
-x,-y,-z
x,-y,z
1/2+x,1/2+y,z
1/2-x,1/2+y,-z
1/2-x,1/2-y,-z
1/2+x,1/2-y,z
loop_
_atom_site_type_symbol
_atom_site_label
_atom_site_fract_x
_atom_site_fract_y
_atom_site_fract_z
Si Si1 0.873570 0.676608 0.965926
Si Si2 0.913185 0.321200 0.352753
Si Si3 0.555532 0.318093 0.230831
Si Si4 0.692327 0.674615 0.832660
Si Si5 0.663126 0.682549 0.452205
O O1 0.888061 0.500000 0.000276
O O2 0.936042 0.733388 0.884533
O O3 0.784544 0.685260 0.891647
O O4 0.863956 0.781110 0.072344
O O5 0.930764 0.500000 0.362095
O O6 0.830014 0.289022 0.269816
O O7 0.900742 0.251599 0.471589
O O8 0.980126 0.236073 0.291134
O O9 0.552888 0.500000 0.212741
O O10 0.632972 0.280461 0.323185
O O11 0.677017 0.500000 0.794134
O O12 0.664708 0.500000 0.463895
O O13 0.750000 0.750000 0.500000
#
# Coordination Sequence:
#
# PCOD9209453 Si02
#       5
#     8   8   8   8   8
#     4  10  21  38  62  91 121 155 199 247 295 351
#     4  12  25  40  61  89 122 158 199 247 298 353
#     4  11  24  41  61  87 121 159 199 244 297 355
#     4  10  21  39  63  89 121 159 199 245 296 352
#     4  11  24  42  65  91 120 156 199 245 294 353
#
# _framework density 23.080483999999998
#
# number of rings (size 3 to 8) (size 9 to 14) (size 15 to 20)
#    0.000    1.200    0.000    6.000    0.000   12.000 
#    0.000    4.000    0.000    0.000    0.000    0.000 
#    0.000    0.000    0.000    0.000    0.000    0.000 
#
# Total GULP energy -112062.595750 kJ/mol
# GULP energy per Si atom -5603.129787 kJ/mol
# Density = 2.302795 g / cm^3
# Si number density = 23.080484 Si / 1000 Ang^3
#
#
#
# Elastic Constant Matrix: (Units=GPa)
#
#
# Indices 1 2 3 4 5 6 
#
# 1 71.3622 -5.3553 0.3763 0.0000 -11.7864 0.0000
# 2 -5.3553 45.3038 13.9730 0.0000 2.2824 0.0000
# 3 0.3763 13.9730 85.8480 0.0000 -17.2046 0.0000
# 4 0.0000 0.0000 0.0000 33.4638 0.0000 -4.0465
# 5 -11.7864 2.2824 -17.2046 0.0000 45.2072 0.0000
# 6 0.0000 0.0000 0.0000 -4.0465 0.0000 34.7285
#
#
#
# Elastic Compliance Matrix: (Units=1/GPa)
#
#
# Indices 1 2 3 4 5 6 
#
# 1 0.014771 0.001390 0.000505 0.000000 0.003973 0.000000
# 2 0.001390 0.023710 -0.004365 0.000000 -0.002496 0.000000
# 3 0.000505 -0.004365 0.013453 0.000000 0.005472 0.000000
# 4 0.000000 0.000000 0.000000 0.030310 0.000000 0.003532
# 5 0.003973 -0.002496 0.005472 0.000000 0.025365 0.000000
# 6 0.000000 0.000000 0.000000 0.003532 0.000000 0.029206
#
#
# Mechanical properties :
#
#
# Convention : Reuss Voigt Hill
#
# Bulk Modulus (GPa) = 21.27936 24.50021 22.88979
# Shear Modulus (GPa) = 31.76215 35.58122 33.67169
#
# Velocity S-wave (km/s) = 3.71367 3.93060 3.82367
# Velocity P-wave (km/s) = 5.25625 5.58907 5.42521
#
# Compressibility (1/GPa) = 0.04699389
#
# Stress axis : x y z
#
# Youngs Moduli (GPa) = 67.70075 42.17685 74.33034
#
# Poissons Ratio (x) = -0.05863 -0.03756
# Poissons Ratio (y) = -0.09411 0.32448
# Poissons Ratio (z) = -0.03421 0.18412
#
# Static dielectric constant tensor:
#      x y z
#    x 2.022860 0.000000 -0.005640 
#    y 0.000000 1.757770 0.000000 
#    z -0.005640 0.000000 1.875860 
# 
# From -- ./inp_files/151641.got.cif
#   From: 2010.05.17/outbox.cif.g08.bks.cpg/sg12_76_cif.got.tgz:151641.got - 2010.06.03 13:09:07.
