data_PCOD9209612
_publ_section_title
;
Structure prediction by ZEFSAII (Michael W. Deem and Ramdas Pophale) SiO2 
 PCOD9209612
Probable space group: C 2/M
;
_chemical_formula_sum "Si O2"
_cell_formula_units_Z 56
_cell_length_a 15.282464
_cell_length_b 13.533600
_cell_length_c 17.904454
_cell_angle_alpha 90.000000
_cell_angle_beta 51.888924
_cell_angle_gamma 90.000000
_cell_volume 2913.673145
_symmetry_space_group_name_H-M "C 2/M"
_symmetry_group_IT_number 12
_symmetry_cell_setting 'monoclinic'
loop_
_space_group_symop_operation_xyz
x,y,z
-x,y,-z
-x,-y,-z
x,-y,z
1/2+x,1/2+y,z
1/2-x,1/2+y,-z
1/2-x,1/2-y,-z
1/2+x,1/2-y,z
loop_
_atom_site_type_symbol
_atom_site_label
_atom_site_fract_x
_atom_site_fract_y
_atom_site_fract_z
Si Si1 0.854216 0.887096 0.917773
Si Si2 0.335442 0.000000 0.638048
Si Si3 0.087774 0.219338 0.257521
Si Si4 0.081064 0.500000 0.577307
Si Si5 0.020651 0.269255 0.903682
Si Si6 0.753557 0.780901 0.285655
Si Si7 0.843329 0.290186 0.394903
Si Si8 0.621755 0.112431 0.121916
O O1 0.871505 0.865199 0.820814
O O2 0.936774 0.815400 0.918650
O O3 0.881668 0.000000 0.919588
O O4 0.728817 0.869441 0.012622
O O5 0.449324 0.000000 0.627000
O O6 0.364461 0.000000 0.534329
O O7 0.272183 0.103193 0.687280
O O8 0.147969 0.227646 0.304473
O O9 0.122912 0.317037 0.192313
O O10 0.955564 0.224255 0.336523
O O11 0.118630 0.400822 0.601328
O O12 0.987037 0.360671 0.868729
O O13 0.144507 0.232262 0.824964
O O14 0.000000 0.292686 0.000000
O O15 0.791767 0.725623 0.340389
O O16 0.750000 0.250000 0.500000
O O17 0.622608 0.000000 0.145158
#
# Coordination Sequence:
#
# PCOD9209612 Si02
#       8
#     8   4   8   4   8   8   8   8
#     4  10  21  40  61  86 130 177 216 268 329 388
#     4  11  24  42  73  99 126 175 223 274 339 385
#     4  11  23  42  64  93 134 168 219 274 331 387
#     4  11  24  46  70  98 132 168 225 283 324 398
#     4  11  22  38  59  95 134 168 213 268 327 393
#     4  12  24  41  69  99 131 174 216 276 331 395
#     4  12  25  44  68  99 133 173 221 280 332 389
#     4  10  21  38  63  91 126 175 220 271 326 386
#
# _framework density 19.219726000000001
#
# number of rings (size 3 to 8) (size 9 to 14) (size 15 to 20)
#    0.000    1.000    5.714    3.429    3.000    1.143 
#    2.571    0.000    0.000    0.857    0.000    0.000 
#    0.000    0.000    0.000    0.000    0.000    0.000 
#
# Total GULP energy -156407.245005 kJ/mol
# GULP energy per Si atom -5585.973036 kJ/mol
# Density = 1.917598 g / cm^3
# Si number density = 19.219726 Si / 1000 Ang^3
#
#
#
# Elastic Constant Matrix: (Units=GPa)
#
#
# Indices 1 2 3 4 5 6 
#
# 1 121.6135 0.8502 24.4525 0.0000 11.2916 0.0000
# 2 0.8502 48.6812 -3.0475 0.0000 -3.9767 0.0000
# 3 24.4525 -3.0475 91.4864 0.0000 -11.4187 0.0000
# 4 0.0000 0.0000 0.0000 23.3254 0.0000 0.4035
# 5 11.2916 -3.9767 -11.4187 0.0000 31.7250 0.0000
# 6 0.0000 0.0000 0.0000 0.4035 0.0000 15.2379
#
#
#
# Elastic Compliance Matrix: (Units=1/GPa)
#
#
# Indices 1 2 3 4 5 6 
#
# 1 0.009259 -0.000720 -0.003059 0.000000 -0.004487 0.000000
# 2 -0.000720 0.020910 0.001307 0.000000 0.003348 0.000000
# 3 -0.003059 0.001307 0.012510 0.000000 0.005755 0.000000
# 4 0.000000 0.000000 0.000000 0.042891 0.000000 -0.001136
# 5 -0.004487 0.003348 0.005755 0.000000 0.035609 0.000000
# 6 0.000000 0.000000 0.000000 -0.001136 0.000000 0.065656
#
#
# Mechanical properties :
#
#
# Convention : Reuss Voigt Hill
#
# Bulk Modulus (GPa) = 26.50036 34.03239 30.26637
# Shear Modulus (GPa) = 24.46694 30.02606 27.24650
#
# Velocity S-wave (km/s) = 3.57180 3.95682 3.76923
# Velocity P-wave (km/s) = 5.55233 6.21456 5.89275
#
# Compressibility (1/GPa) = 0.03773533
#
# Stress axis : x y z
#
# Youngs Moduli (GPa) = 107.99807 47.82486 79.93600
#
# Poissons Ratio (x) = 0.03442 0.24451
# Poissons Ratio (y) = 0.07773 -0.10445
# Poissons Ratio (z) = 0.33035 -0.06249
#
# Static dielectric constant tensor:
#      x y z
#    x 1.786910 0.000000 0.179710 
#    y 0.000000 1.678300 0.000000 
#    z 0.179710 0.000000 1.977870 
# 
# From -- ./inp_files/270222.got.cif
#   From: 2010.05.17/outbox.cif.g08.bks.cpg/sg12_136_cif.got.tgz:270222.got - 2010.06.03 13:09:07.
