data_PCOD9209429
_publ_section_title
;
Structure prediction by ZEFSAII (Michael W. Deem and Ramdas Pophale) SiO2 
 PCOD9209429
Probable space group: C 2/M
;
_chemical_formula_sum "Si O2"
_cell_formula_units_Z 50
_cell_length_a 14.800717
_cell_length_b 7.844789
_cell_length_c 18.807808
_cell_angle_alpha 90.000000
_cell_angle_beta 85.635115
_cell_angle_gamma 90.000000
_cell_volume 2177.412638
_symmetry_space_group_name_H-M "C 2/M"
_symmetry_group_IT_number 12
_symmetry_cell_setting 'monoclinic'
loop_
_space_group_symop_operation_xyz
x,y,z
-x,y,-z
-x,-y,-z
x,-y,z
1/2+x,1/2+y,z
1/2-x,1/2+y,-z
1/2-x,1/2-y,-z
1/2+x,1/2-y,z
loop_
_atom_site_type_symbol
_atom_site_label
_atom_site_fract_x
_atom_site_fract_y
_atom_site_fract_z
Si Si1 0.645309 0.204226 0.686085
Si Si2 0.429779 0.807826 0.948722
Si Si3 0.072759 0.809805 0.843162
Si Si4 0.339593 0.294650 0.720073
Si Si5 0.737744 0.699634 0.122664
Si Si6 0.500000 0.500000 0.500000
Si Si7 0.515570 0.197855 0.396744
O O1 0.603131 0.278902 0.760698
O O2 0.750704 0.249739 0.678859
O O3 0.586136 0.250297 0.621432
O O4 0.640219 0.000000 0.693713
O O5 0.492671 0.809072 0.874833
O O6 0.333649 0.727507 0.935793
O O7 0.411139 0.000000 0.974928
O O8 0.500000 0.723982 0.000000
O O9 0.164414 0.787602 0.884033
O O10 0.036149 0.000000 0.851976
O O11 0.352344 0.500000 0.720209
O O12 0.312902 0.242914 0.801690
O O13 0.425185 0.210466 0.678534
O O14 0.757267 0.500000 0.129599
O O15 0.546070 0.345684 0.448172
O O16 0.517914 0.000000 0.420231
#
# Coordination Sequence:
#
# PCOD9209429 Si02
#       7
#     8   8   8   8   8   2   8
#     4   9  20  38  64  92 123 154 198 250 302 358
#     4  11  24  40  57  80 118 163 208 251 304 369
#     4  11  22  36  60  91 122 155 198 251 309 361
#     4   9  18  37  63  92 122 153 193 254 306 352
#     4  10  21  38  62  90 121 154 199 254 307 359
#     4  12  26  44  64  86 132 162 204 252 284 374
#     4  11  23  41  66  89 122 166 204 247 303 359
#
# _framework density 22.963032999999999
#
# number of rings (size 3 to 8) (size 9 to 14) (size 15 to 20)
#    0.000    1.760    0.800    4.560    1.120    7.680 
#    0.000    0.800    0.000    0.000    0.000    0.000 
#    0.000    0.000    0.000    0.000    0.000    0.000 
#
# Total GULP energy -139449.119839 kJ/mol
# GULP energy per Si atom -5577.964794 kJ/mol
# Density = 2.291077 g / cm^3
# Si number density = 22.963033 Si / 1000 Ang^3
#
#
#
# Elastic Constant Matrix: (Units=GPa)
#
#
# Indices 1 2 3 4 5 6 
#
# 1 96.5013 9.0203 17.0961 0.0000 4.8386 0.0000
# 2 9.0203 64.7813 5.8767 0.0000 3.7060 0.0000
# 3 17.0961 5.8767 38.4030 0.0000 -1.4560 0.0000
# 4 0.0000 0.0000 0.0000 14.0868 0.0000 -7.1810
# 5 4.8386 3.7060 -1.4560 0.0000 12.0496 0.0000
# 6 0.0000 0.0000 0.0000 -7.1810 0.0000 11.5687
#
#
#
# Elastic Compliance Matrix: (Units=1/GPa)
#
#
# Indices 1 2 3 4 5 6 
#
# 1 0.011622 -0.000855 -0.005234 0.000000 -0.005036 0.000000
# 2 -0.000855 0.016039 -0.002258 0.000000 -0.004862 0.000000
# 3 -0.005234 -0.002258 0.028954 0.000000 0.006295 0.000000
# 4 0.000000 0.000000 0.000000 0.103849 0.000000 0.064462
# 5 -0.005036 -0.004862 0.006295 0.000000 0.087269 0.000000
# 6 0.000000 0.000000 0.000000 0.064462 0.000000 0.126454
#
#
# Mechanical properties :
#
#
# Convention : Reuss Voigt Hill
#
# Bulk Modulus (GPa) = 25.04995 29.29685 27.17340
# Shear Modulus (GPa) = 12.37047 18.72050 15.54549
#
# Velocity S-wave (km/s) = 2.32354 2.85835 2.60470
# Velocity P-wave (km/s) = 4.25804 4.86616 4.57222
#
# Compressibility (1/GPa) = 0.03992024
#
# Stress axis : x y z
#
# Youngs Moduli (GPa) = 86.04160 62.34940 34.53767
#
# Poissons Ratio (x) = 0.05333 0.18077
# Poissons Ratio (y) = 0.07360 0.07798
# Poissons Ratio (z) = 0.45034 0.14078
#
# Static dielectric constant tensor:
#      x y z
#    x 1.853590 0.000000 0.054230 
#    y 0.000000 1.823620 0.000000 
#    z 0.054230 0.000000 1.926600 
# 
# From -- ./inp_files/308428.got.cif
#   From: 2010.05.17/outbox.cif.g08.bks.cpg/sg12_155_cif.got.tgz:308428.got - 2010.06.03 13:09:07.
