data_PCOD9209141
_publ_section_title
;
Structure prediction by ZEFSAII (Michael W. Deem and Ramdas Pophale) SiO2 
 PCOD9209141
Probable space group: C 2/M
;
_chemical_formula_sum "Si O2"
_cell_formula_units_Z 56
_cell_length_a 8.865940
_cell_length_b 25.663403
_cell_length_c 14.459847
_cell_angle_alpha 90.000000
_cell_angle_beta 119.940050
_cell_angle_gamma 90.000000
_cell_volume 2850.988069
_symmetry_space_group_name_H-M "C 2/M"
_symmetry_group_IT_number 12
_symmetry_cell_setting 'monoclinic'
loop_
_space_group_symop_operation_xyz
x,y,z
-x,y,-z
-x,-y,-z
x,-y,z
1/2+x,1/2+y,z
1/2-x,1/2+y,-z
1/2-x,1/2-y,-z
1/2+x,1/2-y,z
loop_
_atom_site_type_symbol
_atom_site_label
_atom_site_fract_x
_atom_site_fract_y
_atom_site_fract_z
Si Si1 0.481768 0.560039 0.780683
Si Si2 0.251483 0.287974 0.253426
Si Si3 0.001941 0.875188 0.608708
Si Si4 0.822372 0.127608 0.886096
Si Si5 0.141590 0.268683 0.878651
Si Si6 0.663062 0.939100 0.992968
Si Si7 0.203645 0.291792 0.565431
O O1 0.423420 0.500000 0.770967
O O2 0.501452 0.577911 0.681431
O O3 0.359995 0.599594 0.800987
O O4 0.667114 0.563847 0.890068
O O5 0.326222 0.339784 0.322479
O O6 0.365647 0.277821 0.197174
O O7 0.273319 0.240901 0.332962
O O8 0.051523 0.288645 0.160626
O O9 0.000000 0.889255 0.500000
O O10 0.836903 0.838760 0.586608
O O11 0.745472 0.185089 0.859781
O O12 0.696907 0.092327 0.910376
O O13 0.000000 0.130396 0.000000
O O14 0.250000 0.250000 0.000000
O O15 0.633338 0.000000 0.962231
O O16 0.500000 0.918271 0.000000
O O17 0.250000 0.250000 0.500000
O O18 0.000000 0.307384 0.500000
#
# Coordination Sequence:
#
# PCOD9209141 Si02
#       7
#     8   8   8   8   8   8   8
#     4  10  23  43  66  90 125 168 215 272 331 381
#     4  12  23  39  61  87 131 171 207 250 309 376
#     4  12  25  41  66  96 120 165 222 276 329 382
#     4  10  21  38  61  87 127 177 217 244 307 383
#     4  12  26  38  56  93 139 175 200 247 307 384
#     4   9  19  36  62  95 125 159 211 263 305 370
#     4  12  20  40  64  92 121 159 214 266 309 374
#
# _framework density 19.642312
#
# number of rings (size 3 to 8) (size 9 to 14) (size 15 to 20)
#    0.000    1.000    4.286    2.571    6.000    2.000 
#    0.000    0.000    0.000    0.429    0.000    0.000 
#    0.000    0.000    0.000    0.000    0.000    0.000 
#
# Total GULP energy -156484.170957 kJ/mol
# GULP energy per Si atom -5588.720391 kJ/mol
# Density = 1.959761 g / cm^3
# Si number density = 19.642312 Si / 1000 Ang^3
#
#
#
# Elastic Constant Matrix: (Units=GPa)
#
#
# Indices 1 2 3 4 5 6 
#
# 1 87.9130 13.3901 21.0280 0.0000 5.4295 0.0000
# 2 13.3901 62.7699 27.0293 0.0000 -8.5240 0.0000
# 3 21.0280 27.0293 89.3666 0.0000 -17.5808 0.0000
# 4 0.0000 0.0000 0.0000 23.4536 0.0000 -10.3541
# 5 5.4295 -8.5240 -17.5808 0.0000 37.6235 0.0000
# 6 0.0000 0.0000 0.0000 -10.3541 0.0000 32.2669
#
#
#
# Elastic Compliance Matrix: (Units=1/GPa)
#
#
# Indices 1 2 3 4 5 6 
#
# 1 0.012638 -0.001845 -0.003146 0.000000 -0.003712 0.000000
# 2 -0.001845 0.018688 -0.004771 0.000000 0.002271 0.000000
# 3 -0.003146 -0.004771 0.014591 0.000000 0.006191 0.000000
# 4 0.000000 0.000000 0.000000 0.049675 0.000000 0.015940
# 5 -0.003712 0.002271 0.006191 0.000000 0.030522 0.000000
# 6 0.000000 0.000000 0.000000 0.015940 0.000000 0.036107
#
#
# Mechanical properties :
#
#
# Convention : Reuss Voigt Hill
#
# Bulk Modulus (GPa) = 37.89050 40.32712 39.10881
# Shear Modulus (GPa) = 26.24097 30.57559 28.40828
#
# Velocity S-wave (km/s) = 3.65902 3.94968 3.80712
# Velocity P-wave (km/s) = 6.09781 6.43236 6.26732
#
# Compressibility (1/GPa) = 0.02639184
#
# Stress axis : x y z
#
# Youngs Moduli (GPa) = 79.12888 53.51096 68.53496
#
# Poissons Ratio (x) = 0.09875 0.21559
# Poissons Ratio (y) = 0.14602 0.32700
# Poissons Ratio (z) = 0.24892 0.25532
#
# Static dielectric constant tensor:
#      x y z
#    x 1.716080 0.000000 0.011520 
#    y 0.000000 1.685120 0.000000 
#    z 0.011520 0.000000 1.687460 
# 
# From -- ./inp_files/198758.got.cif
#   From: 2010.05.17/outbox.cif.g08.bks.cpg/sg12_100_cif.got.tgz:198758.got - 2010.06.03 13:09:07.
