data_PCOD9209786
_publ_section_title
;
Structure prediction by ZEFSAII (Michael W. Deem and Ramdas Pophale) SiO2 
 PCOD9209786
Probable space group: C 2/M
;
_chemical_formula_sum "Si O2"
_cell_formula_units_Z 36
_cell_length_a 12.623145
_cell_length_b 22.212939
_cell_length_c 8.750128
_cell_angle_alpha 90.000000
_cell_angle_beta 49.960078
_cell_angle_gamma 90.000000
_cell_volume 1878.399108
_symmetry_space_group_name_H-M "C 2/M"
_symmetry_group_IT_number 12
_symmetry_cell_setting 'monoclinic'
loop_
_space_group_symop_operation_xyz
x,y,z
-x,y,-z
-x,-y,-z
x,-y,z
1/2+x,1/2+y,z
1/2-x,1/2+y,-z
1/2-x,1/2-y,-z
1/2+x,1/2-y,z
loop_
_atom_site_type_symbol
_atom_site_label
_atom_site_fract_x
_atom_site_fract_y
_atom_site_fract_z
Si Si1 0.298421 0.362923 0.065946
Si Si2 0.981520 0.649648 0.847310
Si Si3 0.185173 0.430029 0.463705
Si Si4 0.000000 0.235481 0.000000
Si Si5 0.519809 0.429519 0.653525
O O1 0.233029 0.406204 0.254632
O O2 0.176498 0.347880 0.060879
O O3 0.368928 0.305604 0.081481
O O4 0.422753 0.395179 0.861577
O O5 0.069244 0.612482 0.644199
O O6 0.030044 0.718329 0.832802
O O7 0.000000 0.621158 0.000000
O O8 0.142308 0.500000 0.497108
O O9 0.321553 0.425341 0.442826
O O10 0.500000 0.406597 0.500000
O O11 0.480026 0.500000 0.692975
#
# Coordination Sequence:
#
# PCOD9209786 Si02
#       5
#     8   8   8   4   8
#     4  12  21  43  67  92 127 164 211 262 305 373
#     4  10  25  42  62  93 127 166 211 253 315 366
#     4  11  23  41  65  97 127 162 207 260 319 372
#     4  10  24  44  64  90 124 172 214 254 302 372
#     4  10  21  38  64  96 128 164 205 255 318 376
#
# _framework density 19.165254999999998
#
# number of rings (size 3 to 8) (size 9 to 14) (size 15 to 20)
#    0.667    0.667    2.222    3.333    0.000    5.778 
#    0.000    0.000    0.000    0.000    0.000    0.000 
#    0.000    0.000    0.000    0.000    0.000    0.000 
#
# Total GULP energy -100475.454654 kJ/mol
# GULP energy per Si atom -5581.969703 kJ/mol
# Density = 1.912163 g / cm^3
# Si number density = 19.165255 Si / 1000 Ang^3
#
#
#
# Elastic Constant Matrix: (Units=GPa)
#
#
# Indices 1 2 3 4 5 6 
#
# 1 104.6968 28.6277 2.7097 0.0000 -7.6093 0.0000
# 2 28.6277 104.0694 35.0714 0.0000 -15.8342 0.0000
# 3 2.7097 35.0714 60.3214 0.0000 -14.1413 0.0000
# 4 0.0000 0.0000 0.0000 41.2778 0.0000 -10.3407
# 5 -7.6093 -15.8342 -14.1413 0.0000 28.8026 0.0000
# 6 0.0000 0.0000 0.0000 -10.3407 0.0000 -21.5179
#
#
#
# Elastic Compliance Matrix: (Units=1/GPa)
#
#
# Indices 1 2 3 4 5 6 
#
# 1 0.010525 -0.003228 0.001853 0.000000 0.001916 0.000000
# 2 -0.003228 0.013275 -0.006851 0.000000 0.003081 0.000000
# 3 0.001853 -0.006851 0.022273 0.000000 0.007659 0.000000
# 4 0.000000 0.000000 0.000000 0.021623 0.000000 -0.010391
# 5 0.001916 0.003081 0.007659 0.000000 0.040680 0.000000
# 6 0.000000 0.000000 0.000000 -0.010391 0.000000 -0.041479
#
#
# Mechanical properties :
#
#
# Convention : Reuss Voigt Hill
#
# Bulk Modulus (GPa) = 33.75893 44.65613 39.20753
# Shear Modulus (GPa) = 53.63573 23.22442 38.43007
#
# Velocity S-wave (km/s) = 5.29591 3.48487 4.48280
# Velocity P-wave (km/s) = 7.41946 6.28836 6.87721
#
# Compressibility (1/GPa) = 0.02962179
#
# Stress axis : x y z
#
# Youngs Moduli (GPa) = 95.00795 75.33233 44.89720
#
# Poissons Ratio (x) = 0.24321 -0.08321
# Poissons Ratio (y) = 0.30673 0.30757
# Poissons Ratio (z) = -0.17608 0.51607
#
# Static dielectric constant tensor:
#      x y z
#    x 1.686590 0.000000 0.022250 
#    y 0.000000 1.660980 0.000000 
#    z 0.022250 0.000000 1.628120 
# 
# From -- ./inp_files/50342.got.cif
#   From: 2010.05.17/outbox.cif.g08.bks.cpg/sg12_26_cif.got.tgz:50342.got - 2010.06.03 13:09:07.
