data_PCOD9209772
_publ_section_title
;
Structure prediction by ZEFSAII (Michael W. Deem and Ramdas Pophale) SiO2 
 PCOD9209772
Probable space group: C 2/M
;
_chemical_formula_sum "Si O2"
_cell_formula_units_Z 56
_cell_length_a 23.446377
_cell_length_b 15.462647
_cell_length_c 14.501089
_cell_angle_alpha 90.000000
_cell_angle_beta 30.055642
_cell_angle_gamma 90.000000
_cell_volume 2633.054797
_symmetry_space_group_name_H-M "C 2/M"
_symmetry_group_IT_number 12
_symmetry_cell_setting 'monoclinic'
loop_
_space_group_symop_operation_xyz
x,y,z
-x,y,-z
-x,-y,-z
x,-y,z
1/2+x,1/2+y,z
1/2-x,1/2+y,-z
1/2-x,1/2-y,-z
1/2+x,1/2-y,z
loop_
_atom_site_type_symbol
_atom_site_label
_atom_site_fract_x
_atom_site_fract_y
_atom_site_fract_z
Si Si1 0.931450 0.357545 0.376933
Si Si2 0.094195 0.600164 0.795586
Si Si3 0.129393 0.722824 0.207320
Si Si4 0.156062 0.166109 0.527835
Si Si5 0.212358 0.598460 0.249919
Si Si6 0.026479 0.104113 0.066811
Si Si7 0.504523 0.592690 0.385204
O O1 0.943649 0.395173 0.257902
O O2 0.868407 0.265641 0.456129
O O3 0.853138 0.405662 0.560921
O O4 0.054717 0.340242 0.248413
O O5 0.116340 0.500000 0.788315
O O6 0.213061 0.649891 0.635070
O O7 0.000000 0.633036 0.000000
O O8 0.150273 0.670861 0.273695
O O9 0.067081 0.815620 0.289506
O O10 0.250000 0.750000 0.000000
O O11 0.069905 0.139164 0.730093
O O12 0.115073 0.109425 0.497839
O O13 0.209480 0.500000 0.214378
O O14 0.344675 0.624660 0.080878
O O15 0.018850 0.000000 0.077779
O O16 0.000000 0.134148 0.000000
O O17 0.500000 0.583090 0.500000
O O18 0.551716 0.500000 0.281600
#
# Coordination Sequence:
#
# PCOD9209772 Si02
#       7
#     8   8   8   8   8   8   8
#     4  11  24  41  64  92 125 167 214 265 319 380
#     4  11  25  43  62  89 127 169 211 257 317 388
#     4  11  24  41  63  94 129 166 210 261 315 379
#     4  11  22  40  65  91 123 162 209 265 319 375
#     4  11  23  41  66  97 133 170 211 262 324 391
#     4  10  21  38  64  95 123 159 211 269 323 377
#     4  10  21  39  64  89 116 156 207 261 309 357
#
# _framework density 21.268072
#
# number of rings (size 3 to 8) (size 9 to 14) (size 15 to 20)
#    0.000    1.286    0.000    6.857    0.000    8.571 
#    0.000    1.429    0.000    0.000    0.000    0.000 
#    0.000    0.571    0.000    0.000    0.000    0.000 
#
# Total GULP energy -156353.848584 kJ/mol
# GULP energy per Si atom -5584.066021 kJ/mol
# Density = 2.121966 g / cm^3
# Si number density = 21.268072 Si / 1000 Ang^3
#
#
#
# Elastic Constant Matrix: (Units=GPa)
#
#
# Indices 1 2 3 4 5 6 
#
# 1 128.8126 32.0794 54.8741 0.0000 -3.4345 0.0000
# 2 32.0794 84.5914 12.7318 0.0000 -10.3932 0.0000
# 3 54.8741 12.7318 124.4492 0.0000 -9.9612 0.0000
# 4 0.0000 0.0000 0.0000 19.3153 0.0000 7.6750
# 5 -3.4345 -10.3932 -9.9612 0.0000 34.6600 0.0000
# 6 0.0000 0.0000 0.0000 7.6750 0.0000 28.9163
#
#
#
# Elastic Compliance Matrix: (Units=1/GPa)
#
#
# Indices 1 2 3 4 5 6 
#
# 1 0.010446 -0.003460 -0.004352 0.000000 -0.001253 0.000000
# 2 -0.003460 0.013539 0.000448 0.000000 0.003846 0.000000
# 3 -0.004352 0.000448 0.010118 0.000000 0.002611 0.000000
# 4 0.000000 0.000000 0.000000 0.057876 0.000000 -0.015362
# 5 -0.001253 0.003846 0.002611 0.000000 0.030631 0.000000
# 6 0.000000 0.000000 0.000000 -0.015362 0.000000 0.038660
#
#
# Mechanical properties :
#
#
# Convention : Reuss Voigt Hill
#
# Bulk Modulus (GPa) = 51.61539 59.69155 55.65347
# Shear Modulus (GPa) = 27.40406 32.45619 29.93013
#
# Velocity S-wave (km/s) = 3.59347 3.91071 3.75544
# Velocity P-wave (km/s) = 6.44508 6.96554 6.71036
#
# Compressibility (1/GPa) = 0.01937407
#
# Stress axis : x y z
#
# Youngs Moduli (GPa) = 95.73471 73.86219 98.83837
#
# Poissons Ratio (x) = 0.25558 0.43016
# Poissons Ratio (y) = 0.33126 -0.04432
# Poissons Ratio (z) = 0.41665 -0.03312
#
# Static dielectric constant tensor:
#      x y z
#    x 1.770910 0.000000 0.026220 
#    y 0.000000 1.907330 0.000000 
#    z 0.026220 0.000000 1.742210 
# 
# From -- ./inp_files/240894.got.cif
#   From: 2010.05.17/outbox.cif.g08.bks.cpg/sg12_121_cif.got.tgz:240894.got - 2010.06.03 13:09:07.
