data_PCOD9209719
_publ_section_title
;
Structure prediction by ZEFSAII (Michael W. Deem and Ramdas Pophale) SiO2 
 PCOD9209719
Probable space group: C 2/M
;
_chemical_formula_sum "Si O2"
_cell_formula_units_Z 48
_cell_length_a 22.688703
_cell_length_b 10.631790
_cell_length_c 8.784918
_cell_angle_alpha 90.000000
_cell_angle_beta 95.120330
_cell_angle_gamma 90.000000
_cell_volume 2110.654926
_symmetry_space_group_name_H-M "C 2/M"
_symmetry_group_IT_number 12
_symmetry_cell_setting 'monoclinic'
loop_
_space_group_symop_operation_xyz
x,y,z
-x,y,-z
-x,-y,-z
x,-y,z
1/2+x,1/2+y,z
1/2-x,1/2+y,-z
1/2-x,1/2-y,-z
1/2+x,1/2-y,z
loop_
_atom_site_type_symbol
_atom_site_label
_atom_site_fract_x
_atom_site_fract_y
_atom_site_fract_z
Si Si1 0.748869 0.237263 0.318989
Si Si2 0.397688 0.500000 0.802951
Si Si3 0.434277 0.139050 0.060715
Si Si4 0.504156 0.751364 0.678611
Si Si5 0.947403 0.000000 0.145208
Si Si6 0.239881 0.000000 0.148350
Si Si7 0.614291 0.233017 0.232556
Si Si8 0.192450 0.000000 0.809888
O O1 0.750000 0.250000 0.500000
O O2 0.760952 0.369919 0.233185
O O3 0.680786 0.195614 0.272979
O O4 0.792009 0.127499 0.275478
O O5 0.330569 0.500000 0.843842
O O6 0.398644 0.373038 0.708357
O O7 0.440653 0.500000 0.959105
O O8 0.442693 0.164471 0.240010
O O9 0.410636 0.000000 0.027154
O O10 0.500000 0.148428 0.000000
O O11 0.395395 0.233616 0.952386
O O12 0.500000 0.727971 0.500000
O O13 0.520237 0.622704 0.775756
O O14 0.443866 0.828689 0.709405
O O15 0.877974 0.000000 0.176626
O O16 0.238529 0.000000 0.965007
#
# Coordination Sequence:
#
# PCOD9209719 Si02
#       8
#     8   4   8   8   4   4   8   4
#     4  11  24  43  69  98 135 183 230 289 336 401
#     4   9  17  35  64  89 119 163 206 265 301 387
#     4   9  19  37  60  85 118 165 216 262 308 391
#     4  11  23  37  60  95 129 164 202 272 334 386
#     4  11  22  38  64  97 136 158 208 261 347 388
#     4   9  21  44  66  99 129 174 237 278 337 399
#     4  10  21  38  64  89 123 165 224 257 320 396
#     4  11  25  43  71  97 140 182 227 283 339 413
#
# _framework density 22.741757
#
# number of rings (size 3 to 8) (size 9 to 14) (size 15 to 20)
#    0.000    1.833    1.667    1.750    3.500    1.000 
#    0.000    0.000    0.000    0.000    0.000    0.000 
#    0.000    0.000    0.000    0.000    0.000    0.000 
#
# Total GULP energy -133687.937252 kJ/mol
# GULP energy per Si atom -5570.330719 kJ/mol
# Density = 2.269000 g / cm^3
# Si number density = 22.741757 Si / 1000 Ang^3
#
#
#
# Elastic Constant Matrix: (Units=GPa)
#
#
# Indices 1 2 3 4 5 6 
#
# 1 81.2641 6.7797 7.6176 0.0000 9.4919 0.0000
# 2 6.7797 92.3119 11.1367 0.0000 -7.6435 0.0000
# 3 7.6176 11.1367 124.5891 0.0000 -7.2284 0.0000
# 4 0.0000 0.0000 0.0000 16.1919 0.0000 -5.1642
# 5 9.4919 -7.6435 -7.2284 0.0000 26.2944 0.0000
# 6 0.0000 0.0000 0.0000 -5.1642 0.0000 19.8366
#
#
#
# Elastic Compliance Matrix: (Units=1/GPa)
#
#
# Indices 1 2 3 4 5 6 
#
# 1 0.013137 -0.001291 -0.001001 0.000000 -0.005393 0.000000
# 2 -0.001291 0.011309 -0.000726 0.000000 0.003554 0.000000
# 3 -0.001001 -0.000726 0.008293 0.000000 0.002430 0.000000
# 4 0.000000 0.000000 0.000000 0.067352 0.000000 0.017534
# 5 -0.005393 0.003554 0.002430 0.000000 0.041679 0.000000
# 6 0.000000 0.000000 0.000000 0.017534 0.000000 0.054976
#
#
# Mechanical properties :
#
#
# Convention : Reuss Voigt Hill
#
# Bulk Modulus (GPa) = 37.44540 38.80365 38.12453
# Shear Modulus (GPa) = 23.62025 30.63999 27.13012
#
# Velocity S-wave (km/s) = 3.22627 3.67454 3.45768
# Velocity P-wave (km/s) = 5.51178 5.92476 5.72200
#
# Compressibility (1/GPa) = 0.02670555
#
# Stress axis : x y z
#
# Youngs Moduli (GPa) = 76.12144 88.42167 120.57721
#
# Poissons Ratio (x) = 0.11412 0.12066
# Poissons Ratio (y) = 0.09824 0.08752
# Poissons Ratio (z) = 0.07618 0.06418
#
# Static dielectric constant tensor:
#      x y z
#    x 1.918900 0.000000 -0.035620 
#    y 0.000000 2.091480 0.000000 
#    z -0.035620 0.000000 1.892480 
# 
# From -- ./inp_files/95052.got.cif
#   From: 2010.05.17/outbox.cif.g08.bks.cpg/sg12_48_cif.got.tgz:95052.got - 2010.06.03 13:09:07.
