data_PCOD9209088
_publ_section_title
;
Structure prediction by ZEFSAII (Michael W. Deem and Ramdas Pophale) SiO2 
 PCOD9209088
Probable space group: C 2/M
;
_chemical_formula_sum "Si O2"
_cell_formula_units_Z 32
_cell_length_a 8.441008
_cell_length_b 11.751630
_cell_length_c 13.056575
_cell_angle_alpha 90.000000
_cell_angle_beta 96.177965
_cell_angle_gamma 90.000000
_cell_volume 1287.633120
_symmetry_space_group_name_H-M "C 2/M"
_symmetry_group_IT_number 12
_symmetry_cell_setting 'monoclinic'
loop_
_space_group_symop_operation_xyz
x,y,z
-x,y,-z
-x,-y,-z
x,-y,z
1/2+x,1/2+y,z
1/2-x,1/2+y,-z
1/2-x,1/2-y,-z
1/2+x,1/2-y,z
loop_
_atom_site_type_symbol
_atom_site_label
_atom_site_fract_x
_atom_site_fract_y
_atom_site_fract_z
Si Si1 0.884275 0.313260 0.075747
Si Si2 0.189141 0.374169 0.611807
Si Si3 0.899147 0.879582 0.809247
Si Si4 0.350423 0.376769 0.414705
O O1 0.775524 0.377478 0.149714
O O2 0.994978 0.222857 0.142867
O O3 0.750000 0.250000 0.000000
O O4 0.000000 0.371233 0.000000
O O5 0.115555 0.500000 0.629549
O O6 0.355904 0.378678 0.686611
O O7 0.207226 0.369646 0.489612
O O8 0.136731 0.246038 0.637995
O O9 0.977197 0.000000 0.842751
O O10 0.500000 0.385092 0.500000
O O11 0.329946 0.500000 0.358698
#
# Coordination Sequence:
#
# PCOD9209088 Si02
#       4
#     8   8   8   8
#     4   9  20  38  59  86 115 149 193 239 297 362
#     4   9  19  34  52  80 113 150 192 238 291 345
#     4  10  21  38  61  86 117 154 195 245 297 354
#     4   9  18  33  54  78 110 151 191 234 285 345
#
# _framework density 24.851800000000001
#
# number of rings (size 3 to 8) (size 9 to 14) (size 15 to 20)
#    0.000    2.750    0.000    0.000    3.500    5.500 
#    0.000    5.000    0.000    0.000    0.000    0.000 
#    0.000    0.000    0.000    0.000    0.000    0.000 
#
# Total GULP energy -89078.007543 kJ/mol
# GULP energy per Si atom -5567.375471 kJ/mol
# Density = 2.479524 g / cm^3
# Si number density = 24.851800 Si / 1000 Ang^3
#
#
#
# Elastic Constant Matrix: (Units=GPa)
#
#
# Indices 1 2 3 4 5 6 
#
# 1 84.7366 30.3117 23.7351 0.0000 -19.8841 0.0000
# 2 30.3117 264.5573 34.4372 0.0000 10.5881 0.0000
# 3 23.7351 34.4372 88.8154 0.0000 -13.8385 0.0000
# 4 0.0000 0.0000 0.0000-8754.2155 0.0000-3325.9606
# 5 -19.8841 10.5881 -13.8385 0.0000 45.7490 0.0000
# 6 0.0000 0.0000 0.0000-3325.9606 0.0000-1263.5304
#
#
#
# Elastic Compliance Matrix: (Units=1/GPa)
#
#
# Indices 1 2 3 4 5 6 
#
# 1 0.014408 -0.001587 -0.002311 0.000000 0.005931 0.000000
# 2 -0.001587 0.004250 -0.001558 0.000000 -0.002145 0.000000
# 3 -0.002311 -0.001558 0.012993 0.000000 0.003286 0.000000
# 4 0.000000 0.000000 0.000000 1.586623 0.000000 -4.176429
# 5 0.005931 -0.002145 0.003286 0.000000 0.025927 0.000000
# 6 0.000000 0.000000 0.000000 -4.176429 0.000000 10.992721
#
#
# Mechanical properties :
#
#
# Convention : Reuss Voigt Hill
#
# Bulk Modulus (GPa) = 48.21849 68.34193 58.28021
# Shear Modulus (GPa) = 0.39511 -1971.09103 -985.34796
#
# Velocity S-wave (km/s) = 0.39916 -28.19326 -19.93365
# Velocity P-wave (km/s) = 4.43362 32.12871 22.50108
#
# Compressibility (1/GPa) = 0.02073893
#
# Stress axis : x y z
#
# Youngs Moduli (GPa) = 69.40570 235.27067 76.96419
#
# Poissons Ratio (x) = 0.37346 0.17786
# Poissons Ratio (y) = 0.11017 0.11991
# Poissons Ratio (z) = 0.16039 0.36656
#
# Static dielectric constant tensor:
#      x y z
#    x 2.127860 0.000000 -0.142320 
#    y 0.000000 2.020930 0.000000 
#    z -0.142320 0.000000 1.955090 
# 
# From -- ./inp_files/193472.got.cif
#   From: 2010.05.17/outbox.cif.g08.bks.cpg/sg12_97_cif.got.tgz:193472.got - 2010.06.03 13:09:07.
