data_PCOD9209808
_publ_section_title
;
Structure prediction by ZEFSAII (Michael W. Deem and Ramdas Pophale) SiO2 
 PCOD9209808
Probable space group: C 2/M
;
_chemical_formula_sum "Si O2"
_cell_formula_units_Z 40
_cell_length_a 9.885976
_cell_length_b 20.752070
_cell_length_c 15.234667
_cell_angle_alpha 90.000000
_cell_angle_beta 149.856224
_cell_angle_gamma 90.000000
_cell_volume 1569.517226
_symmetry_space_group_name_H-M "C 2/M"
_symmetry_group_IT_number 12
_symmetry_cell_setting 'monoclinic'
loop_
_space_group_symop_operation_xyz
x,y,z
-x,y,-z
-x,-y,-z
x,-y,z
1/2+x,1/2+y,z
1/2-x,1/2+y,-z
1/2-x,1/2-y,-z
1/2+x,1/2-y,z
loop_
_atom_site_type_symbol
_atom_site_label
_atom_site_fract_x
_atom_site_fract_y
_atom_site_fract_z
Si Si1 0.117889 0.000000 0.344365
Si Si2 0.500000 0.755372 0.000000
Si Si3 0.279999 0.000000 0.239121
Si Si4 0.717794 0.000000 0.978912
Si Si5 0.638481 0.851658 0.753541
Si Si6 0.975716 0.115307 0.585475
Si Si7 0.064083 0.358121 0.913665
O O1 0.425550 0.000000 0.546721
O O2 0.036412 0.000000 0.193332
O O3 0.999993 0.062123 0.325476
O O4 0.686193 0.711107 0.167657
O O5 0.319538 0.805043 0.956394
O O6 0.248904 0.082047 0.222078
O O7 0.287159 0.000000 0.129670
O O8 0.598215 0.065401 0.949965
O O9 0.671200 0.852147 0.876817
O O10 0.313072 0.851589 0.560210
O O11 0.245374 0.156168 0.736225
O O12 0.000000 0.084700 0.500000
#
# Coordination Sequence:
#
# PCOD9209808 Si02
#       7
#     4   4   4   4   8   8   8
#     4  10  21  38  65 105 132 163 217 268 335 384
#     4  12  26  42  70  94 132 178 222 272 326 390
#     4  10  24  41  68 100 130 173 215 275 324 383
#     4  10  22  39  68 101 132 165 218 272 327 384
#     4  11  24  44  67  97 132 173 222 270 328 392
#     4  10  22  40  66  97 135 172 211 271 330 390
#     4  11  23  43  69  98 133 172 220 270 332 391
#
# _framework density 25.485543
#
# number of rings (size 3 to 8) (size 9 to 14) (size 15 to 20)
#    0.600    0.800    0.000    5.100    0.000    8.000 
#    0.000    0.000    0.000    0.000    0.000    0.000 
#    0.000    0.000    0.000    0.000    0.000    0.000 
#
# Total GULP energy -111481.996229 kJ/mol
# GULP energy per Si atom -5574.099811 kJ/mol
# Density = 2.542754 g / cm^3
# Si number density = 25.485543 Si / 1000 Ang^3
#
#
#
# Elastic Constant Matrix: (Units=GPa)
#
#
# Indices 1 2 3 4 5 6 
#
# 1 120.0685 50.9274 49.3373 0.0022 -4.3088 -0.0009
# 2 50.9274 198.2150 37.5708 0.0038 9.6972 -0.0002
# 3 49.3373 37.5708 125.5414 0.0124 9.6383 -0.0439
# 4 0.0022 0.0038 0.0124 0.0461 0.0018 -11.6624
# 5 -4.3088 9.6972 9.6383 0.0018 56.8455 -0.0101
# 6 -0.0009 -0.0002 -0.0439 -11.6624 -0.0101 29.3117
#
#
#
# Elastic Compliance Matrix: (Units=1/GPa)
#
#
# Indices 1 2 3 4 5 6 
#
# 1 0.010858 -0.002167 -0.003759 0.000006 0.001830 -0.000002
# 2 -0.002167 0.005805 -0.000807 0.000005 -0.001018 0.000000
# 3 -0.003759 -0.000807 0.009824 -0.000012 -0.001813 0.000009
# 4 0.000006 0.000005 -0.000012 -0.217674 -0.000007 -0.086607
# 5 0.001830 -0.001018 -0.001813 -0.000007 0.018211 0.000001
# 6 -0.000002 0.000000 0.000009 -0.086607 0.000001 -0.000342
#
#
# Mechanical properties :
#
#
# Convention : Reuss Voigt Hill
#
# Bulk Modulus (GPa) = 76.80865 79.94398 78.37631
# Shear Modulus (GPa) = -32.15185 37.63995 2.74405
#
# Velocity S-wave (km/s) = -3.55571 3.84723 1.03877
# Velocity P-wave (km/s) = 3.65323 7.15342 5.67968
#
# Compressibility (1/GPa) = 0.01301937
#
# Stress axis : x y z
#
# Youngs Moduli (GPa) = 92.09823 172.27824 101.79474
#
# Poissons Ratio (x) = 0.37328 0.38267
# Poissons Ratio (y) = 0.19955 0.08220
# Poissons Ratio (z) = 0.34622 0.13911
#
# Static dielectric constant tensor:
#      x y z
#    x 2.070270 -0.000020 -0.009300 
#    y -0.000020 2.048470 0.000010 
#    z -0.009300 0.000010 2.087770 
# 
# From -- ./inp_files/62640.got.cif
#   From: 2010.05.17/outbox.cif.g08.bks.cpg/sg12_32_cif.got.tgz:62640.got - 2010.06.03 13:09:07.
