data_PCOD9209416
_publ_section_title
;
Structure prediction by ZEFSAII (Michael W. Deem and Ramdas Pophale) SiO2 
 PCOD9209416
Probable space group: C 2/M
;
_chemical_formula_sum "Si O2"
_cell_formula_units_Z 64
_cell_length_a 21.282850
_cell_length_b 9.024741
_cell_length_c 16.236191
_cell_angle_alpha 90.000000
_cell_angle_beta 93.685161
_cell_angle_gamma 90.000000
_cell_volume 3112.072899
_symmetry_space_group_name_H-M "C 2/M"
_symmetry_group_IT_number 12
_symmetry_cell_setting 'monoclinic'
loop_
_space_group_symop_operation_xyz
x,y,z
-x,y,-z
-x,-y,-z
x,-y,z
1/2+x,1/2+y,z
1/2-x,1/2+y,-z
1/2-x,1/2-y,-z
1/2+x,1/2-y,z
loop_
_atom_site_type_symbol
_atom_site_label
_atom_site_fract_x
_atom_site_fract_y
_atom_site_fract_z
Si Si1 0.480765 0.833875 0.119625
Si Si2 0.405723 0.171532 0.272189
Si Si3 0.794254 0.171428 0.170098
Si Si4 0.429483 0.176893 0.465739
Si Si5 0.655992 0.829734 0.979335
Si Si6 0.328142 0.826248 0.725962
Si Si7 0.102955 0.826720 0.128258
Si Si8 0.811582 0.177909 0.547737
O O1 0.463855 0.815802 0.214367
O O2 0.413638 0.825552 0.068672
O O3 0.531794 0.715179 0.097626
O O4 0.506780 0.000000 0.107070
O O5 0.351321 0.275710 0.233079
O O6 0.423086 0.200984 0.367415
O O7 0.383563 0.000000 0.263697
O O8 0.798413 0.265064 0.086595
O O9 0.732210 0.187788 0.219447
O O10 0.802436 0.000000 0.148524
O O11 0.500000 0.216975 0.500000
O O12 0.374377 0.265879 0.506546
O O13 0.420970 0.000000 0.480930
O O14 0.671327 0.000000 0.000106
O O15 0.648293 0.736230 0.061161
O O16 0.383599 0.758013 0.785429
O O17 0.316441 0.737357 0.641414
O O18 0.338602 0.000000 0.708978
O O19 0.111819 0.000000 0.139161
O O20 0.750000 0.250000 0.500000
O O21 0.806867 0.000000 0.544934
#
# Coordination Sequence:
#
# PCOD9209416 Si02
#       8
#     8   8   8   8   8   8   8   8
#     4   9  19  36  59  86 119 163 207 246 297 368
#     4   9  19  36  60  89 120 160 202 244 301 372
#     4  10  21  38  62  90 116 151 202 258 309 360
#     4  10  22  40  65  97 131 172 215 263 326 392
#     4  10  21  39  63  88 118 162 205 246 303 370
#     4  11  25  44  65  89 122 164 206 255 314 374
#     4  12  25  38  57  89 125 161 202 255 310 362
#     4  12  26  45  69  98 131 172 220 271 325 387
#
# _framework density 20.565071
#
# number of rings (size 3 to 8) (size 9 to 14) (size 15 to 20)
#    0.000    1.625    0.000    5.250    1.750    9.250 
#    0.000    0.000    0.000    0.000    0.000    0.000 
#    0.000    0.000    0.000    0.000    0.000    0.000 
#
# Total GULP energy -178982.480047 kJ/mol
# GULP energy per Si atom -5593.202501 kJ/mol
# Density = 2.051826 g / cm^3
# Si number density = 20.565071 Si / 1000 Ang^3
#
#
#
# Elastic Constant Matrix: (Units=GPa)
#
#
# Indices 1 2 3 4 5 6 
#
# 1 87.0388 57.7940 31.6901 0.0000 4.2015 0.0000
# 2 57.7940 122.8526 58.7443 0.0000 -8.2165 0.0000
# 3 31.6901 58.7443 112.4848 0.0000 2.7655 0.0000
# 4 0.0000 0.0000 0.0000 34.7073 0.0000 -5.0271
# 5 4.2015 -8.2165 2.7655 0.0000 22.5534 0.0000
# 6 0.0000 0.0000 0.0000 -5.0271 0.0000 27.9437
#
#
#
# Elastic Compliance Matrix: (Units=1/GPa)
#
#
# Indices 1 2 3 4 5 6 
#
# 1 0.017586 -0.008534 -0.000342 0.000000 -0.006343 0.000000
# 2 -0.008534 0.015502 -0.005887 0.000000 0.007959 0.000000
# 3 -0.000342 -0.005887 0.012149 0.000000 -0.003571 0.000000
# 4 0.000000 0.000000 0.000000 0.029583 0.000000 0.005322
# 5 -0.006343 0.007959 -0.003571 0.000000 0.048858 0.000000
# 6 0.000000 0.000000 0.000000 0.005322 0.000000 0.036744
#
#
# Mechanical properties :
#
#
# Convention : Reuss Voigt Hill
#
# Bulk Modulus (GPa) = 63.64955 68.75920 66.20437
# Shear Modulus (GPa) = 25.61667 28.65074 27.13371
#
# Velocity S-wave (km/s) = 3.53319 3.73658 3.63631
# Velocity P-wave (km/s) = 6.90377 7.21966 7.06348
#
# Compressibility (1/GPa) = 0.01571103
#
# Stress axis : x y z
#
# Youngs Moduli (GPa) = 56.86207 64.50804 82.31338
#
# Poissons Ratio (x) = 0.55052 0.02813
# Poissons Ratio (y) = 0.48526 0.48459
# Poissons Ratio (z) = 0.01943 0.37977
#
# Static dielectric constant tensor:
#      x y z
#    x 1.752160 0.000000 0.013220 
#    y 0.000000 1.700030 0.000000 
#    z 0.013220 0.000000 1.722330 
# 
# From -- ./inp_files/238715.got.cif
#   From: 2010.05.17/outbox.cif.g08.bks.cpg/sg12_120_cif.got.tgz:238715.got - 2010.06.03 13:09:07.
