data_PCOD9209183
_publ_section_title
;
Structure prediction by ZEFSAII (Michael W. Deem and Ramdas Pophale) SiO2 
 PCOD9209183
Probable space group: C 2/M
;
_chemical_formula_sum "Si O2"
_cell_formula_units_Z 48
_cell_length_a 26.009564
_cell_length_b 8.848687
_cell_length_c 14.746993
_cell_angle_alpha 90.000000
_cell_angle_beta 40.915965
_cell_angle_gamma 90.000000
_cell_volume 2222.923181
_symmetry_space_group_name_H-M "C 2/M"
_symmetry_group_IT_number 12
_symmetry_cell_setting 'monoclinic'
loop_
_space_group_symop_operation_xyz
x,y,z
-x,y,-z
-x,-y,-z
x,-y,z
1/2+x,1/2+y,z
1/2-x,1/2+y,-z
1/2-x,1/2-y,-z
1/2+x,1/2-y,z
loop_
_atom_site_type_symbol
_atom_site_label
_atom_site_fract_x
_atom_site_fract_y
_atom_site_fract_z
Si Si1 0.333474 0.820641 0.675193
Si Si2 0.413861 0.680589 0.081760
Si Si3 0.417737 0.677795 0.400179
Si Si4 0.830099 0.320993 0.356409
Si Si5 0.425655 0.177730 0.731273
Si Si6 0.831867 0.179423 0.008327
O O1 0.352498 0.725238 0.561192
O O2 0.400333 0.793605 0.661734
O O3 0.333710 0.000000 0.651763
O O4 0.251050 0.787167 0.833605
O O5 0.406034 0.500000 0.105439
O O6 0.350899 0.761409 0.229197
O O7 0.500000 0.726732 0.000000
O O8 0.396943 0.709740 0.999083
O O9 0.417009 0.500000 0.383863
O O10 0.397925 0.764336 0.334219
O O11 0.500183 0.728580 0.333066
O O12 0.824499 0.500000 0.365028
O O13 0.750000 0.250000 0.500000
O O14 0.353085 0.223866 0.892508
O O15 0.442666 0.000000 0.717391
O O16 0.833023 0.000000 0.984748
#
# Coordination Sequence:
#
# PCOD9209183 Si02
#       6
#     8   8   8   8   8   8
#     4  10  22  40  61  88 123 162 203 252 309 362
#     4  10  21  38  61  90 124 162 204 251 302 356
#     4  12  25  41  63  90 121 159 204 252 303 361
#     4  12  25  42  65  92 124 160 201 249 300 359
#     4  11  23  39  61  89 123 161 203 252 304 362
#     4  10  21  38  61  88 122 162 202 249 303 360
#
# _framework density 21.593188000000001
#
# number of rings (size 3 to 8) (size 9 to 14) (size 15 to 20)
#    0.000    1.167    0.000    6.500    0.000    7.667 
#    0.000    0.000    0.000    0.000    0.000    0.000 
#    0.000    0.000    0.000    0.000    0.000    0.000 
#
# Total GULP energy -134410.409451 kJ/mol
# GULP energy per Si atom -5600.433727 kJ/mol
# Density = 2.154404 g / cm^3
# Si number density = 21.593188 Si / 1000 Ang^3
#
#
#
# Elastic Constant Matrix: (Units=GPa)
#
#
# Indices 1 2 3 4 5 6 
#
# 1 46.9648 8.4108 -7.8204 -0.0002 -3.5408 0.0001
# 2 8.4108 47.5362 17.9017 -0.0005 13.0821 -0.0003
# 3 -7.8204 17.9017 61.5902 -0.0001 5.1683 0.0000
# 4 -0.0002 -0.0005 -0.0001 36.9839 -0.0001 -3.1262
# 5 -3.5408 13.0821 5.1683 -0.0001 38.6852 0.0002
# 6 0.0001 -0.0003 0.0000 -3.1262 0.0002 23.3849
#
#
#
# Elastic Compliance Matrix: (Units=1/GPa)
#
#
# Indices 1 2 3 4 5 6 
#
# 1 0.023633 -0.007034 0.004717 0.000000 0.003912 0.000000
# 2 -0.007034 0.027849 -0.008236 0.000000 -0.008961 0.000000
# 3 0.004717 -0.008236 0.019174 0.000000 0.000655 0.000000
# 4 0.000000 0.000000 0.000000 0.027348 0.000000 0.003656
# 5 0.003912 -0.008961 0.000655 0.000000 0.029151 0.000000
# 6 0.000000 0.000000 0.000000 0.003656 0.000000 0.043251
#
#
# Mechanical properties :
#
#
# Convention : Reuss Voigt Hill
#
# Bulk Modulus (GPa) = 20.18177 21.45283 20.81730
# Shear Modulus (GPa) = 24.03524 28.98408 26.50966
#
# Velocity S-wave (km/s) = 3.33993 3.66769 3.50764
# Velocity P-wave (km/s) = 4.92343 5.28133 5.10552
#
# Compressibility (1/GPa) = 0.04954967
#
# Stress axis : x y z
#
# Youngs Moduli (GPa) = 42.31430 35.90811 52.15370
#
# Poissons Ratio (x) = 0.25259 -0.24601
# Poissons Ratio (y) = 0.29765 0.42952
# Poissons Ratio (z) = -0.19960 0.29573
#
# Static dielectric constant tensor:
#      x y z
#    x 1.808470 0.000000 -0.035790 
#    y 0.000000 1.712640 0.000000 
#    z -0.035790 0.000000 1.784110 
# 
# From -- ./inp_files/244634.got.cif
#   From: 2010.05.17/outbox.cif.g08.bks.cpg/sg12_123_cif.got.tgz:244634.got - 2010.06.03 13:09:07.
