data_PCOD9209115
_publ_section_title
;
Structure prediction by ZEFSAII (Michael W. Deem and Ramdas Pophale) SiO2 
 PCOD9209115
Probable space group: C 2/M
;
_chemical_formula_sum "Si O2"
_cell_formula_units_Z 48
_cell_length_a 32.294555
_cell_length_b 8.792428
_cell_length_c 20.792078
_cell_angle_alpha 90.000000
_cell_angle_beta 154.681848
_cell_angle_gamma 90.000000
_cell_volume 2524.751707
_symmetry_space_group_name_H-M "C 2/M"
_symmetry_group_IT_number 12
_symmetry_cell_setting 'monoclinic'
loop_
_space_group_symop_operation_xyz
x,y,z
-x,y,-z
-x,-y,-z
x,-y,z
1/2+x,1/2+y,z
1/2-x,1/2+y,-z
1/2-x,1/2-y,-z
1/2+x,1/2-y,z
loop_
_atom_site_type_symbol
_atom_site_label
_atom_site_fract_x
_atom_site_fract_y
_atom_site_fract_z
Si Si1 0.353951 0.818384 0.627455
Si Si2 0.224984 0.681919 0.205059
Si Si3 0.982832 0.818577 0.051302
Si Si4 0.607288 0.681725 0.457866
Si Si5 0.905129 0.318383 0.209050
Si Si6 0.253488 0.181700 0.107463
O O1 0.250000 0.750000 0.500000
O O2 0.434197 0.759130 0.789897
O O3 0.381480 0.761318 0.595098
O O4 0.349638 0.000000 0.622969
O O5 0.214898 0.500000 0.186595
O O6 0.301142 0.717253 0.368394
O O7 0.262553 0.746788 0.190223
O O8 0.121465 0.755472 0.074769
O O9 0.986123 0.000000 0.066063
O O10 0.000000 0.787880 0.000000
O O11 0.602626 0.500000 0.442470
O O12 0.509085 0.740561 0.352658
O O13 0.914500 0.500000 0.215123
O O14 0.845392 0.287003 0.190507
O O15 0.839127 0.253094 0.058729
O O16 0.241339 0.000000 0.094762
#
# Coordination Sequence:
#
# PCOD9209115 Si02
#       6
#     8   8   8   8   8   8
#     4  12  25  42  65  91 122 157 196 243 293 349
#     4  11  24  40  60  87 120 158 198 244 296 350
#     4  11  24  42  65  91 120 156 197 242 293 350
#     4  11  24  41  61  87 121 159 199 244 295 351
#     4  10  21  38  61  88 118 155 199 246 297 352
#     4  10  21  38  61  87 118 156 198 246 297 353
#
# _framework density 19.011769999999999
#
# number of rings (size 3 to 8) (size 9 to 14) (size 15 to 20)
#    0.000    1.167    0.000    6.000    0.000    9.333 
#    0.000    3.333    0.000    0.000    0.000    0.000 
#    0.000    0.000    0.000    0.000    0.000    0.000 
#
# Total GULP energy -134304.929550 kJ/mol
# GULP energy per Si atom -5596.038731 kJ/mol
# Density = 1.896850 g / cm^3
# Si number density = 19.011770 Si / 1000 Ang^3
#
#
#
# Elastic Constant Matrix: (Units=GPa)
#
#
# Indices 1 2 3 4 5 6 
#
# 1 103.8974 75.4840 89.0988 0.0000 -9.4814 0.0000
# 2 75.4840 117.1812 97.7348 0.0000 -9.9848 0.0000
# 3 89.0988 97.7348 172.9207 0.0000 4.2659 0.0000
# 4 0.0000 0.0000 0.0000 33.5624 0.0000 5.3916
# 5 -9.4814 -9.9848 4.2659 0.0000 37.3307 0.0000
# 6 0.0000 0.0000 0.0000 5.3916 0.0000 33.3822
#
#
#
# Elastic Compliance Matrix: (Units=1/GPa)
#
#
# Indices 1 2 3 4 5 6 
#
# 1 0.021494 -0.007895 -0.006714 0.000000 0.004115 0.000000
# 2 -0.007895 0.020197 -0.007452 0.000000 0.004248 0.000000
# 3 -0.006714 -0.007452 0.013584 0.000000 -0.005251 0.000000
# 4 0.000000 0.000000 0.000000 0.030589 0.000000 -0.004941
# 5 0.004115 0.004248 -0.005251 0.000000 0.029569 0.000000
# 6 0.000000 0.000000 0.000000 -0.004941 0.000000 0.030754
#
#
# Mechanical properties :
#
#
# Convention : Reuss Voigt Hill
#
# Bulk Modulus (GPa) = 89.66820 102.07050 95.86935
# Shear Modulus (GPa) = 25.76945 29.63384 27.70165
#
# Velocity S-wave (km/s) = 3.68563 3.95233 3.82131
# Velocity P-wave (km/s) = 8.08572 8.63901 8.36694
#
# Compressibility (1/GPa) = 0.01115223
#
# Stress axis : x y z
#
# Youngs Moduli (GPa) = 46.52364 49.51218 73.61609
#
# Poissons Ratio (x) = 0.39092 0.49428
# Poissons Ratio (y) = 0.36732 0.54859
# Poissons Ratio (z) = 0.31237 0.36897
#
# Static dielectric constant tensor:
#      x y z
#    x 1.641580 0.000000 0.000090 
#    y 0.000000 1.634590 0.000000 
#    z 0.000090 0.000000 1.621310 
# 
# From -- ./inp_files/295911.got.cif
#   From: 2010.05.17/outbox.cif.g08.bks.cpg/sg12_148_cif.got.tgz:295911.got - 2010.06.03 13:09:07.
