data_PCOD9209544
_publ_section_title
;
Structure prediction by ZEFSAII (Michael W. Deem and Ramdas Pophale) SiO2 
 PCOD9209544
Probable space group: C 2/M
;
_chemical_formula_sum "Si O2"
_cell_formula_units_Z 44
_cell_length_a 11.179570
_cell_length_b 14.274033
_cell_length_c 14.233998
_cell_angle_alpha 90.000000
_cell_angle_beta 56.259955
_cell_angle_gamma 90.000000
_cell_volume 1888.841377
_symmetry_space_group_name_H-M "C 2/M"
_symmetry_group_IT_number 12
_symmetry_cell_setting 'monoclinic'
loop_
_space_group_symop_operation_xyz
x,y,z
-x,y,-z
-x,-y,-z
x,-y,z
1/2+x,1/2+y,z
1/2-x,1/2+y,-z
1/2-x,1/2-y,-z
1/2+x,1/2-y,z
loop_
_atom_site_type_symbol
_atom_site_label
_atom_site_fract_x
_atom_site_fract_y
_atom_site_fract_z
Si Si1 0.420493 0.637163 0.785202
Si Si2 0.639196 0.140047 0.815059
Si Si3 0.661950 0.823155 0.102276
Si Si4 0.890177 0.500000 0.633268
Si Si5 0.439841 0.500000 0.420432
Si Si6 0.167393 0.863260 0.805635
Si Si7 0.657712 0.000000 0.643150
O O1 0.254486 0.607799 0.842876
O O2 0.418525 0.750728 0.790149
O O3 0.504073 0.589604 0.662311
O O4 0.509734 0.607088 0.838542
O O5 0.467054 0.126787 0.897005
O O6 0.661819 0.251244 0.801464
O O7 0.681779 0.088471 0.700508
O O8 0.773849 0.882132 0.115159
O O9 0.750000 0.750000 0.000000
O O10 0.783993 0.411504 0.687457
O O11 0.000000 0.500000 0.500000
O O12 0.995414 0.500000 0.677542
O O13 0.500000 0.500000 0.500000
O O14 0.269173 0.500000 0.509358
#
# Coordination Sequence:
#
# PCOD9209544 Si02
#       7
#     8   8   8   4   4   8   4
#     4  10  21  38  62  94 134 172 233 277 343 425
#     4  10  21  40  66  99 133 183 233 286 346 434
#     4  10  22  43  68  95 136 181 227 291 360 419
#     4  12  24  43  66 100 140 187 236 300 350 420
#     4  12  22  40  64  94 138 187 223 299 361 408
#     4  10  22  41  65  98 139 176 235 292 351 420
#     4  12  22  41  70  95 140 190 238 284 354 425
#
# _framework density 23.294702999999998
#
# number of rings (size 3 to 8) (size 9 to 14) (size 15 to 20)
#    0.000    1.455    3.636    1.636    0.000    6.545 
#    6.545    4.545    0.000   10.909    0.000    0.000 
#    0.000    0.000    0.000    0.000    0.000    0.000 
#
# Total GULP energy -122679.053218 kJ/mol
# GULP energy per Si atom -5576.320601 kJ/mol
# Density = 2.324168 g / cm^3
# Si number density = 23.294703 Si / 1000 Ang^3
#
#
#
# Elastic Constant Matrix: (Units=GPa)
#
#
# Indices 1 2 3 4 5 6 
#
# 1 298.8757 11.9091 48.7668 0.0000 2.6018 0.0000
# 2 11.9091 77.3401 15.8654 0.0000 -0.8570 0.0000
# 3 48.7668 15.8654 111.6097 0.0000 -18.7078 0.0000
# 4 0.0000 0.0000 0.0000 41.1161 0.0000 -2.8689
# 5 2.6018 -0.8570 -18.7078 0.0000 22.3138 0.0000
# 6 0.0000 0.0000 0.0000 -2.8689 0.0000 11.0232
#
#
#
# Elastic Compliance Matrix: (Units=1/GPa)
#
#
# Indices 1 2 3 4 5 6 
#
# 1 0.003686 -0.000195 -0.001927 0.000000 -0.002053 0.000000
# 2 -0.000195 0.013359 -0.002006 0.000000 -0.001146 0.000000
# 3 -0.001927 -0.002006 0.011765 0.000000 0.010011 0.000000
# 4 0.000000 0.000000 0.000000 0.024771 0.000000 0.006447
# 5 -0.002053 -0.001146 0.010011 0.000000 0.053404 0.000000
# 6 0.000000 0.000000 0.000000 0.006447 0.000000 0.092396
#
#
# Mechanical properties :
#
#
# Convention : Reuss Voigt Hill
#
# Bulk Modulus (GPa) = 48.65204 71.21201 59.93203
# Shear Modulus (GPa) = 23.31139 42.30956 32.81048
#
# Velocity S-wave (km/s) = 3.16684 4.26640 3.75706
# Velocity P-wave (km/s) = 5.85685 7.40986 6.67865
#
# Compressibility (1/GPa) = 0.02055412
#
# Stress axis : x y z
#
# Youngs Moduli (GPa) = 271.30276 74.85755 84.99854
#
# Poissons Ratio (x) = 0.01460 0.16378
# Poissons Ratio (y) = 0.05292 0.17049
# Poissons Ratio (z) = 0.52277 0.15015
#
# Static dielectric constant tensor:
#      x y z
#    x 2.006250 0.000000 0.016220 
#    y 0.000000 1.854220 0.000000 
#    z 0.016220 0.000000 1.847550 
# 
# From -- ./inp_files/205573.got.cif
#   From: 2010.05.17/outbox.cif.g08.bks.cpg/sg12_103_cif.got.tgz:205573.got - 2010.06.03 13:09:07.
