data_PCOD9209502
_publ_section_title
;
Structure prediction by ZEFSAII (Michael W. Deem and Ramdas Pophale) SiO2 
 PCOD9209502
Probable space group: C 2/M
;
_chemical_formula_sum "Si O2"
_cell_formula_units_Z 58
_cell_length_a 24.641422
_cell_length_b 20.885097
_cell_length_c 8.768127
_cell_angle_alpha 90.000000
_cell_angle_beta 41.419848
_cell_angle_gamma 90.000000
_cell_volume 2985.286360
_symmetry_space_group_name_H-M "C 2/M"
_symmetry_group_IT_number 12
_symmetry_cell_setting 'monoclinic'
loop_
_space_group_symop_operation_xyz
x,y,z
-x,y,-z
-x,-y,-z
x,-y,z
1/2+x,1/2+y,z
1/2-x,1/2+y,-z
1/2-x,1/2-y,-z
1/2+x,1/2-y,z
loop_
_atom_site_type_symbol
_atom_site_label
_atom_site_fract_x
_atom_site_fract_y
_atom_site_fract_z
Si Si1 0.873028 0.191489 0.090649
Si Si2 0.139909 0.168104 0.526370
Si Si3 0.205495 0.074913 0.917837
Si Si4 0.787971 0.708169 0.058382
Si Si5 0.885982 0.381164 0.637719
Si Si6 0.000000 0.500000 0.500000
Si Si7 0.928225 0.073581 0.542663
Si Si8 0.025491 0.737300 0.621423
O O1 0.864919 0.185633 0.288295
O O2 0.848166 0.122032 0.075581
O O3 0.812284 0.240416 0.134491
O O4 0.959077 0.225164 0.864119
O O5 0.230554 0.158882 0.270609
O O6 0.083776 0.109734 0.589899
O O7 0.108628 0.226586 0.488917
O O8 0.298840 0.100475 0.741892
O O9 0.206250 0.000000 0.868588
O O10 0.155389 0.077526 0.183071
O O11 0.750000 0.750000 0.000000
O O12 0.859850 0.665854 0.832215
O O13 0.950567 0.337144 0.406458
O O14 0.932770 0.443723 0.594510
O O15 0.000000 0.100931 0.500000
O O16 0.948969 0.000000 0.470748
O O17 0.000000 0.747896 0.500000
#
# Coordination Sequence:
#
# PCOD9209502 Si02
#       8
#     8   8   8   8   8   2   8   8
#     4  12  24  38  58  98 133 171 212 275 347 393
#     4  12  23  36  61  93 133 168 215 280 339 401
#     4  11  22  40  67  95 130 176 228 270 321 403
#     4  12  20  40  65  92 123 167 226 272 328 390
#     4  12  22  40  69  98 127 169 222 280 319 382
#     4  12  24  40  64 108 128 156 218 280 318 376
#     4  10  21  38  62  92 129 177 225 272 326 397
#     4  12  22  39  63  92 129 173 219 269 331 388
#
# _framework density 19.428622000000001
#
# number of rings (size 3 to 8) (size 9 to 14) (size 15 to 20)
#    0.000    0.414    6.897    2.897    0.000    0.552 
#    0.000    0.000    0.000    4.138    0.000    3.862 
#    0.000    0.000    0.000    0.000    0.000    0.000 
#
# Total GULP energy -161446.472724 kJ/mol
# GULP energy per Si atom -5567.119749 kJ/mol
# Density = 1.938440 g / cm^3
# Si number density = 19.428622 Si / 1000 Ang^3
#
#
#
# Elastic Constant Matrix: (Units=GPa)
#
#
# Indices 1 2 3 4 5 6 
#
# 1 91.9280 46.1675 47.0221 0.0000 3.5326 0.0000
# 2 46.1675 147.9650 36.3791 0.0000 -3.2646 0.0000
# 3 47.0221 36.3791 94.5411 0.0000 -5.2133 0.0000
# 4 0.0000 0.0000 0.0000 23.2469 0.0000 -13.2992
# 5 3.5326 -3.2646 -5.2133 0.0000 28.4119 0.0000
# 6 0.0000 0.0000 0.0000 -13.2992 0.0000 15.4100
#
#
#
# Elastic Compliance Matrix: (Units=1/GPa)
#
#
# Indices 1 2 3 4 5 6 
#
# 1 0.016338 -0.003459 -0.007000 0.000000 -0.003713 0.000000
# 2 -0.003459 0.008200 -0.001373 0.000000 0.001120 0.000000
# 3 -0.007000 -0.001373 0.014776 0.000000 0.003424 0.000000
# 4 0.000000 0.000000 0.000000 0.084966 0.000000 0.073328
# 5 -0.003713 0.001120 0.003424 0.000000 0.036415 0.000000
# 6 0.000000 0.000000 0.000000 0.073328 0.000000 0.128177
#
#
# Mechanical properties :
#
#
# Convention : Reuss Voigt Hill
#
# Bulk Modulus (GPa) = 63.89605 65.95239 64.92422
# Shear Modulus (GPa) = 15.73542 27.07145 21.40344
#
# Velocity S-wave (km/s) = 2.84898 3.73685 3.32270
# Velocity P-wave (km/s) = 6.61674 7.25523 6.94333
#
# Compressibility (1/GPa) = 0.01565042
#
# Stress axis : x y z
#
# Youngs Moduli (GPa) = 61.20543 121.95308 67.67597
#
# Poissons Ratio (x) = 0.42180 0.47374
# Poissons Ratio (y) = 0.21169 0.09294
# Poissons Ratio (z) = 0.42845 0.16747
#
# Static dielectric constant tensor:
#      x y z
#    x 1.704100 0.000000 -0.080440 
#    y 0.000000 1.706590 0.000000 
#    z -0.080440 0.000000 1.744460 
# 
# From -- ./inp_files/99231.got.cif
#   From: 2010.05.17/outbox.cif.g08.bks.cpg/sg12_50_cif.got.tgz:99231.got - 2010.06.03 13:09:07.
