data_PCOD9209613
_publ_section_title
;
Structure prediction by ZEFSAII (Michael W. Deem and Ramdas Pophale) SiO2 
 PCOD9209613
Probable space group: C 2/M
;
_chemical_formula_sum "Si O2"
_cell_formula_units_Z 52
_cell_length_a 16.562009
_cell_length_b 15.138601
_cell_length_c 9.404875
_cell_angle_alpha 90.000000
_cell_angle_beta 106.664840
_cell_angle_gamma 90.000000
_cell_volume 2259.002369
_symmetry_space_group_name_H-M "C 2/M"
_symmetry_group_IT_number 12
_symmetry_cell_setting 'monoclinic'
loop_
_space_group_symop_operation_xyz
x,y,z
-x,y,-z
-x,-y,-z
x,-y,z
1/2+x,1/2+y,z
1/2-x,1/2+y,-z
1/2-x,1/2-y,-z
1/2+x,1/2-y,z
loop_
_atom_site_type_symbol
_atom_site_label
_atom_site_fract_x
_atom_site_fract_y
_atom_site_fract_z
Si Si1 0.883728 0.500000 0.273261
Si Si2 0.343130 0.352709 0.469413
Si Si3 0.823605 0.221707 0.883657
Si Si4 0.314523 0.160544 0.412176
Si Si5 0.902400 0.595068 0.986222
Si Si6 0.052794 0.096040 0.218228
Si Si7 0.647247 0.401996 0.851950
O O1 0.866429 0.578077 0.382983
O O2 0.894074 0.575615 0.150199
O O3 0.364216 0.247910 0.483558
O O4 0.251901 0.364140 0.497484
O O5 0.410926 0.398790 0.604343
O O6 0.341550 0.386791 0.309095
O O7 0.745555 0.196522 0.745107
O O8 0.902403 0.172164 0.847672
O O9 0.847049 0.323696 0.907500
O O10 0.814229 0.173700 0.030279
O O11 0.880269 0.500000 0.905168
O O12 0.000000 0.613142 0.000000
O O13 0.952938 0.101545 0.170740
O O14 0.078256 0.000000 0.170386
O O15 0.679438 0.500000 0.908783
#
# Coordination Sequence:
#
# PCOD9209613 Si02
#       7
#     4   8   8   8   8   8   8
#     4  10  21  38  64  86 123 174 202 256 322 374
#     4  10  22  40  58  82 122 174 212 253 297 372
#     4  11  22  38  63  96 130 164 205 261 321 379
#     4  10  24  40  61  88 125 170 215 253 317 382
#     4   9  20  39  62  89 118 162 209 261 313 364
#     4  10  21  38  63  91 130 168 202 253 322 377
#     4  11  22  34  59  99 127 159 207 256 313 385
#
# _framework density 23.019010999999999
#
# number of rings (size 3 to 8) (size 9 to 14) (size 15 to 20)
#    0.462    1.385    0.000    3.692    6.462    4.923 
#    0.000    0.769   10.154    0.000    0.000   11.846 
#    0.000    0.000    0.000    0.000    0.000    0.000 
#
# Total GULP energy -145003.473982 kJ/mol
# GULP energy per Si atom -5577.056692 kJ/mol
# Density = 2.296662 g / cm^3
# Si number density = 23.019011 Si / 1000 Ang^3
#
#
#
# Elastic Constant Matrix: (Units=GPa)
#
#
# Indices 1 2 3 4 5 6 
#
# 1 52.0403 30.3378 10.0181 0.0000 -3.9817 0.0000
# 2 30.3378 136.5628 25.6956 0.0000 0.8036 0.0000
# 3 10.0181 25.6956 107.6008 0.0000 -13.6892 0.0000
# 4 0.0000 0.0000 0.0000 36.5953 0.0000 -6.0297
# 5 -3.9817 0.8036 -13.6892 0.0000 26.6956 0.0000
# 6 0.0000 0.0000 0.0000 -6.0297 0.0000 20.1188
#
#
#
# Elastic Compliance Matrix: (Units=1/GPa)
#
#
# Indices 1 2 3 4 5 6 
#
# 1 0.022420 -0.004905 -0.000505 0.000000 0.003233 0.000000
# 2 -0.004905 0.008779 -0.001890 0.000000 -0.001965 0.000000
# 3 -0.000505 -0.001890 0.010473 0.000000 0.005352 0.000000
# 4 0.000000 0.000000 0.000000 0.028745 0.000000 0.008615
# 5 0.003233 -0.001965 0.005352 0.000000 0.040745 0.000000
# 6 0.000000 0.000000 0.000000 0.008615 0.000000 0.052287
#
#
# Mechanical properties :
#
#
# Convention : Reuss Voigt Hill
#
# Bulk Modulus (GPa) = 36.93706 47.58967 42.26337
# Shear Modulus (GPa) = 26.72767 32.02544 29.37656
#
# Velocity S-wave (km/s) = 3.41121 3.73401 3.57625
# Velocity P-wave (km/s) = 5.62106 6.26972 5.95423
#
# Compressibility (1/GPa) = 0.02707308
#
# Stress axis : x y z
#
# Youngs Moduli (GPa) = 44.60378 113.90331 95.48528
#
# Poissons Ratio (x) = 0.55865 0.04821
# Poissons Ratio (y) = 0.21876 0.18046
# Poissons Ratio (z) = 0.02252 0.21527
#
# Static dielectric constant tensor:
#      x y z
#    x 1.870160 0.000000 -0.010410 
#    y 0.000000 1.884470 0.000000 
#    z -0.010410 0.000000 1.860190 
# 
# From -- ./inp_files/85879.got.cif
#   From: 2010.05.17/outbox.cif.g08.bks.cpg/sg12_43_cif.got.tgz:85879.got - 2010.06.03 13:09:07.
