data_PCOD9209467
_publ_section_title
;
Structure prediction by ZEFSAII (Michael W. Deem and Ramdas Pophale) SiO2 
 PCOD9209467
Probable space group: C 2/M
;
_chemical_formula_sum "Si O2"
_cell_formula_units_Z 46
_cell_length_a 9.174071
_cell_length_b 26.175220
_cell_length_c 10.335776
_cell_angle_alpha 90.000000
_cell_angle_beta 102.419185
_cell_angle_gamma 90.000000
_cell_volume 2423.887109
_symmetry_space_group_name_H-M "C 2/M"
_symmetry_group_IT_number 12
_symmetry_cell_setting 'monoclinic'
loop_
_space_group_symop_operation_xyz
x,y,z
-x,y,-z
-x,-y,-z
x,-y,z
1/2+x,1/2+y,z
1/2-x,1/2+y,-z
1/2-x,1/2-y,-z
1/2+x,1/2-y,z
loop_
_atom_site_type_symbol
_atom_site_label
_atom_site_fract_x
_atom_site_fract_y
_atom_site_fract_z
Si Si1 0.500000 0.000000 0.500000
Si Si2 0.625566 0.126261 0.137732
Si Si3 0.671381 0.560480 0.003049
Si Si4 0.383456 0.088278 0.286165
Si Si5 0.000000 0.767619 0.500000
Si Si6 0.652150 0.760871 0.103762
Si Si7 0.757676 0.193021 0.649652
O O1 0.420566 0.044481 0.394317
O O2 0.538322 0.104757 0.244896
O O3 0.680168 0.183969 0.173503
O O4 0.500000 0.127702 0.000000
O O5 0.756670 0.091896 0.102212
O O6 0.676121 0.500000 0.974690
O O7 0.772860 0.570700 0.149149
O O8 0.500000 0.574968 0.000000
O O9 0.306591 0.136906 0.339649
O O10 0.113486 0.800555 0.433659
O O11 0.115184 0.730008 0.596399
O O12 0.667562 0.715511 0.207140
O O13 0.500000 0.764144 0.000000
O O14 0.750000 0.750000 0.000000
#
# Coordination Sequence:
#
# PCOD9209467 Si02
#       7
#     2   8   8   8   4   8   8
#     4  12  26  44  64  82 114 160 232 276 304 354
#     4   9  20  36  62  92 123 163 206 243 301 383
#     4  10  21  38  62  91 125 156 195 255 323 378
#     4  11  23  41  64  89 117 163 216 265 306 362
#     4  10  23  40  62  88 122 178 213 248 306 372
#     4  11  21  35  58  97 133 157 189 244 311 383
#     4  11  22  40  64  90 129 166 212 258 306 382
#
# _framework density 18.977782000000001
#
# number of rings (size 3 to 8) (size 9 to 14) (size 15 to 20)
#    0.000    1.565    0.870    5.739    1.217    6.609 
#    0.000    0.000    0.000    1.565    0.000    0.000 
#    0.000    0.000    0.000    0.000    0.000    0.000 
#
# Total GULP energy -128068.024594 kJ/mol
# GULP energy per Si atom -5568.174982 kJ/mol
# Density = 1.893459 g / cm^3
# Si number density = 18.977782 Si / 1000 Ang^3
#
#
#
# Elastic Constant Matrix: (Units=GPa)
#
#
# Indices 1 2 3 4 5 6 
#
# 1 146.7619 76.3888 31.8565 0.0000 -20.6702 0.0000
# 2 76.3888 167.2642 61.3364 0.0000 -15.0951 0.0000
# 3 31.8565 61.3364 69.8554 0.0000 -6.1406 0.0000
# 4 0.0000 0.0000 0.0000 6.2930 0.0000 3.8454
# 5 -20.6702 -15.0951 -6.1406 0.0000 20.5482 0.0000
# 6 0.0000 0.0000 0.0000 3.8454 0.0000 29.4652
#
#
#
# Elastic Compliance Matrix: (Units=1/GPa)
#
#
# Indices 1 2 3 4 5 6 
#
# 1 0.009829 -0.003594 -0.000708 0.000000 0.007035 0.000000
# 2 -0.003594 0.010514 -0.007426 0.000000 0.001889 0.000000
# 3 -0.000708 -0.007426 0.021173 0.000000 0.000160 0.000000
# 4 0.000000 0.000000 0.000000 0.172676 0.000000 -0.022535
# 5 0.007035 0.001889 0.000160 0.000000 0.057178 0.000000
# 6 0.000000 0.000000 0.000000 -0.022535 0.000000 0.036879
#
#
# Mechanical properties :
#
#
# Convention : Reuss Voigt Hill
#
# Bulk Modulus (GPa) = 55.37603 80.33831 67.85717
# Shear Modulus (GPa) = 14.80485 25.54795 20.17640
#
# Velocity S-wave (km/s) = 2.79608 3.67304 3.26415
# Velocity P-wave (km/s) = 6.29816 7.77258 7.07389
#
# Compressibility (1/GPa) = 0.01805836
#
# Stress axis : x y z
#
# Youngs Moduli (GPa) = 101.73776 95.11233 47.23004
#
# Poissons Ratio (x) = 0.34187 0.03344
# Poissons Ratio (y) = 0.36569 0.35075
# Poissons Ratio (z) = 0.07202 0.70635
#
# Static dielectric constant tensor:
#      x y z
#    x 1.647190 0.000000 -0.000030 
#    y 0.000000 1.656890 0.000000 
#    z -0.000030 0.000000 1.668870 
# 
# From -- ./inp_files/122072.got.cif
#   From: 2010.05.17/outbox.cif.g08.bks.cpg/sg12_62_cif.got.tgz:122072.got - 2010.06.03 13:09:07.
