data_PCOD9209412
_publ_section_title
;
Structure prediction by ZEFSAII (Michael W. Deem and Ramdas Pophale) SiO2 
 PCOD9209412
Probable space group: C 2/M
;
_chemical_formula_sum "Si O2"
_cell_formula_units_Z 64
_cell_length_a 16.524951
_cell_length_b 18.699298
_cell_length_c 19.675692
_cell_angle_alpha 90.000000
_cell_angle_beta 30.442455
_cell_angle_gamma 90.000000
_cell_volume 3080.512882
_symmetry_space_group_name_H-M "C 2/M"
_symmetry_group_IT_number 12
_symmetry_cell_setting 'monoclinic'
loop_
_space_group_symop_operation_xyz
x,y,z
-x,y,-z
-x,-y,-z
x,-y,z
1/2+x,1/2+y,z
1/2-x,1/2+y,-z
1/2-x,1/2-y,-z
1/2+x,1/2-y,z
loop_
_atom_site_type_symbol
_atom_site_label
_atom_site_fract_x
_atom_site_fract_y
_atom_site_fract_z
Si Si1 0.773044 0.204163 0.127993
Si Si2 0.085213 0.172413 0.828481
Si Si3 0.777714 0.317633 0.029057
Si Si4 0.355220 0.417345 0.657760
Si Si5 0.888874 0.311873 0.398922
Si Si6 0.606225 0.168363 0.754503
Si Si7 0.449843 0.579898 0.740879
Si Si8 0.233276 0.419331 0.411421
O O1 0.816227 0.186252 0.173554
O O2 0.823470 0.283891 0.068907
O O3 0.580897 0.204922 0.254100
O O4 0.901193 0.159498 0.987925
O O5 0.096213 0.245818 0.775898
O O6 0.173676 0.110799 0.721715
O O7 0.626521 0.365757 0.150943
O O8 0.750000 0.250000 0.000000
O O9 0.927800 0.360408 0.893905
O O10 0.500000 0.413616 0.500000
O O11 0.300168 0.500000 0.699829
O O12 0.221556 0.365904 0.725502
O O13 0.415707 0.397564 0.688816
O O14 0.750000 0.250000 0.500000
O O15 0.848743 0.347900 0.355469
O O16 0.880683 0.359721 0.473089
O O17 0.383270 0.500000 0.798506
O O18 0.634454 0.576746 0.624843
O O19 0.170076 0.500000 0.446176
#
# Coordination Sequence:
#
# PCOD9209412 Si02
#       8
#     8   8   8   8   8   8   8   8
#     4  10  22  39  66  94 127 165 213 269 324 376
#     4  10  22  43  64  94 124 165 220 271 318 377
#     4  11  20  38  64  91 125 160 210 268 315 369
#     4  10  22  40  59  90 135 173 205 256 324 391
#     4  12  23  40  63  97 130 168 214 264 322 394
#     4  11  22  36  63  93 123 167 210 257 319 380
#     4  10  21  38  62  89 124 171 211 252 317 391
#     4  11  24  43  65  91 126 170 217 268 329 388
#
# _framework density 20.775763000000001
#
# number of rings (size 3 to 8) (size 9 to 14) (size 15 to 20)
#    0.000    1.375    2.500    3.750    0.000    5.000 
#    0.000    4.375    0.000    0.750    0.000    0.000 
#    0.000    0.000    0.000    0.000    0.000    0.000 
#
# Total GULP energy -178312.786010 kJ/mol
# GULP energy per Si atom -5572.274563 kJ/mol
# Density = 2.072848 g / cm^3
# Si number density = 20.775763 Si / 1000 Ang^3
#
#
#
# Elastic Constant Matrix: (Units=GPa)
#
#
# Indices 1 2 3 4 5 6 
#
# 1 94.7935 4.3981 22.6660 0.0070 9.9141 -0.0006
# 2 4.3981 47.9479 37.6315 0.0148 7.3804 -0.0023
# 3 22.6660 37.6315 105.5654 0.0161 10.4097 -0.0029
# 4 0.0070 0.0148 0.0161 20.3361 -0.0064 3.5079
# 5 9.9141 7.3804 10.4097 -0.0064 37.4984 -0.0006
# 6 -0.0006 -0.0023 -0.0029 3.5079 -0.0006 26.1249
#
#
#
# Elastic Compliance Matrix: (Units=1/GPa)
#
#
# Indices 1 2 3 4 5 6 
#
# 1 0.011399 0.001486 -0.002726 -0.000004 -0.002549 0.000001
# 2 0.001486 0.029464 -0.010499 -0.000015 -0.003277 0.000003
# 3 -0.002726 -0.010499 0.013907 -0.000003 -0.001073 0.000001
# 4 -0.000004 -0.000015 -0.000003 0.050340 0.000013 -0.006759
# 5 -0.002549 -0.003277 -0.001073 0.000013 0.028285 -0.000002
# 6 0.000001 0.000003 0.000001 -0.006759 -0.000002 0.039185
#
#
# Mechanical properties :
#
#
# Convention : Reuss Voigt Hill
#
# Bulk Modulus (GPa) = 31.95708 41.96646 36.96177
# Shear Modulus (GPa) = 24.21451 29.03264 26.62357
#
# Velocity S-wave (km/s) = 3.41767 3.74227 3.58365
# Velocity P-wave (km/s) = 5.56680 6.23830 5.91209
#
# Compressibility (1/GPa) = 0.03129197
#
# Stress axis : x y z
#
# Youngs Moduli (GPa) = 87.72935 33.93932 71.90820
#
# Poissons Ratio (x) = -0.05044 0.19601
# Poissons Ratio (y) = -0.13038 0.75498
# Poissons Ratio (z) = 0.23913 0.35634
#
# Static dielectric constant tensor:
#      x y z
#    x 1.787230 0.000000 -0.007810 
#    y 0.000000 1.795730 0.000000 
#    z -0.007810 0.000000 1.789060 
# 
# From -- ./inp_files/317335.got.cif
#   From: 2010.05.17/outbox.cif.g08.bks.cpg/sg12_159_cif.got.tgz:317335.got - 2010.06.03 13:09:07.
