data_PCOD9209724
_publ_section_title
;
Structure prediction by ZEFSAII (Michael W. Deem and Ramdas Pophale) SiO2 
 PCOD9209724
Probable space group: C 2/M
;
_chemical_formula_sum "Si O2"
_cell_formula_units_Z 64
_cell_length_a 20.358861
_cell_length_b 8.432565
_cell_length_c 18.768431
_cell_angle_alpha 90.000000
_cell_angle_beta 89.818090
_cell_angle_gamma 90.000000
_cell_volume 3222.099548
_symmetry_space_group_name_H-M "C 2/M"
_symmetry_group_IT_number 12
_symmetry_cell_setting 'monoclinic'
loop_
_space_group_symop_operation_xyz
x,y,z
-x,y,-z
-x,-y,-z
x,-y,z
1/2+x,1/2+y,z
1/2-x,1/2+y,-z
1/2-x,1/2-y,-z
1/2+x,1/2-y,z
loop_
_atom_site_type_symbol
_atom_site_label
_atom_site_fract_x
_atom_site_fract_y
_atom_site_fract_z
Si Si1 0.401391 0.693620 0.677247
Si Si2 0.074659 0.191714 0.484774
Si Si3 0.799793 0.689447 0.439249
Si Si4 0.847898 0.189943 0.174971
Si Si5 0.491344 0.309324 0.212395
Si Si6 0.322461 0.810301 0.016842
Si Si7 0.049535 0.308560 0.064167
Si Si8 0.756094 0.191749 0.713363
O O1 0.402244 0.500000 0.676971
O O2 0.405215 0.743005 0.594966
O O3 0.463373 0.749411 0.723099
O O4 0.332179 0.742428 0.711765
O O5 0.127532 0.254918 0.540413
O O6 0.000000 0.240853 0.500000
O O7 0.077009 0.000000 0.487124
O O8 0.796916 0.500000 0.439486
O O9 0.750000 0.750000 0.500000
O O10 0.776412 0.744008 0.361380
O O11 0.489272 0.500000 0.217804
O O12 0.916129 0.247690 0.210260
O O13 0.843590 0.253779 0.094952
O O14 0.786052 0.244352 0.221312
O O15 0.349057 0.500000 0.172189
O O16 0.525251 0.264418 0.137809
O O17 0.322180 0.000000 0.016181
O O18 0.250000 0.750000 0.000000
O O19 0.377647 0.757248 0.959965
O O20 0.048336 0.500000 0.070875
O O21 0.000000 0.266206 0.000000
O O22 0.754778 0.000000 0.715624
#
# Coordination Sequence:
#
# PCOD9209724 Si02
#       8
#     8   8   8   8   8   8   8   8
#     4   9  19  39  59  85 119 155 200 243 296 358
#     4  10  21  38  64  90 121 162 204 252 308 366
#     4  11  22  39  63  89 120 158 205 254 306 365
#     4  11  24  40  60  91 124 155 202 251 294 356
#     4  10  22  38  61  88 118 157 199 246 293 353
#     4  11  24  42  64  89 122 159 198 248 303 356
#     4  10  21  40  63  86 115 153 195 240 292 352
#     4  10  22  40  61  84 119 163 202 247 303 362
#
# _framework density 19.862825000000001
#
# number of rings (size 3 to 8) (size 9 to 14) (size 15 to 20)
#    0.000    1.750    2.500    1.125    3.500    3.000 
#    0.000    0.625    0.000    0.000    0.000    0.000 
#    0.000    0.000    0.000    0.000    0.000    0.000 
#
# Total GULP energy -178819.336025 kJ/mol
# GULP energy per Si atom -5588.104251 kJ/mol
# Density = 1.981762 g / cm^3
# Si number density = 19.862825 Si / 1000 Ang^3
#
#
#
# Elastic Constant Matrix: (Units=GPa)
#
#
# Indices 1 2 3 4 5 6 
#
# 1 127.3069 14.3466 -0.4875 0.0000 0.9615 0.0000
# 2 14.3466 12.8923 -0.3313 0.0000 0.8242 0.0000
# 3 -0.4875 -0.3313 25.8776 0.0000 1.6784 0.0000
# 4 0.0000 0.0000 0.0000 26.0875 0.0000 2.6104
# 5 0.9615 0.8242 1.6784 0.0000 43.6904 0.0000
# 6 0.0000 0.0000 0.0000 2.6104 0.0000 24.9486
#
#
#
# Elastic Compliance Matrix: (Units=1/GPa)
#
#
# Indices 1 2 3 4 5 6 
#
# 1 0.008981 -0.009993 0.000042 0.000000 -0.000011 0.000000
# 2 -0.009993 0.088808 0.001046 0.000000 -0.001496 0.000000
# 3 0.000042 0.001046 0.038756 0.000000 -0.001510 0.000000
# 4 0.000000 0.000000 0.000000 0.038738 0.000000 -0.004053
# 5 -0.000011 -0.001496 -0.001510 0.000000 0.022975 0.000000
# 6 0.000000 0.000000 0.000000 -0.004053 0.000000 0.040507
#
#
# Mechanical properties :
#
#
# Convention : Reuss Voigt Hill
#
# Bulk Modulus (GPa) = 8.42214 21.45916 14.94065
# Shear Modulus (GPa) = 16.88317 29.11521 22.99919
#
# Velocity S-wave (km/s) = 2.91862 3.83275 3.40649
# Velocity P-wave (km/s) = 3.95059 5.51487 4.79692
#
# Compressibility (1/GPa) = 0.11873467
#
# Stress axis : x y z
#
# Youngs Moduli (GPa) = 111.34142 11.26025 25.80274
#
# Poissons Ratio (x) = 0.11252 -0.00108
# Poissons Ratio (y) = 1.11260 -0.02698
# Poissons Ratio (z) = -0.00467 -0.01177
#
# Static dielectric constant tensor:
#      x y z
#    x 1.692930 0.000000 0.016840 
#    y 0.000000 1.691770 0.000000 
#    z 0.016840 0.000000 1.657910 
# 
# From -- ./inp_files/281263.got.cif
#   From: 2010.05.17/outbox.cif.g08.bks.cpg/sg12_141_cif.got.tgz:281263.got - 2010.06.03 13:09:07.
