data_PCOD9209430
_publ_section_title
;
Structure prediction by ZEFSAII (Michael W. Deem and Ramdas Pophale) SiO2 
 PCOD9209430
Probable space group: C 2/M
;
_chemical_formula_sum "Si O2"
_cell_formula_units_Z 20
_cell_length_a 4.887355
_cell_length_b 19.576468
_cell_length_c 8.811293
_cell_angle_alpha 90.000000
_cell_angle_beta 67.135201
_cell_angle_gamma 90.000000
_cell_volume 776.796980
_symmetry_space_group_name_H-M "C 2/M"
_symmetry_group_IT_number 12
_symmetry_cell_setting 'monoclinic'
loop_
_space_group_symop_operation_xyz
x,y,z
-x,y,-z
-x,-y,-z
x,-y,z
1/2+x,1/2+y,z
1/2-x,1/2+y,-z
1/2-x,1/2-y,-z
1/2+x,1/2-y,z
loop_
_atom_site_type_symbol
_atom_site_label
_atom_site_fract_x
_atom_site_fract_y
_atom_site_fract_z
Si Si1 0.690607 0.076448 0.155006
Si Si2 0.314022 0.204094 0.258297
Si Si3 0.500000 0.129229 0.500000
O O1 0.468328 0.136900 0.158686
O O2 0.699172 0.086921 0.337847
O O3 0.572740 0.000000 0.154469
O O4 0.000000 0.082360 0.000000
O O5 0.038601 0.231524 0.222939
O O6 0.304025 0.177873 0.435200
#
# Coordination Sequence:
#
# PCOD9209430 Si02
#       3
#     8   8   4
#     4   9  19  36  59  86 119 157 200 244 296 356
#     4  10  21  38  62  90 121 156 200 248 299 357
#     4   8  19  34  60  84 119 156 192 250 291 360
#
# _framework density 25.746751
#
# number of rings (size 3 to 8) (size 9 to 14) (size 15 to 20)
#    2.400    0.400    0.000    1.800    0.000    1.600 
#    0.000    2.000    0.000    9.600    0.000    0.000 
#    0.000    0.000    0.000    0.000    0.000    0.000 
#
# Total GULP energy -55799.031650 kJ/mol
# GULP energy per Si atom -5579.903165 kJ/mol
# Density = 2.568815 g / cm^3
# Si number density = 25.746751 Si / 1000 Ang^3
#
#
#
# Elastic Constant Matrix: (Units=GPa)
#
#
# Indices 1 2 3 4 5 6 
#
# 1 53.1904 4.1333 17.9060 0.0000 -5.6554 0.0000
# 2 4.1333 187.1476 53.0314 0.0000 -23.0870 0.0000
# 3 17.9060 53.0314 188.3564 0.0000 1.3491 0.0000
# 4 0.0000 0.0000 0.0000 57.3232 0.0000 -15.5466
# 5 -5.6554 -23.0870 1.3491 0.0000 35.7170 0.0000
# 6 0.0000 0.0000 0.0000 -15.5466 0.0000 -42.8800
#
#
#
# Elastic Compliance Matrix: (Units=1/GPa)
#
#
# Indices 1 2 3 4 5 6 
#
# 1 0.019837 0.000596 -0.002079 0.000000 0.003605 0.000000
# 2 0.000596 0.006396 -0.001888 0.000000 0.004300 0.000000
# 3 -0.002079 -0.001888 0.006051 0.000000 -0.001778 0.000000
# 4 0.000000 0.000000 0.000000 0.015883 0.000000 -0.005759
# 5 0.003605 0.004300 -0.001778 0.000000 0.031415 0.000000
# 6 0.000000 0.000000 0.000000 -0.005759 0.000000 -0.021233
#
#
# Mechanical properties :
#
#
# Convention : Reuss Voigt Hill
#
# Bulk Modulus (GPa) = 39.15326 64.31509 51.73417
# Shear Modulus (GPa) = 67.92896 33.60696 50.76796
#
# Velocity S-wave (km/s) = 5.14206 3.61680 4.44534
# Velocity P-wave (km/s) = 7.10595 6.51734 6.81800
#
# Compressibility (1/GPa) = 0.02554066
#
# Stress axis : x y z
#
# Youngs Moduli (GPa) = 50.40997 156.35564 165.25932
#
# Poissons Ratio (x) = -0.09315 0.34364
# Poissons Ratio (y) = -0.03003 0.31203
# Poissons Ratio (z) = 0.10482 0.29522
#
# Static dielectric constant tensor:
#      x y z
#    x 2.042780 0.000000 -0.030990 
#    y 0.000000 1.973960 0.000000 
#    z -0.030990 0.000000 2.179300 
# 
# From -- ./inp_files/33158.got.cif
#   From: 2010.05.17/outbox.cif.g08.bks.cpg/sg12_17_cif.got.tgz:33158.got - 2010.06.03 13:09:07.
