data_PCOD9209822
_publ_section_title
;
Structure prediction by ZEFSAII (Michael W. Deem and Ramdas Pophale) SiO2 
 PCOD9209822
Probable space group: C 2/M
;
_chemical_formula_sum "Si O2"
_cell_formula_units_Z 48
_cell_length_a 18.443128
_cell_length_b 19.008995
_cell_length_c 14.504504
_cell_angle_alpha 90.000000
_cell_angle_beta 30.592674
_cell_angle_gamma 90.000000
_cell_volume 2587.949676
_symmetry_space_group_name_H-M "C 2/M"
_symmetry_group_IT_number 12
_symmetry_cell_setting 'monoclinic'
loop_
_space_group_symop_operation_xyz
x,y,z
-x,y,-z
-x,-y,-z
x,-y,z
1/2+x,1/2+y,z
1/2-x,1/2+y,-z
1/2-x,1/2-y,-z
1/2+x,1/2-y,z
loop_
_atom_site_type_symbol
_atom_site_label
_atom_site_fract_x
_atom_site_fract_y
_atom_site_fract_z
Si Si1 0.875412 0.582017 0.700438
Si Si2 0.139999 0.083376 0.615266
Si Si3 0.106550 0.324551 0.969115
Si Si4 0.921517 0.161719 0.986872
Si Si5 0.153066 0.080653 0.381143
Si Si6 0.032203 0.580850 0.723240
O O1 0.855887 0.500000 0.696206
O O2 0.000000 0.612531 0.500000
O O3 0.938687 0.585089 0.733732
O O4 0.725442 0.619297 0.853666
O O5 0.140015 0.095924 0.504813
O O6 0.300850 0.097312 0.474762
O O7 0.027104 0.130411 0.793751
O O8 0.108470 0.000000 0.664158
O O9 0.247768 0.363588 0.779136
O O10 0.118381 0.243299 0.984455
O O11 0.000000 0.326434 0.000000
O O12 0.035614 0.368413 0.128142
O O13 0.000000 0.155002 0.000000
O O14 0.000000 0.081590 0.500000
O O15 0.210211 0.000000 0.310609
O O16 0.028896 0.500000 0.760670
#
# Coordination Sequence:
#
# PCOD9209822 Si02
#       6
#     8   8   8   8   8   8
#     4  10  22  41  63  88 117 156 208 255 297 356
#     4  10  21  40  64  90 120 158 203 256 306 349
#     4  11  23  41  60  90 126 165 202 239 301 370
#     4  11  25  41  59  90 125 164 200 246 308 362
#     4  10  22  40  64  91 122 159 204 255 302 355
#     4  10  21  38  65  91 116 158 206 253 301 355
#
# _framework density 18.547501
#
# number of rings (size 3 to 8) (size 9 to 14) (size 15 to 20)
#    0.000    1.667    1.667    2.000    2.333    5.333 
#    3.000    0.000    0.000    0.000    0.000    0.000 
#    0.000    0.000    0.000    0.000    0.000    0.000 
#
# Total GULP energy -134047.407422 kJ/mol
# GULP energy per Si atom -5585.308643 kJ/mol
# Density = 1.850529 g / cm^3
# Si number density = 18.547501 Si / 1000 Ang^3
#
#
#
# Elastic Constant Matrix: (Units=GPa)
#
#
# Indices 1 2 3 4 5 6 
#
# 1 47.7877 48.9705 45.3358 -0.0050 -15.3250 -0.0073
# 2 48.9705 131.9695 111.8719 -0.0037 1.7413 -0.0064
# 3 45.3358 111.8719 160.7033 -0.0097 -4.1647 -0.0165
# 4 -0.0050 -0.0037 -0.0097 35.2321 0.0028 41.8899
# 5 -15.3250 1.7413 -4.1647 0.0028 31.5651 0.0059
# 6 -0.0073 -0.0064 -0.0165 41.8899 0.0059 81.7777
#
#
#
# Elastic Compliance Matrix: (Units=1/GPa)
#
#
# Indices 1 2 3 4 5 6 
#
# 1 0.046480 -0.016969 -0.000693 0.000004 0.023411 -0.000001
# 2 -0.016969 0.024919 -0.012853 -0.000002 -0.011309 0.000000
# 3 -0.000693 -0.012853 0.015428 0.000001 0.002408 0.000001
# 4 0.000004 -0.000002 0.000001 0.072599 0.000003 -0.037188
# 5 0.023411 -0.011309 0.002408 0.000003 0.043988 -0.000003
# 6 -0.000001 0.000000 0.000001 -0.037188 -0.000003 0.031278
#
#
# Mechanical properties :
#
#
# Convention : Reuss Voigt Hill
#
# Bulk Modulus (GPa) = 38.76409 83.64632 61.20520
# Shear Modulus (GPa) = 16.42996 38.66713 27.54855
#
# Velocity S-wave (km/s) = 2.97952 4.57087 3.85814
# Velocity P-wave (km/s) = 5.72556 8.54713 7.27446
#
# Compressibility (1/GPa) = 0.02579707
#
# Stress axis : x y z
#
# Youngs Moduli (GPa) = 21.51464 40.12933 64.81627
#
# Poissons Ratio (x) = 0.68096 0.04491
# Poissons Ratio (y) = 0.36508 0.83311
# Poissons Ratio (z) = 0.01491 0.51580
#
# Static dielectric constant tensor:
#      x y z
#    x 1.621320 0.000000 -0.002500 
#    y 0.000000 1.645510 0.000000 
#    z -0.002500 0.000000 1.613400 
# 
# From -- ./inp_files/77704.got.cif
#   From: 2010.05.17/outbox.cif.g08.bks.cpg/sg12_39_cif.got.tgz:77704.got - 2010.06.03 13:09:07.
