data_PCOD9209966
_publ_section_title
;
Structure prediction by ZEFSAII (Michael W. Deem and Ramdas Pophale) SiO2 
 PCOD9209966
Probable space group: C 2/M
;
_chemical_formula_sum "Si O2"
_cell_formula_units_Z 56
_cell_length_a 13.234519
_cell_length_b 13.052465
_cell_length_c 17.971674
_cell_angle_alpha 90.000000
_cell_angle_beta 53.425872
_cell_angle_gamma 90.000000
_cell_volume 2493.168443
_symmetry_space_group_name_H-M "C 2/M"
_symmetry_group_IT_number 12
_symmetry_cell_setting 'monoclinic'
loop_
_space_group_symop_operation_xyz
x,y,z
-x,y,-z
-x,-y,-z
x,-y,z
1/2+x,1/2+y,z
1/2-x,1/2+y,-z
1/2-x,1/2-y,-z
1/2+x,1/2-y,z
loop_
_atom_site_type_symbol
_atom_site_label
_atom_site_fract_x
_atom_site_fract_y
_atom_site_fract_z
Si Si1 0.638399 0.209143 0.599301
Si Si2 0.609444 0.882872 0.324648
Si Si3 0.753096 0.679146 0.298247
Si Si4 0.149354 0.879813 0.075549
Si Si5 0.264052 0.882249 0.880265
Si Si6 0.557370 0.769471 0.903338
Si Si7 0.552696 0.385316 0.275562
O O1 0.750000 0.250000 0.500000
O O2 0.535196 0.145759 0.597919
O O3 0.702056 0.150328 0.639991
O O4 0.558278 0.303651 0.669283
O O5 0.703600 0.798412 0.317630
O O6 0.623149 0.871681 0.227865
O O7 0.639091 0.000000 0.331294
O O8 0.870308 0.667630 0.190794
O O9 0.635644 0.621513 0.313557
O O10 0.042018 0.805539 0.092200
O O11 0.147741 0.861672 0.164693
O O12 0.115866 0.000000 0.082006
O O13 0.268813 0.864598 0.967447
O O14 0.158116 0.807966 0.895594
O O15 0.222915 0.000000 0.889376
O O16 0.500000 0.827031 0.000000
O O17 0.503978 0.500000 0.286175
#
# Coordination Sequence:
#
# PCOD9209966 Si02
#       7
#     8   8   8   8   8   8   8
#     4  11  24  42  61  83 112 148 192 241 288 334
#     4   9  20  38  60  86 115 148 187 231 286 339
#     4  10  21  39  57  84 117 148 185 240 282 331
#     4   9  15  27  51  81 114 148 185 226 272 334
#     4   8  14  26  48  81 115 147 182 225 275 331
#     4   9  15  27  49  82 112 149 184 225 274 333
#     4  10  22  39  59  85 115 152 191 230 283 341
#
# _framework density 22.461378
#
# number of rings (size 3 to 8) (size 9 to 14) (size 15 to 20)
#    0.000    2.571    1.429    0.429    0.000    6.286 
#    2.571    4.286    0.000    0.429    0.000    0.000 
#    0.000    0.000    0.000    0.000    0.000    0.000 
#
# Total GULP energy -156204.557748 kJ/mol
# GULP energy per Si atom -5578.734205 kJ/mol
# Density = 2.241026 g / cm^3
# Si number density = 22.461378 Si / 1000 Ang^3
#
#
#
# Elastic Constant Matrix: (Units=GPa)
#
#
# Indices 1 2 3 4 5 6 
#
# 1 51.7377 -9.0036 0.1411 0.0000 2.5741 0.0000
# 2 -9.0036 57.2420 -17.0755 0.0000 -5.4441 0.0000
# 3 0.1411 -17.0755 60.4313 0.0000 -14.1179 0.0000
# 4 0.0000 0.0000 0.0000 15.0912 0.0000 3.6550
# 5 2.5741 -5.4441 -14.1179 0.0000 26.3731 0.0000
# 6 0.0000 0.0000 0.0000 3.6550 0.0000 0.4534
#
#
#
# Elastic Compliance Matrix: (Units=1/GPa)
#
#
# Indices 1 2 3 4 5 6 
#
# 1 0.019937 0.003243 0.000653 0.000000 -0.000927 0.000000
# 2 0.003243 0.021120 0.007892 0.000000 0.008268 0.000000
# 3 0.000653 0.007892 0.021878 0.000000 0.013277 0.000000
# 4 0.000000 0.000000 0.000000 -0.069586 0.000000 0.560919
# 5 -0.000927 0.008268 0.013277 0.000000 0.046822 0.000000
# 6 0.000000 0.000000 0.000000 0.560919 0.000000 -2.316024
#
#
# Mechanical properties :
#
#
# Convention : Reuss Voigt Hill
#
# Bulk Modulus (GPa) = 11.55941 13.05943 12.30942
# Shear Modulus (GPa) = -2.20207 21.40681 9.60237
#
# Velocity S-wave (km/s) = -0.99122 3.09050 2.06986
# Velocity P-wave (km/s) = 1.96151 4.30833 3.34733
#
# Compressibility (1/GPa) = 0.08650963
#
# Stress axis : x y z
#
# Youngs Moduli (GPa) = 50.15825 47.34807 45.70845
#
# Poissons Ratio (x) = -0.15353 -0.02985
# Poissons Ratio (y) = -0.16264 -0.36072
# Poissons Ratio (z) = -0.03276 -0.37366
#
# Static dielectric constant tensor:
#      x y z
#    x 1.815410 0.000000 0.018960 
#    y 0.000000 1.838420 0.000000 
#    z 0.018960 0.000000 1.899520 
# 
# From -- ./inp_files/263214.got.cif
#   From: 2010.05.17/outbox.cif.g08.bks.cpg/sg12_132_cif.got.tgz:263214.got - 2010.06.03 13:09:07.
