data_PCOD9209229
_publ_section_title
;
Structure prediction by ZEFSAII (Michael W. Deem and Ramdas Pophale) SiO2 
 PCOD9209229
Probable space group: C 2/M
;
_chemical_formula_sum "Si O2"
_cell_formula_units_Z 48
_cell_length_a 14.458075
_cell_length_b 8.507542
_cell_length_c 17.746828
_cell_angle_alpha 90.000000
_cell_angle_beta 93.001606
_cell_angle_gamma 90.000000
_cell_volume 2179.912609
_symmetry_space_group_name_H-M "C 2/M"
_symmetry_group_IT_number 12
_symmetry_cell_setting 'monoclinic'
loop_
_space_group_symop_operation_xyz
x,y,z
-x,y,-z
-x,-y,-z
x,-y,z
1/2+x,1/2+y,z
1/2-x,1/2+y,-z
1/2-x,1/2-y,-z
1/2+x,1/2-y,z
loop_
_atom_site_type_symbol
_atom_site_label
_atom_site_fract_x
_atom_site_fract_y
_atom_site_fract_z
Si Si1 0.547474 0.188784 0.079588
Si Si2 0.323048 0.820820 0.664351
Si Si3 0.179959 0.681244 0.558512
Si Si4 0.084831 0.686670 0.785037
Si Si5 0.491118 0.318152 0.373482
Si Si6 0.300920 0.684227 0.819025
O O1 0.479485 0.224954 0.146549
O O2 0.645345 0.267099 0.103564
O O3 0.559297 0.000000 0.076811
O O4 0.500000 0.240210 0.000000
O O5 0.241139 0.704717 0.636592
O O6 0.415613 0.784019 0.621772
O O7 0.342300 0.787264 0.752429
O O8 0.293225 0.000000 0.651195
O O9 0.161028 0.500000 0.543741
O O10 0.250000 0.750000 0.500000
O O11 0.084828 0.772460 0.567701
O O12 0.073861 0.500000 0.766544
O O13 0.055726 0.782854 0.709830
O O14 0.191172 0.712992 0.813325
O O15 0.516496 0.500000 0.380485
O O16 0.317014 0.500000 0.804390
#
# Coordination Sequence:
#
# PCOD9209229 Si02
#       6
#     8   8   8   8   8   8
#     4  10  22  40  61  88 126 170 214 264 324 383
#     4  12  24  41  66  96 129 169 215 265 317 378
#     4  12  26  46  68  97 134 170 211 264 320 379
#     4  10  21  38  61  89 126 167 209 262 320 376
#     4  12  24  40  66  98 128 168 216 262 317 382
#     4  11  22  37  61  92 124 163 213 265 317 381
#
# _framework density 22.019231000000001
#
# number of rings (size 3 to 8) (size 9 to 14) (size 15 to 20)
#    0.000    0.833    3.333    5.000    0.000    2.333 
#    0.000    3.333    0.000    0.000    0.000    0.000 
#    0.000    0.000    0.000    0.000    0.000    0.000 
#
# Total GULP energy -134375.788084 kJ/mol
# GULP energy per Si atom -5598.991170 kJ/mol
# Density = 2.196911 g / cm^3
# Si number density = 22.019231 Si / 1000 Ang^3
#
#
#
# Elastic Constant Matrix: (Units=GPa)
#
#
# Indices 1 2 3 4 5 6 
#
# 1 77.3500 3.4454 -2.6780 0.0000 -0.3211 0.0000
# 2 3.4454 68.4213 4.7540 0.0000 -5.7489 0.0000
# 3 -2.6780 4.7540 54.7902 0.0000 7.1645 0.0000
# 4 0.0000 0.0000 0.0000 28.5574 0.0000 5.0938
# 5 -0.3211 -5.7489 7.1645 0.0000 31.3167 0.0000
# 6 0.0000 0.0000 0.0000 5.0938 0.0000 29.0124
#
#
#
# Elastic Compliance Matrix: (Units=1/GPa)
#
#
# Indices 1 2 3 4 5 6 
#
# 1 0.012984 -0.000717 0.000718 0.000000 -0.000163 0.000000
# 2 -0.000717 0.015038 -0.001752 0.000000 0.003154 0.000000
# 3 0.000718 -0.001752 0.019050 0.000000 -0.004672 0.000000
# 4 0.000000 0.000000 0.000000 0.036149 0.000000 -0.006347
# 5 -0.000163 0.003154 -0.004672 0.000000 0.033578 0.000000
# 6 0.000000 0.000000 0.000000 -0.006347 0.000000 0.035582
#
#
# Mechanical properties :
#
#
# Convention : Reuss Voigt Hill
#
# Bulk Modulus (GPa) = 22.95207 23.51159 23.23183
# Shear Modulus (GPa) = 29.34131 30.77996 30.06064
#
# Velocity S-wave (km/s) = 3.65435 3.74286 3.69887
# Velocity P-wave (km/s) = 5.31525 5.42030 5.36803
#
# Compressibility (1/GPa) = 0.04356905
#
# Stress axis : x y z
#
# Youngs Moduli (GPa) = 77.01557 66.49722 52.49468
#
# Poissons Ratio (x) = 0.04771 -0.03770
# Poissons Ratio (y) = 0.05525 0.09199
# Poissons Ratio (z) = -0.05531 0.11652
#
# Static dielectric constant tensor:
#      x y z
#    x 1.808830 0.000000 0.021060 
#    y 0.000000 1.753570 0.000000 
#    z 0.021060 0.000000 1.860320 
# 
# From -- ./inp_files/267623.got.cif
#   From: 2010.05.17/outbox.cif.g08.bks.cpg/sg12_134_cif.got.tgz:267623.got - 2010.06.03 13:09:07.
