data_PCOD9209098
_publ_section_title
;
Structure prediction by ZEFSAII (Michael W. Deem and Ramdas Pophale) SiO2 
 PCOD9209098
Probable space group: C 2/M
;
_chemical_formula_sum "Si O2"
_cell_formula_units_Z 48
_cell_length_a 31.768986
_cell_length_b 8.750059
_cell_length_c 18.477174
_cell_angle_alpha 90.000000
_cell_angle_beta 30.649798
_cell_angle_gamma 90.000000
_cell_volume 2618.427918
_symmetry_space_group_name_H-M "C 2/M"
_symmetry_group_IT_number 12
_symmetry_cell_setting 'monoclinic'
loop_
_space_group_symop_operation_xyz
x,y,z
-x,y,-z
-x,-y,-z
x,-y,z
1/2+x,1/2+y,z
1/2-x,1/2+y,-z
1/2-x,1/2-y,-z
1/2+x,1/2-y,z
loop_
_atom_site_type_symbol
_atom_site_label
_atom_site_fract_x
_atom_site_fract_y
_atom_site_fract_z
Si Si1 0.246870 0.817590 0.085454
Si Si2 0.589324 0.682372 0.085745
Si Si3 0.169054 0.318187 0.584691
Si Si4 0.589777 0.816232 0.399799
Si Si5 0.000929 0.683608 0.082202
Si Si6 0.569157 0.814960 0.597593
O O1 0.162878 0.764970 0.248722
O O2 0.251172 0.000000 0.075597
O O3 0.250000 0.750000 0.000000
O O4 0.325207 0.753495 0.013616
O O5 0.593116 0.500000 0.083492
O O6 0.565903 0.736447 0.039302
O O7 0.515107 0.742866 0.247028
O O8 0.179021 0.500000 0.567993
O O9 0.250000 0.250000 0.500000
O O10 0.088966 0.283348 0.751619
O O11 0.142946 0.267850 0.542628
O O12 0.500000 0.779856 0.500000
O O13 0.587803 0.775194 0.487505
O O14 0.601541 0.000000 0.376505
O O15 0.014264 0.500000 0.066104
O O16 0.000000 0.730462 0.000000
O O17 0.559978 0.000000 0.615935
#
# Coordination Sequence:
#
# PCOD9209098 Si02
#       6
#     8   8   8   8   8   8
#     4  12  25  41  61  85 116 151 190 234 281 337
#     4  11  22  37  59  86 116 150 192 238 284 337
#     4   9  18  32  51  76 107 143 182 226 275 326
#     4  10  21  38  61  87 114 145 182 228 282 337
#     4   9  19  37  58  80 110 150 193 236 285 336
#     4   9  19  37  58  81 113 150 186 230 284 336
#
# _framework density 18.331610000000001
#
# number of rings (size 3 to 8) (size 9 to 14) (size 15 to 20)
#    0.000    2.000    0.000    5.000    0.000    6.667 
#    0.000    3.333    0.000    0.000    0.000    0.000 
#    0.000    0.000    0.000    0.000    0.000    0.000 
#
# Total GULP energy -134038.384683 kJ/mol
# GULP energy per Si atom -5584.932695 kJ/mol
# Density = 1.828989 g / cm^3
# Si number density = 18.331610 Si / 1000 Ang^3
#
#
#
# Elastic Constant Matrix: (Units=GPa)
#
#
# Indices 1 2 3 4 5 6 
#
# 1 210.0328 79.7044 114.2081 -0.0005 0.4613 0.0000
# 2 79.7044 75.5574 65.5744 -0.0005 -0.1948 0.0013
# 3 114.2081 65.5744 111.7041 -0.0005 -2.8518 0.0004
# 4 -0.0005 -0.0005 -0.0005 33.7091 0.0005 -5.4626
# 5 0.4613 -0.1948 -2.8518 0.0005 41.1465 -0.0002
# 6 0.0000 0.0013 0.0004 -5.4626 -0.0002 30.2109
#
#
#
# Elastic Compliance Matrix: (Units=1/GPa)
#
#
# Indices 1 2 3 4 5 6 
#
# 1 0.011269 -0.003818 -0.009301 0.000000 -0.000789 0.000000
# 2 -0.003818 0.028313 -0.012736 0.000000 -0.000706 -0.000001
# 3 -0.009301 -0.012736 0.025985 0.000000 0.001845 0.000000
# 4 0.000000 0.000000 0.000000 0.030561 0.000000 0.005526
# 5 -0.000789 -0.000706 0.001845 0.000000 0.024437 0.000000
# 6 0.000000 -0.000001 0.000000 0.005526 0.000000 0.034100
#
#
# Mechanical properties :
#
#
# Convention : Reuss Voigt Hill
#
# Bulk Modulus (GPa) = 72.15499 101.80757 86.98128
# Shear Modulus (GPa) = 23.69750 30.20045 26.94897
#
# Velocity S-wave (km/s) = 3.59933 4.06329 3.83832
# Velocity P-wave (km/s) = 7.53127 8.81311 8.19728
#
# Compressibility (1/GPa) = 0.01385906
#
# Stress axis : x y z
#
# Youngs Moduli (GPa) = 88.73894 35.31888 38.48412
#
# Poissons Ratio (x) = 0.13484 0.35793
# Poissons Ratio (y) = 0.33879 0.49012
# Poissons Ratio (z) = 0.82532 0.44981
#
# Static dielectric constant tensor:
#      x y z
#    x 1.632330 0.000000 0.005500 
#    y 0.000000 1.622390 0.000000 
#    z 0.005500 0.000000 1.598980 
# 
# From -- ./inp_files/295376.got.cif
#   From: 2010.05.17/outbox.cif.g08.bks.cpg/sg12_148_cif.got.tgz:295376.got - 2010.06.03 13:09:07.
