data_PCOD9209344
_publ_section_title
;
Structure prediction by ZEFSAII (Michael W. Deem and Ramdas Pophale) SiO2 
 PCOD9209344
Probable space group: C 2/M
;
_chemical_formula_sum "Si O2"
_cell_formula_units_Z 44
_cell_length_a 9.405000
_cell_length_b 21.373254
_cell_length_c 12.719271
_cell_angle_alpha 90.000000
_cell_angle_beta 119.742665
_cell_angle_gamma 90.000000
_cell_volume 2219.947114
_symmetry_space_group_name_H-M "C 2/M"
_symmetry_group_IT_number 12
_symmetry_cell_setting 'monoclinic'
loop_
_space_group_symop_operation_xyz
x,y,z
-x,y,-z
-x,-y,-z
x,-y,z
1/2+x,1/2+y,z
1/2-x,1/2+y,-z
1/2-x,1/2-y,-z
1/2+x,1/2-y,z
loop_
_atom_site_type_symbol
_atom_site_label
_atom_site_fract_x
_atom_site_fract_y
_atom_site_fract_z
Si Si1 0.076492 0.896570 0.785414
Si Si2 0.525802 0.000000 0.173508
Si Si3 0.136804 0.000000 0.635815
Si Si4 0.946188 0.307792 0.647191
Si Si5 0.657037 0.500000 0.985710
Si Si6 0.905076 0.359526 0.863853
Si Si7 0.234425 0.822663 0.376993
O O1 0.096606 0.940269 0.691856
O O2 0.214830 0.844669 0.816132
O O3 0.892970 0.871407 0.719820
O O4 0.135533 0.938590 0.904916
O O5 0.667416 0.000000 0.316003
O O6 0.567004 0.935127 0.129368
O O7 0.329344 0.000000 0.111267
O O8 0.000000 0.000000 0.500000
O O9 0.955596 0.337090 0.766664
O O10 0.871354 0.238855 0.635201
O O11 0.820807 0.341960 0.519274
O O12 0.119440 0.307764 0.650578
O O13 0.500000 0.500000 0.000000
O O14 0.000000 0.334429 0.000000
#
# Coordination Sequence:
#
# PCOD9209344 Si02
#       7
#     8   4   4   8   4   8   8
#     4  10  22  36  60  89 125 152 216 246 307 365
#     4  10  21  38  62  85 131 165 211 241 315 373
#     4   9  21  36  58  95 118 161 200 259 303 369
#     4  10  23  41  66  87 125 160 212 252 330 365
#     4  11  23  40  60  89 125 179 204 255 306 384
#     4  11  21  38  64  92 119 166 204 255 302 377
#     4  10  22  43  62  92 118 165 204 268 309 381
#
# _framework density 19.820291999999998
#
# number of rings (size 3 to 8) (size 9 to 14) (size 15 to 20)
#    0.000    1.818    1.818    1.909    7.636    1.455 
#    0.000    4.545    0.000    4.364    0.000    0.000 
#    0.000    0.000    0.000    0.000    0.000    0.000 
#
# Total GULP energy -122547.128096 kJ/mol
# GULP energy per Si atom -5570.324004 kJ/mol
# Density = 1.977518 g / cm^3
# Si number density = 19.820292 Si / 1000 Ang^3
#
#
#
# Elastic Constant Matrix: (Units=GPa)
#
#
# Indices 1 2 3 4 5 6 
#
# 1 163.0800 19.9068 83.1431 0.0000 24.5095 0.0000
# 2 19.9068 30.7271 25.8471 0.0000 10.4310 0.0000
# 3 83.1431 25.8471 156.7774 0.0000 12.6417 0.0000
# 4 0.0000 0.0000 0.0000 21.0101 0.0000 5.9512
# 5 24.5095 10.4310 12.6417 0.0000 44.4286 0.0000
# 6 0.0000 0.0000 0.0000 5.9512 0.0000 28.9684
#
#
#
# Elastic Compliance Matrix: (Units=1/GPa)
#
#
# Indices 1 2 3 4 5 6 
#
# 1 0.008979 -0.001002 -0.004315 0.000000 -0.003490 0.000000
# 2 -0.001002 0.040336 -0.005526 0.000000 -0.007345 0.000000
# 3 -0.004315 -0.005526 0.009499 0.000000 0.000975 0.000000
# 4 0.000000 0.000000 0.000000 0.050537 0.000000 -0.010382
# 5 -0.003490 -0.007345 0.000975 0.000000 0.025880 0.000000
# 6 0.000000 0.000000 0.000000 -0.010382 0.000000 0.036653
#
#
# Mechanical properties :
#
#
# Convention : Reuss Voigt Hill
#
# Bulk Modulus (GPa) = 26.93473 67.59762 47.26617
# Shear Modulus (GPa) = 24.27806 33.66058 28.96932
#
# Velocity S-wave (km/s) = 3.50367 4.12550 3.82723
# Velocity P-wave (km/s) = 5.47600 7.54137 6.59010
#
# Compressibility (1/GPa) = 0.03712679
#
# Stress axis : x y z
#
# Youngs Moduli (GPa) = 111.37393 24.79182 105.27141
#
# Poissons Ratio (x) = 0.02485 0.45424
# Poissons Ratio (y) = 0.11165 0.58174
# Poissons Ratio (z) = 0.48057 0.13700
#
# Static dielectric constant tensor:
#      x y z
#    x 1.713030 0.000000 0.034260 
#    y 0.000000 1.716740 0.000000 
#    z 0.034260 0.000000 1.766910 
# 
# From -- ./inp_files/122690.got.cif
#   From: 2010.05.17/outbox.cif.g08.bks.cpg/sg12_62_cif.got.tgz:122690.got - 2010.06.03 13:09:07.
