data_PCOD9209271
_publ_section_title
;
Structure prediction by ZEFSAII (Michael W. Deem and Ramdas Pophale) SiO2 
 PCOD9209271
Probable space group: C 2/M
;
_chemical_formula_sum "Si O2"
_cell_formula_units_Z 48
_cell_length_a 18.605976
_cell_length_b 12.353833
_cell_length_c 10.280898
_cell_angle_alpha 90.000000
_cell_angle_beta 70.380297
_cell_angle_gamma 90.000000
_cell_volume 2225.919295
_symmetry_space_group_name_H-M "C 2/M"
_symmetry_group_IT_number 12
_symmetry_cell_setting 'monoclinic'
loop_
_space_group_symop_operation_xyz
x,y,z
-x,y,-z
-x,-y,-z
x,-y,z
1/2+x,1/2+y,z
1/2-x,1/2+y,-z
1/2-x,1/2-y,-z
1/2+x,1/2-y,z
loop_
_atom_site_type_symbol
_atom_site_label
_atom_site_fract_x
_atom_site_fract_y
_atom_site_fract_z
Si Si1 0.347849 0.729816 0.538809
Si Si2 0.436843 0.500000 0.734851
Si Si3 0.077074 0.760068 0.232087
Si Si4 0.889917 0.000000 0.471889
Si Si5 0.206667 0.285861 0.811244
Si Si6 0.578522 0.870647 0.715934
Si Si7 0.775959 0.378820 0.936188
O O1 0.408792 0.731803 0.620664
O O2 0.355218 0.616352 0.456473
O O3 0.265864 0.728530 0.657454
O O4 0.369380 0.830922 0.436611
O O5 0.424606 0.385217 0.812414
O O6 0.387569 0.500000 0.631373
O O7 0.524086 0.500000 0.631805
O O8 0.147939 0.691060 0.136013
O O9 0.000104 0.695339 0.248068
O O10 0.126590 0.330143 0.811086
O O11 0.210413 0.173678 0.887711
O O12 0.239272 0.368002 0.900891
O O13 0.567827 0.000000 0.724116
O O14 0.789976 0.500000 0.889182
#
# Coordination Sequence:
#
# PCOD9209271 Si02
#       7
#     8   4   8   4   8   8   8
#     4  10  21  38  61  91 125 167 206 247 309 373
#     4   9  16  34  58  90 121 156 208 243 298 366
#     4  10  21  39  64  96 124 167 208 255 308 366
#     4   9  16  30  60  85 114 160 204 248 288 363
#     4  10  24  43  60  93 124 164 209 254 316 372
#     4  12  24  38  61  96 132 163 203 258 317 370
#     4  10  22  45  69  89 118 164 217 261 307 370
#
# _framework density 21.564125000000001
#
# number of rings (size 3 to 8) (size 9 to 14) (size 15 to 20)
#    0.000    1.833    1.667    2.000    2.333    4.667 
#   13.500    1.667    0.000    1.000    0.000    0.000 
#    0.000    0.000    0.000    0.000    0.000    0.000 
#
# Total GULP energy -133977.207442 kJ/mol
# GULP energy per Si atom -5582.383643 kJ/mol
# Density = 2.151504 g / cm^3
# Si number density = 21.564125 Si / 1000 Ang^3
#
#
#
# Elastic Constant Matrix: (Units=GPa)
#
#
# Indices 1 2 3 4 5 6 
#
# 1 109.4018 69.4204 11.0481 0.0000 10.4814 0.0000
# 2 69.4204 218.9187 36.7110 0.0000 -3.7751 0.0000
# 3 11.0481 36.7110 44.4112 0.0000 -3.7429 0.0000
# 4 0.0000 0.0000 0.0000 21.6715 0.0000 -5.3464
# 5 10.4814 -3.7751 -3.7429 0.0000 21.4236 0.0000
# 6 0.0000 0.0000 0.0000 -5.3464 0.0000 25.6460
#
#
#
# Elastic Compliance Matrix: (Units=1/GPa)
#
#
# Indices 1 2 3 4 5 6 
#
# 1 0.012350 -0.003973 -0.000362 0.000000 -0.006806 0.000000
# 2 -0.003973 0.006582 -0.004253 0.000000 0.002360 0.000000
# 3 -0.000362 -0.004253 0.026464 0.000000 0.004051 0.000000
# 4 0.000000 0.000000 0.000000 0.048645 0.000000 0.010141
# 5 -0.006806 0.002360 0.004051 0.000000 0.051131 0.000000
# 6 0.000000 0.000000 0.000000 0.010141 0.000000 0.041106
#
#
# Mechanical properties :
#
#
# Convention : Reuss Voigt Hill
#
# Bulk Modulus (GPa) = 35.43595 67.45452 51.44524
# Shear Modulus (GPa) = 23.48947 30.78503 27.13725
#
# Velocity S-wave (km/s) = 3.30401 3.78246 3.55130
# Velocity P-wave (km/s) = 5.56990 7.10105 6.38156
#
# Compressibility (1/GPa) = 0.02821993
#
# Stress axis : x y z
#
# Youngs Moduli (GPa) = 80.97016 151.93604 37.78714
#
# Poissons Ratio (x) = 0.60365 0.01367
# Poissons Ratio (y) = 0.32170 0.16072
# Poissons Ratio (z) = 0.02929 0.64622
#
# Static dielectric constant tensor:
#      x y z
#    x 1.807340 0.000000 0.014510 
#    y 0.000000 1.793210 0.000000 
#    z 0.014510 0.000000 1.821120 
# 
# From -- ./inp_files/154235.got.cif
#   From: 2010.05.17/outbox.cif.g08.bks.cpg/sg12_78_cif.got.tgz:154235.got - 2010.06.03 13:09:07.
