data_PCOD9209413
_publ_section_title
;
Structure prediction by ZEFSAII (Michael W. Deem and Ramdas Pophale) SiO2 
 PCOD9209413
Probable space group: C 2/M
;
_chemical_formula_sum "Si O2"
_cell_formula_units_Z 40
_cell_length_a 7.756633
_cell_length_b 23.507207
_cell_length_c 14.206554
_cell_angle_alpha 90.000000
_cell_angle_beta 127.656365
_cell_angle_gamma 90.000000
_cell_volume 2050.773265
_symmetry_space_group_name_H-M "C 2/M"
_symmetry_group_IT_number 12
_symmetry_cell_setting 'monoclinic'
loop_
_space_group_symop_operation_xyz
x,y,z
-x,y,-z
-x,-y,-z
x,-y,z
1/2+x,1/2+y,z
1/2-x,1/2+y,-z
1/2-x,1/2-y,-z
1/2+x,1/2-y,z
loop_
_atom_site_type_symbol
_atom_site_label
_atom_site_fract_x
_atom_site_fract_y
_atom_site_fract_z
Si Si1 0.203398 0.438149 0.251662
Si Si2 0.794102 0.064921 0.565315
Si Si3 0.576546 0.102258 0.679566
Si Si4 0.300266 0.822248 0.862857
Si Si5 0.892152 0.803122 0.858424
O O1 0.193584 0.500000 0.199206
O O2 0.451201 0.433108 0.372372
O O3 0.179978 0.380781 0.185491
O O4 0.017326 0.436455 0.268470
O O5 0.745948 0.076447 0.659939
O O6 0.643361 0.108632 0.457119
O O7 0.721277 0.000000 0.519802
O O8 0.689800 0.155655 0.768344
O O9 0.323069 0.762155 0.817121
O O10 0.079773 0.819820 0.848415
O O11 0.500000 0.821107 0.000000
O O12 0.000000 0.807924 0.000000
#
# Coordination Sequence:
#
# PCOD9209413 Si02
#       5
#     8   8   8   8   8
#     4  11  22  38  62  92 126 161 203 251 300 358
#     4  10  21  38  62  89 125 166 204 246 300 364
#     4  11  20  37  62  92 121 158 204 247 299 357
#     4  11  22  41  63  89 122 160 206 249 305 368
#     4  11  22  40  65  91 119 161 203 252 306 364
#
# _framework density 19.504836000000001
#
# number of rings (size 3 to 8) (size 9 to 14) (size 15 to 20)
#    0.000    1.200    2.000    7.800    0.000    2.000 
#    0.000    1.000    4.400    6.000    0.000    0.000 
#    0.000    0.000    0.000    0.000    0.000    0.000 
#
# Total GULP energy -111444.486770 kJ/mol
# GULP energy per Si atom -5572.224338 kJ/mol
# Density = 1.946044 g / cm^3
# Si number density = 19.504836 Si / 1000 Ang^3
#
#
#
# Elastic Constant Matrix: (Units=GPa)
#
#
# Indices 1 2 3 4 5 6 
#
# 1 95.3654 53.4298 18.9689 0.0000 0.4211 0.0000
# 2 53.4298 171.2962 72.5911 0.0000 0.6363 0.0000
# 3 18.9689 72.5911 59.2652 0.0000 8.3556 0.0000
# 4 0.0000 0.0000 0.0000 63.8468 0.0000 -16.2064
# 5 0.4211 0.6363 8.3556 0.0000 34.6777 0.0000
# 6 0.0000 0.0000 0.0000 -16.2064 0.0000 40.4011
#
#
#
# Elastic Compliance Matrix: (Units=1/GPa)
#
#
# Indices 1 2 3 4 5 6 
#
# 1 0.012791 -0.004747 0.001790 0.000000 -0.000500 0.000000
# 2 -0.004747 0.014319 -0.016553 0.000000 0.003783 0.000000
# 3 0.001790 -0.016553 0.037820 0.000000 -0.008831 0.000000
# 4 0.000000 0.000000 0.000000 0.017438 0.000000 0.006995
# 5 -0.000500 0.003783 -0.008831 0.000000 0.030901 0.000000
# 6 0.000000 0.000000 0.000000 0.006995 0.000000 0.027558
#
#
# Mechanical properties :
#
#
# Convention : Reuss Voigt Hill
#
# Bulk Modulus (GPa) = 38.59194 68.43405 53.51299
# Shear Modulus (GPa) = 26.52747 39.84758 33.18752
#
# Velocity S-wave (km/s) = 3.69188 4.52481 4.12940
# Velocity P-wave (km/s) = 6.16458 7.90319 7.08740
#
# Compressibility (1/GPa) = 0.02591215
#
# Stress axis : x y z
#
# Youngs Moduli (GPa) = 78.17705 69.83710 26.44094
#
# Poissons Ratio (x) = 0.33149 -0.04734
# Poissons Ratio (y) = 0.37108 0.43767
# Poissons Ratio (z) = -0.13996 1.15600
#
# Static dielectric constant tensor:
#      x y z
#    x 1.673740 0.000000 -0.024790 
#    y 0.000000 1.702880 0.000000 
#    z -0.024790 0.000000 1.701710 
# 
# From -- ./inp_files/120307.got.cif
#   From: 2010.05.17/outbox.cif.g08.bks.cpg/sg12_61_cif.got.tgz:120307.got - 2010.06.03 13:09:07.
