data_PCOD9209123
_publ_section_title
;
Structure prediction by ZEFSAII (Michael W. Deem and Ramdas Pophale) SiO2 
 PCOD9209123
Probable space group: C 2/M
;
_chemical_formula_sum "Si O2"
_cell_formula_units_Z 40
_cell_length_a 18.159133
_cell_length_b 8.840992
_cell_length_c 26.142798
_cell_angle_alpha 90.000000
_cell_angle_beta 149.937930
_cell_angle_gamma 90.000000
_cell_volume 2102.480904
_symmetry_space_group_name_H-M "C 2/M"
_symmetry_group_IT_number 12
_symmetry_cell_setting 'monoclinic'
loop_
_space_group_symop_operation_xyz
x,y,z
-x,y,-z
-x,-y,-z
x,-y,z
1/2+x,1/2+y,z
1/2-x,1/2+y,-z
1/2-x,1/2-y,-z
1/2+x,1/2-y,z
loop_
_atom_site_type_symbol
_atom_site_label
_atom_site_fract_x
_atom_site_fract_y
_atom_site_fract_z
Si Si1 0.083085 0.319704 0.603218
Si Si2 0.921076 0.181718 0.005991
Si Si3 0.076791 0.681390 0.792241
Si Si4 0.592959 0.819368 0.204710
Si Si5 0.412616 0.680272 0.596653
O O1 0.083781 0.500000 0.612157
O O2 0.248761 0.259388 0.700036
O O3 0.000000 0.288848 0.500000
O O4 0.997960 0.240469 0.598297
O O5 0.000303 0.262674 0.100573
O O6 0.933145 0.000000 0.020289
O O7 0.748832 0.220390 0.899670
O O8 0.000000 0.220119 0.000000
O O9 0.066473 0.500000 0.777415
O O10 0.994393 0.716676 0.795662
O O11 0.000093 0.765432 0.699324
O O12 0.611924 0.000000 0.213546
O O13 0.403043 0.500000 0.589618
O O14 0.250000 0.750000 0.500000
#
# Coordination Sequence:
#
# PCOD9209123 Si02
#       5
#     8   8   8   8   8
#     4  11  24  42  64  89 119 158 203 250 302 359
#     4  10  21  38  61  87 119 162 206 250 301 357
#     4  10  22  40  61  89 125 162 202 249 301 356
#     4  11  23  38  60  90 123 160 202 251 302 355
#     4  12  25  41  64  92 123 159 199 246 299 357
#
# _framework density 19.025143
#
# number of rings (size 3 to 8) (size 9 to 14) (size 15 to 20)
#    0.000    1.200    0.000    6.000    0.000    9.200 
#    0.000    0.000    0.000    0.000    0.000    0.000 
#    0.000    0.000    0.000    0.000    0.000    0.000 
#
# Total GULP energy -111931.035027 kJ/mol
# GULP energy per Si atom -5596.551751 kJ/mol
# Density = 1.898184 g / cm^3
# Si number density = 19.025143 Si / 1000 Ang^3
#
#
#
# Elastic Constant Matrix: (Units=GPa)
#
#
# Indices 1 2 3 4 5 6 
#
# 1 195.7041 100.0232 122.1231 0.0000 5.8214 0.0000
# 2 100.0232 97.5109 105.5972 -0.0001 -8.9476 0.0000
# 3 122.1231 105.5972 201.3741 -0.0002 3.9884 0.0000
# 4 0.0000 -0.0001 -0.0002 46.6590 0.0000 -14.8189
# 5 5.8214 -8.9476 3.9884 0.0000 42.4515 0.0000
# 6 0.0000 0.0000 0.0000 -14.8189 0.0000 51.5417
#
#
#
# Elastic Compliance Matrix: (Units=1/GPa)
#
#
# Indices 1 2 3 4 5 6 
#
# 1 0.011528 -0.010826 -0.001240 0.000000 -0.003746 0.000000
# 2 -0.010826 0.035637 -0.012323 0.000000 0.010154 0.000000
# 3 -0.001240 -0.012323 0.012251 0.000000 -0.003578 0.000000
# 4 0.000000 0.000000 0.000000 0.023586 0.000000 0.006781
# 5 -0.003746 0.010154 -0.003578 0.000000 0.026546 0.000000
# 6 0.000000 0.000000 0.000000 0.006781 0.000000 0.021351
#
#
# Mechanical properties :
#
#
# Convention : Reuss Voigt Hill
#
# Bulk Modulus (GPa) = 94.00662 127.78622 110.89642
# Shear Modulus (GPa) = 27.28913 39.25348 33.27131
#
# Velocity S-wave (km/s) = 3.79142 4.54722 4.18641
# Velocity P-wave (km/s) = 8.28767 9.74076 9.04345
#
# Compressibility (1/GPa) = 0.01063755
#
# Stress axis : x y z
#
# Youngs Moduli (GPa) = 86.74463 28.06089 81.62754
#
# Poissons Ratio (x) = 0.30379 0.10122
# Poissons Ratio (y) = 0.93909 1.00590
# Poissons Ratio (z) = 0.10757 0.34580
#
# Static dielectric constant tensor:
#      x y z
#    x 1.627440 0.000000 0.003790 
#    y 0.000000 1.638240 0.000000 
#    z 0.003790 0.000000 1.615200 
# 
# From -- ./inp_files/151676.got.cif
#   From: 2010.05.17/outbox.cif.g08.bks.cpg/sg12_76_cif.got.tgz:151676.got - 2010.06.03 13:09:07.
