data_PCOD9209978
_publ_section_title
;
Structure prediction by ZEFSAII (Michael W. Deem and Ramdas Pophale) SiO2 
 PCOD9209978
Probable space group: C 2/M
;
_chemical_formula_sum "Si O2"
_cell_formula_units_Z 56
_cell_length_a 15.476250
_cell_length_b 7.881937
_cell_length_c 24.915848
_cell_angle_alpha 90.000000
_cell_angle_beta 63.177584
_cell_angle_gamma 90.000000
_cell_volume 2712.304731
_symmetry_space_group_name_H-M "C 2/M"
_symmetry_group_IT_number 12
_symmetry_cell_setting 'monoclinic'
loop_
_space_group_symop_operation_xyz
x,y,z
-x,y,-z
-x,-y,-z
x,-y,z
1/2+x,1/2+y,z
1/2-x,1/2+y,-z
1/2-x,1/2-y,-z
1/2+x,1/2-y,z
loop_
_atom_site_type_symbol
_atom_site_label
_atom_site_fract_x
_atom_site_fract_y
_atom_site_fract_z
Si Si1 0.900050 0.703321 0.499249
Si Si2 0.658073 0.799433 0.815632
Si Si3 0.314143 0.205623 0.409402
Si Si4 0.001911 0.802806 0.938218
Si Si5 0.569838 0.792515 0.727869
Si Si6 0.648198 0.794262 0.194811
Si Si7 0.683406 0.191010 0.067483
O O1 0.910899 0.500000 0.492625
O O2 0.798564 0.740244 0.558089
O O3 0.872854 0.764992 0.446312
O O4 0.000000 0.766313 0.500000
O O5 0.605022 0.713742 0.880983
O O6 0.614128 0.737385 0.772133
O O7 0.770836 0.761888 0.786685
O O8 0.640534 0.000000 0.824998
O O9 0.368992 0.263563 0.340538
O O10 0.314603 0.000000 0.410620
O O11 0.925658 0.701727 0.923839
O O12 0.971516 0.000000 0.946944
O O13 0.000000 0.742305 0.000000
O O14 0.458471 0.737596 0.759084
O O15 0.571581 0.000000 0.727037
O O16 0.679801 0.725193 0.127081
O O17 0.645302 0.000000 0.192872
O O18 0.715285 0.000000 0.068224
O O19 0.750000 0.250000 0.000000
#
# Coordination Sequence:
#
# PCOD9209978 Si02
#       7
#     8   8   8   8   8   8   8
#     4   9  18  33  54  84 118 148 185 232 275 322
#     4  11  22  38  58  82 109 143 187 236 282 338
#     4   9  18  34  57  81 110 153 191 226 276 330
#     4  11  23  38  56  80 109 142 183 232 286 344
#     4   9  19  38  58  78 112 152 188 227 282 342
#     4  10  21  39  58  79 110 147 183 228 285 343
#     4  11  22  37  57  81 110 144 182 231 286 344
#
# _framework density 20.646649
#
# number of rings (size 3 to 8) (size 9 to 14) (size 15 to 20)
#    0.000    2.000    1.429    2.143    0.000    7.143 
#    0.000    3.571    0.000    0.000    0.000    0.000 
#    0.000    0.000    0.000    0.000    0.000    0.000 
#
# Total GULP energy -156273.079311 kJ/mol
# GULP energy per Si atom -5581.181404 kJ/mol
# Density = 2.059966 g / cm^3
# Si number density = 20.646649 Si / 1000 Ang^3
#
#
#
# Elastic Constant Matrix: (Units=GPa)
#
#
# Indices 1 2 3 4 5 6 
#
# 1 166.8928 -2.7457 67.0957 0.0000 -15.2523 0.0001
# 2 -2.7457 20.4736 6.6853 0.0000 0.3212 0.0001
# 3 67.0957 6.6853 139.8883 0.0000 -12.5919 0.0000
# 4 0.0000 0.0000 0.0000 11.7887 0.0000 -5.8481
# 5 -15.2523 0.3212 -12.5919 0.0000 20.5259 0.0000
# 6 0.0001 0.0001 0.0000 -5.8481 0.0000 20.4888
#
#
#
# Elastic Compliance Matrix: (Units=1/GPa)
#
#
# Indices 1 2 3 4 5 6 
#
# 1 0.007763 0.002128 -0.003502 0.000000 0.003586 0.000000
# 2 0.002128 0.050310 -0.003550 0.000000 -0.001383 0.000000
# 3 -0.003502 -0.003550 0.009281 0.000000 0.003147 0.000000
# 4 0.000000 0.000000 0.000000 0.098819 0.000000 0.028206
# 5 0.003586 -0.001383 0.003147 0.000000 0.053336 0.000000
# 6 0.000000 0.000000 0.000000 0.028206 0.000000 0.056858
#
#
# Mechanical properties :
#
#
# Convention : Reuss Voigt Hill
#
# Bulk Modulus (GPa) = 17.38930 52.14726 34.76828
# Shear Modulus (GPa) = 16.37290 27.64196 22.00743
#
# Velocity S-wave (km/s) = 2.81909 3.66295 3.26837
# Velocity P-wave (km/s) = 4.36314 6.57278 5.57846
#
# Compressibility (1/GPa) = 0.05750662
#
# Stress axis : x y z
#
# Youngs Moduli (GPa) = 128.82263 19.87687 107.74452
#
# Poissons Ratio (x) = -0.04230 0.37733
# Poissons Ratio (y) = -0.27418 0.38246
# Poissons Ratio (z) = 0.45115 0.07056
#
# Static dielectric constant tensor:
#      x y z
#    x 1.728980 0.000000 0.001990 
#    y 0.000000 1.752290 0.000000 
#    z 0.001990 0.000000 1.747490 
# 
# From -- ./inp_files/338189.got.cif
#   From: 2010.05.17/outbox.cif.g08.bks.cpg/sg12_170_cif.got.tgz:338189.got - 2010.06.03 13:09:07.
