data_PCOD9209931
_publ_section_title
;
Structure prediction by ZEFSAII (Michael W. Deem and Ramdas Pophale) SiO2 
 PCOD9209931
Probable space group: C 2/M
;
_chemical_formula_sum "Si O2"
_cell_formula_units_Z 44
_cell_length_a 17.521943
_cell_length_b 8.125163
_cell_length_c 17.692547
_cell_angle_alpha 90.000000
_cell_angle_beta 72.731446
_cell_angle_gamma 90.000000
_cell_volume 2405.323259
_symmetry_space_group_name_H-M "C 2/M"
_symmetry_group_IT_number 12
_symmetry_cell_setting 'monoclinic'
loop_
_space_group_symop_operation_xyz
x,y,z
-x,y,-z
-x,-y,-z
x,-y,z
1/2+x,1/2+y,z
1/2-x,1/2+y,-z
1/2-x,1/2-y,-z
1/2+x,1/2-y,z
loop_
_atom_site_type_symbol
_atom_site_label
_atom_site_fract_x
_atom_site_fract_y
_atom_site_fract_z
Si Si1 0.637297 0.000000 0.551441
Si Si2 0.712627 0.307557 0.891435
Si Si3 0.416574 0.253469 0.558535
Si Si4 0.163837 0.500000 0.802315
Si Si5 0.527404 0.000000 0.333067
Si Si6 0.875754 0.192044 0.923194
Si Si7 0.974308 0.500000 0.840506
Si Si8 0.776997 0.000000 0.624234
O O1 0.617828 0.850457 0.501458
O O2 0.568746 0.000000 0.635148
O O3 0.723080 0.000000 0.564614
O O4 0.715866 0.500000 0.864756
O O5 0.799217 0.249376 0.896410
O O6 0.684889 0.167643 0.841534
O O7 0.653882 0.302771 0.981355
O O8 0.500000 0.324423 0.500000
O O9 0.340160 0.353607 0.606531
O O10 0.442997 0.151024 0.624302
O O11 0.217305 0.500000 0.711598
O O12 0.069609 0.500000 0.815277
O O13 0.553594 0.000000 0.239057
O O14 0.941197 0.332797 0.888694
O O15 0.896916 0.000000 0.899700
#
# Coordination Sequence:
#
# PCOD9209931 Si02
#       8
#     4   8   8   4   4   8   4   4
#     4   9  18  41  60  81 119 154 189 233 294 373
#     4  10  21  41  64  92 123 158 210 255 299 365
#     4   9  20  37  64  83 111 155 199 241 284 362
#     4  12  27  39  58  94 134 159 201 252 320 368
#     4   9  20  39  57  85 114 157 201 232 305 361
#     4  10  21  38  68  92 114 165 216 249 294 367
#     4  12  24  40  61  88 133 166 195 262 316 348
#     4  12  22  35  58  95 119 146 191 253 302 352
#
# _framework density 18.292757999999999
#
# number of rings (size 3 to 8) (size 9 to 14) (size 15 to 20)
#    0.000    1.818    2.727    2.455    2.545    2.182 
#    1.636    1.818    0.000    0.000    0.000    0.000 
#    0.000    0.000    0.000    0.000    0.000    0.000 
#
# Total GULP energy -122536.349101 kJ/mol
# GULP energy per Si atom -5569.834050 kJ/mol
# Density = 1.825112 g / cm^3
# Si number density = 18.292758 Si / 1000 Ang^3
#
#
#
# Elastic Constant Matrix: (Units=GPa)
#
#
# Indices 1 2 3 4 5 6 
#
# 1 132.5862 63.2546 50.4770 0.0000 -16.2827 0.0000
# 2 63.2546 153.7502 60.7088 0.0000 -11.1058 0.0000
# 3 50.4770 60.7088 74.6687 0.0000 -10.5951 0.0000
# 4 0.0000 0.0000 0.0000 20.9666 0.0000 -0.9694
# 5 -16.2827 -11.1058 -10.5951 0.0000 33.7797 0.0000
# 6 0.0000 0.0000 0.0000 -0.9694 0.0000 24.4348
#
#
#
# Elastic Compliance Matrix: (Units=1/GPa)
#
#
# Indices 1 2 3 4 5 6 
#
# 1 0.010935 -0.002258 -0.005143 0.000000 0.002916 0.000000
# 2 -0.002258 0.010063 -0.006636 0.000000 0.000139 0.000000
# 3 -0.005143 -0.006636 0.022610 0.000000 0.002431 0.000000
# 4 0.000000 0.000000 0.000000 0.047782 0.000000 0.001896
# 5 0.002916 0.000139 0.002431 0.000000 0.031817 0.000000
# 6 0.000000 0.000000 0.000000 0.001896 0.000000 0.041000
#
#
# Mechanical properties :
#
#
# Convention : Reuss Voigt Hill
#
# Bulk Modulus (GPa) = 64.37213 78.87621 71.62417
# Shear Modulus (GPa) = 25.32162 28.27389 26.79775
#
# Velocity S-wave (km/s) = 3.72458 3.93572 3.83160
# Velocity P-wave (km/s) = 7.33232 7.99160 7.66905
#
# Compressibility (1/GPa) = 0.01553467
#
# Stress axis : x y z
#
# Youngs Moduli (GPa) = 91.44533 99.37358 44.22905
#
# Poissons Ratio (x) = 0.22434 0.22749
# Poissons Ratio (y) = 0.20644 0.29350
# Poissons Ratio (z) = 0.47034 0.65943
#
# Static dielectric constant tensor:
#      x y z
#    x 1.598620 0.000000 -0.009560 
#    y 0.000000 1.074460 0.000000 
#    z -0.009560 0.000000 1.605540 
# 
# From -- ./inp_files/273577.got.cif
#   From: 2010.05.17/outbox.cif.g08.bks.cpg/sg12_137_cif.got.tgz:273577.got - 2010.06.03 13:09:07.
