data_PCOD9209547
_publ_section_title
;
Structure prediction by ZEFSAII (Michael W. Deem and Ramdas Pophale) SiO2 
 PCOD9209547
Probable space group: C 2/M
;
_chemical_formula_sum "Si O2"
_cell_formula_units_Z 36
_cell_length_a 17.298139
_cell_length_b 19.737139
_cell_length_c 10.778104
_cell_angle_alpha 90.000000
_cell_angle_beta 151.563376
_cell_angle_gamma 90.000000
_cell_volume 1752.277692
_symmetry_space_group_name_H-M "C 2/M"
_symmetry_group_IT_number 12
_symmetry_cell_setting 'monoclinic'
loop_
_space_group_symop_operation_xyz
x,y,z
-x,y,-z
-x,-y,-z
x,-y,z
1/2+x,1/2+y,z
1/2-x,1/2+y,-z
1/2-x,1/2-y,-z
1/2+x,1/2-y,z
loop_
_atom_site_type_symbol
_atom_site_label
_atom_site_fract_x
_atom_site_fract_y
_atom_site_fract_z
Si Si1 0.126376 0.423213 0.066052
Si Si2 0.000000 0.206500 0.000000
Si Si3 0.879023 0.188945 0.085044
Si Si4 0.621209 0.920111 0.782477
Si Si5 0.705909 0.713677 0.667678
O O1 0.190857 0.500000 0.158784
O O2 0.259255 0.365548 0.270244
O O3 0.049620 0.412338 0.820530
O O4 0.000000 0.416729 0.000000
O O5 0.840799 0.254342 0.764952
O O6 0.032791 0.166484 0.920177
O O7 0.744194 0.253127 0.136960
O O8 0.023018 0.221321 0.367288
O O9 0.779684 0.126696 0.998945
O O10 0.500000 0.900258 0.500000
O O11 0.658240 0.000000 0.818039
#
# Coordination Sequence:
#
# PCOD9209547 Si02
#       5
#     8   4   8   8   8
#     4  10  21  40  66  89 121 168 213 259 318 378
#     4   8  20  36  62  90 134 162 208 260 322 366
#     4  10  22  38  63  91 129 167 209 262 317 374
#     4  10  24  43  63  92 131 167 209 266 321 377
#     4  10  21  38  62  95 126 164 212 264 313 376
#
# _framework density 20.544689000000002
#
# number of rings (size 3 to 8) (size 9 to 14) (size 15 to 20)
#    1.333    0.889    1.111    0.667    3.111    4.444 
#    0.000    2.778    0.000    0.000    0.000    0.000 
#    0.000    0.000    0.000    0.000    0.000    0.000 
#
# Total GULP energy -100344.504713 kJ/mol
# GULP energy per Si atom -5574.694706 kJ/mol
# Density = 2.049793 g / cm^3
# Si number density = 20.544689 Si / 1000 Ang^3
#
#
#
# Elastic Constant Matrix: (Units=GPa)
#
#
# Indices 1 2 3 4 5 6 
#
# 1 132.1616 40.0879 56.5933 0.0000 -7.4232 0.0000
# 2 40.0879 62.9175 28.3582 0.0000 -0.0118 0.0000
# 3 56.5933 28.3582 144.0970 0.0000 0.4134 0.0000
# 4 0.0000 0.0000 0.0000 22.8357 0.0000 0.9585
# 5 -7.4232 -0.0118 0.4134 0.0000 27.6842 0.0000
# 6 0.0000 0.0000 0.0000 0.9585 0.0000 28.5075
#
#
#
# Elastic Compliance Matrix: (Units=1/GPa)
#
#
# Indices 1 2 3 4 5 6 
#
# 1 0.010722 -0.005409 -0.003155 0.000000 0.002920 0.000000
# 2 -0.005409 0.020170 -0.001841 0.000000 -0.001414 0.000000
# 3 -0.003155 -0.001841 0.008544 0.000000 -0.000974 0.000000
# 4 0.000000 0.000000 0.000000 0.043853 0.000000 -0.001474
# 5 0.002920 -0.001414 -0.000974 0.000000 0.036919 0.000000
# 6 0.000000 0.000000 0.000000 -0.001474 0.000000 0.035128
#
#
# Mechanical properties :
#
#
# Convention : Reuss Voigt Hill
#
# Bulk Modulus (GPa) = 53.68874 65.47279 59.58076
# Shear Modulus (GPa) = 27.41917 30.08125 28.75021
#
# Velocity S-wave (km/s) = 3.65720 3.83062 3.74491
# Velocity P-wave (km/s) = 6.63497 7.17653 6.91105
#
# Compressibility (1/GPa) = 0.01862588
#
# Stress axis : x y z
#
# Youngs Moduli (GPa) = 93.26444 49.57930 117.04189
#
# Poissons Ratio (x) = 0.26818 0.36926
# Poissons Ratio (y) = 0.50448 0.21547
# Poissons Ratio (z) = 0.29425 0.09127
#
# Static dielectric constant tensor:
#      x y z
#    x 1.835700 0.000000 -0.048550 
#    y 0.000000 1.703640 0.000000 
#    z -0.048550 0.000000 1.734920 
# 
# From -- ./inp_files/51044.got.cif
#   From: 2010.05.17/outbox.cif.g08.bks.cpg/sg12_26_cif.got.tgz:51044.got - 2010.06.03 13:09:07.
