data_PCOD9209187
_publ_section_title
;
Structure prediction by ZEFSAII (Michael W. Deem and Ramdas Pophale) SiO2 
 PCOD9209187
Probable space group: C 2/M
;
_chemical_formula_sum "Si O2"
_cell_formula_units_Z 48
_cell_length_a 27.606940
_cell_length_b 11.347762
_cell_length_c 22.506328
_cell_angle_alpha 90.000000
_cell_angle_beta 161.348069
_cell_angle_gamma 90.000000
_cell_volume 2254.946872
_symmetry_space_group_name_H-M "C 2/M"
_symmetry_group_IT_number 12
_symmetry_cell_setting 'monoclinic'
loop_
_space_group_symop_operation_xyz
x,y,z
-x,y,-z
-x,-y,-z
x,-y,z
1/2+x,1/2+y,z
1/2-x,1/2+y,-z
1/2-x,1/2-y,-z
1/2+x,1/2-y,z
loop_
_atom_site_type_symbol
_atom_site_label
_atom_site_fract_x
_atom_site_fract_y
_atom_site_fract_z
Si Si1 0.156393 0.865874 0.005564
Si Si2 0.467869 0.199585 0.707491
Si Si3 0.804564 0.374682 0.633044
Si Si4 0.448698 0.769198 0.003093
Si Si5 0.873154 0.134623 0.404377
Si Si6 0.005992 0.631321 0.393743
O O1 0.077702 0.823474 0.974806
O O2 0.336664 0.859073 0.222852
O O3 0.114524 0.000000 0.943713
O O4 0.099679 0.782150 0.886759
O O5 0.321469 0.276615 0.520312
O O6 0.410438 0.127301 0.697605
O O7 0.510517 0.134501 0.696861
O O8 0.727533 0.500000 0.548242
O O9 0.913855 0.350573 0.815139
O O10 0.294337 0.842500 0.816096
O O11 0.500000 0.715974 0.000000
O O12 0.000000 0.138625 0.500000
O O13 0.906998 0.250534 0.484189
O O14 0.881101 0.000000 0.438838
O O15 0.067905 0.500000 0.482443
#
# Coordination Sequence:
#
# PCOD9209187 Si02
#       6
#     8   8   8   8   8   8
#     4  10  22  40  62  91 129 168 210 263 318 377
#     4  10  21  38  61  92 124 161 210 259 314 381
#     4  10  21  38  61  88 124 164 206 262 319 375
#     4  11  23  40  62  92 126 165 214 264 316 375
#     4  11  24  43  65  93 128 167 214 264 314 373
#     4  11  23  41  66  94 127 169 213 260 318 380
#
# _framework density 21.286532000000001
#
# number of rings (size 3 to 8) (size 9 to 14) (size 15 to 20)
#    0.000    1.500    1.667    3.000    0.000    5.333 
#    0.000    6.667    0.000    0.000    0.000    0.000 
#    0.000    0.000    0.000    0.000    0.000    0.000 
#
# Total GULP energy -133992.530626 kJ/mol
# GULP energy per Si atom -5583.022109 kJ/mol
# Density = 2.123808 g / cm^3
# Si number density = 21.286532 Si / 1000 Ang^3
#
#
#
# Elastic Constant Matrix: (Units=GPa)
#
#
# Indices 1 2 3 4 5 6 
#
# 1 55.1623 8.7392 -7.5658 0.0002 -10.9490 0.0001
# 2 8.7392 146.0471 35.1166 0.0011 -14.4569 0.0000
# 3 -7.5658 35.1166 80.0288 0.0015 -8.6001 0.0001
# 4 0.0002 0.0011 0.0015 -58.0825 0.0007 4.0741
# 5 -10.9490 -14.4569 -8.6001 0.0007 27.4709 0.0000
# 6 0.0001 0.0000 0.0001 4.0741 0.0000 -2.0021
#
#
#
# Elastic Compliance Matrix: (Units=1/GPa)
#
#
# Indices 1 2 3 4 5 6 
#
# 1 0.020487 -0.001188 0.003382 0.000000 0.008599 0.000002
# 2 -0.001188 0.007984 -0.003327 0.000000 0.002687 0.000000
# 3 0.003382 -0.003327 0.014727 0.000001 0.004208 0.000002
# 4 0.000000 0.000000 0.000001 -0.020084 0.000001 -0.040869
# 5 0.008599 0.002687 0.004208 0.000001 0.042561 0.000003
# 6 0.000002 0.000000 0.000002 -0.040869 0.000003 -0.582651
#
#
# Mechanical properties :
#
#
# Convention : Reuss Voigt Hill
#
# Bulk Modulus (GPa) = 24.43008 39.31315 31.87161
# Shear Modulus (GPa) = -9.97874 9.80716 -0.08579
#
# Velocity S-wave (km/s) = -2.16749 2.14877 -0.20097
# Velocity P-wave (km/s) = 2.28860 4.96638 3.86669
#
# Compressibility (1/GPa) = 0.04093315
#
# Stress axis : x y z
#
# Youngs Moduli (GPa) = 48.81083 125.24873 67.90104
#
# Poissons Ratio (x) = 0.14879 -0.22965
# Poissons Ratio (y) = 0.05798 0.22591
# Poissons Ratio (z) = -0.16509 0.41670
#
# Static dielectric constant tensor:
#      x y z
#    x 1.789250 0.000000 -0.011250 
#    y 0.000000 1.784620 0.000000 
#    z -0.011250 0.000000 1.726670 
# 
# From -- ./inp_files/327957.got.cif
#   From: 2010.05.17/outbox.cif.g08.bks.cpg/sg12_164_cif.got.tgz:327957.got - 2010.06.03 13:09:07.
