data_PCOD9209733
_publ_section_title
;
Structure prediction by ZEFSAII (Michael W. Deem and Ramdas Pophale) SiO2 
 PCOD9209733
Probable space group: C 2/M
;
_chemical_formula_sum "Si O2"
_cell_formula_units_Z 36
_cell_length_a 8.885709
_cell_length_b 20.679456
_cell_length_c 15.293539
_cell_angle_alpha 90.000000
_cell_angle_beta 142.768916
_cell_angle_gamma 90.000000
_cell_volume 1700.266240
_symmetry_space_group_name_H-M "C 2/M"
_symmetry_group_IT_number 12
_symmetry_cell_setting 'monoclinic'
loop_
_space_group_symop_operation_xyz
x,y,z
-x,y,-z
-x,-y,-z
x,-y,z
1/2+x,1/2+y,z
1/2-x,1/2+y,-z
1/2-x,1/2-y,-z
1/2+x,1/2-y,z
loop_
_atom_site_type_symbol
_atom_site_label
_atom_site_fract_x
_atom_site_fract_y
_atom_site_fract_z
Si Si1 0.500000 0.745379 0.000000
Si Si2 0.020950 0.720654 0.200574
Si Si3 0.819587 0.500000 0.833298
Si Si4 0.787812 0.141102 0.653718
Si Si5 0.627441 0.389764 0.642843
Si Si6 0.721336 0.500000 0.329202
O O1 0.508941 0.787792 0.917113
O O2 0.243698 0.706513 0.878606
O O3 0.087777 0.795563 0.247724
O O4 0.238286 0.674206 0.330792
O O5 0.834899 0.436080 0.781699
O O6 0.528081 0.500000 0.726880
O O7 0.000000 0.500000 0.000000
O O8 0.500000 0.154587 0.500000
O O9 0.932676 0.128512 0.629081
O O10 0.797304 0.074123 0.714810
O O11 0.500000 0.421874 0.500000
O O12 0.000000 0.500000 0.500000
#
# Coordination Sequence:
#
# PCOD9209733 Si02
#       6
#     4   8   4   8   8   4
#     4  10  24  38  58  88 130 174 204 276 320 394
#     4  11  22  39  62  90 130 165 223 259 331 377
#     4  10  23  41  70  94 129 171 218 265 328 394
#     4  10  21  38  64  91 121 169 214 263 318 378
#     4  11  24  40  66  98 129 167 218 273 321 384
#     4   8  18  39  62  92 122 168 213 263 313 381
#
# _framework density 21.173155000000001
#
# number of rings (size 3 to 8) (size 9 to 14) (size 15 to 20)
#    0.000    1.778    2.222    1.000    4.667    3.556 
#    0.000    0.000    0.000    1.333    0.000    0.000 
#    0.000    0.000    0.000    0.000    0.000    0.000 
#
# Total GULP energy -100262.248277 kJ/mol
# GULP energy per Si atom -5570.124904 kJ/mol
# Density = 2.112496 g / cm^3
# Si number density = 21.173155 Si / 1000 Ang^3
#
#
#
# Elastic Constant Matrix: (Units=GPa)
#
#
# Indices 1 2 3 4 5 6 
#
# 1 82.1306 21.4709 31.0832 0.0002 18.5610 0.0004
# 2 21.4709 137.3437 54.9278 0.0004 3.7085 0.0000
# 3 31.0832 54.9278 84.8901 -0.0022 -0.3785 0.0003
# 4 0.0002 0.0004 -0.0022 12.4716 -0.0001 -1.3631
# 5 18.5610 3.7085 -0.3785 -0.0001 44.4202 0.0003
# 6 0.0004 0.0000 0.0003 -1.3631 0.0003 5.7737
#
#
#
# Elastic Compliance Matrix: (Units=1/GPa)
#
#
# Indices 1 2 3 4 5 6 
#
# 1 0.015904 0.000048 -0.005884 -0.000001 -0.006700 -0.000001
# 2 0.000048 0.009857 -0.006400 -0.000001 -0.000897 0.000000
# 3 -0.005884 -0.006400 0.018089 0.000004 0.003147 0.000000
# 4 -0.000001 -0.000001 0.000004 0.082306 0.000001 0.019432
# 5 -0.006700 -0.000897 0.003147 0.000001 0.025414 -0.000001
# 6 -0.000001 0.000000 0.000000 0.019432 -0.000001 0.177788
#
#
# Mechanical properties :
#
#
# Convention : Reuss Voigt Hill
#
# Bulk Modulus (GPa) = 51.60282 57.70315 54.65299
# Shear Modulus (GPa) = 13.87773 25.65860 19.76816
#
# Velocity S-wave (km/s) = 2.56293 3.48493 3.05887
# Velocity P-wave (km/s) = 5.76046 6.59584 6.19226
#
# Compressibility (1/GPa) = 0.01937879
#
# Stress axis : x y z
#
# Youngs Moduli (GPa) = 62.87604 101.44947 55.28099
#
# Poissons Ratio (x) = -0.00486 0.32529
# Poissons Ratio (y) = -0.00301 0.35377
# Poissons Ratio (z) = 0.36999 0.64923
#
# Static dielectric constant tensor:
#      x y z
#    x 1.835620 0.000000 0.061160 
#    y 0.000000 1.819930 0.000000 
#    z 0.061160 0.000000 1.827260 
# 
# From -- ./inp_files/197630.got.cif
#   From: 2010.05.17/outbox.cif.g08.bks.cpg/sg12_99_cif.got.tgz:197630.got - 2010.06.03 13:09:07.
