data_PCOD9209935
_publ_section_title
;
Structure prediction by ZEFSAII (Michael W. Deem and Ramdas Pophale) SiO2 
 PCOD9209935
Probable space group: C 2/M
;
_chemical_formula_sum "Si O2"
_cell_formula_units_Z 52
_cell_length_a 11.267782
_cell_length_b 30.189794
_cell_length_c 11.306825
_cell_angle_alpha 90.000000
_cell_angle_beta 139.118130
_cell_angle_gamma 90.000000
_cell_volume 2517.386934
_symmetry_space_group_name_H-M "C 2/M"
_symmetry_group_IT_number 12
_symmetry_cell_setting 'monoclinic'
loop_
_space_group_symop_operation_xyz
x,y,z
-x,y,-z
-x,-y,-z
x,-y,z
1/2+x,1/2+y,z
1/2-x,1/2+y,-z
1/2-x,1/2-y,-z
1/2+x,1/2-y,z
loop_
_atom_site_type_symbol
_atom_site_label
_atom_site_fract_x
_atom_site_fract_y
_atom_site_fract_z
Si Si1 0.549782 0.579879 0.665028
Si Si2 0.103271 0.449971 0.956251
Si Si3 0.330958 0.321678 0.293676
Si Si4 0.776409 0.875476 0.641614
Si Si5 0.605832 0.689952 0.926607
Si Si6 0.897619 0.378229 0.248863
Si Si7 0.000000 0.270859 0.000000
O O1 0.500000 0.559388 0.500000
O O2 0.686450 0.552176 0.847472
O O3 0.655755 0.625238 0.707221
O O4 0.385636 0.595269 0.627194
O O5 0.050487 0.500000 0.883112
O O6 0.072528 0.415532 0.827851
O O7 0.000000 0.438343 0.000000
O O8 0.500000 0.307551 0.500000
O O9 0.364618 0.304097 0.188722
O O10 0.135792 0.302038 0.176629
O O11 0.592561 0.859940 0.438043
O O12 0.704432 0.896779 0.710096
O O13 0.915819 0.837334 0.788465
O O14 0.594362 0.736000 0.984049
O O15 0.766002 0.658962 0.096291
#
# Coordination Sequence:
#
# PCOD9209935 Si02
#       7
#     8   8   8   8   8   8   4
#     4  10  21  41  65  94 132 171 219 258 318 390
#     4  11  24  41  66 100 133 165 210 267 320 384
#     4  10  24  39  58  92 127 167 215 264 318 376
#     4  10  21  38  68  96 120 175 217 259 313 390
#     4  11  22  42  64  90 129 164 221 264 314 390
#     4  11  21  41  69  91 129 171 213 264 329 377
#     4  12  24  38  64  92 128 166 218 270 318 372
#
# _framework density 20.656338999999999
#
# number of rings (size 3 to 8) (size 9 to 14) (size 15 to 20)
#    0.000    1.385    4.615    1.385    1.077    5.846 
#    0.000    3.846    0.000    0.000    0.000    0.000 
#    0.000    0.000    0.000    0.000    0.000    0.000 
#
# Total GULP energy -145094.771423 kJ/mol
# GULP energy per Si atom -5580.568132 kJ/mol
# Density = 2.060932 g / cm^3
# Si number density = 20.656339 Si / 1000 Ang^3
#
#
#
# Elastic Constant Matrix: (Units=GPa)
#
#
# Indices 1 2 3 4 5 6 
#
# 1 93.4647 37.4579 37.5641 0.0000 0.2920 0.0000
# 2 37.4579 64.2914 45.4262 0.0000 5.2125 0.0000
# 3 37.5641 45.4262 150.0280 0.0000 10.7754 0.0000
# 4 0.0000 0.0000 0.0000 6.5585 0.0000 2.1143
# 5 0.2920 5.2125 10.7754 0.0000 37.8906 0.0000
# 6 0.0000 0.0000 0.0000 2.1143 0.0000 17.8860
#
#
#
# Elastic Compliance Matrix: (Units=1/GPa)
#
#
# Indices 1 2 3 4 5 6 
#
# 1 0.014228 -0.007394 -0.001418 0.000000 0.001311 0.000000
# 2 -0.007394 0.023670 -0.005192 0.000000 -0.001723 0.000000
# 3 -0.001418 -0.005192 0.008718 0.000000 -0.001754 0.000000
# 4 0.000000 0.000000 0.000000 0.158516 0.000000 -0.018738
# 5 0.001311 -0.001723 -0.001754 0.000000 0.027118 0.000000
# 6 0.000000 0.000000 0.000000 -0.018738 0.000000 0.058125
#
#
# Mechanical properties :
#
#
# Convention : Reuss Voigt Hill
#
# Bulk Modulus (GPa) = 53.73691 60.96452 57.35071
# Shear Modulus (GPa) = 15.40421 24.95607 20.18014
#
# Velocity S-wave (km/s) = 2.73378 3.47962 3.12901
# Velocity P-wave (km/s) = 6.00300 6.76177 6.39365
#
# Compressibility (1/GPa) = 0.01860918
#
# Stress axis : x y z
#
# Youngs Moduli (GPa) = 70.28202 42.24673 114.69964
#
# Poissons Ratio (x) = 0.31239 0.16261
# Poissons Ratio (y) = 0.51969 0.59551
# Poissons Ratio (z) = 0.09964 0.21934
#
# Static dielectric constant tensor:
#      x y z
#    x 1.717920 0.000000 -0.034110 
#    y 0.000000 1.713900 0.000000 
#    z -0.034110 0.000000 1.711290 
# 
# From -- ./inp_files/137639.got.cif
#   From: 2010.05.17/outbox.cif.g08.bks.cpg/sg12_69_cif.got.tgz:137639.got - 2010.06.03 13:09:07.
