data_PCOD9209959
_publ_section_title
;
Structure prediction by ZEFSAII (Michael W. Deem and Ramdas Pophale) SiO2 
 PCOD9209959
Probable space group: C 2/M
;
_chemical_formula_sum "Si O2"
_cell_formula_units_Z 50
_cell_length_a 12.508604
_cell_length_b 12.324140
_cell_length_c 28.407314
_cell_angle_alpha 90.000000
_cell_angle_beta 143.496750
_cell_angle_gamma 90.000000
_cell_volume 2605.052774
_symmetry_space_group_name_H-M "C 2/M"
_symmetry_group_IT_number 12
_symmetry_cell_setting 'monoclinic'
loop_
_space_group_symop_operation_xyz
x,y,z
-x,y,-z
-x,-y,-z
x,-y,z
1/2+x,1/2+y,z
1/2-x,1/2+y,-z
1/2-x,1/2-y,-z
1/2+x,1/2-y,z
loop_
_atom_site_type_symbol
_atom_site_label
_atom_site_fract_x
_atom_site_fract_y
_atom_site_fract_z
Si Si1 0.204842 0.369622 0.390440
Si Si2 0.881875 0.224417 0.291335
Si Si3 0.935586 0.123408 0.804118
Si Si4 0.776298 0.625436 0.857407
Si Si5 0.068725 0.808344 0.952694
Si Si6 0.972170 0.870517 0.564173
Si Si7 0.000000 0.000000 0.000000
O O1 0.182947 0.500000 0.380827
O O2 0.292826 0.339163 0.472167
O O3 0.355208 0.336202 0.405778
O O4 0.017035 0.311063 0.315954
O O5 0.721306 0.290212 0.259509
O O6 0.800214 0.147895 0.222207
O O7 0.995804 0.164510 0.371472
O O8 0.112647 0.143514 0.835753
O O9 0.983536 0.136777 0.875962
O O10 0.875514 0.000000 0.773316
O O11 0.835985 0.500000 0.882858
O O12 0.932128 0.713220 0.920439
O O13 0.088326 0.903072 0.997714
O O14 0.250000 0.750000 0.000000
O O15 0.972427 0.000000 0.562510
#
# Coordination Sequence:
#
# PCOD9209959 Si02
#       7
#     8   8   8   8   8   8   2
#     4   9  18  32  50  76 109 150 193 248 307 353
#     4  11  19  32  56  82 109 150 203 244 297 359
#     4  10  21  39  56  81 119 153 188 240 300 364
#     4  10  23  40  60  86 123 162 196 241 311 376
#     4  11  24  42  68  95 122 159 200 257 310 362
#     4   9  18  32  50  74 110 147 194 249 300 356
#     4  12  24  44  70 102 128 156 220 254 308 382
#
# _framework density 19.193470000000001
#
# number of rings (size 3 to 8) (size 9 to 14) (size 15 to 20)
#    0.000    1.920    0.800    4.320    1.120    0.000 
#    0.000    2.000    8.800    0.000    0.000   13.440 
#    0.000    0.000    0.000    0.000    0.000    0.000 
#
# Total GULP energy -139223.644730 kJ/mol
# GULP energy per Si atom -5568.945789 kJ/mol
# Density = 1.914978 g / cm^3
# Si number density = 19.193470 Si / 1000 Ang^3
#
#
#
# Elastic Constant Matrix: (Units=GPa)
#
#
# Indices 1 2 3 4 5 6 
#
# 1 65.2722 43.8333 0.4827 0.0000 8.3544 0.0000
# 2 43.8333 97.2822 18.1862 0.0000 17.3973 0.0000
# 3 0.4827 18.1862 28.0528 0.0000 7.1754 0.0000
# 4 0.0000 0.0000 0.0000 6.5121 0.0000 -0.3802
# 5 8.3544 17.3973 7.1754 0.0000 27.3225 0.0000
# 6 0.0000 0.0000 0.0000 -0.3802 0.0000 27.9099
#
#
#
# Elastic Compliance Matrix: (Units=1/GPa)
#
#
# Indices 1 2 3 4 5 6 
#
# 1 0.023266 -0.011588 0.007551 0.000000 -0.001719 0.000000
# 2 -0.011588 0.018410 -0.010338 0.000000 -0.005464 0.000000
# 3 0.007551 -0.010338 0.044088 0.000000 -0.007305 0.000000
# 4 0.000000 0.000000 0.000000 0.153683 0.000000 0.002094
# 5 -0.001719 -0.005464 -0.007305 0.000000 0.042523 0.000000
# 6 0.000000 0.000000 0.000000 0.002094 0.000000 0.035858
#
#
# Mechanical properties :
#
#
# Convention : Reuss Voigt Hill
#
# Bulk Modulus (GPa) = 17.53903 35.06796 26.30349
# Shear Modulus (GPa) = 13.67683 20.88922 17.28302
#
# Velocity S-wave (km/s) = 2.67231 3.30259 3.00403
# Velocity P-wave (km/s) = 4.32198 5.73178 5.07606
#
# Compressibility (1/GPa) = 0.05701570
#
# Stress axis : x y z
#
# Youngs Moduli (GPa) = 42.98079 54.31742 22.68216
#
# Poissons Ratio (x) = 0.62940 -0.17128
# Poissons Ratio (y) = 0.49804 0.23449
# Poissons Ratio (z) = -0.32456 0.56153
#
# Static dielectric constant tensor:
#      x y z
#    x 1.669910 0.000000 -0.010610 
#    y 0.000000 1.648130 0.000000 
#    z -0.010610 0.000000 1.680700 
# 
# From -- ./inp_files/373850.got.cif
#   From: 2010.05.17/outbox.cif.g08.bks.cpg/sg12_187_cif.got.tgz:373850.got - 2010.06.03 13:09:07.
