data_PCOD9209910
_publ_section_title
;
Structure prediction by ZEFSAII (Michael W. Deem and Ramdas Pophale) SiO2 
 PCOD9209910
Probable space group: C 2/M
;
_chemical_formula_sum "Si O2"
_cell_formula_units_Z 64
_cell_length_a 22.966061
_cell_length_b 19.165923
_cell_length_c 13.371153
_cell_angle_alpha 90.000000
_cell_angle_beta 34.191069
_cell_angle_gamma 90.000000
_cell_volume 3307.396219
_symmetry_space_group_name_H-M "C 2/M"
_symmetry_group_IT_number 12
_symmetry_cell_setting 'monoclinic'
loop_
_space_group_symop_operation_xyz
x,y,z
-x,y,-z
-x,-y,-z
x,-y,z
1/2+x,1/2+y,z
1/2-x,1/2+y,-z
1/2-x,1/2-y,-z
1/2+x,1/2-y,z
loop_
_atom_site_type_symbol
_atom_site_label
_atom_site_fract_x
_atom_site_fract_y
_atom_site_fract_z
Si Si1 0.407218 0.422947 0.712519
Si Si2 0.313756 0.666320 0.497215
Si Si3 0.618402 0.828494 0.302838
Si Si4 0.154982 0.666493 0.561974
Si Si5 0.924248 0.295584 0.864582
Si Si6 0.762739 0.916761 0.228155
Si Si7 0.708403 0.317099 0.249165
Si Si8 0.534239 0.632706 0.157647
O O1 0.500000 0.417713 0.500000
O O2 0.361312 0.500000 0.770402
O O3 0.327800 0.364332 0.791135
O O4 0.447014 0.410537 0.767709
O O5 0.209049 0.646084 0.589397
O O6 0.320343 0.750957 0.487083
O O7 0.322033 0.649042 0.602333
O O8 0.413249 0.632957 0.300871
O O9 0.500000 0.845003 0.500000
O O10 0.616534 0.812779 0.188164
O O11 0.697230 0.888173 0.225915
O O12 0.654319 0.757931 0.309261
O O13 0.208795 0.621692 0.398475
O O14 0.030716 0.663520 0.733955
O O15 0.945552 0.213210 0.841776
O O16 0.831564 0.309777 0.072291
O O17 0.757588 0.000000 0.243550
O O18 0.881106 0.892133 0.042496
#
# Coordination Sequence:
#
# PCOD9209910 Si02
#       8
#     8   8   8   8   8   8   8   8
#     4  11  22  35  55  89 126 153 190 248 311 372
#     4  10  21  38  67  85 117 155 209 264 298 352
#     4  12  20  37  63  91 125 164 210 248 313 375
#     4  10  22  42  57  90 118 159 210 253 301 355
#     4  11  21  35  65  90 123 156 206 257 301 356
#     4  12  25  41  60  91 133 165 202 258 317 385
#     4  12  20  37  62  93 119 156 200 259 307 362
#     4  11  20  38  60  92 119 163 199 250 315 366
#
# _framework density 19.350570000000001
#
# number of rings (size 3 to 8) (size 9 to 14) (size 15 to 20)
#    0.000    0.875    6.250    2.625    0.000    1.250 
#    0.000    6.875    0.000    0.000    0.000    1.750 
#    0.000    0.000    0.000    0.000    0.000    0.000 
#
# Total GULP energy -178705.899087 kJ/mol
# GULP energy per Si atom -5584.559346 kJ/mol
# Density = 1.930653 g / cm^3
# Si number density = 19.350570 Si / 1000 Ang^3
#
#
#
# Elastic Constant Matrix: (Units=GPa)
#
#
# Indices 1 2 3 4 5 6 
#
# 1 73.7892 13.9172 14.0119 0.0000 -23.3245 0.0000
# 2 13.9172 70.8273 17.8972 0.0000 -9.7698 0.0000
# 3 14.0119 17.8972 87.8385 0.0000 -18.1146 0.0000
# 4 0.0000 0.0000 0.0000 15.3123 0.0000 2.0078
# 5 -23.3245 -9.7698 -18.1146 0.0000 17.7111 0.0000
# 6 0.0000 0.0000 0.0000 2.0078 0.0000 5.6233
#
#
#
# Elastic Compliance Matrix: (Units=1/GPa)
#
#
# Indices 1 2 3 4 5 6 
#
# 1 0.024038 -0.000810 0.003506 0.000000 0.034796 0.000000
# 2 -0.000810 0.015522 -0.001885 0.000000 0.005568 0.000000
# 3 0.003506 -0.001885 0.015141 0.000000 0.019063 0.000000
# 4 0.000000 0.000000 0.000000 0.068515 0.000000 -0.024464
# 5 0.034796 0.005568 0.019063 0.000000 0.124856 0.000000
# 6 0.000000 0.000000 0.000000 -0.024464 0.000000 0.186568
#
#
# Mechanical properties :
#
#
# Convention : Reuss Voigt Hill
#
# Bulk Modulus (GPa) = 17.75442 36.01196 26.88319
# Shear Modulus (GPa) = 11.06707 20.17124 15.61916
#
# Velocity S-wave (km/s) = 2.39409 3.23214 2.84415
# Velocity P-wave (km/s) = 4.10333 5.70786 4.97076
#
# Compressibility (1/GPa) = 0.05632401
#
# Stress axis : x y z
#
# Youngs Moduli (GPa) = 41.60081 64.42313 66.04716
#
# Poissons Ratio (x) = 0.05216 -0.23158
# Poissons Ratio (y) = 0.03368 0.12452
# Poissons Ratio (z) = -0.14587 0.12146
#
# Static dielectric constant tensor:
#      x y z
#    x 1.685180 0.000000 0.008620 
#    y 0.000000 1.656550 0.000000 
#    z 0.008620 0.000000 1.712740 
# 
# From -- ./inp_files/241453.got.cif
#   From: 2010.05.17/outbox.cif.g08.bks.cpg/sg12_121_cif.got.tgz:241453.got - 2010.06.03 13:09:07.
