data_PCOD9209947
_publ_section_title
;
Structure prediction by ZEFSAII (Michael W. Deem and Ramdas Pophale) SiO2 
 PCOD9209947
Probable space group: C 2/M
;
_chemical_formula_sum "Si O2"
_cell_formula_units_Z 52
_cell_length_a 15.929087
_cell_length_b 29.510760
_cell_length_c 5.402710
_cell_angle_alpha 90.000000
_cell_angle_beta 110.474167
_cell_angle_gamma 90.000000
_cell_volume 2379.269959
_symmetry_space_group_name_H-M "C 2/M"
_symmetry_group_IT_number 12
_symmetry_cell_setting 'monoclinic'
loop_
_space_group_symop_operation_xyz
x,y,z
-x,y,-z
-x,-y,-z
x,-y,z
1/2+x,1/2+y,z
1/2-x,1/2+y,-z
1/2-x,1/2-y,-z
1/2+x,1/2-y,z
loop_
_atom_site_type_symbol
_atom_site_label
_atom_site_fract_x
_atom_site_fract_y
_atom_site_fract_z
Si Si1 0.766378 0.449370 0.523842
Si Si2 0.500000 0.682114 0.000000
Si Si3 0.792666 0.300055 0.260193
Si Si4 0.950415 0.349844 0.197712
Si Si5 0.623575 0.285976 0.758705
Si Si6 0.884872 0.448809 0.145742
Si Si7 0.832291 0.858995 0.573267
O O1 0.728601 0.500000 0.475004
O O2 0.825402 0.443614 0.334356
O O3 0.691583 0.411113 0.463564
O O4 0.826397 0.446270 0.833965
O O5 0.470647 0.713147 0.199907
O O6 0.585189 0.651792 0.159219
O O7 0.851583 0.328501 0.124705
O O8 0.850985 0.256118 0.389514
O O9 0.759591 0.334006 0.436825
O O10 0.699263 0.282913 0.049422
O O11 0.946754 0.404670 0.197774
O O12 0.000000 0.335443 0.500000
O O13 0.000000 0.335157 0.000000
O O14 0.638041 0.333964 0.644268
O O15 0.925189 0.500000 0.194003
#
# Coordination Sequence:
#
# PCOD9209947 Si02
#       7
#     8   4   8   8   8   8   8
#     4  10  21  38  69  96 123 165 214 263 315 385
#     4  10  24  38  59 100 118 168 197 270 318 384
#     4  10  23  40  62  92 118 175 212 264 310 387
#     4  12  26  39  60  94 133 170 211 266 320 371
#     4  10  22  41  65  87 126 161 220 257 324 376
#     4  10  21  41  63  91 125 168 217 261 314 376
#     4  11  21  40  67  88 129 160 216 256 323 380
#
# _framework density 21.855445
#
# number of rings (size 3 to 8) (size 9 to 14) (size 15 to 20)
#    0.000    1.538    1.538    2.769    5.385    1.846 
#    0.000    0.385    0.000    1.846    0.000    0.000 
#    0.000    0.000    0.000    0.000    0.000    0.000 
#
# Total GULP energy -145266.735312 kJ/mol
# GULP energy per Si atom -5587.182127 kJ/mol
# Density = 2.180570 g / cm^3
# Si number density = 21.855445 Si / 1000 Ang^3
#
#
#
# Elastic Constant Matrix: (Units=GPa)
#
#
# Indices 1 2 3 4 5 6 
#
# 1 109.9238 41.3059 36.8784 0.0000 -25.3040 0.0000
# 2 41.3059 97.0762 22.2660 0.0000 -3.5218 0.0000
# 3 36.8784 22.2660 97.1128 0.0000 -17.1456 0.0000
# 4 0.0000 0.0000 0.0000 17.2972 0.0000 5.5678
# 5 -25.3040 -3.5218 -17.1456 0.0000 35.3784 0.0000
# 6 0.0000 0.0000 0.0000 5.5678 0.0000 26.3343
#
#
#
# Elastic Compliance Matrix: (Units=1/GPa)
#
#
# Indices 1 2 3 4 5 6 
#
# 1 0.013680 -0.004922 -0.002653 0.000000 0.008009 0.000000
# 2 -0.004922 0.012644 -0.001563 0.000000 -0.003019 0.000000
# 3 -0.002653 -0.001563 0.012358 0.000000 0.003936 0.000000
# 4 0.000000 0.000000 0.000000 0.062035 0.000000 -0.013116
# 5 0.008009 -0.003019 0.003936 0.000000 0.035601 0.000000
# 6 0.000000 0.000000 0.000000 -0.013116 0.000000 0.040746
#
#
# Mechanical properties :
#
#
# Convention : Reuss Voigt Hill
#
# Bulk Modulus (GPa) = 49.00135 56.11262 52.55698
# Shear Modulus (GPa) = 24.73497 29.37947 27.05722
#
# Velocity S-wave (km/s) = 3.36780 3.67040 3.52235
# Velocity P-wave (km/s) = 6.13124 6.61004 6.37514
#
# Compressibility (1/GPa) = 0.02040760
#
# Stress axis : x y z
#
# Youngs Moduli (GPa) = 73.09763 79.08587 80.91969
#
# Poissons Ratio (x) = 0.38926 0.21464
# Poissons Ratio (y) = 0.35979 0.12648
# Poissons Ratio (z) = 0.19389 0.12361
#
# Static dielectric constant tensor:
#      x y z
#    x 1.803610 0.000000 0.007090 
#    y 0.000000 1.821450 0.000000 
#    z 0.007090 0.000000 1.860240 
# 
# From -- ./inp_files/13209.got.cif
#   From: 2010.05.17/outbox.cif.g08.bks.cpg/sg12_7_cif.got.tgz:13209.got - 2010.06.03 13:09:07.
