data_PCOD9209388
_publ_section_title
;
Structure prediction by ZEFSAII (Michael W. Deem and Ramdas Pophale) SiO2 
 PCOD9209388
Probable space group: C 2/M
;
_chemical_formula_sum "Si O2"
_cell_formula_units_Z 64
_cell_length_a 31.725729
_cell_length_b 13.444097
_cell_length_c 22.543790
_cell_angle_alpha 90.000000
_cell_angle_beta 162.026520
_cell_angle_gamma 90.000000
_cell_volume 2967.108201
_symmetry_space_group_name_H-M "C 2/M"
_symmetry_group_IT_number 12
_symmetry_cell_setting 'monoclinic'
loop_
_space_group_symop_operation_xyz
x,y,z
-x,y,-z
-x,-y,-z
x,-y,z
1/2+x,1/2+y,z
1/2-x,1/2+y,-z
1/2-x,1/2-y,-z
1/2+x,1/2-y,z
loop_
_atom_site_type_symbol
_atom_site_label
_atom_site_fract_x
_atom_site_fract_y
_atom_site_fract_z
Si Si1 0.904463 0.119050 0.562839
Si Si2 0.307154 0.378905 0.101293
Si Si3 0.871356 0.621018 0.249894
Si Si4 0.151093 0.385780 0.140552
Si Si5 0.596424 0.719124 0.310318
Si Si6 0.320302 0.880079 0.313508
Si Si7 0.362116 0.883802 0.010077
Si Si8 0.959943 0.184459 0.010445
O O1 0.767500 0.141844 0.343120
O O2 0.904282 0.161243 0.628697
O O3 0.039009 0.153103 0.707266
O O4 0.911297 0.000000 0.575952
O O5 0.309421 0.500000 0.103618
O O6 0.210282 0.347034 0.917175
O O7 0.240258 0.353362 0.074653
O O8 0.871677 0.500000 0.249850
O O9 0.804427 0.649469 0.223200
O O10 0.029672 0.651431 0.464353
O O11 0.107814 0.500000 0.091890
O O12 0.031535 0.304790 0.981821
O O13 0.205909 0.380042 0.146168
O O14 0.750000 0.750000 0.500000
O O15 0.493699 0.812369 0.183185
O O16 0.541027 0.657807 0.178832
O O17 0.197070 0.839790 0.186837
O O18 0.316575 0.000000 0.310711
O O19 0.402027 0.000000 0.073431
O O20 0.000000 0.142625 0.000000
#
# Coordination Sequence:
#
# PCOD9209388 Si02
#       8
#     8   8   8   8   8   8   8   8
#     4  10  21  38  62  89 117 151 190 236 287 338
#     4   9  17  31  55  87 118 146 181 230 287 342
#     4   8  15  30  53  79 111 153 193 224 259 324
#     4   9  20  40  61  81 110 152 198 237 277 330
#     4  11  24  40  58  83 114 149 193 242 289 339
#     4   9  18  34  55  80 113 153 192 226 270 334
#     4   9  20  39  61  86 117 152 189 232 285 343
#     4  11  23  38  57  82 113 148 189 239 288 338
#
# _framework density 21.569824000000001
#
# number of rings (size 3 to 8) (size 9 to 14) (size 15 to 20)
#    0.000    2.500    0.000    2.250    0.000    5.500 
#    0.000   10.000    0.000    0.000    0.000    0.000 
#    0.000    0.000    0.000    0.000    0.000    0.000 
#
# Total GULP energy -178773.587655 kJ/mol
# GULP energy per Si atom -5586.674614 kJ/mol
# Density = 2.152073 g / cm^3
# Si number density = 21.569824 Si / 1000 Ang^3
#
#
#
# Elastic Constant Matrix: (Units=GPa)
#
#
# Indices 1 2 3 4 5 6 
#
# 1 174.4894 23.1972 61.9759 0.0001 -0.5634 0.0000
# 2 23.1972 53.1883 19.2018 0.0000 -12.6674 0.0000
# 3 61.9759 19.2018 70.2917 0.0001 -6.3463 0.0000
# 4 0.0001 0.0000 0.0001 26.5925 0.0001 -11.2412
# 5 -0.5634 -12.6674 -6.3463 0.0001 43.1238 0.0000
# 6 0.0000 0.0000 0.0000 -11.2412 0.0000 9.1054
#
#
#
# Elastic Compliance Matrix: (Units=1/GPa)
#
#
# Indices 1 2 3 4 5 6 
#
# 1 0.008476 -0.001420 -0.007209 0.000000 -0.001367 0.000000
# 2 -0.001420 0.022394 -0.004331 0.000000 0.005922 0.000000
# 3 -0.007209 -0.004331 0.021933 0.000000 0.001861 0.000000
# 4 0.000000 0.000000 0.000000 0.078651 0.000000 0.097099
# 5 -0.001367 0.005922 0.001861 0.000000 0.025185 0.000000
# 6 0.000000 0.000000 0.000000 0.097099 0.000000 0.229701
#
#
# Mechanical properties :
#
#
# Convention : Reuss Voigt Hill
#
# Bulk Modulus (GPa) = 37.19589 56.30213 46.74901
# Shear Modulus (GPa) = 11.87028 28.67064 20.27046
#
# Velocity S-wave (km/s) = 2.34843 3.64978 3.06888
# Velocity P-wave (km/s) = 4.96340 6.62722 5.85472
#
# Compressibility (1/GPa) = 0.02688469
#
# Stress axis : x y z
#
# Youngs Moduli (GPa) = 117.98410 44.65403 45.59256
#
# Poissons Ratio (x) = 0.06340 0.32866
# Poissons Ratio (y) = 0.16751 0.19747
# Poissons Ratio (z) = 0.85050 0.19340
#
# Static dielectric constant tensor:
#      x y z
#    x 1.779150 0.000000 -0.017810 
#    y 0.000000 1.847830 0.000000 
#    z -0.017810 0.000000 1.754800 
# 
# From -- ./inp_files/330413.got.cif
#   From: 2010.05.17/outbox.cif.g08.bks.cpg/sg12_166_cif.got.tgz:330413.got - 2010.06.03 13:09:07.
