data_PCOD9209721
_publ_section_title
;
Structure prediction by ZEFSAII (Michael W. Deem and Ramdas Pophale) SiO2 
 PCOD9209721
Probable space group: C 2/M
;
_chemical_formula_sum "Si O2"
_cell_formula_units_Z 64
_cell_length_a 12.082656
_cell_length_b 14.210186
_cell_length_c 27.397641
_cell_angle_alpha 90.000000
_cell_angle_beta 142.201750
_cell_angle_gamma 90.000000
_cell_volume 2883.054568
_symmetry_space_group_name_H-M "C 2/M"
_symmetry_group_IT_number 12
_symmetry_cell_setting 'monoclinic'
loop_
_space_group_symop_operation_xyz
x,y,z
-x,y,-z
-x,-y,-z
x,-y,z
1/2+x,1/2+y,z
1/2-x,1/2+y,-z
1/2-x,1/2-y,-z
1/2+x,1/2-y,z
loop_
_atom_site_type_symbol
_atom_site_label
_atom_site_fract_x
_atom_site_fract_y
_atom_site_fract_z
Si Si1 0.197866 0.386167 0.969110
Si Si2 0.709708 0.109461 0.152420
Si Si3 0.196370 0.711159 0.760376
Si Si4 0.378752 0.111900 0.165732
Si Si5 0.712257 0.202012 0.413099
Si Si6 0.182330 0.893757 0.450698
Si Si7 0.542602 0.387982 0.856239
Si Si8 0.780782 0.107159 0.338859
O O1 0.214736 0.500000 0.972855
O O2 0.192243 0.352656 0.911198
O O3 0.003131 0.368813 0.925761
O O4 0.357735 0.353696 0.059750
O O5 0.786668 0.180699 0.218716
O O6 0.819534 0.121857 0.140677
O O7 0.725018 0.000000 0.172808
O O8 0.205717 0.658281 0.816052
O O9 0.360385 0.670491 0.786069
O O10 0.003211 0.691804 0.669465
O O11 0.594709 0.126725 0.245757
O O12 0.346754 0.000000 0.156560
O O13 0.769400 0.133529 0.476790
O O14 0.755583 0.308903 0.443418
O O15 0.796577 0.174509 0.390855
O O16 0.964508 0.889221 0.372933
O O17 0.239954 0.000000 0.458969
O O18 0.502068 0.500000 0.846453
O O19 0.762402 0.000000 0.351365
#
# Coordination Sequence:
#
# PCOD9209721 Si02
#       8
#     8   8   8   8   8   8   8   8
#     4   9  19  38  63  85 117 156 202 257 298 340
#     4  10  23  41  61  84 116 159 205 251 296 346
#     4  11  24  37  61  88 125 158 196 240 302 362
#     4   9  19  36  59  92 122 151 195 254 306 344
#     4  10  22  37  58  90 124 149 187 246 294 341
#     4  10  21  38  64  90 114 152 198 238 286 349
#     4  10  22  42  62  85 119 164 204 241 299 363
#     4   9  18  35  62  87 114 153 197 239 289 350
#
# _framework density 22.198678000000001
#
# number of rings (size 3 to 8) (size 9 to 14) (size 15 to 20)
#    0.000    2.250    0.000    1.500    3.500    6.500 
#    2.250    1.875    0.000    6.750    0.000    0.000 
#    0.000    0.000    0.000    0.000    0.000    0.000 
#
# Total GULP energy -179009.105303 kJ/mol
# GULP energy per Si atom -5594.034541 kJ/mol
# Density = 2.214815 g / cm^3
# Si number density = 22.198678 Si / 1000 Ang^3
#
#
#
# Elastic Constant Matrix: (Units=GPa)
#
#
# Indices 1 2 3 4 5 6 
#
# 1 47.7935 37.2630 5.7613 0.0000 -3.4728 0.0000
# 2 37.2630 105.0871 23.4039 0.0000 -15.9501 0.0000
# 3 5.7613 23.4039 67.1860 0.0000 0.5605 0.0000
# 4 0.0000 0.0000 0.0000 20.5123 0.0000 -4.8694
# 5 -3.4728 -15.9501 0.5605 0.0000 27.3506 0.0000
# 6 0.0000 0.0000 0.0000 -4.8694 0.0000 26.6626
#
#
#
# Elastic Compliance Matrix: (Units=1/GPa)
#
#
# Indices 1 2 3 4 5 6 
#
# 1 0.029195 -0.011082 0.001380 0.000000 -0.002784 0.000000
# 2 -0.011082 0.015648 -0.004566 0.000000 0.007812 0.000000
# 3 0.001380 -0.004566 0.016380 0.000000 -0.002823 0.000000
# 4 0.000000 0.000000 0.000000 0.050961 0.000000 0.009307
# 5 -0.002784 0.007812 -0.002823 0.000000 0.040822 0.000000
# 6 0.000000 0.000000 0.000000 0.009307 0.000000 0.039205
#
#
# Mechanical properties :
#
#
# Convention : Reuss Voigt Hill
#
# Bulk Modulus (GPa) = 30.59304 39.21366 34.90335
# Shear Modulus (GPa) = 21.58494 25.14767 23.36631
#
# Velocity S-wave (km/s) = 3.12164 3.36943 3.24790
# Velocity P-wave (km/s) = 5.17728 5.73067 5.46099
#
# Compressibility (1/GPa) = 0.03268717
#
# Stress axis : x y z
#
# Youngs Moduli (GPa) = 34.25223 63.90529 61.05106
#
# Poissons Ratio (x) = 0.70822 -0.08426
# Poissons Ratio (y) = 0.37959 0.27875
# Poissons Ratio (z) = -0.04727 0.29178
#
# Static dielectric constant tensor:
#      x y z
#    x 1.803490 0.000000 -0.011160 
#    y 0.000000 1.847180 0.000000 
#    z -0.011160 0.000000 1.796060 
# 
# From -- ./inp_files/358450.got.cif
#   From: 2010.05.17/outbox.cif.g08.bks.cpg/sg12_180_cif.got.tgz:358450.got - 2010.06.03 13:09:07.
