data_PCOD9209901
_publ_section_title
;
Structure prediction by ZEFSAII (Michael W. Deem and Ramdas Pophale) SiO2 
 PCOD9209901
Probable space group: C 2/M
;
_chemical_formula_sum "Si O2"
_cell_formula_units_Z 52
_cell_length_a 15.891776
_cell_length_b 20.746948
_cell_length_c 11.317104
_cell_angle_alpha 90.000000
_cell_angle_beta 144.749612
_cell_angle_gamma 90.000000
_cell_volume 2153.531369
_symmetry_space_group_name_H-M "C 2/M"
_symmetry_group_IT_number 12
_symmetry_cell_setting 'monoclinic'
loop_
_space_group_symop_operation_xyz
x,y,z
-x,y,-z
-x,-y,-z
x,-y,z
1/2+x,1/2+y,z
1/2-x,1/2+y,-z
1/2-x,1/2-y,-z
1/2+x,1/2-y,z
loop_
_atom_site_type_symbol
_atom_site_label
_atom_site_fract_x
_atom_site_fract_y
_atom_site_fract_z
Si Si1 0.994525 0.667351 0.124686
Si Si2 0.229805 0.000000 0.023553
Si Si3 0.831119 0.370189 0.280613
Si Si4 0.240419 0.929777 0.604036
Si Si5 0.589779 0.704367 0.866691
Si Si6 0.892054 0.105746 0.778771
Si Si7 0.824638 0.888410 0.223144
O O1 0.968617 0.723533 0.188443
O O2 0.135818 0.622196 0.287376
O O3 0.851074 0.623497 0.969359
O O4 0.000000 0.698556 0.000000
O O5 0.303335 0.940552 0.187781
O O6 0.160551 0.944436 0.855082
O O7 0.748859 0.373453 0.311303
O O8 0.000000 0.358731 0.500000
O O9 0.744170 0.315256 0.105923
O O10 0.148156 0.935502 0.379698
O O11 0.144710 0.907238 0.606248
O O12 0.304500 0.000000 0.707908
O O13 0.476682 0.664685 0.817056
O O14 0.604718 0.675190 0.753032
O O15 0.000000 0.075250 0.000000
#
# Coordination Sequence:
#
# PCOD9209901 Si02
#       7
#     8   4   8   8   8   8   8
#     4  10  22  40  74 103 144 191 244 314 361 434
#     4  10  21  38  66  99 146 180 241 306 363 428
#     4  10  22  39  69 103 139 194 247 310 363 437
#     4  11  25  42  71 111 150 192 251 305 371 450
#     4  10  22  46  69 102 149 192 242 305 377 439
#     4  10  24  45  68 103 146 194 242 307 371 441
#     4  10  22  41  68 104 145 192 235 306 370 441
#
# _framework density 24.146384999999999
#
# number of rings (size 3 to 8) (size 9 to 14) (size 15 to 20)
#    0.000    1.846    0.769    2.077    6.462    2.462 
#   11.077    0.769    0.000    0.000    0.000    0.000 
#    0.000    0.000    0.000    0.000    0.000    0.000 
#
# Total GULP energy -144806.541072 kJ/mol
# GULP energy per Si atom -5569.482349 kJ/mol
# Density = 2.409143 g / cm^3
# Si number density = 24.146385 Si / 1000 Ang^3
#
#
#
# Elastic Constant Matrix: (Units=GPa)
#
#
# Indices 1 2 3 4 5 6 
#
# 1 170.0362 44.3988 68.8695 0.0000 2.3591 0.0000
# 2 44.3988 137.8030 38.7964 0.0000 2.2154 0.0000
# 3 68.8695 38.7964 103.9505 0.0000 4.6116 0.0000
# 4 0.0000 0.0000 0.0000 9.1463 0.0000 1.4527
# 5 2.3591 2.2154 4.6116 0.0000 48.3307 0.0000
# 6 0.0000 0.0000 0.0000 1.4527 0.0000 14.2381
#
#
#
# Elastic Compliance Matrix: (Units=1/GPa)
#
#
# Indices 1 2 3 4 5 6 
#
# 1 0.008226 -0.001248 -0.004990 0.000000 0.000132 0.000000
# 2 -0.001248 0.008298 -0.002266 0.000000 -0.000103 0.000000
# 3 -0.004990 -0.002266 0.013815 0.000000 -0.000971 0.000000
# 4 0.000000 0.000000 0.000000 0.111135 0.000000 -0.011339
# 5 0.000132 -0.000103 -0.000971 0.000000 0.020782 0.000000
# 6 0.000000 0.000000 0.000000 -0.011339 0.000000 0.071391
#
#
# Mechanical properties :
#
#
# Convention : Reuss Voigt Hill
#
# Bulk Modulus (GPa) = 75.00873 79.54657 77.27765
# Shear Modulus (GPa) = 19.60027 31.65801 25.62914
#
# Velocity S-wave (km/s) = 2.85217 3.62482 3.26146
# Velocity P-wave (km/s) = 6.47905 7.10873 6.80118
#
# Compressibility (1/GPa) = 0.01333178
#
# Stress axis : x y z
#
# Youngs Moduli (GPa) = 121.56221 120.50655 72.38562
#
# Poissons Ratio (x) = 0.15034 0.36122
# Poissons Ratio (y) = 0.15166 0.16402
# Poissons Ratio (z) = 0.60663 0.27306
#
# Static dielectric constant tensor:
#      x y z
#    x 1.935940 0.000000 -0.019290 
#    y 0.000000 1.917220 0.000000 
#    z -0.019290 0.000000 2.011820 
# 
# From -- ./inp_files/227448.got.cif
#   From: 2010.05.17/outbox.cif.g08.bks.cpg/sg12_114_cif.got.tgz:227448.got - 2010.06.03 13:09:07.
