data_PCOD9209376
_publ_section_title
;
Structure prediction by ZEFSAII (Michael W. Deem and Ramdas Pophale) SiO2 
 PCOD9209376
Probable space group: C 2/M
;
_chemical_formula_sum "Si O2"
_cell_formula_units_Z 64
_cell_length_a 28.363818
_cell_length_b 12.730339
_cell_length_c 14.206638
_cell_angle_alpha 90.000000
_cell_angle_beta 139.776401
_cell_angle_gamma 90.000000
_cell_volume 3312.648342
_symmetry_space_group_name_H-M "C 2/M"
_symmetry_group_IT_number 12
_symmetry_cell_setting 'monoclinic'
loop_
_space_group_symop_operation_xyz
x,y,z
-x,y,-z
-x,-y,-z
x,-y,z
1/2+x,1/2+y,z
1/2-x,1/2+y,-z
1/2-x,1/2-y,-z
1/2+x,1/2-y,z
loop_
_atom_site_type_symbol
_atom_site_label
_atom_site_fract_x
_atom_site_fract_y
_atom_site_fract_z
Si Si1 0.724502 0.881133 0.024122
Si Si2 0.024467 0.253237 0.930633
Si Si3 0.937444 0.621916 0.180912
Si Si4 0.047617 0.743154 0.484308
Si Si5 0.224538 0.123348 0.459566
Si Si6 0.828333 0.119338 0.835036
Si Si7 0.297417 0.812190 0.215831
Si Si8 0.582851 0.619135 0.363657
O O1 0.644870 0.836598 0.931234
O O2 0.724488 0.876474 0.910899
O O3 0.731733 0.000000 0.068022
O O4 0.784468 0.807179 0.161717
O O5 0.036591 0.355542 0.885271
O O6 0.964411 0.185613 0.782932
O O7 0.100380 0.189998 0.043566
O O8 0.000000 0.271738 0.000000
O O9 0.934178 0.500000 0.196896
O O10 0.992801 0.674873 0.337311
O O11 0.118309 0.677915 0.626585
O O12 0.075490 0.832144 0.455642
O O13 0.000000 0.781354 0.500000
O O14 0.250000 0.250000 0.500000
O O15 0.190138 0.117753 0.303503
O O16 0.165266 0.121469 0.451957
O O17 0.261173 0.000000 0.523440
O O18 0.758082 0.160172 0.785354
O O19 0.843846 0.000000 0.889528
O O20 0.556188 0.500000 0.322022
#
# Coordination Sequence:
#
# PCOD9209376 Si02
#       8
#     8   8   8   8   8   8   8   8
#     4  10  21  38  62  88 121 164 206 257 316 375
#     4  11  21  39  64  90 122 156 203 262 316 378
#     4  10  22  41  63  91 124 165 211 256 316 385
#     4  11  23  40  62  90 126 165 209 259 315 379
#     4  10  21  40  61  88 123 165 210 263 323 388
#     4  11  22  36  61  90 117 155 206 257 313 374
#     4  11  22  39  60  90 126 157 209 261 314 371
#     4  10  22  38  61  89 123 163 208 260 318 383
#
# _framework density 19.319889
#
# number of rings (size 3 to 8) (size 9 to 14) (size 15 to 20)
#    0.000    1.500    3.750    1.500    0.000    2.750 
#    0.000    6.250    0.000    0.000    0.000    0.000 
#    0.000    0.000    0.000    0.000    0.000    0.000 
#
# Total GULP energy -178259.951398 kJ/mol
# GULP energy per Si atom -5570.623481 kJ/mol
# Density = 1.927592 g / cm^3
# Si number density = 19.319889 Si / 1000 Ang^3
#
#
#
# Elastic Constant Matrix: (Units=GPa)
#
#
# Indices 1 2 3 4 5 6 
#
# 1 129.2736 6.9322 13.1508 0.0000 -18.2242 0.0000
# 2 6.9322 61.1206 9.1822 0.0000 0.3794 0.0000
# 3 13.1508 9.1822 41.0905 0.0000 -7.2769 0.0000
# 4 0.0000 0.0000 0.0000 4.2320 0.0000 9.4084
# 5 -18.2242 0.3794 -7.2769 0.0000 30.0423 0.0000
# 6 0.0000 0.0000 0.0000 9.4084 0.0000 17.1643
#
#
#
# Elastic Compliance Matrix: (Units=1/GPa)
#
#
# Indices 1 2 3 4 5 6 
#
# 1 0.008633 -0.000747 -0.001742 0.000000 0.004824 0.000000
# 2 -0.000747 0.017034 -0.003851 0.000000 -0.001601 0.000000
# 3 -0.001742 -0.003851 0.026722 0.000000 0.005465 0.000000
# 4 0.000000 0.000000 0.000000 -1.080981 0.000000 0.592527
# 5 0.004824 -0.001601 0.005465 0.000000 0.037557 0.000000
# 6 0.000000 0.000000 0.000000 0.592527 0.000000 -0.266526
#
#
# Mechanical properties :
#
#
# Convention : Reuss Voigt Hill
#
# Bulk Modulus (GPa) = 25.18272 32.22388 28.70330
# Shear Modulus (GPa) = -4.05961 23.76903 9.85471
#
# Velocity S-wave (km/s) = -1.45115 3.51135 2.26095
# Velocity P-wave (km/s) = 3.20236 5.75802 4.65886
#
# Compressibility (1/GPa) = 0.03970977
#
# Stress axis : x y z
#
# Youngs Moduli (GPa) = 115.83594 58.70493 37.42200
#
# Poissons Ratio (x) = 0.04388 0.06517
# Poissons Ratio (y) = 0.08658 0.14411
# Poissons Ratio (z) = 0.20173 0.22607
#
# Static dielectric constant tensor:
#      x y z
#    x 1.678100 0.000000 0.013460 
#    y 0.000000 1.716390 0.000000 
#    z 0.013460 0.000000 1.652400 
# 
# From -- ./inp_files/250889.got.cif
#   From: 2010.05.17/outbox.cif.g08.bks.cpg/sg12_126_cif.got.tgz:250889.got - 2010.06.03 13:09:07.
