data_PCOD9209311
_publ_section_title
;
Structure prediction by ZEFSAII (Michael W. Deem and Ramdas Pophale) SiO2 
 PCOD9209311
Probable space group: C 2/M
;
_chemical_formula_sum "Si O2"
_cell_formula_units_Z 32
_cell_length_a 5.153610
_cell_length_b 19.072272
_cell_length_c 13.289121
_cell_angle_alpha 90.000000
_cell_angle_beta 110.403106
_cell_angle_gamma 90.000000
_cell_volume 1224.254625
_symmetry_space_group_name_H-M "C 2/M"
_symmetry_group_IT_number 12
_symmetry_cell_setting 'monoclinic'
loop_
_space_group_symop_operation_xyz
x,y,z
-x,y,-z
-x,-y,-z
x,-y,z
1/2+x,1/2+y,z
1/2-x,1/2+y,-z
1/2-x,1/2-y,-z
1/2+x,1/2-y,z
loop_
_atom_site_type_symbol
_atom_site_label
_atom_site_fract_x
_atom_site_fract_y
_atom_site_fract_z
Si Si1 0.389272 0.710717 0.349356
Si Si2 0.907453 0.420006 0.602263
Si Si3 0.281806 0.580949 0.842772
Si Si4 0.821619 0.332758 0.890019
O O1 0.706290 0.732400 0.384294
O O2 0.266221 0.710765 0.219448
O O3 0.312354 0.636449 0.387427
O O4 0.804456 0.500000 0.601650
O O5 0.169530 0.412290 0.712961
O O6 0.000000 0.411206 0.500000
O O7 0.347062 0.500000 0.870154
O O8 0.546379 0.629660 0.891053
O O9 0.029828 0.607416 0.876913
O O10 0.000000 0.294861 0.000000
#
# Coordination Sequence:
#
# PCOD9209311 Si02
#       4
#     8   8   8   8
#     4  11  24  43  65  94 131 169 214 265 318 380
#     4   9  20  42  70  98 130 170 214 263 322 384
#     4  10  21  38  61  93 131 167 210 264 319 381
#     4  11  23  39  61  90 126 170 216 263 317 377
#
# _framework density 26.138352999999999
#
# number of rings (size 3 to 8) (size 9 to 14) (size 15 to 20)
#    0.000    1.750    0.000    4.500    0.000    6.000 
#    0.000   11.250    0.000   34.500    0.000    0.000 
#    0.000    0.000    0.000    0.000    0.000    0.000 
#
# Total GULP energy -89826.125106 kJ/mol
# GULP energy per Si atom -5614.132819 kJ/mol
# Density = 2.607886 g / cm^3
# Si number density = 26.138353 Si / 1000 Ang^3
#
#
#
# Elastic Constant Matrix: (Units=GPa)
#
#
# Indices 1 2 3 4 5 6 
#
# 1 132.4571 52.2556 5.2442 0.0000 -6.4285 0.0000
# 2 52.2556 129.2968 -6.4301 0.0000 -11.5908 0.0000
# 3 5.2442 -6.4301 163.3267 0.0000 4.7560 0.0000
# 4 0.0000 0.0000 0.0000 2.0172 0.0000 1.4448
# 5 -6.4285 -11.5908 4.7560 0.0000 37.5283 0.0000
# 6 0.0000 0.0000 0.0000 1.4448 0.0000 16.9410
#
#
#
# Elastic Compliance Matrix: (Units=1/GPa)
#
#
# Indices 1 2 3 4 5 6 
#
# 1 0.009021 -0.003625 -0.000446 0.000000 0.000482 0.000000
# 2 -0.003625 0.009420 0.000422 0.000000 0.002235 0.000000
# 3 -0.000446 0.000422 0.006175 0.000000 -0.000729 0.000000
# 4 0.000000 0.000000 0.000000 0.527991 0.000000 -0.045030
# 5 0.000482 0.002235 -0.000729 0.000000 0.027512 0.000000
# 6 0.000000 0.000000 0.000000 -0.045030 0.000000 0.062869
#
#
# Mechanical properties :
#
#
# Convention : Reuss Voigt Hill
#
# Bulk Modulus (GPa) = 57.74281 58.57998 58.16140
# Shear Modulus (GPa) = 7.62128 36.23135 21.92631
#
# Velocity S-wave (km/s) = 1.70941 3.72713 2.89944
# Velocity P-wave (km/s) = 5.10248 6.40173 5.78867
#
# Compressibility (1/GPa) = 0.01731817
#
# Stress axis : x y z
#
# Youngs Moduli (GPa) = 110.85650 106.15220 161.94677
#
# Poissons Ratio (x) = 0.38477 0.07229
# Poissons Ratio (y) = 0.40182 -0.06837
# Poissons Ratio (z) = 0.04948 -0.04482
#
# Static dielectric constant tensor:
#      x y z
#    x 1.953360 0.000000 -0.005190 
#    y 0.000000 1.986980 0.000000 
#    z -0.005190 0.000000 2.135210 
# 
# From -- ./inp_files/191234.got.cif
#   From: 2010.05.17/outbox.cif.g08.bks.cpg/sg12_96_cif.got.tgz:191234.got - 2010.06.03 13:09:07.
