data_PCOD9209598
_publ_section_title
;
Structure prediction by ZEFSAII (Michael W. Deem and Ramdas Pophale) SiO2 
 PCOD9209598
Probable space group: C 2/M
;
_chemical_formula_sum "Si O2"
_cell_formula_units_Z 60
_cell_length_a 23.792841
_cell_length_b 24.869246
_cell_length_c 6.586660
_cell_angle_alpha 90.000000
_cell_angle_beta 125.337077
_cell_angle_gamma 90.000000
_cell_volume 3179.350620
_symmetry_space_group_name_H-M "C 2/M"
_symmetry_group_IT_number 12
_symmetry_cell_setting 'monoclinic'
loop_
_space_group_symop_operation_xyz
x,y,z
-x,y,-z
-x,-y,-z
x,-y,z
1/2+x,1/2+y,z
1/2-x,1/2+y,-z
1/2-x,1/2-y,-z
1/2+x,1/2-y,z
loop_
_atom_site_type_symbol
_atom_site_label
_atom_site_fract_x
_atom_site_fract_y
_atom_site_fract_z
Si Si1 0.596710 0.277149 0.027679
Si Si2 0.886328 0.851825 0.558236
Si Si3 0.216416 0.805232 0.990505
Si Si4 0.077756 0.651433 0.082265
Si Si5 0.815459 0.393037 0.367481
Si Si6 0.641101 0.060940 0.941491
Si Si7 0.000000 0.834564 0.500000
Si Si8 0.780186 0.061695 0.488539
O O1 0.587567 0.309397 0.218840
O O2 0.670890 0.294867 0.095567
O O3 0.591093 0.213131 0.044180
O O4 0.543854 0.297508 0.745199
O O5 0.844163 0.899656 0.575601
O O6 0.948988 0.867682 0.539832
O O7 0.832188 0.823740 0.294142
O O8 0.274913 0.848368 0.156064
O O9 0.250000 0.750000 0.000000
O O10 0.130614 0.635544 0.371201
O O11 0.094618 0.607689 0.942725
O O12 0.000000 0.647177 0.000000
O O13 0.853501 0.431250 0.287830
O O14 0.758457 0.423205 0.383700
O O15 0.618786 0.000000 0.947758
O O16 0.718645 0.067496 0.194334
O O17 0.802339 0.000000 0.536941
#
# Coordination Sequence:
#
# PCOD9209598 Si02
#       8
#     8   8   8   8   8   8   4   8
#     4  11  23  40  61  88 128 162 199 247 301 365
#     4  11  21  39  61  90 123 160 199 246 307 357
#     4  11  22  33  59  94 121 155 196 246 307 368
#     4  11  25  40  60  88 122 166 207 248 300 364
#     4  11  21  39  60  90 120 155 203 253 305 356
#     4  10  22  41  62  87 122 158 203 259 305 354
#     4  10  24  40  61  88 123 166 202 236 300 378
#     4  10  21  38  63  91 119 156 204 253 307 360
#
# _framework density 18.871777000000002
#
# number of rings (size 3 to 8) (size 9 to 14) (size 15 to 20)
#    0.000    1.333    2.667    3.200    1.867    5.600 
#    0.000    1.000    0.000    1.600    0.000    0.000 
#    0.000    0.000    0.000    0.000    0.000    0.000 
#
# Total GULP energy -167540.810681 kJ/mol
# GULP energy per Si atom -5584.693689 kJ/mol
# Density = 1.882882 g / cm^3
# Si number density = 18.871777 Si / 1000 Ang^3
#
#
#
# Elastic Constant Matrix: (Units=GPa)
#
#
# Indices 1 2 3 4 5 6 
#
# 1 90.4456 63.3292 27.4713 0.0000 -9.1024 0.0000
# 2 63.3292 129.2679 20.8951 0.0000 -6.8551 0.0000
# 3 27.4713 20.8951 61.2607 0.0000 -14.5334 0.0000
# 4 0.0000 0.0000 0.0000 14.6175 0.0000 -2.8099
# 5 -9.1024 -6.8551 -14.5334 0.0000 28.3321 0.0000
# 6 0.0000 0.0000 0.0000 -2.8099 0.0000 13.1723
#
#
#
# Elastic Compliance Matrix: (Units=1/GPa)
#
#
# Indices 1 2 3 4 5 6 
#
# 1 0.018462 -0.008136 -0.005196 0.000000 0.001297 0.000000
# 2 -0.008136 0.011782 -0.000358 0.000000 0.000053 0.000000
# 3 -0.005196 -0.000358 0.020903 0.000000 0.008967 0.000000
# 4 0.000000 0.000000 0.000000 0.071336 0.000000 0.015217
# 5 0.001297 0.000053 0.008967 0.000000 0.040325 0.000000
# 6 0.000000 0.000000 0.000000 0.015217 0.000000 0.079163
#
#
# Mechanical properties :
#
#
# Convention : Reuss Voigt Hill
#
# Bulk Modulus (GPa) = 42.07360 56.04060 49.05710
# Shear Modulus (GPa) = 18.03273 22.50961 20.27117
#
# Velocity S-wave (km/s) = 3.09453 3.45739 3.28098
# Velocity P-wave (km/s) = 5.92546 6.76003 6.35645
#
# Compressibility (1/GPa) = 0.02376788
#
# Stress axis : x y z
#
# Youngs Moduli (GPa) = 54.16590 84.87275 47.84003
#
# Poissons Ratio (x) = 0.69051 0.24858
# Poissons Ratio (y) = 0.44069 0.01711
# Poissons Ratio (z) = 0.28145 0.03036
#
# Static dielectric constant tensor:
#      x y z
#    x 1.676140 0.000000 -0.025680 
#    y 0.000000 1.623640 0.000000 
#    z -0.025680 0.000000 1.658330 
# 
# From -- ./inp_files/22468.got.cif
#   From: 2010.05.17/outbox.cif.g08.bks.cpg/sg12_12_cif.got.tgz:22468.got - 2010.06.03 13:09:07.
