data_PCOD9209343
_publ_section_title
;
Structure prediction by ZEFSAII (Michael W. Deem and Ramdas Pophale) SiO2 
 PCOD9209343
Probable space group: C 2/M
;
_chemical_formula_sum "Si O2"
_cell_formula_units_Z 44
_cell_length_a 8.894787
_cell_length_b 15.947391
_cell_length_c 16.433649
_cell_angle_alpha 90.000000
_cell_angle_beta 78.888898
_cell_angle_gamma 90.000000
_cell_volume 2287.395359
_symmetry_space_group_name_H-M "C 2/M"
_symmetry_group_IT_number 12
_symmetry_cell_setting 'monoclinic'
loop_
_space_group_symop_operation_xyz
x,y,z
-x,y,-z
-x,-y,-z
x,-y,z
1/2+x,1/2+y,z
1/2-x,1/2+y,-z
1/2-x,1/2-y,-z
1/2+x,1/2-y,z
loop_
_atom_site_type_symbol
_atom_site_label
_atom_site_fract_x
_atom_site_fract_y
_atom_site_fract_z
Si Si1 0.874724 0.000000 0.941160
Si Si2 0.745498 0.823655 0.934305
Si Si3 0.380410 0.500000 0.439248
Si Si4 0.677476 0.170081 0.459051
Si Si5 0.271276 0.833978 0.733911
Si Si6 0.570336 0.500000 0.753552
Si Si7 0.010089 0.277263 0.830107
O O1 0.776375 0.916048 0.962570
O O2 0.947425 0.000000 0.841010
O O3 0.000000 0.000000 0.000000
O O4 0.588145 0.818247 0.900611
O O5 0.894582 0.797914 0.865444
O O6 0.750000 0.750000 0.000000
O O7 0.500000 0.500000 0.500000
O O8 0.276859 0.584395 0.458576
O O9 0.465211 0.500000 0.341010
O O10 0.500000 0.157846 0.500000
O O11 0.750000 0.250000 0.500000
O O12 0.676750 0.184442 0.362411
O O13 0.153721 0.760839 0.768729
O O14 0.410505 0.835784 0.782730
O O15 0.176102 0.918737 0.751674
#
# Coordination Sequence:
#
# PCOD9209343 Si02
#       7
#     4   8   4   8   8   4   8
#     4  12  24  41  66  92 127 167 211 257 321 377
#     4  11  23  41  62  93 123 163 207 261 314 378
#     4  10  23  43  65  93 133 172 215 273 322 388
#     4  11  22  39  63  94 131 166 218 260 329 386
#     4  10  21  39  62  89 123 165 207 261 313 380
#     4  10  22  42  62  93 124 165 215 259 317 384
#     4  10  21  38  62  85 126 159 207 253 318 365
#
# _framework density 19.235852999999999
#
# number of rings (size 3 to 8) (size 9 to 14) (size 15 to 20)
#    0.000    1.455    1.818    3.545    2.545    2.182 
#    3.273    1.818    0.000    0.000    0.000    0.000 
#    0.000    0.000    0.000    0.000    0.000    0.000 
#
# Total GULP energy -122711.583126 kJ/mol
# GULP energy per Si atom -5577.799233 kJ/mol
# Density = 1.919207 g / cm^3
# Si number density = 19.235853 Si / 1000 Ang^3
#
#
#
# Elastic Constant Matrix: (Units=GPa)
#
#
# Indices 1 2 3 4 5 6 
#
# 1 109.5667 27.2367 48.7513 0.0000 28.8794 0.0000
# 2 27.2367 114.3356 39.5722 0.0000 20.7967 0.0000
# 3 48.7513 39.5722 107.2680 0.0000 9.1245 0.0000
# 4 0.0000 0.0000 0.0000 25.7663 0.0000 1.6579
# 5 28.8794 20.7967 9.1245 0.0000 47.4525 0.0000
# 6 0.0000 0.0000 0.0000 1.6579 0.0000 21.3564
#
#
#
# Elastic Compliance Matrix: (Units=1/GPa)
#
#
# Indices 1 2 3 4 5 6 
#
# 1 0.013458 -0.000002 -0.005509 0.000000 -0.007130 0.000000
# 2 -0.000002 0.010726 -0.003615 0.000000 -0.004004 0.000000
# 3 -0.005509 -0.003615 0.012952 0.000000 0.002447 0.000000
# 4 0.000000 0.000000 0.000000 0.039005 0.000000 -0.003028
# 5 -0.007130 -0.004004 0.002447 0.000000 0.026698 0.000000
# 6 0.000000 0.000000 0.000000 -0.003028 0.000000 0.047059
#
#
# Mechanical properties :
#
#
# Convention : Reuss Voigt Hill
#
# Bulk Modulus (GPa) = 52.95842 62.47676 57.71759
# Shear Modulus (GPa) = 28.66209 33.28902 30.97556
#
# Velocity S-wave (km/s) = 3.86428 4.16453 4.01721
# Velocity P-wave (km/s) = 6.89211 7.46152 7.18246
#
# Compressibility (1/GPa) = 0.01888274
#
# Stress axis : x y z
#
# Youngs Moduli (GPa) = 74.30500 93.22781 77.20909
#
# Poissons Ratio (x) = 0.00021 0.42535
# Poissons Ratio (y) = 0.00017 0.27914
# Poissons Ratio (z) = 0.40935 0.33706
#
# Static dielectric constant tensor:
#      x y z
#    x 1.655200 0.000000 -0.027910 
#    y 0.000000 1.672680 0.000000 
#    z -0.027910 0.000000 1.777380 
# 
# From -- ./inp_files/255380.got.cif
#   From: 2010.05.17/outbox.cif.g08.bks.cpg/sg12_128_cif.got.tgz:255380.got - 2010.06.03 13:09:07.
