data_PCOD9209742
_publ_section_title
;
Structure prediction by ZEFSAII (Michael W. Deem and Ramdas Pophale) SiO2 
 PCOD9209742
Probable space group: C 2/M
;
_chemical_formula_sum "Si O2"
_cell_formula_units_Z 64
_cell_length_a 28.676845
_cell_length_b 9.046380
_cell_length_c 13.384921
_cell_angle_alpha 90.000000
_cell_angle_beta 114.356892
_cell_angle_gamma 90.000000
_cell_volume 3163.279931
_symmetry_space_group_name_H-M "C 2/M"
_symmetry_group_IT_number 12
_symmetry_cell_setting 'monoclinic'
loop_
_space_group_symop_operation_xyz
x,y,z
-x,y,-z
-x,-y,-z
x,-y,z
1/2+x,1/2+y,z
1/2-x,1/2+y,-z
1/2-x,1/2-y,-z
1/2+x,1/2-y,z
loop_
_atom_site_type_symbol
_atom_site_label
_atom_site_fract_x
_atom_site_fract_y
_atom_site_fract_z
Si Si1 0.453109 0.179274 0.890957
Si Si2 0.883710 0.824591 0.459202
Si Si3 0.172616 0.171719 0.888317
Si Si4 0.696359 0.173482 0.475597
Si Si5 0.467307 0.174666 0.670928
Si Si6 0.238871 0.172040 0.149036
Si Si7 0.660672 0.825393 0.221783
Si Si8 0.585445 0.173524 0.719323
O O1 0.463544 0.211888 0.784314
O O2 0.395171 0.228385 0.864160
O O3 0.452127 0.000000 0.899050
O O4 0.500000 0.234222 0.000000
O O5 0.832877 0.751522 0.460020
O O6 0.929445 0.772389 0.572282
O O7 0.897411 0.761582 0.363206
O O8 0.878818 0.000000 0.452985
O O9 0.210932 0.237867 0.838691
O O10 0.120730 0.264880 0.839234
O O11 0.162512 0.000000 0.859137
O O12 0.201481 0.183290 0.019462
O O13 0.750000 0.250000 0.500000
O O14 0.663391 0.187917 0.344227
O O15 0.703038 0.000000 0.501791
O O16 0.525582 0.193287 0.687223
O O17 0.453450 0.000000 0.646404
O O18 0.207222 0.238803 0.212607
O O19 0.251480 0.000000 0.176110
O O20 0.666110 0.000000 0.202884
O O21 0.595014 0.000000 0.713610
#
# Coordination Sequence:
#
# PCOD9209742 Si02
#       8
#     8   8   8   8   8   8   8   8
#     4   9  18  35  62  93 123 158 201 248 300 361
#     4  12  25  42  64  89 123 163 203 251 311 372
#     4  10  22  41  61  87 123 161 204 253 303 363
#     4  11  24  43  65  92 126 164 209 258 311 367
#     4  10  21  41  64  90 122 158 204 254 304 363
#     4  10  22  39  61  87 123 163 203 249 303 363
#     4  10  21  38  64  92 124 161 203 255 307 363
#     4  11  24  39  64  93 120 157 205 258 309 365
#
# _framework density 20.232164999999998
#
# number of rings (size 3 to 8) (size 9 to 14) (size 15 to 20)
#    0.000    1.625    1.250    3.000    3.500    5.000 
#    0.000    0.000    0.000    0.750    0.000    0.000 
#    0.000    0.000    0.000    0.000    0.000    0.000 
#
# Total GULP energy -178953.620636 kJ/mol
# GULP energy per Si atom -5592.300645 kJ/mol
# Density = 2.018612 g / cm^3
# Si number density = 20.232165 Si / 1000 Ang^3
#
#
#
# Elastic Constant Matrix: (Units=GPa)
#
#
# Indices 1 2 3 4 5 6 
#
# 1 74.8430 43.3304 2.5743 0.0000 0.0111 0.0000
# 2 43.3304 100.2460 17.2642 0.0000 0.2218 0.0000
# 3 2.5743 17.2642 34.3858 0.0000 9.2720 0.0000
# 4 0.0000 0.0000 0.0000 27.2679 0.0000 1.6583
# 5 0.0111 0.2218 9.2720 0.0000 37.1106 0.0000
# 6 0.0000 0.0000 0.0000 1.6583 0.0000 26.2209
#
#
#
# Elastic Compliance Matrix: (Units=1/GPa)
#
#
# Indices 1 2 3 4 5 6 
#
# 1 0.018083 -0.008335 0.003023 0.000000 -0.000711 0.000000
# 2 -0.008335 0.014830 -0.007290 0.000000 0.001735 0.000000
# 3 0.003023 -0.007290 0.034852 0.000000 -0.008665 0.000000
# 4 0.000000 0.000000 0.000000 0.036815 0.000000 -0.002328
# 5 -0.000711 0.001735 -0.008665 0.000000 0.029101 0.000000
# 6 0.000000 0.000000 0.000000 -0.002328 0.000000 0.038285
#
#
# Mechanical properties :
#
#
# Convention : Reuss Voigt Hill
#
# Bulk Modulus (GPa) = 23.49577 37.31252 30.40414
# Shear Modulus (GPa) = 23.65669 27.87361 25.76515
#
# Velocity S-wave (km/s) = 3.42316 3.71575 3.57245
# Velocity P-wave (km/s) = 5.22133 6.07382 5.66364
#
# Compressibility (1/GPa) = 0.04256085
#
# Stress axis : x y z
#
# Youngs Moduli (GPa) = 55.29999 67.43138 28.69286
#
# Poissons Ratio (x) = 0.56206 -0.08673
# Poissons Ratio (y) = 0.46094 0.20916
# Poissons Ratio (z) = -0.16716 0.49155
#
# Static dielectric constant tensor:
#      x y z
#    x 1.697490 0.000000 0.025500 
#    y 0.000000 1.669970 0.000000 
#    z 0.025500 0.000000 1.745300 
# 
# From -- ./inp_files/244188.got.cif
#   From: 2010.05.17/outbox.cif.g08.bks.cpg/sg12_123_cif.got.tgz:244188.got - 2010.06.03 13:09:07.
