data_PCOD9209033
_publ_section_title
;
Structure prediction by ZEFSAII (Michael W. Deem and Ramdas Pophale) SiO2 
 PCOD9209033
Probable space group: C 2/M
;
_chemical_formula_sum "Si O2"
_cell_formula_units_Z 40
_cell_length_a 8.819392
_cell_length_b 14.663421
_cell_length_c 13.919809
_cell_angle_alpha 90.000000
_cell_angle_beta 75.010866
_cell_angle_gamma 90.000000
_cell_volume 1738.893824
_symmetry_space_group_name_H-M "C 2/M"
_symmetry_group_IT_number 12
_symmetry_cell_setting 'monoclinic'
loop_
_space_group_symop_operation_xyz
x,y,z
-x,y,-z
-x,-y,-z
x,-y,z
1/2+x,1/2+y,z
1/2-x,1/2+y,-z
1/2-x,1/2-y,-z
1/2+x,1/2-y,z
loop_
_atom_site_type_symbol
_atom_site_label
_atom_site_fract_x
_atom_site_fract_y
_atom_site_fract_z
Si Si1 0.967641 0.890763 0.118660
Si Si2 0.615833 0.188871 0.390126
Si Si3 0.731117 0.275835 0.192846
Si Si4 0.094878 0.400739 0.706426
Si Si5 0.673147 0.398170 0.510258
O O1 0.813621 0.822493 0.154585
O O2 0.118348 0.836417 0.142079
O O3 0.952583 0.000000 0.153378
O O4 0.000000 0.894771 0.000000
O O5 0.500000 0.199978 0.500000
O O6 0.625407 0.263012 0.305913
O O7 0.560157 0.105748 0.332675
O O8 0.780796 0.170279 0.413507
O O9 0.878946 0.333093 0.210115
O O10 0.119199 0.500000 0.742729
O O11 0.219695 0.384890 0.600518
O O12 0.500000 0.393624 0.500000
O O13 0.705105 0.500000 0.541563
#
# Coordination Sequence:
#
# PCOD9209033 Si02
#       5
#     8   8   8   8   8
#     4  11  27  52  80 110 144 184 240 310 375 437
#     4  10  22  39  63  93 145 192 239 285 344 428
#     4  12  24  46  73 107 144 190 240 298 364 439
#     4  10  21  38  60  91 135 186 234 287 346 415
#     4   9  19  33  55  90 134 186 242 289 338 407
#
# _framework density 23.003129000000001
#
# number of rings (size 3 to 8) (size 9 to 14) (size 15 to 20)
#    0.000    1.600    2.000    1.800    2.800    8.000 
#    0.000    0.000    0.000    4.800    0.000    0.000 
#    0.000    0.000    0.000    0.000    0.000    0.000 
#
# Total GULP energy -111336.877917 kJ/mol
# GULP energy per Si atom -5566.843896 kJ/mol
# Density = 2.295077 g / cm^3
# Si number density = 23.003129 Si / 1000 Ang^3
#
#
#
# Elastic Constant Matrix: (Units=GPa)
#
#
# Indices 1 2 3 4 5 6 
#
# 1 106.5442 39.3306 46.5837 0.0000 23.6731 0.0000
# 2 39.3306 162.5238 61.2841 0.0000 17.5461 0.0000
# 3 46.5837 61.2841 89.4161 0.0000 17.1109 0.0000
# 4 0.0000 0.0000 0.0000 39.4447 0.0000 4.0075
# 5 23.6731 17.5461 17.1109 0.0000 38.0533 0.0000
# 6 0.0000 0.0000 0.0000 4.0075 0.0000 25.9871
#
#
#
# Elastic Compliance Matrix: (Units=1/GPa)
#
#
# Indices 1 2 3 4 5 6 
#
# 1 0.013191 -0.000544 -0.005445 0.000000 -0.005507 0.000000
# 2 -0.000544 0.008387 -0.005241 0.000000 -0.001172 0.000000
# 3 -0.005445 -0.005241 0.018055 0.000000 -0.002315 0.000000
# 4 0.000000 0.000000 0.000000 0.025756 0.000000 -0.003972
# 5 -0.005507 -0.001172 -0.002315 0.000000 0.031286 0.000000
# 6 0.000000 0.000000 0.000000 -0.003972 0.000000 0.039093
#
#
# Mechanical properties :
#
#
# Convention : Reuss Voigt Hill
#
# Bulk Modulus (GPa) = 58.23073 72.54234 65.38653
# Shear Modulus (GPa) = 30.49645 34.78272 32.63958
#
# Velocity S-wave (km/s) = 3.64504 3.89277 3.77094
# Velocity P-wave (km/s) = 6.56386 7.19786 6.88816
#
# Compressibility (1/GPa) = 0.01717306
#
# Stress axis : x y z
#
# Youngs Moduli (GPa) = 75.80855 119.22708 55.38531
#
# Poissons Ratio (x) = 0.06491 0.30159
# Poissons Ratio (y) = 0.04127 0.29025
# Poissons Ratio (z) = 0.41280 0.62482
#
# Static dielectric constant tensor:
#      x y z
#    x 2.030820 0.000000 -0.031480 
#    y 0.000000 2.043320 0.000000 
#    z -0.031480 0.000000 1.773030 
# 
# From -- ./inp_files/194540.got.cif
#   From: 2010.05.17/outbox.cif.g08.bks.cpg/sg12_98_cif.got.tgz:194540.got - 2010.06.03 13:09:07.
