data_PCOD9209604
_publ_section_title
;
Structure prediction by ZEFSAII (Michael W. Deem and Ramdas Pophale) SiO2 
 PCOD9209604
Probable space group: C 2/M
;
_chemical_formula_sum "Si O2"
_cell_formula_units_Z 56
_cell_length_a 27.928850
_cell_length_b 9.054577
_cell_length_c 11.995729
_cell_angle_alpha 90.000000
_cell_angle_beta 75.061626
_cell_angle_gamma 90.000000
_cell_volume 2931.004858
_symmetry_space_group_name_H-M "C 2/M"
_symmetry_group_IT_number 12
_symmetry_cell_setting 'monoclinic'
loop_
_space_group_symop_operation_xyz
x,y,z
-x,y,-z
-x,-y,-z
x,-y,z
1/2+x,1/2+y,z
1/2-x,1/2+y,-z
1/2-x,1/2-y,-z
1/2+x,1/2-y,z
loop_
_atom_site_type_symbol
_atom_site_label
_atom_site_fract_x
_atom_site_fract_y
_atom_site_fract_z
Si Si1 0.286691 0.173372 0.891781
Si Si2 0.925729 0.323448 0.282936
Si Si3 0.986373 0.177763 0.634774
Si Si4 0.764352 0.671659 0.650522
Si Si5 0.668929 0.674139 0.559377
Si Si6 0.393825 0.323421 0.835074
Si Si7 0.059103 0.674647 0.977393
O O1 0.263841 0.188411 0.782383
O O2 0.340678 0.247129 0.858193
O O3 0.291640 0.000000 0.914784
O O4 0.250000 0.250000 0.000000
O O5 0.929574 0.500000 0.286627
O O6 0.879828 0.263296 0.380851
O O7 0.919021 0.283875 0.156598
O O8 0.975218 0.252355 0.303632
O O9 0.931063 0.214501 0.710560
O O10 0.000000 0.221954 0.500000
O O11 0.991690 0.000000 0.638384
O O12 0.775778 0.500000 0.616578
O O13 0.711530 0.704628 0.625955
O O14 0.805999 0.773218 0.570004
O O15 0.658291 0.500000 0.563694
O O16 0.388159 0.500000 0.841121
O O17 0.419544 0.267666 0.933564
O O18 0.068460 0.500000 0.992378
O O19 0.000000 0.693371 0.000000
#
# Coordination Sequence:
#
# PCOD9209604 Si02
#       7
#     8   8   8   8   8   8   8
#     4  11  25  44  65  91 125 163 210 259 308 368
#     4  11  23  38  61  92 123 158 203 250 305 365
#     4  10  23  42  62  90 127 165 207 251 304 368
#     4   9  21  42  63  88 120 157 203 253 305 364
#     4  10  21  38  63  91 122 157 198 251 307 364
#     4  11  24  41  64  92 124 164 208 256 312 369
#     4  10  21  40  62  87 121 158 201 250 300 358
#
# _framework density 19.106076000000002
#
# number of rings (size 3 to 8) (size 9 to 14) (size 15 to 20)
#    0.000    1.714    1.429    1.714    4.000    4.000 
#    0.000    0.000    0.000    0.000    0.000    0.000 
#    0.000    0.000    0.000    0.000    0.000    0.000 
#
# Total GULP energy -156470.303943 kJ/mol
# GULP energy per Si atom -5588.225141 kJ/mol
# Density = 1.906259 g / cm^3
# Si number density = 19.106076 Si / 1000 Ang^3
#
#
#
# Elastic Constant Matrix: (Units=GPa)
#
#
# Indices 1 2 3 4 5 6 
#
# 1 67.8948 40.6196 48.6685 0.0000 -20.5935 0.0000
# 2 40.6196 58.7189 56.9420 0.0000 -8.5611 0.0000
# 3 48.6685 56.9420 109.2086 0.0000 -14.8577 0.0000
# 4 0.0000 0.0000 0.0000 29.5099 0.0000 0.0389
# 5 -20.5935 -8.5611 -14.8577 0.0000 29.1646 0.0000
# 6 0.0000 0.0000 0.0000 0.0389 0.0000 34.0681
#
#
#
# Elastic Compliance Matrix: (Units=1/GPa)
#
#
# Indices 1 2 3 4 5 6 
#
# 1 0.031810 -0.016258 -0.003537 0.000000 0.015887 0.000000
# 2 -0.016258 0.042787 -0.016028 0.000000 -0.007086 0.000000
# 3 -0.003537 -0.016028 0.019459 0.000000 0.002711 0.000000
# 4 0.000000 0.000000 0.000000 0.033887 0.000000 -0.000039
# 5 0.015887 -0.007086 0.002711 0.000000 0.044807 0.000000
# 6 0.000000 0.000000 0.000000 -0.000039 0.000000 0.029353
#
#
# Mechanical properties :
#
#
# Convention : Reuss Voigt Hill
#
# Bulk Modulus (GPa) = 44.62555 58.69805 51.66180
# Shear Modulus (GPa) = 17.77966 24.52132 21.15049
#
# Velocity S-wave (km/s) = 3.05384 3.58639 3.33078
# Velocity P-wave (km/s) = 5.98682 6.92376 6.47227
#
# Compressibility (1/GPa) = 0.02240868
#
# Stress axis : x y z
#
# Youngs Moduli (GPa) = 31.43659 23.37159 51.38995
#
# Poissons Ratio (x) = 0.37998 0.18179
# Poissons Ratio (y) = 0.51111 0.82367
# Poissons Ratio (z) = 0.11121 0.37460
#
# Static dielectric constant tensor:
#      x y z
#    x 1.638490 0.000000 -0.000700 
#    y 0.000000 1.638060 0.000000 
#    z -0.000700 0.000000 1.659810 
# 
# From -- ./inp_files/180793.got.cif
#   From: 2010.05.17/outbox.cif.g08.bks.cpg/sg12_91_cif.got.tgz:180793.got - 2010.06.03 13:09:07.
