data_PCOD9209017
_publ_section_title
;
Structure prediction by ZEFSAII (Michael W. Deem and Ramdas Pophale) SiO2 
 PCOD9209017
Probable space group: C 2/M
;
_chemical_formula_sum "Si O2"
_cell_formula_units_Z 58
_cell_length_a 29.628185
_cell_length_b 7.623370
_cell_length_c 25.296635
_cell_angle_alpha 90.000000
_cell_angle_beta 151.451712
_cell_angle_gamma 90.000000
_cell_volume 2730.556358
_symmetry_space_group_name_H-M "C 2/M"
_symmetry_group_IT_number 12
_symmetry_cell_setting 'monoclinic'
loop_
_space_group_symop_operation_xyz
x,y,z
-x,y,-z
-x,-y,-z
x,-y,z
1/2+x,1/2+y,z
1/2-x,1/2+y,-z
1/2-x,1/2-y,-z
1/2+x,1/2-y,z
loop_
_atom_site_type_symbol
_atom_site_label
_atom_site_fract_x
_atom_site_fract_y
_atom_site_fract_z
Si Si1 0.211630 0.297277 0.114394
Si Si2 0.609194 0.287747 0.115695
Si Si3 0.022086 0.303018 0.724874
Si Si4 0.954823 0.287592 0.134182
Si Si5 0.184121 0.196419 0.480478
Si Si6 0.347637 0.708558 0.721894
Si Si7 0.925890 0.294513 0.338030
Si Si8 0.500000 0.500000 0.500000
O O1 0.229401 0.500000 0.118396
O O2 0.165892 0.288656 0.125338
O O3 0.312015 0.204605 0.220581
O O4 0.132178 0.227086 0.991946
O O5 0.615234 0.500000 0.118419
O O6 0.642494 0.233100 0.207709
O O7 0.500000 0.238305 0.000000
O O8 0.062582 0.500000 0.765606
O O9 0.908606 0.310555 0.610678
O O10 0.051762 0.223097 0.811970
O O11 0.046032 0.228514 0.692101
O O12 0.952658 0.500000 0.133358
O O13 0.055829 0.242899 0.211378
O O14 0.250000 0.250000 0.500000
O O15 0.255042 0.206563 0.602120
O O16 0.149236 0.000000 0.436336
O O17 0.333349 0.500000 0.705957
O O18 0.958550 0.500000 0.378735
O O19 0.964177 0.157181 0.420885
#
# Coordination Sequence:
#
# PCOD9209017 Si02
#       8
#     8   8   8   8   8   8   8   2
#     4  11  23  41  67 101 139 178 228 287 341 414
#     4  10  21  38  60  89 132 176 226 278 336 408
#     4  10  23  44  68  98 134 177 228 283 345 415
#     4  10  21  38  65  97 138 177 219 278 342 405
#     4  12  24  38  61  91 132 175 223 281 339 405
#     4  11  22  37  59  90 126 176 226 273 335 406
#     4  11  26  49  78 104 138 183 228 288 350 404
#     4  12  26  52  80 102 142 172 242 290 340 416
#
# _framework density 21.241092999999999
#
# number of rings (size 3 to 8) (size 9 to 14) (size 15 to 20)
#    0.000    1.241    3.448    2.276    0.966    3.586 
#    0.000    1.379    0.000    0.000    0.000    0.000 
#    0.000    0.000    0.000    0.000    0.000    0.000 
#
# Total GULP energy -161704.854956 kJ/mol
# GULP energy per Si atom -5576.029481 kJ/mol
# Density = 2.119275 g / cm^3
# Si number density = 21.241093 Si / 1000 Ang^3
#
#
#
# Elastic Constant Matrix: (Units=GPa)
#
#
# Indices 1 2 3 4 5 6 
#
# 1 137.4941 15.6712 69.5560 0.0000 -20.0312 0.0000
# 2 15.6712 92.9247 12.5708 -0.0007 -11.6370 -0.0007
# 3 69.5560 12.5708 89.4004 -0.0002 -34.2264 -0.0002
# 4 0.0000 -0.0007 -0.0002 -173.4224 0.0000 -228.7531
# 5 -20.0312 -11.6370 -34.2264 0.0000 41.0065 0.0000
# 6 0.0000 -0.0007 -0.0002 -228.7531 0.0000 -267.8263
#
#
#
# Elastic Compliance Matrix: (Units=1/GPa)
#
#
# Indices 1 2 3 4 5 6 
#
# 1 0.012317 -0.001033 -0.010650 0.000000 -0.003165 0.000000
# 2 -0.001033 0.011261 0.000368 0.000000 0.002998 0.000000
# 3 -0.010650 0.000368 0.025671 0.000000 0.016329 0.000000
# 4 0.000000 0.000000 0.000000 0.045542 0.000000 -0.038898
# 5 -0.003165 0.002998 0.016329 0.000000 0.037320 0.000000
# 6 0.000000 0.000000 0.000000 -0.038898 0.000000 0.029489
#
#
# Mechanical properties :
#
#
# Convention : Reuss Voigt Hill
#
# Bulk Modulus (GPa) = 37.56494 57.26833 47.41663
# Shear Modulus (GPa) = 25.89304 -65.24702 -19.67699
#
# Velocity S-wave (km/s) = 3.49522 -5.54834 -3.04693
# Velocity P-wave (km/s) = 5.83199 3.74510 3.16120
#
# Compressibility (1/GPa) = 0.02662057
#
# Stress axis : x y z
#
# Youngs Moduli (GPa) = 81.18819 88.79968 38.95470
#
# Poissons Ratio (x) = 0.09172 0.41485
# Poissons Ratio (y) = 0.08386 -0.01434
# Poissons Ratio (z) = 0.86461 -0.03269
#
# Static dielectric constant tensor:
#      x y z
#    x 1.711830 0.000000 0.040390 
#    y 0.000000 1.811530 0.000000 
#    z 0.040390 0.000000 1.584720 
# 
# From -- ./inp_files/351521.got.cif
#   From: 2010.05.17/outbox.cif.g08.bks.cpg/sg12_176_cif.got.tgz:351521.got - 2010.06.03 13:09:07.
