data_PCOD9209626
_publ_section_title
;
Structure prediction by ZEFSAII (Michael W. Deem and Ramdas Pophale) SiO2 
 PCOD9209626
Probable space group: C 2/M
;
_chemical_formula_sum "Si O2"
_cell_formula_units_Z 48
_cell_length_a 16.178552
_cell_length_b 15.872944
_cell_length_c 21.239990
_cell_angle_alpha 90.000000
_cell_angle_beta 25.174380
_cell_angle_gamma 90.000000
_cell_volume 2320.187317
_symmetry_space_group_name_H-M "C 2/M"
_symmetry_group_IT_number 12
_symmetry_cell_setting 'monoclinic'
loop_
_space_group_symop_operation_xyz
x,y,z
-x,y,-z
-x,-y,-z
x,-y,z
1/2+x,1/2+y,z
1/2-x,1/2+y,-z
1/2-x,1/2-y,-z
1/2+x,1/2-y,z
loop_
_atom_site_type_symbol
_atom_site_label
_atom_site_fract_x
_atom_site_fract_y
_atom_site_fract_z
Si Si1 0.135918 0.598298 0.236440
Si Si2 0.179311 0.900426 0.532771
Si Si3 0.844856 0.341747 0.917576
Si Si4 0.194814 0.666589 0.331872
Si Si5 0.195594 0.847817 0.385580
Si Si6 0.004808 0.094741 0.778363
O O1 0.193664 0.500000 0.193365
O O2 0.186899 0.641696 0.134953
O O3 0.214173 0.638732 0.246701
O O4 0.901483 0.602110 0.402797
O O5 0.164110 0.841989 0.482370
O O6 0.044730 0.868432 0.682054
O O7 0.139266 0.000000 0.544108
O O8 0.070947 0.364008 0.776314
O O9 0.750000 0.250000 0.000000
O O10 0.715663 0.402816 0.048986
O O11 0.182310 0.766358 0.350245
O O12 0.374246 0.639233 0.250792
O O13 0.000000 0.630709 0.500000
O O14 0.000000 0.899226 0.500000
O O15 0.080243 0.000000 0.722018
#
# Coordination Sequence:
#
# PCOD9209626 Si02
#       6
#     8   8   8   8   8   8
#     4  10  21  38  63  92 127 168 208 252 310 380
#     4   9  20  39  64  91 122 167 217 262 307 366
#     4  11  23  42  61  87 129 169 207 256 310 370
#     4  11  21  36  61  98 132 162 204 257 314 384
#     4  10  23  42  63  91 121 168 217 257 309 372
#     4  11  22  38  63  94 127 165 206 261 324 374
#
# _framework density 20.687985000000001
#
# number of rings (size 3 to 8) (size 9 to 14) (size 15 to 20)
#    0.000    1.667    3.333    1.000    0.000    5.667 
#    0.000    4.167    0.000    2.000    0.000    0.000 
#    0.000    0.000    0.000    0.000    0.000    0.000 
#
# Total GULP energy -133658.780285 kJ/mol
# GULP energy per Si atom -5569.115845 kJ/mol
# Density = 2.064090 g / cm^3
# Si number density = 20.687985 Si / 1000 Ang^3
#
#
#
# Elastic Constant Matrix: (Units=GPa)
#
#
# Indices 1 2 3 4 5 6 
#
# 1 107.6204 32.3732 68.9460 -0.0043 9.6065 -0.0033
# 2 32.3732 63.7886 19.3325 0.0203 15.7590 0.0786
# 3 68.9460 19.3325 156.5005 0.0265 16.0570 0.1445
# 4 -0.0043 0.0203 0.0265 25.0815 -0.0113 -0.7167
# 5 9.6065 15.7590 16.0570 -0.0113 42.1517 -0.0560
# 6 -0.0033 0.0786 0.1445 -0.7167 -0.0560 44.4386
#
#
#
# Elastic Compliance Matrix: (Units=1/GPa)
#
#
# Indices 1 2 3 4 5 6 
#
# 1 0.014757 -0.005983 -0.005876 0.000015 0.001112 0.000032
# 2 -0.005983 0.020058 0.000820 -0.000022 -0.006448 -0.000047
# 3 -0.005876 0.000820 0.009128 -0.000013 -0.002445 -0.000035
# 4 0.000015 -0.000022 -0.000013 0.039889 0.000022 0.000643
# 5 0.001112 -0.006448 -0.002445 0.000022 0.026812 0.000054
# 6 0.000032 -0.000047 -0.000035 0.000643 0.000054 0.022514
#
#
# Mechanical properties :
#
#
# Convention : Reuss Voigt Hill
#
# Bulk Modulus (GPa) = 45.73824 63.24587 54.49206
# Shear Modulus (GPa) = 30.76461 36.15155 33.45808
#
# Velocity S-wave (km/s) = 3.86045 4.18481 4.02589
# Velocity P-wave (km/s) = 6.48285 7.34764 6.92875
#
# Compressibility (1/GPa) = 0.02186354
#
# Stress axis : x y z
#
# Youngs Moduli (GPa) = 67.76452 49.85582 109.55196
#
# Poissons Ratio (x) = 0.29830 0.64375
# Poissons Ratio (y) = 0.40545 -0.08980
# Poissons Ratio (z) = 0.39820 -0.04087
#
# Static dielectric constant tensor:
#      x y z
#    x 1.741730 0.000000 -0.046060 
#    y 0.000000 1.876190 0.000010 
#    z -0.046060 0.000010 1.792190 
# 
# From -- ./inp_files/61717.got.cif
#   From: 2010.05.17/outbox.cif.g08.bks.cpg/sg12_31_cif.got.tgz:61717.got - 2010.06.03 13:09:07.
