data_PCOD9209446
_publ_section_title
;
Structure prediction by ZEFSAII (Michael W. Deem and Ramdas Pophale) SiO2 
 PCOD9209446
Probable space group: C 2/M
;
_chemical_formula_sum "Si O2"
_cell_formula_units_Z 48
_cell_length_a 8.649425
_cell_length_b 16.881251
_cell_length_c 17.696078
_cell_angle_alpha 90.000000
_cell_angle_beta 125.752209
_cell_angle_gamma 90.000000
_cell_volume 2096.934909
_symmetry_space_group_name_H-M "C 2/M"
_symmetry_group_IT_number 12
_symmetry_cell_setting 'monoclinic'
loop_
_space_group_symop_operation_xyz
x,y,z
-x,y,-z
-x,-y,-z
x,-y,z
1/2+x,1/2+y,z
1/2-x,1/2+y,-z
1/2-x,1/2-y,-z
1/2+x,1/2-y,z
loop_
_atom_site_type_symbol
_atom_site_label
_atom_site_fract_x
_atom_site_fract_y
_atom_site_fract_z
Si Si1 0.196420 0.814973 0.703914
Si Si2 0.053288 0.408540 0.756640
Si Si3 0.894736 0.183999 0.855508
Si Si4 0.500000 0.668626 0.500000
Si Si5 0.000000 0.695072 0.000000
Si Si6 0.399119 0.094060 0.549621
Si Si7 0.345633 0.592392 0.166489
O O1 0.345825 0.883236 0.724770
O O2 0.312695 0.741611 0.768367
O O3 0.086641 0.857391 0.741091
O O4 0.079715 0.789945 0.597475
O O5 0.090353 0.500000 0.782986
O O6 0.205445 0.351149 0.839859
O O7 0.039975 0.395723 0.662059
O O8 0.996900 0.107526 0.851770
O O9 0.030781 0.240555 0.942220
O O10 0.690335 0.626109 0.517839
O O11 0.838087 0.638261 0.919468
O O12 0.500000 0.122136 0.500000
O O13 0.369836 0.000000 0.531740
O O14 0.314076 0.500000 0.172491
#
# Coordination Sequence:
#
# PCOD9209446 Si02
#       7
#     8   8   8   4   4   8   8
#     4  10  22  41  63  91 129 172 211 260 321 381
#     4  10  21  40  61  88 126 165 210 262 319 381
#     4  11  23  43  65  93 124 167 208 263 325 390
#     4  10  21  38  62  90 129 180 228 264 320 396
#     4  10  23  44  65  88 130 166 200 256 333 396
#     4   9  19  35  57  88 126 170 217 272 326 375
#     4  11  23  40  67  98 122 159 215 267 313 380
#
# _framework density 22.890553000000001
#
# number of rings (size 3 to 8) (size 9 to 14) (size 15 to 20)
#    0.000    1.833    0.000    4.000    2.333    3.333 
#    1.500    7.500    0.000    0.000    0.000    0.000 
#    0.000    0.000    0.000    0.000    0.000    0.000 
#
# Total GULP energy -133792.893989 kJ/mol
# GULP energy per Si atom -5574.703916 kJ/mol
# Density = 2.283845 g / cm^3
# Si number density = 22.890553 Si / 1000 Ang^3
#
#
#
# Elastic Constant Matrix: (Units=GPa)
#
#
# Indices 1 2 3 4 5 6 
#
# 1 68.4957 19.5472 1.3268 0.0000 -2.5460 0.0000
# 2 19.5472 114.0153 46.4064 0.0000 -3.7633 0.0000
# 3 1.3268 46.4064 92.7517 0.0000 4.8017 0.0000
# 4 0.0000 0.0000 0.0000 46.7251 0.0000 -14.0531
# 5 -2.5460 -3.7633 4.8017 0.0000 19.6246 0.0000
# 6 0.0000 0.0000 0.0000 -14.0531 0.0000 29.6521
#
#
#
# Elastic Compliance Matrix: (Units=1/GPa)
#
#
# Indices 1 2 3 4 5 6 
#
# 1 0.015514 -0.003153 0.001299 0.000000 0.001090 0.000000
# 2 -0.003153 0.011897 -0.006082 0.000000 0.003361 0.000000
# 3 0.001299 -0.006082 0.014035 0.000000 -0.004432 0.000000
# 4 0.000000 0.000000 0.000000 0.024960 0.000000 0.011829
# 5 0.001090 0.003361 -0.004432 0.000000 0.052827 0.000000
# 6 0.000000 0.000000 0.000000 0.011829 0.000000 0.039331
#
#
# Mechanical properties :
#
#
# Convention : Reuss Voigt Hill
#
# Bulk Modulus (GPa) = 39.09804 45.53598 42.31701
# Shear Modulus (GPa) = 27.32843 33.06587 30.19715
#
# Velocity S-wave (km/s) = 3.45900 3.80481 3.63602
# Velocity P-wave (km/s) = 5.75069 6.26404 6.01284
#
# Compressibility (1/GPa) = 0.02557673
#
# Stress axis : x y z
#
# Youngs Moduli (GPa) = 64.45585 84.05158 71.25000
#
# Poissons Ratio (x) = 0.26498 -0.09255
# Poissons Ratio (y) = 0.20320 0.43331
# Poissons Ratio (z) = -0.08372 0.51116
#
# Static dielectric constant tensor:
#      x y z
#    x 1.907780 0.000000 -0.033350 
#    y 0.000000 1.845650 0.000000 
#    z -0.033350 0.000000 1.897860 
# 
# From -- ./inp_files/256747.got.cif
#   From: 2010.05.17/outbox.cif.g08.bks.cpg/sg12_129_cif.got.tgz:256747.got - 2010.06.03 13:09:07.
