data_PCOD9209645
_publ_section_title
;
Structure prediction by ZEFSAII (Michael W. Deem and Ramdas Pophale) SiO2 
 PCOD9209645
Probable space group: C 2/M
;
_chemical_formula_sum "Si O2"
_cell_formula_units_Z 32
_cell_length_a 15.954169
_cell_length_b 14.446311
_cell_length_c 6.538110
_cell_angle_alpha 90.000000
_cell_angle_beta 87.222075
_cell_angle_gamma 90.000000
_cell_volume 1505.125539
_symmetry_space_group_name_H-M "C 2/M"
_symmetry_group_IT_number 12
_symmetry_cell_setting 'monoclinic'
loop_
_space_group_symop_operation_xyz
x,y,z
-x,y,-z
-x,-y,-z
x,-y,z
1/2+x,1/2+y,z
1/2-x,1/2+y,-z
1/2-x,1/2-y,-z
1/2+x,1/2-y,z
loop_
_atom_site_type_symbol
_atom_site_label
_atom_site_fract_x
_atom_site_fract_y
_atom_site_fract_z
Si Si1 0.646944 0.646613 0.014520
Si Si2 0.081972 0.500000 0.131596
Si Si3 0.663354 0.847430 0.874642
Si Si4 0.123591 0.500000 0.547049
Si Si5 0.195499 0.000000 0.667979
Si Si6 0.927796 0.000000 0.683462
O O1 0.625523 0.746962 0.925977
O O2 0.667975 0.585211 0.813476
O O3 0.734892 0.657424 0.131384
O O4 0.581662 0.589690 0.165626
O O5 0.059168 0.500000 0.368036
O O6 0.134880 0.410538 0.065915
O O7 0.000000 0.500000 0.000000
O O8 0.630200 0.907660 0.686452
O O9 0.208486 0.500000 0.402884
O O10 0.152236 0.000000 0.453442
O O11 0.000000 0.000000 0.500000
#
# Coordination Sequence:
#
# PCOD9209645 Si02
#       6
#     8   4   8   4   4   4
#     4  10  21  38  64  95 126 165 218 267 312 380
#     4  11  23  41  61  89 135 168 214 281 329 377
#     4  10  21  38  63  93 126 166 216 269 311 385
#     4  11  19  37  67  94 124 172 221 259 329 389
#     4  11  19  37  63  88 125 170 212 263 318 389
#     4  11  23  41  61  93 133 169 208 263 333 388
#
# _framework density 21.260684999999999
#
# number of rings (size 3 to 8) (size 9 to 14) (size 15 to 20)
#    0.000    1.500    5.000    1.500    0.000    7.000 
#    4.500    0.000    0.000    0.000    0.000    0.000 
#    0.000    0.000    0.000    0.000    0.000    0.000 
#
# Total GULP energy -89215.048153 kJ/mol
# GULP energy per Si atom -5575.940510 kJ/mol
# Density = 2.121229 g / cm^3
# Si number density = 21.260685 Si / 1000 Ang^3
#
#
#
# Elastic Constant Matrix: (Units=GPa)
#
#
# Indices 1 2 3 4 5 6 
#
# 1 33.8179 11.7305 26.6666 0.0000 -21.2847 0.0000
# 2 11.7305 206.8226 81.2862 0.0000 -22.4116 0.0000
# 3 26.6666 81.2862 177.5745 0.0000 -10.4128 0.0000
# 4 0.0000 0.0000 0.0000 97.9360 0.0000 1.2055
# 5 -21.2847 -22.4116 -10.4128 0.0000 60.6570 0.0000
# 6 0.0000 0.0000 0.0000 1.2055 0.0000 6.9778
#
#
#
# Elastic Compliance Matrix: (Units=1/GPa)
#
#
# Indices 1 2 3 4 5 6 
#
# 1 0.043295 0.001651 -0.006395 0.000000 0.014705 0.000000
# 2 0.001651 0.006145 -0.002923 0.000000 0.002348 0.000000
# 3 -0.006395 -0.002923 0.007814 0.000000 -0.001983 0.000000
# 4 0.000000 0.000000 0.000000 0.010233 0.000000 -0.001768
# 5 0.014705 0.002348 -0.001983 0.000000 0.022173 0.000000
# 6 0.000000 0.000000 0.000000 -0.001768 0.000000 0.143617
#
#
# Mechanical properties :
#
#
# Convention : Reuss Voigt Hill
#
# Bulk Modulus (GPa) = 23.85531 73.06462 48.45997
# Shear Modulus (GPa) = 19.04157 53.01628 36.02892
#
# Velocity S-wave (km/s) = 2.99594 4.99904 4.12105
# Velocity P-wave (km/s) = 4.81792 8.23172 6.74439
#
# Compressibility (1/GPa) = 0.04191939
#
# Stress axis : x y z
#
# Youngs Moduli (GPa) = 23.09721 162.74268 127.98160
#
# Poissons Ratio (x) = -0.26874 0.81849
# Poissons Ratio (y) = -0.03814 0.37410
# Poissons Ratio (z) = 0.14771 0.47571
#
# Static dielectric constant tensor:
#      x y z
#    x 1.964840 0.000000 0.062740 
#    y 0.000000 1.747260 0.000000 
#    z 0.062740 0.000000 1.783490 
# 
# From -- ./inp_files/14377.got.cif
#   From: 2010.05.17/outbox.cif.g08.bks.cpg/sg12_8_cif.got.tgz:14377.got - 2010.06.03 13:09:07.
