data_PCOD9209512
_publ_section_title
;
Structure prediction by ZEFSAII (Michael W. Deem and Ramdas Pophale) SiO2 
 PCOD9209512
Probable space group: C 2/M
;
_chemical_formula_sum "Si O2"
_cell_formula_units_Z 64
_cell_length_a 25.158583
_cell_length_b 8.950546
_cell_length_c 14.847857
_cell_angle_alpha 90.000000
_cell_angle_beta 90.142021
_cell_angle_gamma 90.000000
_cell_volume 3343.475520
_symmetry_space_group_name_H-M "C 2/M"
_symmetry_group_IT_number 12
_symmetry_cell_setting 'monoclinic'
loop_
_space_group_symop_operation_xyz
x,y,z
-x,y,-z
-x,-y,-z
x,-y,z
1/2+x,1/2+y,z
1/2-x,1/2+y,-z
1/2-x,1/2-y,-z
1/2+x,1/2-y,z
loop_
_atom_site_type_symbol
_atom_site_label
_atom_site_fract_x
_atom_site_fract_y
_atom_site_fract_z
Si Si1 0.418271 0.674852 0.488249
Si Si2 0.700192 0.675269 0.547001
Si Si3 0.057169 0.676792 0.327124
Si Si4 0.438283 0.822514 0.293454
Si Si5 0.856829 0.822389 0.153511
Si Si6 0.725668 0.177073 0.726156
Si Si7 0.657241 0.321096 0.229088
Si Si8 0.306655 0.679751 0.971789
O O1 0.432007 0.500000 0.482809
O O2 0.354858 0.686306 0.506310
O O3 0.446007 0.750735 0.573393
O O4 0.427389 0.749646 0.391275
O O5 0.709893 0.500000 0.564638
O O6 0.750000 0.750000 0.500000
O O7 0.694657 0.764971 0.639459
O O8 0.064285 0.500000 0.338489
O O9 0.106565 0.743099 0.272277
O O10 0.001023 0.702927 0.277539
O O11 0.402057 0.754921 0.214019
O O12 0.428425 0.000000 0.299308
O O13 0.800707 0.765400 0.192678
O O14 0.861582 0.000000 0.164872
O O15 0.851189 0.786725 0.047859
O O16 0.788091 0.209318 0.716733
O O17 0.719603 0.000000 0.739100
O O18 0.648517 0.500000 0.230492
O O19 0.671984 0.275958 0.126673
O O20 0.298984 0.500000 0.969817
O O21 0.250000 0.750000 0.000000
#
# Coordination Sequence:
#
# PCOD9209512 Si02
#       8
#     8   8   8   8   8   8   8   8
#     4  11  23  39  61  89 119 156 204 251 298 358
#     4  11  23  36  52  81 120 158 200 242 294 358
#     4  11  25  42  61  88 119 159 207 253 302 355
#     4  11  24  42  63  87 120 160 206 254 300 354
#     4  11  22  37  61  92 121 153 197 245 297 357
#     4  11  21  35  58  85 119 158 195 239 297 356
#     4  10  22  40  61  89 123 160 200 245 301 362
#     4  10  21  38  62  93 125 157 198 244 297 361
#
# _framework density 19.141759
#
# number of rings (size 3 to 8) (size 9 to 14) (size 15 to 20)
#    0.000    1.250    2.500    3.375    0.000   10.000 
#    0.000    0.625    0.000    3.750    0.000    0.000 
#    0.000    0.000    0.000    0.000    0.000    0.000 
#
# Total GULP energy -178758.109661 kJ/mol
# GULP energy per Si atom -5586.190927 kJ/mol
# Density = 1.909819 g / cm^3
# Si number density = 19.141759 Si / 1000 Ang^3
#
#
#
# Elastic Constant Matrix: (Units=GPa)
#
#
# Indices 1 2 3 4 5 6 
#
# 1 116.8688 57.8318 40.9906 0.0000 14.3608 0.0000
# 2 57.8318 74.6144 36.9140 0.0000 15.0607 0.0000
# 3 40.9906 36.9140 92.0100 0.0000 16.9819 0.0000
# 4 0.0000 0.0000 0.0000 21.6416 0.0000 -0.5465
# 5 14.3608 15.0607 16.9819 0.0000 26.0113 0.0000
# 6 0.0000 0.0000 0.0000 -0.5465 0.0000 33.0404
#
#
#
# Elastic Compliance Matrix: (Units=1/GPa)
#
#
# Indices 1 2 3 4 5 6 
#
# 1 0.014304 -0.009800 -0.002309 0.000000 -0.000716 0.000000
# 2 -0.009800 0.024310 -0.004307 0.000000 -0.005853 0.000000
# 3 -0.002309 -0.004307 0.014701 0.000000 -0.005829 0.000000
# 4 0.000000 0.000000 0.000000 0.046227 0.000000 0.000765
# 5 -0.000716 -0.005853 -0.005829 0.000000 0.046035 0.000000
# 6 0.000000 0.000000 0.000000 0.000765 0.000000 0.030279
#
#
# Mechanical properties :
#
#
# Convention : Reuss Voigt Hill
#
# Bulk Modulus (GPa) = 48.81917 61.66289 55.24103
# Shear Modulus (GPa) = 23.20045 25.98910 24.59477
#
# Velocity S-wave (km/s) = 3.48520 3.68872 3.58840
# Velocity P-wave (km/s) = 6.46180 7.10112 6.78899
#
# Compressibility (1/GPa) = 0.02048376
#
# Stress axis : x y z
#
# Youngs Moduli (GPa) = 69.91225 41.13517 68.02420
#
# Poissons Ratio (x) = 0.40312 0.15704
# Poissons Ratio (y) = 0.68513 0.29297
# Poissons Ratio (z) = 0.16140 0.17717
#
# Static dielectric constant tensor:
#      x y z
#    x 1.673840 0.000000 0.003190 
#    y 0.000000 1.640720 0.000000 
#    z 0.003190 0.000000 1.672550 
# 
# From -- ./inp_files/238765.got.cif
#   From: 2010.05.17/outbox.cif.g08.bks.cpg/sg12_120_cif.got.tgz:238765.got - 2010.06.03 13:09:07.
