data_PCOD9209540
_publ_section_title
;
Structure prediction by ZEFSAII (Michael W. Deem and Ramdas Pophale) SiO2 
 PCOD9209540
Probable space group: C 2/M
;
_chemical_formula_sum "Si O2"
_cell_formula_units_Z 48
_cell_length_a 19.708300
_cell_length_b 11.281249
_cell_length_c 15.905102
_cell_angle_alpha 90.000000
_cell_angle_beta 142.738141
_cell_angle_gamma 90.000000
_cell_volume 2141.052685
_symmetry_space_group_name_H-M "C 2/M"
_symmetry_group_IT_number 12
_symmetry_cell_setting 'monoclinic'
loop_
_space_group_symop_operation_xyz
x,y,z
-x,y,-z
-x,-y,-z
x,-y,z
1/2+x,1/2+y,z
1/2-x,1/2+y,-z
1/2-x,1/2-y,-z
1/2+x,1/2-y,z
loop_
_atom_site_type_symbol
_atom_site_label
_atom_site_fract_x
_atom_site_fract_y
_atom_site_fract_z
Si Si1 0.498522 0.000000 0.209641
Si Si2 0.778329 0.272529 0.748847
Si Si3 0.838064 0.500000 0.891228
Si Si4 0.085691 0.136306 0.004273
Si Si5 0.992714 0.500000 0.595396
Si Si6 0.931053 0.780626 0.556480
Si Si7 0.426949 0.500000 0.343404
Si Si8 0.408332 0.253858 0.717277
O O1 0.577457 0.886098 0.278072
O O2 0.443278 0.000000 0.248880
O O3 0.411356 0.000000 0.046970
O O4 0.854431 0.384077 0.850378
O O5 0.654780 0.311870 0.602866
O O6 0.823380 0.214129 0.707606
O O7 0.796807 0.185373 0.845008
O O8 0.706770 0.500000 0.784660
O O9 0.028922 0.202609 0.870828
O O10 0.094976 0.000000 0.992446
O O11 0.000000 0.148029 0.000000
O O12 0.000000 0.500000 0.500000
O O13 0.950176 0.639042 0.563699
O O14 0.878073 0.802164 0.596435
O O15 0.032992 0.874111 0.657258
O O16 0.500000 0.500000 0.500000
#
# Coordination Sequence:
#
# PCOD9209540 Si02
#       8
#     4   8   4   8   4   8   4   8
#     4  10  21  41  64  96 123 155 211 268 315 380
#     4  11  21  36  64  95 128 168 203 261 321 387
#     4  12  23  40  68  96 125 167 219 264 325 380
#     4   9  19  34  54  85 128 168 199 245 309 380
#     4  10  24  45  68  85 122 169 214 267 320 369
#     4  11  24  42  64  95 125 171 215 267 315 383
#     4  12  24  44  64  89 129 171 224 265 323 381
#     4  10  21  38  62  94 132 162 206 259 325 382
#
# _framework density 22.418877999999999
#
# number of rings (size 3 to 8) (size 9 to 14) (size 15 to 20)
#    0.000    1.500    3.333    1.500    2.333    0.667 
#    0.000    6.667    0.000    0.000    0.000    0.000 
#    0.000    0.000    0.000    0.000    0.000    0.000 
#
# Total GULP energy -133608.501233 kJ/mol
# GULP energy per Si atom -5567.020885 kJ/mol
# Density = 2.236785 g / cm^3
# Si number density = 22.418878 Si / 1000 Ang^3
#
#
#
# Elastic Constant Matrix: (Units=GPa)
#
#
# Indices 1 2 3 4 5 6 
#
# 1 44.6411 0.3045 6.7511 0.0000 -10.0717 0.0000
# 2 0.3045 91.3095 1.8118 0.0000 -10.1056 0.0000
# 3 6.7511 1.8118 94.4084 0.0000 -14.9032 0.0000
# 4 0.0000 0.0000 0.0000 19.1674 0.0000 0.6878
# 5 -10.0717 -10.1056 -14.9032 0.0000 35.8955 0.0000
# 6 0.0000 0.0000 0.0000 0.6878 0.0000 15.5802
#
#
#
# Elastic Compliance Matrix: (Units=1/GPa)
#
#
# Indices 1 2 3 4 5 6 
#
# 1 0.023997 0.000668 -0.000681 0.000000 0.006639 0.000000
# 2 0.000668 0.011331 0.000287 0.000000 0.003496 0.000000
# 3 -0.000681 0.000287 0.011363 0.000000 0.004607 0.000000
# 4 0.000000 0.000000 0.000000 0.052255 0.000000 -0.002307
# 5 0.006639 0.003496 0.004607 0.000000 0.032619 0.000000
# 6 0.000000 0.000000 0.000000 -0.002307 0.000000 0.064286
#
#
# Mechanical properties :
#
#
# Convention : Reuss Voigt Hill
#
# Bulk Modulus (GPa) = 21.16909 27.56597 24.36753
# Shear Modulus (GPa) = 23.69133 28.89473 26.29303
#
# Velocity S-wave (km/s) = 3.25431 3.59396 3.42834
# Velocity P-wave (km/s) = 4.85631 5.43550 5.15405
#
# Compressibility (1/GPa) = 0.04723868
#
# Stress axis : x y z
#
# Youngs Moduli (GPa) = 41.67182 88.25489 88.00671
#
# Poissons Ratio (x) = -0.05897 0.05992
# Poissons Ratio (y) = -0.02784 -0.02523
# Poissons Ratio (z) = 0.02837 -0.02530
#
# Static dielectric constant tensor:
#      x y z
#    x 1.918770 0.000000 0.034850 
#    y 0.000000 1.866310 0.000000 
#    z 0.034850 0.000000 1.832660 
# 
# From -- ./inp_files/232907.got.cif
#   From: 2010.05.17/outbox.cif.g08.bks.cpg/sg12_117_cif.got.tgz:232907.got - 2010.06.03 13:09:07.
