data_PCOD9209466
_publ_section_title
;
Structure prediction by ZEFSAII (Michael W. Deem and Ramdas Pophale) SiO2 
 PCOD9209466
Probable space group: C 2/M
;
_chemical_formula_sum "Si O2"
_cell_formula_units_Z 56
_cell_length_a 26.709416
_cell_length_b 7.941937
_cell_length_c 12.909413
_cell_angle_alpha 90.000000
_cell_angle_beta 68.975246
_cell_angle_gamma 90.000000
_cell_volume 2556.095001
_symmetry_space_group_name_H-M "C 2/M"
_symmetry_group_IT_number 12
_symmetry_cell_setting 'monoclinic'
loop_
_space_group_symop_operation_xyz
x,y,z
-x,y,-z
-x,-y,-z
x,-y,z
1/2+x,1/2+y,z
1/2-x,1/2+y,-z
1/2-x,1/2-y,-z
1/2+x,1/2-y,z
loop_
_atom_site_type_symbol
_atom_site_label
_atom_site_fract_x
_atom_site_fract_y
_atom_site_fract_z
Si Si1 0.627789 0.196011 0.219920
Si Si2 0.895632 0.697665 0.344633
Si Si3 0.549106 0.698774 0.894047
Si Si4 0.438209 0.206282 0.535402
Si Si5 0.721178 0.306909 0.626328
Si Si6 0.745498 0.694141 0.176986
Si Si7 0.859893 0.294647 0.015436
O O1 0.595585 0.268625 0.340962
O O2 0.691065 0.208722 0.194824
O O3 0.618857 0.266239 0.111563
O O4 0.612320 0.000000 0.225663
O O5 0.882313 0.500000 0.362296
O O6 0.941878 0.719929 0.224653
O O7 0.913546 0.760129 0.444017
O O8 0.842243 0.788145 0.344419
O O9 0.541268 0.500000 0.884386
O O10 0.500000 0.765318 0.000000
O O11 0.602570 0.730351 0.921135
O O12 0.500000 0.255770 0.500000
O O13 0.436445 0.000000 0.535526
O O14 0.735137 0.500000 0.637188
O O15 0.750000 0.250000 0.500000
O O16 0.740085 0.204234 0.712165
O O17 0.736557 0.500000 0.154358
O O18 0.798345 0.758553 0.078615
O O19 0.860168 0.500000 0.018347
#
# Coordination Sequence:
#
# PCOD9209466 Si02
#       7
#     8   8   8   8   8   8   8
#     4  10  21  38  62  91 124 164 208 254 311 372
#     4  11  22  39  65  94 124 161 208 256 312 375
#     4  11  25  42  62  90 125 165 210 261 320 375
#     4   9  20  38  61  90 121 155 202 254 302 359
#     4  12  24  39  62  90 126 167 208 257 312 369
#     4  11  22  38  59  90 127 161 206 255 308 375
#     4  10  22  39  63  93 123 161 210 257 308 376
#
# _framework density 21.908418000000001
#
# number of rings (size 3 to 8) (size 9 to 14) (size 15 to 20)
#    0.000    1.429    1.429    3.857    2.000    3.429 
#    0.000    0.714    0.000    2.143    0.000    0.000 
#    0.000    0.000    0.000    0.000    0.000    0.000 
#
# Total GULP energy -156608.872379 kJ/mol
# GULP energy per Si atom -5593.174014 kJ/mol
# Density = 2.185855 g / cm^3
# Si number density = 21.908418 Si / 1000 Ang^3
#
#
#
# Elastic Constant Matrix: (Units=GPa)
#
#
# Indices 1 2 3 4 5 6 
#
# 1 34.1339 -9.9253 19.2146 0.0000 -0.3588 0.0000
# 2 -9.9253 33.1135 -1.3172 0.0000 -1.8128 0.0000
# 3 19.2146 -1.3172 167.5809 0.0000 1.1474 0.0000
# 4 0.0000 0.0000 0.0000 11.5116 0.0000 -16.8625
# 5 -0.3588 -1.8128 1.1474 0.0000 41.9569 0.0000
# 6 0.0000 0.0000 0.0000 -16.8625 0.0000 0.1502
#
#
#
# Elastic Compliance Matrix: (Units=1/GPa)
#
#
# Indices 1 2 3 4 5 6 
#
# 1 0.034459 0.010221 -0.003876 0.000000 0.000842 0.000000
# 2 0.010221 0.033311 -0.000921 0.000000 0.001552 0.000000
# 3 -0.003876 -0.000921 0.006406 0.000000 -0.000248 0.000000
# 4 0.000000 0.000000 0.000000 -0.000532 0.000000 -0.059666
# 5 0.000842 0.001552 -0.000248 0.000000 0.023915 0.000000
# 6 0.000000 0.000000 0.000000 -0.059666 0.000000 -0.040733
#
#
# Mechanical properties :
#
#
# Convention : Reuss Voigt Hill
#
# Bulk Modulus (GPa) = 11.76145 27.86359 19.81252
# Shear Modulus (GPa) = 67.27509 25.84750 46.56130
#
# Velocity S-wave (km/s) = 5.54744 3.43854 4.61507
# Velocity P-wave (km/s) = 6.81265 5.33953 6.12057
#
# Compressibility (1/GPa) = 0.08502352
#
# Stress axis : x y z
#
# Youngs Moduli (GPa) = 29.01971 30.02010 156.09876
#
# Poissons Ratio (x) = -0.30682 0.60512
# Poissons Ratio (y) = -0.29660 0.14372
# Poissons Ratio (z) = 0.11249 0.02764
#
# Static dielectric constant tensor:
#      x y z
#    x 1.758110 0.000000 -0.008960 
#    y 0.000000 1.784530 0.000000 
#    z -0.008960 0.000000 1.813440 
# 
# From -- ./inp_files/180815.got.cif
#   From: 2010.05.17/outbox.cif.g08.bks.cpg/sg12_91_cif.got.tgz:180815.got - 2010.06.03 13:09:07.
