data_PCOD9209011
_publ_section_title
;
Structure prediction by ZEFSAII (Michael W. Deem and Ramdas Pophale) SiO2 
 PCOD9209011
Probable space group: C 2/M
;
_chemical_formula_sum "Si O2"
_cell_formula_units_Z 56
_cell_length_a 9.379341
_cell_length_b 16.030888
_cell_length_c 22.448548
_cell_angle_alpha 90.000000
_cell_angle_beta 58.453831
_cell_angle_gamma 90.000000
_cell_volume 2876.532604
_symmetry_space_group_name_H-M "C 2/M"
_symmetry_group_IT_number 12
_symmetry_cell_setting 'monoclinic'
loop_
_space_group_symop_operation_xyz
x,y,z
-x,y,-z
-x,-y,-z
x,-y,z
1/2+x,1/2+y,z
1/2-x,1/2+y,-z
1/2-x,1/2-y,-z
1/2+x,1/2-y,z
loop_
_atom_site_type_symbol
_atom_site_label
_atom_site_fract_x
_atom_site_fract_y
_atom_site_fract_z
Si Si1 0.171337 0.399270 0.431200
Si Si2 0.837444 0.664071 0.294870
Si Si3 0.943660 0.749735 0.945153
Si Si4 0.498308 0.399199 0.569058
Si Si5 0.634040 0.406923 0.856651
Si Si6 0.322164 0.836728 0.705346
Si Si7 0.974813 0.593197 0.856154
O O1 0.172370 0.500000 0.433504
O O2 0.338358 0.369913 0.429572
O O3 0.168740 0.372795 0.363047
O O4 0.000000 0.369980 0.500000
O O5 0.674685 0.628398 0.363216
O O6 0.778431 0.750567 0.278656
O O7 0.903621 0.606167 0.226957
O O8 0.993637 0.675076 0.306024
O O9 0.007658 0.832204 0.897400
O O10 0.999946 0.668035 0.896614
O O11 0.750000 0.750000 0.000000
O O12 0.000000 0.749671 0.000000
O O13 0.500000 0.370538 0.500000
O O14 0.503496 0.500000 0.567576
O O15 0.561960 0.500000 0.877436
O O16 0.719156 0.394325 0.773577
O O17 0.787091 0.399480 0.870270
O O18 0.996117 0.500000 0.876191
#
# Coordination Sequence:
#
# PCOD9209011 Si02
#       7
#     8   8   8   8   8   8   8
#     4  10  21  38  60  89 125 163 210 266 318 376
#     4  11  22  38  63  89 124 167 212 264 322 378
#     4  12  24  42  69  97 133 166 208 265 320 382
#     4  10  21  38  60  89 125 164 210 263 320 378
#     4  10  22  42  68  95 127 174 218 257 318 392
#     4  11  22  38  63  90 124 165 213 266 319 380
#     4  10  22  42  67  95 130 171 216 261 320 386
#
# _framework density 19.467884000000002
#
# number of rings (size 3 to 8) (size 9 to 14) (size 15 to 20)
#    0.000    1.429    2.857    2.571    0.000    4.571 
#    2.571    2.857    0.000    0.000    0.000    0.000 
#    0.000    0.000    0.000    0.000    0.000    0.000 
#
# Total GULP energy -156346.043193 kJ/mol
# GULP energy per Si atom -5583.787257 kJ/mol
# Density = 1.942357 g / cm^3
# Si number density = 19.467884 Si / 1000 Ang^3
#
#
#
# Elastic Constant Matrix: (Units=GPa)
#
#
# Indices 1 2 3 4 5 6 
#
# 1 119.4386 25.2461 51.4566 -0.0005 -15.2347 0.0000
# 2 25.2461 104.4402 47.0862 -0.0003 -14.2167 0.0000
# 3 51.4566 47.0862 120.3720 0.0029 -9.4090 0.0001
# 4 -0.0005 -0.0003 0.0029 815.1382 -0.0038 19.2109
# 5 -15.2347 -14.2167 -9.4090 -0.0038 28.0139 -0.0001
# 6 0.0000 0.0000 0.0001 19.2109 -0.0001 29.0323
#
#
#
# Elastic Compliance Matrix: (Units=1/GPa)
#
#
# Indices 1 2 3 4 5 6 
#
# 1 0.010773 -0.000103 -0.004222 0.000000 0.004388 0.000000
# 2 -0.000103 0.012203 -0.004364 0.000000 0.004671 0.000000
# 3 -0.004222 -0.004364 0.011776 0.000000 -0.000555 0.000000
# 4 0.000000 0.000000 0.000000 0.001246 0.000000 -0.000825
# 5 0.004388 0.004671 -0.000555 0.000000 0.040267 0.000000
# 6 0.000000 0.000000 0.000000 -0.000825 0.000000 0.034990
#
#
# Mechanical properties :
#
#
# Convention : Reuss Voigt Hill
#
# Bulk Modulus (GPa) = 57.55938 65.75872 61.65905
# Shear Modulus (GPa) = 37.19539 189.13434 113.16486
#
# Velocity S-wave (km/s) = 4.37579 9.86726 7.63251
# Velocity P-wave (km/s) = 7.42701 12.79330 10.46014
#
# Compressibility (1/GPa) = 0.01737336
#
# Stress axis : x y z
#
# Youngs Moduli (GPa) = 92.82563 81.94518 84.91822
#
# Poissons Ratio (x) = 0.00848 0.35850
# Poissons Ratio (y) = 0.00960 0.37060
# Poissons Ratio (z) = 0.39188 0.35763
#
# Static dielectric constant tensor:
#      x y z
#    x 1.650610 0.000000 0.001050 
#    y 0.000000 1.693100 0.000000 
#    z 0.001050 0.000000 1.671550 
# 
# From -- ./inp_files/332857.got.cif
#   From: 2010.05.17/outbox.cif.g08.bks.cpg/sg12_167_cif.got.tgz:332857.got - 2010.06.03 13:09:07.
