data_PCOD9209520
_publ_section_title
;
Structure prediction by ZEFSAII (Michael W. Deem and Ramdas Pophale) SiO2 
 PCOD9209520
Probable space group: C 2/M
;
_chemical_formula_sum "Si O2"
_cell_formula_units_Z 44
_cell_length_a 10.066200
_cell_length_b 9.548917
_cell_length_c 25.726063
_cell_angle_alpha 90.000000
_cell_angle_beta 114.979606
_cell_angle_gamma 90.000000
_cell_volume 2241.510429
_symmetry_space_group_name_H-M "C 2/M"
_symmetry_group_IT_number 12
_symmetry_cell_setting 'monoclinic'
loop_
_space_group_symop_operation_xyz
x,y,z
-x,y,-z
-x,-y,-z
x,-y,z
1/2+x,1/2+y,z
1/2-x,1/2+y,-z
1/2-x,1/2-y,-z
1/2+x,1/2-y,z
loop_
_atom_site_type_symbol
_atom_site_label
_atom_site_fract_x
_atom_site_fract_y
_atom_site_fract_z
Si Si1 0.584209 0.334708 0.230680
Si Si2 0.789575 0.334748 0.166291
Si Si3 0.197307 0.500000 0.505702
Si Si4 0.327246 0.665834 0.967378
Si Si5 0.248994 0.663220 0.345697
Si Si6 0.082241 0.749799 0.422724
O O1 0.569159 0.500000 0.238970
O O2 0.661626 0.317670 0.187509
O O3 0.428245 0.258331 0.204386
O O4 0.686604 0.261780 0.290319
O O5 0.830273 0.500000 0.173046
O O6 0.732648 0.296579 0.099557
O O7 0.088447 0.623317 0.464499
O O8 0.317058 0.377827 0.542203
O O9 0.302413 0.500000 0.970338
O O10 0.500000 0.691385 0.000000
O O11 0.250000 0.750000 0.000000
O O12 0.237897 0.500000 0.329199
O O13 0.153575 0.690366 0.381517
O O14 0.416885 0.700520 0.385866
#
# Coordination Sequence:
#
# PCOD9209520 Si02
#       6
#     8   8   4   8   8   8
#     4  11  25  41  66  92 121 165 216 259 311 373
#     4  10  22  42  63  91 129 168 208 260 314 365
#     4  10  24  44  66 100 124 166 208 250 312 382
#     4  10  21  38  62  93 130 168 209 258 310 367
#     4  12  26  45  64  95 129 162 207 263 315 369
#     4  11  25  43  70  93 128 166 204 257 315 375
#
# _framework density 19.629622000000001
#
# number of rings (size 3 to 8) (size 9 to 14) (size 15 to 20)
#    0.000    1.273    1.818    2.727    2.545   11.273 
#    0.000    0.000    0.000    0.000    0.000    0.000 
#    0.000    0.000    0.000    0.000    0.000    0.000 
#
# Total GULP energy -122548.629584 kJ/mol
# GULP energy per Si atom -5570.392254 kJ/mol
# Density = 1.958494 g / cm^3
# Si number density = 19.629622 Si / 1000 Ang^3
#
#
#
# Elastic Constant Matrix: (Units=GPa)
#
#
# Indices 1 2 3 4 5 6 
#
# 1 71.0813 16.0372 10.3876 0.0000 -20.5961 0.0000
# 2 16.0372 99.7527 29.5953 0.0000 -11.7086 0.0000
# 3 10.3876 29.5953 69.2668 0.0000 -9.8353 0.0000
# 4 0.0000 0.0000 0.0000 27.8679 0.0000 15.0643
# 5 -20.5961 -11.7086 -9.8353 0.0000 42.9151 0.0000
# 6 0.0000 0.0000 0.0000 15.0643 0.0000 -45.0137
#
#
#
# Elastic Compliance Matrix: (Units=1/GPa)
#
#
# Indices 1 2 3 4 5 6 
#
# 1 0.016682 -0.001584 -0.000775 0.000000 0.007396 0.000000
# 2 -0.001584 0.011812 -0.004610 0.000000 0.001406 0.000000
# 3 -0.000775 -0.004610 0.016839 0.000000 0.002230 0.000000
# 4 0.000000 0.000000 0.000000 0.030387 0.000000 0.010169
# 5 0.007396 0.001406 0.002230 0.000000 0.027746 0.000000
# 6 0.000000 0.000000 0.000000 0.010169 0.000000 -0.018812
#
#
# Mechanical properties :
#
#
# Convention : Reuss Voigt Hill
#
# Bulk Modulus (GPa) = 31.85044 39.12678 35.48861
# Shear Modulus (GPa) = 45.84779 17.42590 31.63684
#
# Velocity S-wave (km/s) = 4.83809 2.98272 4.01894
# Velocity P-wave (km/s) = 6.88988 5.64251 6.29716
#
# Compressibility (1/GPa) = 0.03139674
#
# Stress axis : x y z
#
# Youngs Moduli (GPa) = 59.94433 84.65872 59.38489
#
# Poissons Ratio (x) = 0.13410 0.04601
# Poissons Ratio (y) = 0.09495 0.27375
# Poissons Ratio (z) = 0.04644 0.39025
#
# Static dielectric constant tensor:
#      x y z
#    x 1.671460 0.000000 -0.024150 
#    y 0.000000 1.657050 0.000000 
#    z -0.024150 0.000000 1.670480 
# 
# From -- ./inp_files/357442.got.cif
#   From: 2010.05.17/outbox.cif.g08.bks.cpg/sg12_179_cif.got.tgz:357442.got - 2010.06.03 13:09:07.
