data_PCOD9209595
_publ_section_title
;
Structure prediction by ZEFSAII (Michael W. Deem and Ramdas Pophale) SiO2 
 PCOD9209595
Probable space group: C 2/M
;
_chemical_formula_sum "Si O2"
_cell_formula_units_Z 58
_cell_length_a 17.687963
_cell_length_b 13.007775
_cell_length_c 19.610477
_cell_angle_alpha 90.000000
_cell_angle_beta 139.583688
_cell_angle_gamma 90.000000
_cell_volume 2925.294467
_symmetry_space_group_name_H-M "C 2/M"
_symmetry_group_IT_number 12
_symmetry_cell_setting 'monoclinic'
loop_
_space_group_symop_operation_xyz
x,y,z
-x,y,-z
-x,-y,-z
x,-y,z
1/2+x,1/2+y,z
1/2-x,1/2+y,-z
1/2-x,1/2-y,-z
1/2+x,1/2-y,z
loop_
_atom_site_type_symbol
_atom_site_label
_atom_site_fract_x
_atom_site_fract_y
_atom_site_fract_z
Si Si1 0.057933 0.620267 0.199485
Si Si2 0.100154 0.216173 0.347219
Si Si3 0.149494 0.321027 0.525602
Si Si4 0.817057 0.289291 0.980266
Si Si5 0.233888 0.227286 0.718618
Si Si6 0.500000 0.000000 0.500000
Si Si7 0.374515 0.614423 0.235418
Si Si8 0.859672 0.882097 0.898090
O O1 0.044487 0.500000 0.205043
O O2 0.083753 0.688392 0.284285
O O3 0.167313 0.641395 0.225057
O O4 0.942693 0.666575 0.085551
O O5 0.109201 0.261770 0.429869
O O6 0.215611 0.153599 0.403692
O O7 0.985275 0.147350 0.267249
O O8 0.168233 0.247354 0.603447
O O9 0.065913 0.410241 0.497088
O O10 0.739891 0.374313 0.889472
O O11 0.822357 0.191948 0.933586
O O12 0.750000 0.250000 0.000000
O O13 0.146358 0.191989 0.716766
O O14 0.304370 0.328700 0.792967
O O15 0.389592 0.500000 0.271981
O O16 0.819306 0.000000 0.875382
O O17 0.000000 0.882132 0.000000
#
# Coordination Sequence:
#
# PCOD9209595 Si02
#       8
#     8   8   8   8   8   2   8   8
#     4  11  22  40  66  90 126 176 219 264 327 383
#     4  10  23  46  62  94 135 168 213 272 328 389
#     4  10  24  43  67  93 133 164 212 278 322 387
#     4  11  22  41  56  95 132 167 216 269 310 392
#     4  10  22  43  62  95 132 162 217 271 317 388
#     4  12  24  40  72 104 120 178 228 260 344 396
#     4  11  23  39  66  93 127 168 214 260 326 387
#     4  10  21  38  63  90 126 169 207 258 326 384
#
# _framework density 19.827065000000001
#
# number of rings (size 3 to 8) (size 9 to 14) (size 15 to 20)
#    0.000    1.517    2.759    1.655    2.897    1.103 
#    0.000    4.138    0.000    0.000    0.000    0.000 
#    0.000    0.000    0.000    0.000    0.000    0.000 
#
# Total GULP energy -161542.070772 kJ/mol
# GULP energy per Si atom -5570.416234 kJ/mol
# Density = 1.978194 g / cm^3
# Si number density = 19.827065 Si / 1000 Ang^3
#
#
#
# Elastic Constant Matrix: (Units=GPa)
#
#
# Indices 1 2 3 4 5 6 
#
# 1 99.6059 23.7327 23.8365 0.0000 6.8068 0.0000
# 2 23.7327 99.2341 18.6191 0.0000 6.3877 0.0000
# 3 23.8365 18.6191 64.9579 0.0000 -8.6467 0.0000
# 4 0.0000 0.0000 0.0000 -1.1090 0.0000 1.1796
# 5 6.8068 6.3877 -8.6467 0.0000 29.2213 0.0000
# 6 0.0000 0.0000 0.0000 1.1796 0.0000 27.4353
#
#
#
# Elastic Compliance Matrix: (Units=1/GPa)
#
#
# Indices 1 2 3 4 5 6 
#
# 1 0.011732 -0.001771 -0.004278 0.000000 -0.003612 0.000000
# 2 -0.001771 0.011245 -0.002962 0.000000 -0.002922 0.000000
# 3 -0.004278 -0.002962 0.018772 0.000000 0.007199 0.000000
# 4 0.000000 0.000000 0.000000 -0.862287 0.000000 0.037074
# 5 -0.003612 -0.002922 0.007199 0.000000 0.037832 0.000000
# 6 0.000000 0.000000 0.000000 0.037074 0.000000 0.034855
#
#
# Mechanical properties :
#
#
# Convention : Reuss Voigt Hill
#
# Bulk Modulus (GPa) = 42.14793 44.01940 43.08367
# Shear Modulus (GPa) = -6.92597 24.28349 8.67876
#
# Velocity S-wave (km/s) = -1.87104 3.50346 2.09445
# Velocity P-wave (km/s) = 4.07875 6.21414 5.25603
#
# Compressibility (1/GPa) = 0.02372596
#
# Stress axis : x y z
#
# Youngs Moduli (GPa) = 85.23617 88.93203 53.27107
#
# Poissons Ratio (x) = 0.15746 0.22791
# Poissons Ratio (y) = 0.15092 0.15781
# Poissons Ratio (z) = 0.36467 0.26344
#
# Static dielectric constant tensor:
#      x y z
#    x 1.641600 0.000000 0.050490 
#    y 0.000000 1.667590 0.000000 
#    z 0.050490 0.000000 1.705410 
# 
# From -- ./inp_files/315971.got.cif
#   From: 2010.05.17/outbox.cif.g08.bks.cpg/sg12_158_cif.got.tgz:315971.got - 2010.06.03 13:09:07.
