data_PCOD9209212
_publ_section_title
;
Structure prediction by ZEFSAII (Michael W. Deem and Ramdas Pophale) SiO2 
 PCOD9209212
Probable space group: C 2/M
;
_chemical_formula_sum "Si O2"
_cell_formula_units_Z 50
_cell_length_a 13.124382
_cell_length_b 12.568581
_cell_length_c 21.605600
_cell_angle_alpha 90.000000
_cell_angle_beta 39.271991
_cell_angle_gamma 90.000000
_cell_volume 2255.988448
_symmetry_space_group_name_H-M "C 2/M"
_symmetry_group_IT_number 12
_symmetry_cell_setting 'monoclinic'
loop_
_space_group_symop_operation_xyz
x,y,z
-x,y,-z
-x,-y,-z
x,-y,z
1/2+x,1/2+y,z
1/2-x,1/2+y,-z
1/2-x,1/2-y,-z
1/2+x,1/2-y,z
loop_
_atom_site_type_symbol
_atom_site_label
_atom_site_fract_x
_atom_site_fract_y
_atom_site_fract_z
Si Si1 0.500000 0.500000 0.500000
Si Si2 0.509728 0.220792 0.895632
Si Si3 0.104417 0.880601 0.750828
Si Si4 0.483764 0.674868 0.409623
Si Si5 0.319729 0.694697 0.808156
Si Si6 0.242887 0.623512 0.075753
Si Si7 0.180377 0.380633 0.473289
O O1 0.554256 0.593392 0.425318
O O2 0.614960 0.289252 0.796812
O O3 0.635600 0.165377 0.881904
O O4 0.392970 0.143141 0.912701
O O5 0.397178 0.308311 0.981585
O O6 0.219758 0.863873 0.637233
O O7 0.920989 0.870337 0.811226
O O8 0.131011 0.000000 0.762185
O O9 0.585944 0.681685 0.299689
O O10 0.309662 0.629673 0.468647
O O11 0.449661 0.790392 0.453729
O O12 0.318769 0.815743 0.833977
O O13 0.276674 0.500000 0.068414
O O14 0.114516 0.500000 0.504293
#
# Coordination Sequence:
#
# PCOD9209212 Si02
#       7
#     2   8   8   8   8   8   8
#     4  12  24  40  62  96 118 166 204 264 306 372
#     4  10  21  38  61  89 121 154 202 253 299 358
#     4   9  19  36  59  85 117 160 198 241 303 356
#     4  10  22  38  60  90 124 155 211 251 309 366
#     4  10  22  38  58  88 119 155 198 256 299 361
#     4  10  22  41  61  88 121 160 204 250 310 372
#     4   9  18  39  60  83 122 169 197 246 306 368
#
# _framework density 22.163233999999999
#
# number of rings (size 3 to 8) (size 9 to 14) (size 15 to 20)
#    0.000    2.240    0.800    0.960    3.360    3.200 
#    0.000    0.400    0.000    5.760    0.000    0.000 
#    0.000    0.000    0.000    0.000    0.000    0.000 
#
# Total GULP energy -139473.077981 kJ/mol
# GULP energy per Si atom -5578.923119 kJ/mol
# Density = 2.211279 g / cm^3
# Si number density = 22.163234 Si / 1000 Ang^3
#
#
#
# Elastic Constant Matrix: (Units=GPa)
#
#
# Indices 1 2 3 4 5 6 
#
# 1 68.2762 -8.0145 -5.6423 0.0000 -13.3964 0.0000
# 2 -8.0145 99.1432 29.7555 0.0000 11.2727 0.0000
# 3 -5.6423 29.7555 32.1921 0.0000 16.0875 0.0000
# 4 0.0000 0.0000 0.0000 19.4718 0.0000 5.2036
# 5 -13.3964 11.2727 16.0875 0.0000 34.3875 0.0000
# 6 0.0000 0.0000 0.0000 5.2036 0.0000 4.9005
#
#
#
# Elastic Compliance Matrix: (Units=1/GPa)
#
#
# Indices 1 2 3 4 5 6 
#
# 1 0.015926 0.000950 -0.001346 0.000000 0.006523 0.000000
# 2 0.000950 0.014112 -0.014030 0.000000 0.002308 0.000000
# 3 -0.001346 -0.014030 0.054502 0.000000 -0.021423 0.000000
# 4 0.000000 0.000000 0.000000 0.071703 0.000000 -0.076138
# 5 0.006523 0.002308 -0.021423 0.000000 0.040887 0.000000
# 6 0.000000 0.000000 0.000000 -0.076138 0.000000 0.284907
#
#
# Mechanical properties :
#
#
# Convention : Reuss Voigt Hill
#
# Bulk Modulus (GPa) = 17.95781 25.75656 21.85719
# Shear Modulus (GPa) = 9.44370 23.98615 16.71493
#
# Velocity S-wave (km/s) = 2.06645 3.29333 2.74920
# Velocity P-wave (km/s) = 3.71668 5.10958 4.46775
#
# Compressibility (1/GPa) = 0.05568609
#
# Stress axis : x y z
#
# Youngs Moduli (GPa) = 62.78845 70.86314 18.34805
#
# Poissons Ratio (x) = -0.06731 0.02470
# Poissons Ratio (y) = -0.05964 0.25743
# Poissons Ratio (z) = 0.08453 0.99424
#
# Static dielectric constant tensor:
#      x y z
#    x 1.891670 0.000000 -0.014550 
#    y 0.000000 1.755010 0.000000 
#    z -0.014550 0.000000 1.823880 
# 
# From -- ./inp_files/339526.got.cif
#   From: 2010.05.17/outbox.cif.g08.bks.cpg/sg12_170_cif.got.tgz:339526.got - 2010.06.03 13:09:07.
