data_PCOD9209459
_publ_section_title
;
Structure prediction by ZEFSAII (Michael W. Deem and Ramdas Pophale) SiO2 
 PCOD9209459
Probable space group: C 2/M
;
_chemical_formula_sum "Si O2"
_cell_formula_units_Z 64
_cell_length_a 25.200293
_cell_length_b 8.649205
_cell_length_c 14.626862
_cell_angle_alpha 90.000000
_cell_angle_beta 91.288798
_cell_angle_gamma 90.000000
_cell_volume 3187.300903
_symmetry_space_group_name_H-M "C 2/M"
_symmetry_group_IT_number 12
_symmetry_cell_setting 'monoclinic'
loop_
_space_group_symop_operation_xyz
x,y,z
-x,y,-z
-x,-y,-z
x,-y,z
1/2+x,1/2+y,z
1/2-x,1/2+y,-z
1/2-x,1/2-y,-z
1/2+x,1/2-y,z
loop_
_atom_site_type_symbol
_atom_site_label
_atom_site_fract_x
_atom_site_fract_y
_atom_site_fract_z
Si Si1 0.168455 0.316054 0.260476
Si Si2 0.364568 0.819463 0.354872
Si Si3 0.776699 0.677624 0.204541
Si Si4 0.056954 0.183349 0.791279
Si Si5 0.808032 0.313513 0.527952
Si Si6 0.439439 0.682768 0.822763
Si Si7 0.583718 0.818721 0.991002
Si Si8 0.693566 0.320256 0.971291
O O1 0.176759 0.500000 0.249345
O O2 0.215802 0.225696 0.211557
O O3 0.175371 0.276433 0.367990
O O4 0.110939 0.269871 0.221155
O O5 0.307716 0.812703 0.300930
O O6 0.406930 0.736469 0.291776
O O7 0.351710 0.758965 0.455529
O O8 0.380071 0.000000 0.360094
O O9 0.781695 0.500000 0.171580
O O10 0.806556 0.792766 0.137479
O O11 0.994614 0.217214 0.774028
O O12 0.062877 0.000000 0.805342
O O13 0.072116 0.264537 0.887582
O O14 0.805533 0.500000 0.520344
O O15 0.750000 0.250000 0.500000
O O16 0.429291 0.500000 0.818609
O O17 0.446578 0.731558 0.929067
O O18 0.574285 0.000000 0.998634
O O19 0.645432 0.776643 0.010303
O O20 0.688564 0.500000 0.994163
O O21 0.750000 0.250000 0.000000
#
# Coordination Sequence:
#
# PCOD9209459 Si02
#       8
#     8   8   8   8   8   8   8   8
#     4  11  23  39  62  92 125 162 205 252 305 366
#     4  10  21  38  62  91 123 157 198 246 301 360
#     4  11  21  36  59  87 122 160 197 243 302 363
#     4  11  24  42  65  91 121 161 208 256 304 357
#     4  10  21  38  62  93 125 159 200 247 302 364
#     4  11  25  44  63  87 122 163 207 255 306 360
#     4  12  24  40  63  91 121 158 205 253 303 361
#     4  12  24  38  56  82 121 162 202 247 299 360
#
# _framework density 20.079685000000001
#
# number of rings (size 3 to 8) (size 9 to 14) (size 15 to 20)
#    0.000    1.000    2.500    4.875    0.000    5.000 
#    0.000    0.625    0.000    3.750    0.000    0.000 
#    0.000    0.000    0.000    0.000    0.000    0.000 
#
# Total GULP energy -178929.347805 kJ/mol
# GULP energy per Si atom -5591.542119 kJ/mol
# Density = 2.003398 g / cm^3
# Si number density = 20.079685 Si / 1000 Ang^3
#
#
#
# Elastic Constant Matrix: (Units=GPa)
#
#
# Indices 1 2 3 4 5 6 
#
# 1 96.5796 17.4272 17.9981 0.0000 -14.6632 0.0000
# 2 17.4272 41.1546 3.6163 0.0000 0.8493 0.0000
# 3 17.9981 3.6163 77.9150 0.0000 -12.6959 0.0000
# 4 0.0000 0.0000 0.0000 23.8701 0.0000 -4.2668
# 5 -14.6632 0.8493 -12.6959 0.0000 29.7848 0.0000
# 6 0.0000 0.0000 0.0000 -4.2668 0.0000 28.6098
#
#
#
# Elastic Compliance Matrix: (Units=1/GPa)
#
#
# Indices 1 2 3 4 5 6 
#
# 1 0.012465 -0.005241 -0.001732 0.000000 0.005548 0.000000
# 2 -0.005241 0.026646 -0.000613 0.000000 -0.003601 0.000000
# 3 -0.001732 -0.000613 0.014107 0.000000 0.005178 0.000000
# 4 0.000000 0.000000 0.000000 0.043041 0.000000 0.006419
# 5 0.005548 -0.003601 0.005178 0.000000 0.038615 0.000000
# 6 0.000000 0.000000 0.000000 0.006419 0.000000 0.035910
#
#
# Mechanical properties :
#
#
# Convention : Reuss Voigt Hill
#
# Bulk Modulus (GPa) = 26.28383 32.63693 29.46038
# Shear Modulus (GPa) = 25.17152 28.22678 26.69915
#
# Velocity S-wave (km/s) = 3.54444 3.75339 3.65041
# Velocity P-wave (km/s) = 5.46524 5.92223 5.69832
#
# Compressibility (1/GPa) = 0.03804621
#
# Stress axis : x y z
#
# Youngs Moduli (GPa) = 80.22568 37.52915 70.88797
#
# Poissons Ratio (x) = 0.19667 0.12279
# Poissons Ratio (y) = 0.42043 0.04345
# Poissons Ratio (z) = 0.13896 0.02300
#
# Static dielectric constant tensor:
#      x y z
#    x 1.729750 0.000000 0.011040 
#    y 0.000000 1.677220 0.000000 
#    z 0.011040 0.000000 1.750380 
# 
# From -- ./inp_files/238784.got.cif
#   From: 2010.05.17/outbox.cif.g08.bks.cpg/sg12_120_cif.got.tgz:238784.got - 2010.06.03 13:09:07.
