data_PCOD9209079
_publ_section_title
;
Structure prediction by ZEFSAII (Michael W. Deem and Ramdas Pophale) SiO2 
 PCOD9209079
Probable space group: C 2/M
;
_chemical_formula_sum "Si O2"
_cell_formula_units_Z 56
_cell_length_a 9.911517
_cell_length_b 17.784896
_cell_length_c 28.300313
_cell_angle_alpha 90.000000
_cell_angle_beta 143.869022
_cell_angle_gamma 90.000000
_cell_volume 2941.471014
_symmetry_space_group_name_H-M "C 2/M"
_symmetry_group_IT_number 12
_symmetry_cell_setting 'monoclinic'
loop_
_space_group_symop_operation_xyz
x,y,z
-x,y,-z
-x,-y,-z
x,-y,z
1/2+x,1/2+y,z
1/2-x,1/2+y,-z
1/2-x,1/2-y,-z
1/2+x,1/2-y,z
loop_
_atom_site_type_symbol
_atom_site_label
_atom_site_fract_x
_atom_site_fract_y
_atom_site_fract_z
Si Si1 0.389147 0.585062 0.635796
Si Si2 0.648237 0.794295 0.131770
Si Si3 0.966627 0.088143 0.767771
Si Si4 0.756382 0.831113 0.919241
Si Si5 0.584657 0.913108 0.248045
Si Si6 0.607878 0.814171 0.724442
Si Si7 0.244172 0.261330 0.553652
O O1 0.316531 0.500000 0.603044
O O2 0.371472 0.594866 0.687284
O O3 0.261227 0.651222 0.572811
O O4 0.657712 0.592107 0.698395
O O5 0.391195 0.809151 0.076528
O O6 0.680314 0.741172 0.095334
O O7 0.770454 0.750256 0.209912
O O8 0.788488 0.870602 0.162810
O O9 0.799802 0.133039 0.755511
O O10 0.982324 0.000000 0.783640
O O11 0.591094 0.882856 0.840948
O O12 0.000000 0.867528 0.000000
O O13 0.546737 0.861899 0.283196
O O14 0.537295 0.000000 0.245656
O O15 0.451417 0.778345 0.639750
O O16 0.250000 0.250000 0.500000
O O17 0.000000 0.229713 0.500000
#
# Coordination Sequence:
#
# PCOD9209079 Si02
#       7
#     8   8   8   8   8   8   8
#     4  10  21  39  61  84 117 158 204 251 297 354
#     4  11  21  38  62  87 118 159 208 249 290 356
#     4  11  21  37  64  90 115 153 207 258 293 343
#     4  11  22  36  59  91 125 159 196 251 308 362
#     4  10  21  38  61  86 114 157 207 252 297 357
#     4  11  22  39  62  85 118 157 205 252 292 359
#     4  12  24  37  59  89 121 155 197 247 308 365
#
# _framework density 19.038093
#
# number of rings (size 3 to 8) (size 9 to 14) (size 15 to 20)
#    0.000    1.143    4.286    2.571    2.000    0.571 
#    0.000    1.429    0.000    4.286    0.000    0.000 
#    0.000    0.000    0.000    0.000    0.000    0.000 
#
# Total GULP energy -156497.952232 kJ/mol
# GULP energy per Si atom -5589.212580 kJ/mol
# Density = 1.899476 g / cm^3
# Si number density = 19.038093 Si / 1000 Ang^3
#
#
#
# Elastic Constant Matrix: (Units=GPa)
#
#
# Indices 1 2 3 4 5 6 
#
# 1 86.2392 11.2711 10.6170 -0.0002 8.9266 0.0007
# 2 11.2711 84.2204 15.3198 -0.0001 3.3957 0.0001
# 3 10.6170 15.3198 61.4680 -0.0006 7.9415 0.0011
# 4 -0.0002 -0.0001 -0.0006 20.9428 -0.0002 5.8987
# 5 8.9266 3.3957 7.9415 -0.0002 25.8096 0.0008
# 6 0.0007 0.0001 0.0011 5.8987 0.0008 -11.0849
#
#
#
# Elastic Compliance Matrix: (Units=1/GPa)
#
#
# Indices 1 2 3 4 5 6 
#
# 1 0.012305 -0.001255 -0.001337 0.000000 -0.003679 0.000000
# 2 -0.001255 0.012578 -0.002875 0.000000 -0.000336 0.000000
# 3 -0.001337 -0.002875 0.017816 0.000000 -0.004641 0.000001
# 4 0.000000 0.000000 0.000000 0.041525 0.000000 0.022097
# 5 -0.003679 -0.000336 -0.004641 0.000000 0.041490 0.000002
# 6 0.000000 0.000000 0.000001 0.022097 0.000002 -0.078454
#
#
# Mechanical properties :
#
#
# Convention : Reuss Voigt Hill
#
# Bulk Modulus (GPa) = 31.48134 34.03816 32.75975
# Shear Modulus (GPa) = 72.69330 20.11482 46.40406
#
# Velocity S-wave (km/s) = 6.18595 3.25400 4.94239
# Velocity P-wave (km/s) = 8.22151 5.66002 7.05794
#
# Compressibility (1/GPa) = 0.03176485
#
# Stress axis : x y z
#
# Youngs Moduli (GPa) = 81.26658 79.50364 56.13043
#
# Poissons Ratio (x) = 0.09979 0.07506
# Poissons Ratio (y) = 0.10201 0.16135
# Poissons Ratio (z) = 0.10867 0.22854
#
# Static dielectric constant tensor:
#      x y z
#    x 1.647790 0.000000 0.008180 
#    y 0.000000 1.654340 0.000000 
#    z 0.008180 0.000000 1.639560 
# 
# From -- ./inp_files/257198.got.cif
#   From: 2010.05.17/outbox.cif.g08.bks.cpg/sg12_129_cif.got.tgz:257198.got - 2010.06.03 13:09:07.
