data_PCOD9209805
_publ_section_title
;
Structure prediction by ZEFSAII (Michael W. Deem and Ramdas Pophale) SiO2 
 PCOD9209805
Probable space group: C 2/M
;
_chemical_formula_sum "Si O2"
_cell_formula_units_Z 56
_cell_length_a 19.968986
_cell_length_b 14.461173
_cell_length_c 15.960132
_cell_angle_alpha 90.000000
_cell_angle_beta 28.588556
_cell_angle_gamma 90.000000
_cell_volume 2205.428163
_symmetry_space_group_name_H-M "C 2/M"
_symmetry_group_IT_number 12
_symmetry_cell_setting 'monoclinic'
loop_
_space_group_symop_operation_xyz
x,y,z
-x,y,-z
-x,-y,-z
x,-y,z
1/2+x,1/2+y,z
1/2-x,1/2+y,-z
1/2-x,1/2-y,-z
1/2+x,1/2-y,z
loop_
_atom_site_type_symbol
_atom_site_label
_atom_site_fract_x
_atom_site_fract_y
_atom_site_fract_z
Si Si1 0.269072 0.107782 0.914745
Si Si2 0.201686 0.855086 0.548302
Si Si3 0.186534 0.258224 0.278434
Si Si4 0.151126 0.108476 0.795378
Si Si5 0.043771 0.890829 0.311848
Si Si6 0.859993 0.397891 0.103308
Si Si7 0.984646 0.604446 0.798328
O O1 0.239089 0.180140 0.875351
O O2 0.422996 0.138549 0.779350
O O3 0.267577 0.000000 0.887888
O O4 0.166858 0.115143 0.106417
O O5 0.250000 0.750000 0.500000
O O6 0.141525 0.882209 0.705219
O O7 0.351839 0.901341 0.370570
O O8 0.094153 0.874361 0.592369
O O9 0.207173 0.339112 0.327434
O O10 0.078245 0.191393 0.341931
O O11 0.258339 0.176267 0.251514
O O12 0.163563 0.000000 0.802425
O O13 0.000000 0.141901 0.000000
O O14 0.040072 0.000000 0.345324
O O15 0.798101 0.500000 0.164904
O O16 0.000000 0.405890 0.000000
O O17 0.908571 0.354050 0.961910
O O18 0.930060 0.500000 0.860462
#
# Coordination Sequence:
#
# PCOD9209805 Si02
#       7
#     8   8   8   8   8   8   8
#     4  10  21  38  65 101 138 182 236 292 355 426
#     4  12  27  44  72 106 144 187 244 302 365 435
#     4  12  22  37  69  99 137 179 240 294 347 423
#     4  11  26  48  74 107 149 198 248 300 362 436
#     4  11  23  42  68 102 146 190 238 301 366 434
#     4  10  22  38  63  98 135 175 229 289 348 418
#     4  10  21  41  66  96 134 180 230 289 353 414
#
# _framework density 25.391895999999999
#
# number of rings (size 3 to 8) (size 9 to 14) (size 15 to 20)
#    0.000    1.143    1.429    4.714    6.000    2.286 
#    0.000    2.857    0.000    6.000    0.000    0.000 
#    0.000    0.000    0.000    0.000    0.000    0.000 
#
# Total GULP energy -156054.790440 kJ/mol
# GULP energy per Si atom -5573.385373 kJ/mol
# Density = 2.533410 g / cm^3
# Si number density = 25.391896 Si / 1000 Ang^3
#
#
#
# Elastic Constant Matrix: (Units=GPa)
#
#
# Indices 1 2 3 4 5 6 
#
# 1 130.8854 61.6372 36.3436 0.0000 -19.5342 0.0000
# 2 61.6372 149.0797 31.2388 0.0000 -7.4887 0.0000
# 3 36.3436 31.2388 74.8657 0.0000 -3.7768 0.0000
# 4 0.0000 0.0000 0.0000 21.7780 0.0000 -8.1528
# 5 -19.5342 -7.4887 -3.7768 0.0000 46.3466 0.0000
# 6 0.0000 0.0000 0.0000 -8.1528 0.0000 40.7997
#
#
#
# Elastic Compliance Matrix: (Units=1/GPa)
#
#
# Indices 1 2 3 4 5 6 
#
# 1 0.010868 -0.003551 -0.003607 0.000000 0.003713 0.000000
# 2 -0.003551 0.008552 -0.001858 0.000000 -0.000266 0.000000
# 3 -0.003607 -0.001858 0.015857 0.000000 -0.000528 0.000000
# 4 0.000000 0.000000 0.000000 0.049631 0.000000 0.009918
# 5 0.003713 -0.000266 -0.000528 0.000000 0.023055 0.000000
# 6 0.000000 0.000000 0.000000 0.009918 0.000000 0.026492
#
#
# Mechanical properties :
#
#
# Convention : Reuss Voigt Hill
#
# Bulk Modulus (GPa) = 57.98774 68.14110 63.06442
# Shear Modulus (GPa) = 31.59843 36.82559 34.21201
#
# Velocity S-wave (km/s) = 3.53147 3.81240 3.67462
# Velocity P-wave (km/s) = 6.28610 6.80244 6.54936
#
# Compressibility (1/GPa) = 0.01724502
#
# Stress axis : x y z
#
# Youngs Moduli (GPa) = 92.01038 116.93146 63.06423
#
# Poissons Ratio (x) = 0.41525 0.22747
# Poissons Ratio (y) = 0.32675 0.11717
# Poissons Ratio (z) = 0.33188 0.21725
#
# Static dielectric constant tensor:
#      x y z
#    x 2.101670 0.000000 -0.000950 
#    y 0.000000 1.888210 0.000000 
#    z -0.000950 0.000000 2.051000 
# 
# From -- ./inp_files/284504.got.cif
#   From: 2010.05.17/outbox.cif.g08.bks.cpg/sg12_143_cif.got.tgz:284504.got - 2010.06.03 13:09:07.
