data_PCOD9209036
_publ_section_title
;
Structure prediction by ZEFSAII (Michael W. Deem and Ramdas Pophale) SiO2 
 PCOD9209036
Probable space group: C 2/M
;
_chemical_formula_sum "Si O2"
_cell_formula_units_Z 48
_cell_length_a 12.214018
_cell_length_b 18.812297
_cell_length_c 16.178293
_cell_angle_alpha 90.000000
_cell_angle_beta 37.117375
_cell_angle_gamma 90.000000
_cell_volume 2243.232285
_symmetry_space_group_name_H-M "C 2/M"
_symmetry_group_IT_number 12
_symmetry_cell_setting 'monoclinic'
loop_
_space_group_symop_operation_xyz
x,y,z
-x,y,-z
-x,-y,-z
x,-y,z
1/2+x,1/2+y,z
1/2-x,1/2+y,-z
1/2-x,1/2-y,-z
1/2+x,1/2-y,z
loop_
_atom_site_type_symbol
_atom_site_label
_atom_site_fract_x
_atom_site_fract_y
_atom_site_fract_z
Si Si1 0.005185 0.691095 0.584251
Si Si2 0.707100 0.281249 0.882255
Si Si3 0.623810 0.362003 0.205765
Si Si4 0.670316 0.917153 0.765820
Si Si5 0.748726 0.919622 0.034246
Si Si6 0.305087 0.657238 0.523964
O O1 0.109459 0.654994 0.597347
O O2 0.123777 0.763045 0.500267
O O3 0.000000 0.652258 0.500000
O O4 0.803596 0.708755 0.735607
O O5 0.832326 0.219461 0.846875
O O6 0.710649 0.355977 0.927597
O O7 0.500000 0.258156 0.000000
O O8 0.779969 0.382423 0.177064
O O9 0.444528 0.368879 0.369602
O O10 0.629772 0.408846 0.120712
O O11 0.458823 0.910428 0.871426
O O12 0.785559 0.882995 0.621896
O O13 0.715370 0.000000 0.744541
O O14 0.769199 0.000000 0.054759
#
# Coordination Sequence:
#
# PCOD9209036 Si02
#       6
#     8   8   8   8   8   8
#     4  10  21  38  63  90 123 158 205 255 306 358
#     4  11  23  40  65  90 122 161 207 259 302 363
#     4  11  23  37  63  97 121 158 208 255 309 369
#     4  11  22  40  63  90 130 165 200 252 316 375
#     4  11  24  41  60  88 127 166 205 253 309 366
#     4  10  21  38  60  92 125 158 200 256 305 362
#
# _framework density 21.397696
#
# number of rings (size 3 to 8) (size 9 to 14) (size 15 to 20)
#    0.000    1.333    1.667    5.000    2.333    3.667 
#    0.000    0.000    0.000    1.000    0.000    0.000 
#    0.000    0.000    0.000    0.000    0.000    0.000 
#
# Total GULP energy -134124.575644 kJ/mol
# GULP energy per Si atom -5588.523985 kJ/mol
# Density = 2.134899 g / cm^3
# Si number density = 21.397696 Si / 1000 Ang^3
#
#
#
# Elastic Constant Matrix: (Units=GPa)
#
#
# Indices 1 2 3 4 5 6 
#
# 1 40.2418 4.7911 12.1642 -0.0022 10.9326 0.0006
# 2 4.7911 80.9933 11.2196 -0.0043 16.2923 0.0018
# 3 12.1642 11.2196 93.0050 -0.0123 3.8000 0.0027
# 4 -0.0022 -0.0043 -0.0123 8.6710 0.0063 5.9506
# 5 10.9326 16.2923 3.8000 0.0063 32.1033 -0.0015
# 6 0.0006 0.0018 0.0027 5.9506 -0.0015 23.4410
#
#
#
# Elastic Compliance Matrix: (Units=1/GPa)
#
#
# Indices 1 2 3 4 5 6 
#
# 1 0.028413 0.000732 -0.003410 0.000013 -0.009644 -0.000004
# 2 0.000732 0.013948 -0.001486 0.000014 -0.007152 -0.000005
# 3 -0.003410 -0.001486 0.011354 0.000018 0.000572 -0.000006
# 4 0.000013 0.000014 0.000018 0.139657 -0.000042 -0.035453
# 5 -0.009644 -0.007152 0.000572 -0.000042 0.037995 0.000014
# 6 -0.000004 -0.000005 -0.000006 -0.035453 0.000014 0.051660
#
#
# Mechanical properties :
#
#
# Convention : Reuss Voigt Hill
#
# Bulk Modulus (GPa) = 22.03349 30.06555 26.04952
# Shear Modulus (GPa) = 16.31392 25.24739 20.78066
#
# Velocity S-wave (km/s) = 2.76418 3.43871 3.11973
# Velocity P-wave (km/s) = 4.52847 5.46330 5.01771
#
# Compressibility (1/GPa) = 0.04538546
#
# Stress axis : x y z
#
# Youngs Moduli (GPa) = 35.19457 71.69536 88.07400
#
# Poissons Ratio (x) = -0.05245 0.30037
# Poissons Ratio (y) = -0.02575 0.13088
# Poissons Ratio (z) = 0.12003 0.10654
#
# Static dielectric constant tensor:
#      x y z
#    x 1.795080 0.000000 -0.015370 
#    y 0.000000 1.792240 0.000000 
#    z -0.015370 0.000000 1.779650 
# 
# From -- ./inp_files/89426.got.cif
#   From: 2010.05.17/outbox.cif.g08.bks.cpg/sg12_45_cif.got.tgz:89426.got - 2010.06.03 13:09:07.
