data_PCOD9209424
_publ_section_title
;
Structure prediction by ZEFSAII (Michael W. Deem and Ramdas Pophale) SiO2 
 PCOD9209424
Probable space group: C 2/M
;
_chemical_formula_sum "Si O2"
_cell_formula_units_Z 48
_cell_length_a 27.819560
_cell_length_b 8.604776
_cell_length_c 15.768686
_cell_angle_alpha 90.000000
_cell_angle_beta 139.148025
_cell_angle_gamma 90.000000
_cell_volume 2469.074243
_symmetry_space_group_name_H-M "C 2/M"
_symmetry_group_IT_number 12
_symmetry_cell_setting 'monoclinic'
loop_
_space_group_symop_operation_xyz
x,y,z
-x,y,-z
-x,-y,-z
x,-y,z
1/2+x,1/2+y,z
1/2-x,1/2+y,-z
1/2-x,1/2-y,-z
1/2+x,1/2-y,z
loop_
_atom_site_type_symbol
_atom_site_label
_atom_site_fract_x
_atom_site_fract_y
_atom_site_fract_z
Si Si1 0.958316 0.310572 0.359829
Si Si2 0.222132 0.313372 0.552677
Si Si3 0.301623 0.185240 0.824993
Si Si4 0.534153 0.686135 0.954992
Si Si5 0.449095 0.812255 0.680426
Si Si6 0.288463 0.186985 0.135607
O O1 0.959355 0.500000 0.361336
O O2 0.873602 0.262784 0.248362
O O3 0.000000 0.258291 0.500000
O O4 0.001346 0.261130 0.333010
O O5 0.228316 0.500000 0.562215
O O6 0.250000 0.250000 0.500000
O O7 0.269118 0.245575 0.692712
O O8 0.136089 0.271707 0.447487
O O9 0.252892 0.251882 0.836591
O O10 0.299398 0.000000 0.823959
O O11 0.385275 0.241374 0.947361
O O12 0.540694 0.500000 0.961949
O O13 0.481368 0.741241 0.809173
O O14 0.500000 0.732345 0.000000
O O15 0.453386 0.000000 0.692247
O O16 0.286171 0.000000 0.132725
O O17 0.250000 0.250000 0.000000
#
# Coordination Sequence:
#
# PCOD9209424 Si02
#       6
#     8   8   8   8   8   8
#     4   9  18  35  59  85 113 149 193 238 288 349
#     4  11  23  40  63  91 124 161 202 250 303 362
#     4  12  25  41  62  88 122 164 208 252 300 360
#     4  11  24  41  62  88 119 155 198 252 309 362
#     4  10  21  38  62  90 119 155 198 244 299 363
#     4  11  22  38  62  90 121 157 199 251 308 365
#
# _framework density 19.440486
#
# number of rings (size 3 to 8) (size 9 to 14) (size 15 to 20)
#    0.000    1.333    0.000    6.000    0.000    9.333 
#    0.000    0.833    0.000    3.500    0.000    0.000 
#    0.000    0.000    0.000    0.000    0.000    0.000 
#
# Total GULP energy -134268.249570 kJ/mol
# GULP energy per Si atom -5594.510399 kJ/mol
# Density = 1.939624 g / cm^3
# Si number density = 19.440486 Si / 1000 Ang^3
#
#
#
# Elastic Constant Matrix: (Units=GPa)
#
#
# Indices 1 2 3 4 5 6 
#
# 1 59.6429 7.3058 -28.8250 0.0000 1.5080 0.0000
# 2 7.3058 46.2804 9.4536 0.0000 6.5646 0.0000
# 3 -28.8250 9.4536 65.7921 0.0000 0.3038 0.0000
# 4 0.0000 0.0000 0.0000 29.3595 0.0000 -1.1210
# 5 1.5080 6.5646 0.3038 0.0000 45.4941 0.0000
# 6 0.0000 0.0000 0.0000 -1.1210 0.0000 25.4192
#
#
#
# Elastic Compliance Matrix: (Units=1/GPa)
#
#
# Indices 1 2 3 4 5 6 
#
# 1 0.022677 -0.005780 0.010766 0.000000 0.000011 0.000000
# 2 -0.005780 0.024207 -0.005996 0.000000 -0.003261 0.000000
# 3 0.010766 -0.005996 0.020776 0.000000 0.000370 0.000000
# 4 0.000000 0.000000 0.000000 0.034118 0.000000 0.001505
# 5 0.000011 -0.003261 0.000370 0.000000 0.022449 0.000000
# 6 0.000000 0.000000 0.000000 0.001505 0.000000 0.039407
#
#
# Mechanical properties :
#
#
# Convention : Reuss Voigt Hill
#
# Bulk Modulus (GPa) = 15.23459 16.39826 15.81643
# Shear Modulus (GPa) = 26.66172 32.30663 29.48417
#
# Velocity S-wave (km/s) = 3.70733 4.08097 3.89863
# Velocity P-wave (km/s) = 5.11657 5.53707 5.33097
#
# Compressibility (1/GPa) = 0.06564010
#
# Stress axis : x y z
#
# Youngs Moduli (GPa) = 44.09679 41.30987 48.13233
#
# Poissons Ratio (x) = 0.23879 -0.51819
# Poissons Ratio (y) = 0.25490 0.28859
# Poissons Ratio (z) = -0.47475 0.24769
#
# Static dielectric constant tensor:
#      x y z
#    x 1.651260 0.000000 0.008050 
#    y 0.000000 1.659000 0.000000 
#    z 0.008050 0.000000 1.633600 
# 
# From -- ./inp_files/244765.got.cif
#   From: 2010.05.17/outbox.cif.g08.bks.cpg/sg12_123_cif.got.tgz:244765.got - 2010.06.03 13:09:07.
