data_PCOD9209948
_publ_section_title
;
Structure prediction by ZEFSAII (Michael W. Deem and Ramdas Pophale) SiO2 
 PCOD9209948
Probable space group: C 2/M
;
_chemical_formula_sum "Si O2"
_cell_formula_units_Z 42
_cell_length_a 15.606991
_cell_length_b 17.745289
_cell_length_c 8.050519
_cell_angle_alpha 90.000000
_cell_angle_beta 124.066792
_cell_angle_gamma 90.000000
_cell_volume 1846.964012
_symmetry_space_group_name_H-M "C 2/M"
_symmetry_group_IT_number 12
_symmetry_cell_setting 'monoclinic'
loop_
_space_group_symop_operation_xyz
x,y,z
-x,y,-z
-x,-y,-z
x,-y,z
1/2+x,1/2+y,z
1/2-x,1/2+y,-z
1/2-x,1/2-y,-z
1/2+x,1/2-y,z
loop_
_atom_site_type_symbol
_atom_site_label
_atom_site_fract_x
_atom_site_fract_y
_atom_site_fract_z
Si Si1 0.455453 0.395336 0.270482
Si Si2 0.273740 0.875987 0.029349
Si Si3 0.225299 0.759217 0.222758
Si Si4 0.072316 0.253429 0.344780
Si Si5 0.502800 0.081718 0.801726
Si Si6 0.000000 0.000000 0.000000
O O1 0.500000 0.416389 0.500000
O O2 0.333256 0.411579 0.143978
O O3 0.481270 0.305747 0.279386
O O4 0.497883 0.435461 0.150030
O O5 0.292667 0.802673 0.936543
O O6 0.248791 0.842294 0.182032
O O7 0.378611 0.920707 0.128394
O O8 0.123005 0.758765 0.220852
O O9 0.329467 0.735314 0.431577
O O10 0.042696 0.341454 0.324522
O O11 0.453355 0.000000 0.706497
O O12 0.500000 0.088849 0.000000
#
# Coordination Sequence:
#
# PCOD9209948 Si02
#       6
#     8   8   8   8   8   2
#     4  12  26  47  76 107 145 191 247 312 375 450
#     4  11  22  40  68 104 136 189 241 296 356 437
#     4  10  21  38  72 105 138 181 246 298 351 436
#     4  11  22  43  70 107 142 191 245 298 365 438
#     4  11  25  43  68 103 147 193 239 302 369 436
#     4  12  30  48  72 106 140 190 236 312 396 434
#
# _framework density 22.740019
#
# number of rings (size 3 to 8) (size 9 to 14) (size 15 to 20)
#    0.000    0.952    3.810    3.714    2.667    0.000 
#    0.000    1.905   16.762    0.000    0.000    0.000 
#    0.000    0.000    0.000    0.000    0.000    0.000 
#
# Total GULP energy -117048.818277 kJ/mol
# GULP energy per Si atom -5573.753251 kJ/mol
# Density = 2.268826 g / cm^3
# Si number density = 22.740019 Si / 1000 Ang^3
#
#
#
# Elastic Constant Matrix: (Units=GPa)
#
#
# Indices 1 2 3 4 5 6 
#
# 1 118.9527 29.7743 25.7969 0.0000 -4.0113 0.0000
# 2 29.7743 153.4291 15.7103 0.0000 -6.9256 0.0000
# 3 25.7969 15.7103 58.4064 0.0000 -16.6013 0.0000
# 4 0.0000 0.0000 0.0000 -6.5774 0.0000 -15.1744
# 5 -4.0113 -6.9256 -16.6013 0.0000 34.9186 0.0000
# 6 0.0000 0.0000 0.0000 -15.1744 0.0000 33.7805
#
#
#
# Elastic Compliance Matrix: (Units=1/GPa)
#
#
# Indices 1 2 3 4 5 6 
#
# 1 0.009652 -0.001497 -0.004197 0.000000 -0.001183 0.000000
# 2 -0.001497 0.006943 -0.000999 0.000000 0.000730 0.000000
# 3 -0.004197 -0.000999 0.022027 0.000000 0.009792 0.000000
# 4 0.000000 0.000000 0.000000 -0.074661 0.000000 -0.033538
# 5 -0.001183 0.000730 0.009792 0.000000 0.033302 0.000000
# 6 0.000000 0.000000 0.000000 -0.033538 0.000000 0.014537
#
#
# Mechanical properties :
#
#
# Convention : Reuss Voigt Hill
#
# Bulk Modulus (GPa) = 39.62414 52.59459 46.10937
# Shear Modulus (GPa) = 148.82066 29.72477 89.27272
#
# Velocity S-wave (km/s) = 8.09855 3.61938 6.27242
# Velocity P-wave (km/s) = 10.24262 6.37538 8.53102
#
# Compressibility (1/GPa) = 0.02523714
#
# Stress axis : x y z
#
# Youngs Moduli (GPa) = 103.61048 144.02232 45.39894
#
# Poissons Ratio (x) = 0.21555 0.19052
# Poissons Ratio (y) = 0.15507 0.04536
# Poissons Ratio (z) = 0.43482 0.14389
#
# Static dielectric constant tensor:
#      x y z
#    x 1.848230 0.000000 -0.027230 
#    y 0.000000 1.899080 0.000000 
#    z -0.027230 0.000000 1.900750 
# 
# From -- ./inp_files/61844.got.cif
#   From: 2010.05.17/outbox.cif.g08.bks.cpg/sg12_31_cif.got.tgz:61844.got - 2010.06.03 13:09:07.
