data_PCOD9209635
_publ_section_title
;
Structure prediction by ZEFSAII (Michael W. Deem and Ramdas Pophale) SiO2 
 PCOD9209635
Probable space group: C 2/M
;
_chemical_formula_sum "Si O2"
_cell_formula_units_Z 52
_cell_length_a 28.542607
_cell_length_b 9.902657
_cell_length_c 14.844136
_cell_angle_alpha 90.000000
_cell_angle_beta 140.325611
_cell_angle_gamma 90.000000
_cell_volume 2678.609419
_symmetry_space_group_name_H-M "C 2/M"
_symmetry_group_IT_number 12
_symmetry_cell_setting 'monoclinic'
loop_
_space_group_symop_operation_xyz
x,y,z
-x,y,-z
-x,-y,-z
x,-y,z
1/2+x,1/2+y,z
1/2-x,1/2+y,-z
1/2-x,1/2-y,-z
1/2+x,1/2-y,z
loop_
_atom_site_type_symbol
_atom_site_label
_atom_site_fract_x
_atom_site_fract_y
_atom_site_fract_z
Si Si1 0.799213 0.255948 0.184323
Si Si2 0.731155 0.500000 0.969284
Si Si3 0.944361 0.656988 0.501004
Si Si4 0.562081 0.657075 0.016730
Si Si5 0.701758 0.345342 0.490857
Si Si6 0.461353 0.658960 0.695913
Si Si7 0.697618 0.843568 0.187357
O O1 0.814398 0.120545 0.150867
O O2 0.865982 0.293369 0.348542
O O3 0.728663 0.220869 0.142082
O O4 0.779633 0.381496 0.092392
O O5 0.939540 0.500000 0.521568
O O6 0.970209 0.748197 0.622363
O O7 0.000000 0.666810 0.500000
O O8 0.585509 0.500000 0.060498
O O9 0.524662 0.674405 0.863696
O O10 0.500000 0.681476 0.000000
O O11 0.629899 0.757545 0.124069
O O12 0.705059 0.500000 0.462424
O O13 0.750000 0.250000 0.500000
O O14 0.616746 0.306195 0.373200
O O15 0.738034 0.342091 0.643369
O O16 0.457135 0.500000 0.664928
O O17 0.677546 0.000000 0.140959
#
# Coordination Sequence:
#
# PCOD9209635 Si02
#       7
#     8   4   8   8   8   8   8
#     4  11  22  45  63  96 126 167 210 266 312 384
#     4  10  24  38  68  90 130 164 212 262 320 372
#     4  11  25  44  65  92 131 170 213 262 320 381
#     4  10  23  43  66  96 132 170 216 268 321 382
#     4  10  21  38  63  93 123 162 209 258 318 377
#     4  10  22  42  65  92 129 170 213 261 318 381
#     4  11  23  40  67  92 130 168 208 266 319 375
#
# _framework density 19.413057999999999
#
# number of rings (size 3 to 8) (size 9 to 14) (size 15 to 20)
#    0.000    1.538    3.077    0.923    2.154    6.154 
#    2.769    0.000    0.000    0.000    0.000    0.000 
#    0.000    0.000    0.000    0.000    0.000    0.000 
#
# Total GULP energy -144753.613025 kJ/mol
# GULP energy per Si atom -5567.446655 kJ/mol
# Density = 1.936887 g / cm^3
# Si number density = 19.413058 Si / 1000 Ang^3
#
#
#
# Elastic Constant Matrix: (Units=GPa)
#
#
# Indices 1 2 3 4 5 6 
#
# 1 37.8757 33.0588 -1.1369 0.0000 2.5574 0.0000
# 2 33.0588 112.6060 9.8776 0.0000 -5.4157 0.0000
# 3 -1.1369 9.8776 31.0759 0.0000 -4.7504 0.0000
# 4 0.0000 0.0000 0.0000 24.5626 0.0000 4.5044
# 5 2.5574 -5.4157 -4.7504 0.0000 30.2526 0.0000
# 6 0.0000 0.0000 0.0000 4.5044 0.0000 15.4236
#
#
#
# Elastic Compliance Matrix: (Units=1/GPa)
#
#
# Indices 1 2 3 4 5 6 
#
# 1 0.036770 -0.011386 0.004280 0.000000 -0.004475 0.000000
# 2 -0.011386 0.012704 -0.004057 0.000000 0.002600 0.000000
# 3 0.004280 -0.004057 0.034282 0.000000 0.004295 0.000000
# 4 0.000000 0.000000 0.000000 0.043016 0.000000 -0.012563
# 5 -0.004475 0.002600 0.004295 0.000000 0.034573 0.000000
# 6 0.000000 0.000000 0.000000 -0.012563 0.000000 0.068505
#
#
# Mechanical properties :
#
#
# Convention : Reuss Voigt Hill
#
# Bulk Modulus (GPa) = 16.27837 29.46186 22.87012
# Shear Modulus (GPa) = 18.33834 23.36496 20.85165
#
# Velocity S-wave (km/s) = 3.07683 3.47301 3.28091
# Velocity P-wave (km/s) = 4.58541 5.59390 5.11457
#
# Compressibility (1/GPa) = 0.06143120
#
# Stress axis : x y z
#
# Youngs Moduli (GPa) = 27.19572 78.71510 29.16985
#
# Poissons Ratio (x) = 0.89623 -0.12485
# Poissons Ratio (y) = 0.30964 0.11835
# Poissons Ratio (z) = -0.11640 0.31936
#
# Static dielectric constant tensor:
#      x y z
#    x 1.686560 0.000000 -0.012280 
#    y 0.000000 1.651630 0.000000 
#    z -0.012280 0.000000 1.674740 
# 
# From -- ./inp_files/250161.got.cif
#   From: 2010.05.17/outbox.cif.g08.bks.cpg/sg12_126_cif.got.tgz:250161.got - 2010.06.03 13:09:07.
