data_PCOD9209192
_publ_section_title
;
Structure prediction by ZEFSAII (Michael W. Deem and Ramdas Pophale) SiO2 
 PCOD9209192
Probable space group: C 2/M
;
_chemical_formula_sum "Si O2"
_cell_formula_units_Z 64
_cell_length_a 16.748590
_cell_length_b 14.603465
_cell_length_c 10.868799
_cell_angle_alpha 90.000000
_cell_angle_beta 84.453229
_cell_angle_gamma 90.000000
_cell_volume 2645.924321
_symmetry_space_group_name_H-M "C 2/M"
_symmetry_group_IT_number 12
_symmetry_cell_setting 'monoclinic'
loop_
_space_group_symop_operation_xyz
x,y,z
-x,y,-z
-x,-y,-z
x,-y,z
1/2+x,1/2+y,z
1/2-x,1/2+y,-z
1/2-x,1/2-y,-z
1/2+x,1/2-y,z
loop_
_atom_site_type_symbol
_atom_site_label
_atom_site_fract_x
_atom_site_fract_y
_atom_site_fract_z
Si Si1 0.975913 0.295605 0.819738
Si Si2 0.595586 0.601041 0.575302
Si Si3 0.614009 0.891123 0.670447
Si Si4 0.326226 0.890846 0.959435
Si Si5 0.734405 0.389983 0.214176
Si Si6 0.952576 0.104153 0.777233
Si Si7 0.746825 0.604673 0.710669
Si Si8 0.116182 0.286535 0.427029
O O1 0.910407 0.342356 0.916764
O O2 0.987226 0.188876 0.849217
O O3 0.936990 0.296581 0.687493
O O4 0.058295 0.349069 0.785767
O O5 0.611529 0.500000 0.517122
O O6 0.493182 0.602545 0.354238
O O7 0.655100 0.609385 0.683512
O O8 0.613248 0.686441 0.487103
O O9 0.706475 0.864344 0.683917
O O10 0.590082 0.852222 0.542237
O O11 0.606290 0.000000 0.674121
O O12 0.268585 0.880330 0.849201
O O13 0.341348 0.000000 0.972131
O O14 0.277800 0.855587 0.084359
O O15 0.736801 0.500000 0.209225
O O16 0.640584 0.369227 0.229889
O O17 0.955721 0.000000 0.826507
O O18 0.774383 0.500000 0.676720
O O19 0.797114 0.677335 0.626284
#
# Coordination Sequence:
#
# PCOD9209192 Si02
#       8
#     8   8   8   8   8   8   8   8
#     4  11  23  39  61  94 126 166 211 256 323 377
#     4  10  21  38  61  88 127 173 216 259 307 373
#     4  11  23  39  63  95 129 164 208 259 317 381
#     4   9  19  39  66  94 128 165 207 262 321 382
#     4   9  21  42  67  93 124 166 213 264 319 372
#     4  10  22  42  63  87 126 169 214 262 309 370
#     4   9  19  36  62  97 130 168 209 254 318 382
#     4  11  22  38  60  90 132 166 208 257 316 380
#
# _framework density 24.188146
#
# number of rings (size 3 to 8) (size 9 to 14) (size 15 to 20)
#    0.000    2.000    1.250    1.500    0.000    6.500 
#    0.000    6.250    2.750    3.750    0.000    0.000 
#    0.000    0.000    0.000    0.000    0.000    0.000 
#
# Total GULP energy -179102.938994 kJ/mol
# GULP energy per Si atom -5596.966844 kJ/mol
# Density = 2.413309 g / cm^3
# Si number density = 24.188146 Si / 1000 Ang^3
#
#
#
# Elastic Constant Matrix: (Units=GPa)
#
#
# Indices 1 2 3 4 5 6 
#
# 1 99.1143 52.3808 15.5534 0.0000 -18.0633 0.0000
# 2 52.3808 145.7860 36.1805 0.0000 -10.3113 0.0000
# 3 15.5534 36.1805 69.5690 0.0000 -13.0349 0.0000
# 4 0.0000 0.0000 0.0000 37.5065 0.0000 -21.9105
# 5 -18.0633 -10.3113 -13.0349 0.0000 26.0095 0.0000
# 6 0.0000 0.0000 0.0000 -21.9105 0.0000 39.1603
#
#
#
# Elastic Compliance Matrix: (Units=1/GPa)
#
#
# Indices 1 2 3 4 5 6 
#
# 1 0.013902 -0.004620 0.000839 0.000000 0.008244 0.000000
# 2 -0.004620 0.009444 -0.004170 0.000000 -0.001554 0.000000
# 3 0.000839 -0.004170 0.017829 0.000000 0.007865 0.000000
# 4 0.000000 0.000000 0.000000 0.039608 0.000000 0.022161
# 5 0.008244 -0.001554 0.007865 0.000000 0.047498 0.000000
# 6 0.000000 0.000000 0.000000 0.022161 0.000000 0.037935
#
#
# Mechanical properties :
#
#
# Convention : Reuss Voigt Hill
#
# Bulk Modulus (GPa) = 39.56722 58.07763 48.82242
# Shear Modulus (GPa) = 26.24090 34.55889 30.39989
#
# Velocity S-wave (km/s) = 3.29730 3.78399 3.54900
# Velocity P-wave (km/s) = 5.55787 6.56919 6.08458
#
# Compressibility (1/GPa) = 0.02527345
#
# Stress axis : x y z
#
# Youngs Moduli (GPa) = 71.93356 105.88353 56.08876
#
# Poissons Ratio (x) = 0.48920 -0.04708
# Poissons Ratio (y) = 0.33234 0.23389
# Poissons Ratio (z) = -0.06038 0.44154
#
# Static dielectric constant tensor:
#      x y z
#    x 1.930720 0.000000 0.014080 
#    y 0.000000 1.933780 0.000000 
#    z 0.014080 0.000000 1.925560 
# 
# From -- ./inp_files/156611.got.cif
#   From: 2010.05.17/outbox.cif.g08.bks.cpg/sg12_79_cif.got.tgz:156611.got - 2010.06.03 13:09:07.
