data_PCOD9209539
_publ_section_title
;
Structure prediction by ZEFSAII (Michael W. Deem and Ramdas Pophale) SiO2 
 PCOD9209539
Probable space group: C 2/M
;
_chemical_formula_sum "Si O2"
_cell_formula_units_Z 50
_cell_length_a 29.590622
_cell_length_b 7.700574
_cell_length_c 11.905260
_cell_angle_alpha 90.000000
_cell_angle_beta 128.515185
_cell_angle_gamma 90.000000
_cell_volume 2122.603459
_symmetry_space_group_name_H-M "C 2/M"
_symmetry_group_IT_number 12
_symmetry_cell_setting 'monoclinic'
loop_
_space_group_symop_operation_xyz
x,y,z
-x,y,-z
-x,-y,-z
x,-y,z
1/2+x,1/2+y,z
1/2-x,1/2+y,-z
1/2-x,1/2-y,-z
1/2+x,1/2-y,z
loop_
_atom_site_type_symbol
_atom_site_label
_atom_site_fract_x
_atom_site_fract_y
_atom_site_fract_z
Si Si1 0.362832 0.708723 0.892706
Si Si2 0.921911 0.803581 0.325725
Si Si3 0.193607 0.793258 0.981057
Si Si4 0.682599 0.291912 0.414144
Si Si5 0.000000 0.500000 0.500000
Si Si6 0.088857 0.297298 0.440142
Si Si7 0.507818 0.207684 0.884809
O O1 0.359267 0.500000 0.879686
O O2 0.351531 0.773619 0.749672
O O3 0.314881 0.775363 0.905972
O O4 0.425736 0.752440 0.038659
O O5 0.862735 0.746299 0.176623
O O6 0.968468 0.655475 0.377164
O O7 0.910906 0.802061 0.442703
O O8 0.937853 0.000000 0.315282
O O9 0.192596 0.000000 0.989462
O O10 0.250000 0.750000 0.000000
O O11 0.676914 0.500000 0.414457
O O12 0.750000 0.250000 0.500000
O O13 0.650102 0.212578 0.471083
O O14 0.076240 0.500000 0.453819
O O15 0.040727 0.230596 0.277503
O O16 0.500020 0.000000 0.876483
O O17 0.500000 0.276459 0.000000
#
# Coordination Sequence:
#
# PCOD9209539 Si02
#       7
#     8   8   8   8   2   8   8
#     4  10  23  42  64  94 128 170 218 272 337 397
#     4  11  26  46  71 105 140 185 236 287 350 420
#     4  10  25  46  69  97 134 181 236 290 345 414
#     4  11  24  41  64  94 130 173 222 278 340 409
#     4  12  26  48  72 102 142 188 234 290 354 408
#     4  11  23  42  67  97 137 179 219 276 344 406
#     4  10  21  38  62  94 131 169 214 265 326 399
#
# _framework density 23.555980000000002
#
# number of rings (size 3 to 8) (size 9 to 14) (size 15 to 20)
#    0.000    1.440    2.400    1.200    5.600    2.880 
#    0.000    0.000    0.000    0.000    0.000    0.000 
#    0.000    0.000    0.000    0.000    0.000    0.000 
#
# Total GULP energy -139671.753380 kJ/mol
# GULP energy per Si atom -5586.870135 kJ/mol
# Density = 2.350237 g / cm^3
# Si number density = 23.555980 Si / 1000 Ang^3
#
#
#
# Elastic Constant Matrix: (Units=GPa)
#
#
# Indices 1 2 3 4 5 6 
#
# 1 112.5154 1.1831 6.3997 0.0000 -0.9703 0.0000
# 2 1.1831 85.4668 12.1571 0.0000 8.1566 0.0000
# 3 6.3997 12.1571 54.3680 0.0000 -5.4724 0.0000
# 4 0.0000 0.0000 0.0000 19.5360 0.0000 9.1876
# 5 -0.9703 8.1566 -5.4724 0.0000 41.6368 0.0000
# 6 0.0000 0.0000 0.0000 9.1876 0.0000 36.6096
#
#
#
# Elastic Compliance Matrix: (Units=1/GPa)
#
#
# Indices 1 2 3 4 5 6 
#
# 1 0.008948 0.000019 -0.001051 0.000000 0.000067 0.000000
# 2 0.000019 0.012406 -0.003061 0.000000 -0.002832 0.000000
# 3 -0.001051 -0.003061 0.019518 0.000000 0.003140 0.000000
# 4 0.000000 0.000000 0.000000 0.058037 0.000000 -0.014565
# 5 0.000067 -0.002832 0.003140 0.000000 0.024986 0.000000
# 6 0.000000 0.000000 0.000000 -0.014565 0.000000 0.030971
#
#
# Mechanical properties :
#
#
# Convention : Reuss Voigt Hill
#
# Bulk Modulus (GPa) = 30.59480 32.42553 31.51017
# Shear Modulus (GPa) = 28.74442 35.06383 31.90413
#
# Velocity S-wave (km/s) = 3.49701 3.86234 3.68420
# Velocity P-wave (km/s) = 5.41496 5.80391 5.61280
#
# Compressibility (1/GPa) = 0.03268529
#
# Stress axis : x y z
#
# Youngs Moduli (GPa) = 111.75908 80.60655 51.23604
#
# Poissons Ratio (x) = -0.00155 0.05384
# Poissons Ratio (y) = -0.00215 0.15685
# Poissons Ratio (z) = 0.11744 0.24677
#
# Static dielectric constant tensor:
#      x y z
#    x 1.595970 0.000000 0.006300 
#    y 0.000000 1.869930 0.000000 
#    z 0.006300 0.000000 1.858980 
# 
# From -- ./inp_files/181234.got.cif
#   From: 2010.05.17/outbox.cif.g08.bks.cpg/sg12_91_cif.got.tgz:181234.got - 2010.06.03 13:09:07.
