data_PCOD9209049
_publ_section_title
;
Structure prediction by ZEFSAII (Michael W. Deem and Ramdas Pophale) SiO2 
 PCOD9209049
Probable space group: C 2/M
;
_chemical_formula_sum "Si O2"
_cell_formula_units_Z 40
_cell_length_a 26.549934
_cell_length_b 13.771634
_cell_length_c 11.401604
_cell_angle_alpha 90.000000
_cell_angle_beta 153.766736
_cell_angle_gamma 90.000000
_cell_volume 1842.737062
_symmetry_space_group_name_H-M "C 2/M"
_symmetry_group_IT_number 12
_symmetry_cell_setting 'monoclinic'
loop_
_space_group_symop_operation_xyz
x,y,z
-x,y,-z
-x,-y,-z
x,-y,z
1/2+x,1/2+y,z
1/2-x,1/2+y,-z
1/2-x,1/2-y,-z
1/2+x,1/2-y,z
loop_
_atom_site_type_symbol
_atom_site_label
_atom_site_fract_x
_atom_site_fract_y
_atom_site_fract_z
Si Si1 0.257655 0.361087 0.049459
Si Si2 0.795003 0.898520 0.862503
Si Si3 0.544181 0.319345 0.359809
Si Si4 0.926547 0.389543 0.139454
Si Si5 0.768108 0.790271 0.408655
O O1 0.368297 0.365269 0.363521
O O2 0.250000 0.250000 0.000000
O O3 0.270327 0.405447 0.948527
O O4 0.147468 0.389395 0.895027
O O5 0.740107 0.803224 0.693550
O O6 0.760088 0.000000 0.732029
O O7 0.928418 0.878713 0.123997
O O8 0.509212 0.205476 0.313233
O O9 0.607770 0.329176 0.367499
O O10 0.972741 0.500000 0.220145
O O11 0.832383 0.362808 0.842488
O O12 0.750000 0.750000 0.500000
#
# Coordination Sequence:
#
# PCOD9209049 Si02
#       5
#     8   8   8   8   8
#     4  11  19  38  59  86 124 156 182 231 289 348
#     4  11  23  37  60  91 118 150 196 237 285 345
#     4  10  21  38  61  83 119 152 195 235 291 341
#     4  10  22  38  60  90 119 153 194 235 286 348
#     4  10  23  43  62  80 116 157 194 244 294 336
#
# _framework density 21.70684
#
# number of rings (size 3 to 8) (size 9 to 14) (size 15 to 20)
#    0.000    1.600    6.000    1.200    0.000    9.600 
#    0.000    3.000    0.000    0.000    0.000    0.000 
#    0.000    0.000    0.000    0.000    0.000    0.000 
#
# Total GULP energy -111564.650555 kJ/mol
# GULP energy per Si atom -5578.232528 kJ/mol
# Density = 2.165743 g / cm^3
# Si number density = 21.706840 Si / 1000 Ang^3
#
#
#
# Elastic Constant Matrix: (Units=GPa)
#
#
# Indices 1 2 3 4 5 6 
#
# 1 146.4477 -12.9950 26.7778 0.0000 -2.8514 0.0000
# 2 -12.9950 108.0055 -18.0953 0.0000 -8.4301 0.0000
# 3 26.7778 -18.0953 43.5689 0.0000 15.0014 0.0000
# 4 0.0000 0.0000 0.0000 -26.0669 0.0000 -6.7091
# 5 -2.8514 -8.4301 15.0014 0.0000 19.9569 0.0000
# 6 0.0000 0.0000 0.0000 -6.7091 0.0000 -4.8863
#
#
#
# Elastic Compliance Matrix: (Units=1/GPa)
#
#
# Indices 1 2 3 4 5 6 
#
# 1 0.008333 0.000305 -0.007352 0.000000 0.006846 0.000000
# 2 0.000305 0.009995 0.003366 0.000000 0.001735 0.000000
# 3 -0.007352 0.003366 0.038777 0.000000 -0.028777 0.000000
# 4 0.000000 0.000000 0.000000 -0.059330 0.000000 0.081462
# 5 0.006846 0.001735 -0.028777 0.000000 0.073450 0.000000
# 6 0.000000 0.000000 0.000000 0.081462 0.000000 -0.316503
#
#
# Mechanical properties :
#
#
# Convention : Reuss Voigt Hill
#
# Bulk Modulus (GPa) = 20.10308 32.15521 26.12915
# Shear Modulus (GPa) = -22.59017 17.95638 -2.31689
#
# Velocity S-wave (km/s) = -3.22948 2.87927 -1.03425
# Velocity P-wave (km/s) = 2.15053 5.08912 3.26147
#
# Compressibility (1/GPa) = 0.04974362
#
# Stress axis : x y z
#
# Youngs Moduli (GPa) = 120.00419 100.05086 25.78849
#
# Poissons Ratio (x) = -0.03054 0.18960
# Poissons Ratio (y) = -0.03663 -0.08681
# Poissons Ratio (z) = 0.88226 -0.33678
#
# Static dielectric constant tensor:
#      x y z
#    x 1.796000 0.000000 0.027440 
#    y 0.000000 1.751020 0.000000 
#    z 0.027440 0.000000 1.879770 
# 
# From -- ./inp_files/176534.got.cif
#   From: 2010.05.17/outbox.cif.g08.bks.cpg/sg12_89_cif.got.tgz:176534.got - 2010.06.03 13:09:07.
