data_PCOD9209083
_publ_section_title
;
Structure prediction by ZEFSAII (Michael W. Deem and Ramdas Pophale) SiO2 
 PCOD9209083
Probable space group: C 2/M
;
_chemical_formula_sum "Si O2"
_cell_formula_units_Z 24
_cell_length_a 19.182319
_cell_length_b 14.192242
_cell_length_c 17.061123
_cell_angle_alpha 90.000000
_cell_angle_beta 165.520114
_cell_angle_gamma 90.000000
_cell_volume 1161.366838
_symmetry_space_group_name_H-M "C 2/M"
_symmetry_group_IT_number 12
_symmetry_cell_setting 'monoclinic'
loop_
_space_group_symop_operation_xyz
x,y,z
-x,y,-z
-x,-y,-z
x,-y,z
1/2+x,1/2+y,z
1/2-x,1/2+y,-z
1/2-x,1/2-y,-z
1/2+x,1/2-y,z
loop_
_atom_site_type_symbol
_atom_site_label
_atom_site_fract_x
_atom_site_fract_y
_atom_site_fract_z
Si Si1 0.056311 0.216491 0.718138
Si Si2 0.502054 0.888337 0.096247
Si Si3 0.808660 0.396792 0.368035
O O1 0.801782 0.144421 0.456368
O O2 0.905358 0.310966 0.525089
O O3 0.250000 0.250000 0.000000
O O4 0.256737 0.170133 0.870824
O O5 0.459505 0.000000 0.061986
O O6 0.500000 0.870829 0.000000
O O7 0.825388 0.500000 0.425544
O O8 0.000000 0.398645 0.500000
O O9 0.500000 0.382839 0.000000
#
# Coordination Sequence:
#
# PCOD9209083 Si02
#       3
#     8   8   8
#     4  12  24  40  63  95 130 163 203 260 322 372
#     4  11  24  43  67  92 124 169 216 258 305 372
#     4  10  21  38  61  86 115 158 206 249 298 362
#
# _framework density 20.665303999999999
#
# number of rings (size 3 to 8) (size 9 to 14) (size 15 to 20)
#    0.000    1.000    0.000    8.000    0.000    5.333 
#    0.000    3.333    0.000    0.000    0.000    0.000 
#    0.000    0.000    0.000    0.000    0.000    0.000 
#
# Total GULP energy -67128.729940 kJ/mol
# GULP energy per Si atom -5594.060828 kJ/mol
# Density = 2.061827 g / cm^3
# Si number density = 20.665304 Si / 1000 Ang^3
#
#
#
# Elastic Constant Matrix: (Units=GPa)
#
#
# Indices 1 2 3 4 5 6 
#
# 1 42.1274 47.6482 29.1951 -0.0200 10.5244 0.0138
# 2 47.6482 167.3202 54.9958 -0.0464 -5.5624 0.0144
# 3 29.1951 54.9958 128.5766 -0.0607 25.5078 0.0098
# 4 -0.0200 -0.0464 -0.0607 38.3187 -0.0066 9.3285
# 5 10.5244 -5.5624 25.5078 -0.0066 34.4459 0.0305
# 6 0.0138 0.0144 0.0098 9.3285 0.0305 4.6597
#
#
#
# Elastic Compliance Matrix: (Units=1/GPa)
#
#
# Indices 1 2 3 4 5 6 
#
# 1 0.041476 -0.011655 -0.001811 0.000003 -0.013213 -0.000002
# 2 -0.011655 0.010707 -0.003496 0.000026 0.007879 -0.000094
# 3 -0.001811 -0.003496 0.011354 0.000000 -0.008419 0.000048
# 4 0.000003 0.000026 0.000000 0.050907 0.000104 -0.101913
# 5 -0.013213 0.007879 -0.008419 0.000104 0.040576 -0.000441
# 6 -0.000002 -0.000094 0.000048 -0.101913 -0.000441 0.418629
#
#
# Mechanical properties :
#
#
# Convention : Reuss Voigt Hill
#
# Bulk Modulus (GPa) = 33.76970 66.85581 50.31275
# Shear Modulus (GPa) = 8.09789 29.23054 18.66421
#
# Velocity S-wave (km/s) = 1.98169 3.76503 3.00853
# Velocity P-wave (km/s) = 4.64896 7.16398 6.03885
#
# Compressibility (1/GPa) = 0.02961235
#
# Stress axis : x y z
#
# Youngs Moduli (GPa) = 24.11009 93.39874 88.07161
#
# Poissons Ratio (x) = 1.08859 0.15951
# Poissons Ratio (y) = 0.28101 0.30791
# Poissons Ratio (z) = 0.04367 0.32654
#
# Static dielectric constant tensor:
#      x y z
#    x 1.712590 -0.000010 0.008740 
#    y -0.000010 1.760470 -0.000020 
#    z 0.008740 -0.000020 1.690920 
# 
# From -- ./inp_files/9228.got.cif
#   From: 2010.05.17/outbox.cif.g08.bks.cpg/sg12_5_cif.got.tgz:9228.got - 2010.06.03 13:09:07.
