data_PCOD9209904
_publ_section_title
;
Structure prediction by ZEFSAII (Michael W. Deem and Ramdas Pophale) SiO2 
 PCOD9209904
Probable space group: C 2/M
;
_chemical_formula_sum "Si O2"
_cell_formula_units_Z 48
_cell_length_a 15.282509
_cell_length_b 11.072450
_cell_length_c 21.359940
_cell_angle_alpha 90.000000
_cell_angle_beta 42.031513
_cell_angle_gamma 90.000000
_cell_volume 2419.994900
_symmetry_space_group_name_H-M "C 2/M"
_symmetry_group_IT_number 12
_symmetry_cell_setting 'monoclinic'
loop_
_space_group_symop_operation_xyz
x,y,z
-x,y,-z
-x,-y,-z
x,-y,z
1/2+x,1/2+y,z
1/2-x,1/2+y,-z
1/2-x,1/2-y,-z
1/2+x,1/2-y,z
loop_
_atom_site_type_symbol
_atom_site_label
_atom_site_fract_x
_atom_site_fract_y
_atom_site_fract_z
Si Si1 0.932770 0.858993 0.888254
Si Si2 0.454550 0.500000 0.425192
Si Si3 0.869777 0.779435 0.391838
Si Si4 0.214663 0.640242 0.104401
Si Si5 0.299017 0.737797 0.290832
Si Si6 0.882472 0.361271 0.710645
Si Si7 0.277374 0.500000 0.639828
O O1 0.868728 0.752613 0.879402
O O2 0.083517 0.821099 0.810698
O O3 0.921162 0.000000 0.872144
O O4 0.853422 0.853391 0.995432
O O5 0.445567 0.387285 0.384475
O O6 0.332556 0.500000 0.539165
O O7 0.588529 0.500000 0.391921
O O8 0.750000 0.750000 0.500000
O O9 0.816563 0.812190 0.351747
O O10 0.975896 0.673021 0.337320
O O11 0.166028 0.500000 0.118975
O O12 0.214020 0.656916 0.179140
O O13 0.166298 0.710138 0.324270
O O14 0.302758 0.881048 0.300243
O O15 0.881545 0.500000 0.692912
#
# Coordination Sequence:
#
# PCOD9209904 Si02
#       7
#     8   4   8   8   8   8   4
#     4  10  21  38  67 101 132 171 218 269 327 389
#     4  11  24  46  66  89 131 174 220 274 331 390
#     4  12  26  42  66  94 127 169 215 269 329 382
#     4   9  20  41  67  96 134 174 216 267 325 392
#     4  12  25  42  66  98 130 173 221 267 326 396
#     4  11  25  44  65  97 131 167 217 269 322 392
#     4  11  24  44  68  91 129 177 223 267 334 400
#
# _framework density 19.834752000000002
#
# number of rings (size 3 to 8) (size 9 to 14) (size 15 to 20)
#    0.000    1.167    5.000    0.500    5.833    1.333 
#    1.500    3.333    0.000    1.000    0.000    0.000 
#    0.000    0.000    0.000    0.000    0.000    0.000 
#
# Total GULP energy -133843.313811 kJ/mol
# GULP energy per Si atom -5576.804742 kJ/mol
# Density = 1.978961 g / cm^3
# Si number density = 19.834752 Si / 1000 Ang^3
#
#
#
# Elastic Constant Matrix: (Units=GPa)
#
#
# Indices 1 2 3 4 5 6 
#
# 1 100.4277 24.3741 36.7316 0.0000 15.2961 0.0000
# 2 24.3741 105.8506 24.8916 0.0000 10.5627 0.0000
# 3 36.7316 24.8916 71.2666 0.0000 -0.2381 0.0000
# 4 0.0000 0.0000 0.0000 25.6503 0.0000 0.8542
# 5 15.2961 10.5627 -0.2381 0.0000 22.4635 0.0000
# 6 0.0000 0.0000 0.0000 0.8542 0.0000 19.7056
#
#
#
# Elastic Compliance Matrix: (Units=1/GPa)
#
#
# Indices 1 2 3 4 5 6 
#
# 1 0.014141 -0.000650 -0.007093 0.000000 -0.009398 0.000000
# 2 -0.000650 0.010886 -0.003483 0.000000 -0.004713 0.000000
# 3 -0.007093 -0.003483 0.018926 0.000000 0.006668 0.000000
# 4 0.000000 0.000000 0.000000 0.039042 0.000000 -0.001692
# 5 -0.009398 -0.004713 0.006668 0.000000 0.053203 0.000000
# 6 0.000000 0.000000 0.000000 -0.001692 0.000000 0.050820
#
#
# Mechanical properties :
#
#
# Convention : Reuss Voigt Hill
#
# Bulk Modulus (GPa) = 46.50806 49.94884 48.22845
# Shear Modulus (GPa) = 23.07998 26.33371 24.70685
#
# Velocity S-wave (km/s) = 3.41488 3.64765 3.53318
# Velocity P-wave (km/s) = 6.24878 6.55573 6.40409
#
# Compressibility (1/GPa) = 0.02150165
#
# Stress axis : x y z
#
# Youngs Moduli (GPa) = 70.71710 91.85798 52.83699
#
# Poissons Ratio (x) = 0.05975 0.37475
# Poissons Ratio (y) = 0.04600 0.18402
# Poissons Ratio (z) = 0.50157 0.31992
#
# Static dielectric constant tensor:
#      x y z
#    x 1.670530 0.000000 -0.001560 
#    y 0.000000 1.766010 0.000000 
#    z -0.001560 0.000000 1.692940 
# 
# From -- ./inp_files/310227.got.cif
#   From: 2010.05.17/outbox.cif.g08.bks.cpg/sg12_156_cif.got.tgz:310227.got - 2010.06.03 13:09:07.
