data_PCOD9209674
_publ_section_title
;
Structure prediction by ZEFSAII (Michael W. Deem and Ramdas Pophale) SiO2 
 PCOD9209674
Probable space group: C 2/M
;
_chemical_formula_sum "Si O2"
_cell_formula_units_Z 32
_cell_length_a 12.990678
_cell_length_b 10.632820
_cell_length_c 14.105304
_cell_angle_alpha 90.000000
_cell_angle_beta 137.089061
_cell_angle_gamma 90.000000
_cell_volume 1326.542006
_symmetry_space_group_name_H-M "C 2/M"
_symmetry_group_IT_number 12
_symmetry_cell_setting 'monoclinic'
loop_
_space_group_symop_operation_xyz
x,y,z
-x,y,-z
-x,-y,-z
x,-y,z
1/2+x,1/2+y,z
1/2-x,1/2+y,-z
1/2-x,1/2-y,-z
1/2+x,1/2-y,z
loop_
_atom_site_type_symbol
_atom_site_label
_atom_site_fract_x
_atom_site_fract_y
_atom_site_fract_z
Si Si1 0.882357 0.639661 0.507297
Si Si2 0.561553 0.309790 0.945546
Si Si3 0.387106 0.287098 0.220845
Si Si4 0.213342 0.358431 0.287625
O O1 0.814764 0.500000 0.475013
O O2 0.774001 0.752472 0.400811
O O3 0.000000 0.628550 0.500000
O O4 0.985936 0.687367 0.663082
O O5 0.559761 0.361389 0.836921
O O6 0.450293 0.188216 0.860130
O O7 0.500000 0.372474 0.000000
O O8 0.735329 0.283783 0.086068
O O9 0.331428 0.356531 0.278307
O O10 0.208234 0.500000 0.320951
#
# Coordination Sequence:
#
# PCOD9209674 Si02
#       4
#     8   8   8   8
#     4   9  19  37  60  87 124 167 207 251 309 375
#     4   9  19  37  59  87 124 163 204 253 310 370
#     4   9  19  36  59  87 123 164 203 250 311 371
#     4  10  21  38  63  95 127 160 205 260 314 370
#
# _framework density 24.122869999999999
#
# number of rings (size 3 to 8) (size 9 to 14) (size 15 to 20)
#    0.000    2.750    0.000    0.000    0.000   11.000 
#    0.000    8.750    0.000   11.250    0.000    0.000 
#    0.000    0.000    0.000    0.000    0.000    0.000 
#
# Total GULP energy -89193.920301 kJ/mol
# GULP energy per Si atom -5574.620019 kJ/mol
# Density = 2.406797 g / cm^3
# Si number density = 24.122870 Si / 1000 Ang^3
#
#
#
# Elastic Constant Matrix: (Units=GPa)
#
#
# Indices 1 2 3 4 5 6 
#
# 1 152.7312 31.3243 46.4166 0.0000 -27.3957 0.0000
# 2 31.3243 208.8744 102.7523 0.0000 7.1740 0.0000
# 3 46.4166 102.7523 163.8412 0.0000 -1.9518 0.0000
# 4 0.0000 0.0000 0.0000 -49.3561 0.0000 -25.6034
# 5 -27.3957 7.1740 -1.9518 0.0000 50.6914 0.0000
# 6 0.0000 0.0000 0.0000 -25.6034 0.0000 -56.2337
#
#
#
# Elastic Compliance Matrix: (Units=1/GPa)
#
#
# Indices 1 2 3 4 5 6 
#
# 1 0.007997 -0.000373 -0.001981 0.000000 0.004298 0.000000
# 2 -0.000373 0.007008 -0.004306 0.000000 -0.001359 0.000000
# 3 -0.001981 -0.004306 0.009364 0.000000 -0.000101 0.000000
# 4 0.000000 0.000000 0.000000 -0.026526 0.000000 0.012077
# 5 0.004298 -0.001359 -0.000101 0.000000 0.022239 0.000000
# 6 0.000000 0.000000 0.000000 0.012077 0.000000 -0.023282
#
#
# Mechanical properties :
#
#
# Convention : Reuss Voigt Hill
#
# Bulk Modulus (GPa) = 90.49156 98.49257 94.49206
# Shear Modulus (GPa) = 362.28344 12.01724 187.15034
#
# Velocity S-wave (km/s) = 12.26819 2.23439 8.81763
# Velocity P-wave (km/s) = 15.43607 6.89745 11.95507
#
# Compressibility (1/GPa) = 0.01105075
#
# Stress axis : x y z
#
# Youngs Moduli (GPa) = 125.05015 142.68765 106.79404
#
# Poissons Ratio (x) = 0.05315 0.21152
# Poissons Ratio (y) = 0.04658 0.45984
# Poissons Ratio (z) = 0.24768 0.61440
#
# Static dielectric constant tensor:
#      x y z
#    x 1.996580 0.000000 -0.071310 
#    y 0.000000 1.863000 0.000000 
#    z -0.071310 0.000000 1.892500 
# 
# From -- ./inp_files/213101.got.cif
#   From: 2010.05.17/outbox.cif.g08.bks.cpg/sg12_107_cif.got.tgz:213101.got - 2010.06.03 13:09:07.
