data_PCOD9209860
_publ_section_title
;
Structure prediction by ZEFSAII (Michael W. Deem and Ramdas Pophale) SiO2 
 PCOD9209860
Probable space group: C 2/M
;
_chemical_formula_sum "Si O2"
_cell_formula_units_Z 32
_cell_length_a 30.991374
_cell_length_b 7.658322
_cell_length_c 23.275552
_cell_angle_alpha 90.000000
_cell_angle_beta 164.118699
_cell_angle_gamma 90.000000
_cell_volume 1511.689114
_symmetry_space_group_name_H-M "C 2/M"
_symmetry_group_IT_number 12
_symmetry_cell_setting 'monoclinic'
loop_
_space_group_symop_operation_xyz
x,y,z
-x,y,-z
-x,-y,-z
x,-y,z
1/2+x,1/2+y,z
1/2-x,1/2+y,-z
1/2-x,1/2-y,-z
1/2+x,1/2-y,z
loop_
_atom_site_type_symbol
_atom_site_label
_atom_site_fract_x
_atom_site_fract_y
_atom_site_fract_z
Si Si1 0.813247 0.000000 0.261852
Si Si2 0.488258 0.790286 0.293994
Si Si3 0.532586 0.000000 0.974536
Si Si4 0.290481 0.196722 0.146286
Si Si5 0.191096 0.206945 0.360016
O O1 0.763653 0.830174 0.162528
O O2 0.000000 0.000000 0.500000
O O3 0.717902 0.000000 0.198477
O O4 0.436371 0.745559 0.292260
O O5 0.663420 0.753247 0.496926
O O6 0.464507 0.000000 0.258436
O O7 0.362128 0.702475 0.090278
O O8 0.450806 0.168215 0.840246
O O9 0.500000 0.000000 0.000000
O O10 0.318010 0.000000 0.201660
O O11 0.250000 0.250000 0.500000
O O12 0.154896 0.000000 0.310500
#
# Coordination Sequence:
#
# PCOD9209860 Si02
#       5
#     4   8   4   8   8
#     4  12  28  46  66  90 138 181 228 266 329 417
#     4   9  19  36  64 103 135 162 217 282 340 394
#     4  12  30  48  68 106 143 185 232 281 355 421
#     4  10  21  38  65  99 131 170 220 281 333 389
#     4  11  23  42  71 103 139 181 232 287 342 412
#
# _framework density 21.168375000000001
#
# number of rings (size 3 to 8) (size 9 to 14) (size 15 to 20)
#    0.000    1.500    2.500    1.500    7.000    4.000 
#    0.000    0.000    0.000    0.000    0.000    0.000 
#    0.000    0.000    0.000    0.000    0.000    0.000 
#
# Total GULP energy -89471.386195 kJ/mol
# GULP energy per Si atom -5591.961637 kJ/mol
# Density = 2.112019 g / cm^3
# Si number density = 21.168375 Si / 1000 Ang^3
#
#
#
# Elastic Constant Matrix: (Units=GPa)
#
#
# Indices 1 2 3 4 5 6 
#
# 1 118.7718 42.1307 34.7827 0.0001 22.7808 0.0000
# 2 42.1307 94.3947 31.1288 0.0000 7.8432 0.0000
# 3 34.7827 31.1288 77.2163 0.0004 25.9197 0.0001
# 4 0.0001 0.0000 0.0004 21.9342 0.0002 7.1206
# 5 22.7808 7.8432 25.9197 0.0002 38.9336 0.0000
# 6 0.0000 0.0000 0.0001 7.1206 0.0000 8.1315
#
#
#
# Elastic Compliance Matrix: (Units=1/GPa)
#
#
# Indices 1 2 3 4 5 6 
#
# 1 0.011277 -0.004016 -0.001954 0.000000 -0.004488 0.000000
# 2 -0.004016 0.013682 -0.004598 0.000000 0.002654 0.000000
# 3 -0.001954 -0.004598 0.019304 0.000000 -0.010781 0.000000
# 4 0.000000 0.000000 0.000000 0.063699 0.000000 -0.055780
# 5 -0.004488 0.002654 -0.010781 0.000000 0.034954 0.000000
# 6 0.000000 0.000000 0.000000 -0.055780 0.000000 0.171825
#
#
# Mechanical properties :
#
#
# Convention : Reuss Voigt Hill
#
# Bulk Modulus (GPa) = 43.23975 56.27411 49.75693
# Shear Modulus (GPa) = 14.55242 25.95589 20.25415
#
# Velocity S-wave (km/s) = 2.62479 3.50546 3.09659
# Velocity P-wave (km/s) = 5.44582 6.55943 6.02839
#
# Compressibility (1/GPa) = 0.02312687
#
# Stress axis : x y z
#
# Youngs Moduli (GPa) = 88.67413 73.08953 51.80394
#
# Poissons Ratio (x) = 0.29352 0.10124
# Poissons Ratio (y) = 0.35611 0.23818
# Poissons Ratio (z) = 0.17329 0.33604
#
# Static dielectric constant tensor:
#      x y z
#    x 1.758430 0.000000 0.029290 
#    y 0.000000 1.722030 0.000000 
#    z 0.029290 0.000000 1.789020 
# 
# From -- ./inp_files/327398.got.cif
#   From: 2010.05.17/outbox.cif.g08.bks.cpg/sg12_164_cif.got.tgz:327398.got - 2010.06.03 13:09:07.
