data_PCOD9209431
_publ_section_title
;
Structure prediction by ZEFSAII (Michael W. Deem and Ramdas Pophale) SiO2 
 PCOD9209431
Probable space group: C 2/M
;
_chemical_formula_sum "Si O2"
_cell_formula_units_Z 48
_cell_length_a 18.884208
_cell_length_b 15.828354
_cell_length_c 9.978139
_cell_angle_alpha 90.000000
_cell_angle_beta 131.665004
_cell_angle_gamma 90.000000
_cell_volume 2228.078420
_symmetry_space_group_name_H-M "C 2/M"
_symmetry_group_IT_number 12
_symmetry_cell_setting 'monoclinic'
loop_
_space_group_symop_operation_xyz
x,y,z
-x,y,-z
-x,-y,-z
x,-y,z
1/2+x,1/2+y,z
1/2-x,1/2+y,-z
1/2-x,1/2-y,-z
1/2+x,1/2-y,z
loop_
_atom_site_type_symbol
_atom_site_label
_atom_site_fract_x
_atom_site_fract_y
_atom_site_fract_z
Si Si1 0.592878 0.406034 0.833698
Si Si2 0.962518 0.724380 0.310677
Si Si3 0.247371 0.404981 0.328792
Si Si4 0.087461 0.723069 0.206615
Si Si5 0.097304 0.092627 0.256459
Si Si6 0.794920 0.403555 0.034160
O O1 0.585545 0.500000 0.759746
O O2 0.567897 0.322487 0.719545
O O3 0.514759 0.406813 0.852706
O O4 0.702640 0.396252 0.012357
O O5 0.000000 0.694982 0.500000
O O6 0.043669 0.719677 0.299918
O O7 0.874069 0.666216 0.157363
O O8 0.210492 0.500000 0.306140
O O9 0.175285 0.338091 0.299179
O O10 0.347320 0.400710 0.531017
O O11 0.247429 0.393014 0.169277
O O12 0.118534 0.819075 0.212552
O O13 0.000000 0.699396 0.000000
O O14 0.122993 0.000000 0.232569
O O15 0.832186 0.500000 0.091250
#
# Coordination Sequence:
#
# PCOD9209431 Si02
#       6
#     8   8   8   8   8   8
#     4   9  20  38  61  88 121 159 201 246 298 360
#     4  11  24  40  61  92 125 158 202 253 301 356
#     4  10  21  38  63  91 119 158 208 251 291 359
#     4  11  22  40  62  87 123 165 202 243 301 360
#     4   9  20  38  60  91 123 156 201 251 302 355
#     4  10  21  38  62  90 121 161 203 248 302 357
#
# _framework density 21.543227999999999
#
# number of rings (size 3 to 8) (size 9 to 14) (size 15 to 20)
#    0.000    2.000    1.667    1.000    4.667    2.000 
#    0.000    0.000    0.000    8.000    0.000    0.000 
#    0.000    0.000    0.000    0.000    0.000    0.000 
#
# Total GULP energy -134014.175638 kJ/mol
# GULP energy per Si atom -5583.923985 kJ/mol
# Density = 2.149419 g / cm^3
# Si number density = 21.543228 Si / 1000 Ang^3
#
#
#
# Elastic Constant Matrix: (Units=GPa)
#
#
# Indices 1 2 3 4 5 6 
#
# 1 79.1777 62.0705 14.9736 0.0000 6.9421 0.0000
# 2 62.0705 138.5564 35.7813 0.0000 20.4261 0.0000
# 3 14.9736 35.7813 55.4860 0.0000 -13.8488 0.0000
# 4 0.0000 0.0000 0.0000 -10.8561 0.0000 28.9793
# 5 6.9421 20.4261 -13.8488 0.0000 22.8656 0.0000
# 6 0.0000 0.0000 0.0000 28.9793 0.0000 22.2908
#
#
#
# Elastic Compliance Matrix: (Units=1/GPa)
#
#
# Indices 1 2 3 4 5 6 
#
# 1 0.019700 -0.010050 0.002253 0.000000 0.004362 0.000000
# 2 -0.010050 0.019196 -0.015533 0.000000 -0.023504 0.000000
# 3 0.002253 -0.015533 0.036196 0.000000 0.035114 0.000000
# 4 0.000000 0.000000 0.000000 -0.020605 0.000000 0.026788
# 5 0.004362 -0.023504 0.035114 0.000000 0.084673 0.000000
# 6 0.000000 0.000000 0.000000 0.026788 0.000000 0.010035
#
#
# Mechanical properties :
#
#
# Convention : Reuss Voigt Hill
#
# Bulk Modulus (GPa) = 35.17236 55.43009 45.30123
# Shear Modulus (GPa) = 24.35086 17.55305 20.95195
#
# Velocity S-wave (km/s) = 3.36568 2.85754 3.12196
# Velocity P-wave (km/s) = 5.60942 6.05582 5.83689
#
# Compressibility (1/GPa) = 0.02843142
#
# Stress axis : x y z
#
# Youngs Moduli (GPa) = 50.76172 52.09449 27.62773
#
# Poissons Ratio (x) = 0.52355 -0.06225
# Poissons Ratio (y) = 0.51016 0.42915
# Poissons Ratio (z) = -0.11438 0.80920
#
# Static dielectric constant tensor:
#      x y z
#    x 1.812120 0.000000 -0.032940 
#    y 0.000000 1.795650 0.000000 
#    z -0.032940 0.000000 1.771610 
# 
# From -- ./inp_files/167648.got.cif
#   From: 2010.05.17/outbox.cif.g08.bks.cpg/sg12_84_cif.got.tgz:167648.got - 2010.06.03 13:09:07.
