data_PCOD9209026
_publ_section_title
;
Structure prediction by ZEFSAII (Michael W. Deem and Ramdas Pophale) SiO2 
 PCOD9209026
Probable space group: C 2/M
;
_chemical_formula_sum "Si O2"
_cell_formula_units_Z 64
_cell_length_a 30.296322
_cell_length_b 8.782583
_cell_length_c 15.910554
_cell_angle_alpha 90.000000
_cell_angle_beta 130.573101
_cell_angle_gamma 90.000000
_cell_volume 3215.652671
_symmetry_space_group_name_H-M "C 2/M"
_symmetry_group_IT_number 12
_symmetry_cell_setting 'monoclinic'
loop_
_space_group_symop_operation_xyz
x,y,z
-x,y,-z
-x,-y,-z
x,-y,z
1/2+x,1/2+y,z
1/2-x,1/2+y,-z
1/2-x,1/2-y,-z
1/2+x,1/2-y,z
loop_
_atom_site_type_symbol
_atom_site_label
_atom_site_fract_x
_atom_site_fract_y
_atom_site_fract_z
Si Si1 0.244107 0.319929 0.585184
Si Si2 0.704391 0.680466 0.009729
Si Si3 0.493709 0.320038 0.751529
Si Si4 0.123066 0.177781 0.473440
Si Si5 0.403715 0.178063 0.213765
Si Si6 0.046312 0.678364 0.982275
Si Si7 0.432214 0.178634 0.435406
Si Si8 0.825922 0.814893 0.840603
O O1 0.251576 0.500000 0.587166
O O2 0.250000 0.250000 0.500000
O O3 0.179860 0.278384 0.536299
O O4 0.289294 0.267155 0.713195
O O5 0.712742 0.500000 0.019385
O O6 0.641116 0.724578 0.895761
O O7 0.750000 0.750000 0.000000
O O8 0.704774 0.729779 0.108470
O O9 0.501242 0.500000 0.745739
O O10 0.425632 0.285972 0.656950
O O11 0.531487 0.226156 0.731539
O O12 0.519532 0.272176 0.872279
O O13 0.091701 0.213749 0.522266
O O14 0.138445 0.000000 0.485779
O O15 0.397570 0.201440 0.305595
O O16 0.394639 0.000000 0.184566
O O17 0.052189 0.500000 0.966312
O O18 0.109697 0.744456 0.081926
O O19 0.000000 0.689312 0.000000
O O20 0.500000 0.205538 0.500000
O O21 0.426467 0.000000 0.452882
O O22 0.830305 0.000000 0.846605
#
# Coordination Sequence:
#
# PCOD9209026 Si02
#       8
#     8   8   8   8   8   8   8   8
#     4  11  26  48  71  95 128 172 221 274 327 386
#     4  11  24  42  64  93 128 170 216 263 321 385
#     4  11  23  40  63  93 130 169 210 262 323 385
#     4  11  25  42  64  96 130 170 221 268 319 383
#     4  11  22  38  62  91 127 167 212 264 320 379
#     4  11  25  42  66 100 129 161 209 262 322 386
#     4  10  21  38  60  90 128 170 209 254 315 377
#     4  10  24  46  69  95 130 171 216 265 326 389
#
# _framework density 19.902647999999999
#
# number of rings (size 3 to 8) (size 9 to 14) (size 15 to 20)
#    0.000    1.250    2.500    2.250    3.500    5.250 
#    0.000    0.000    0.000    0.000    0.000    0.000 
#    0.000    0.000    0.000    0.000    0.000    0.000 
#
# Total GULP energy -178843.952357 kJ/mol
# GULP energy per Si atom -5588.873511 kJ/mol
# Density = 1.985735 g / cm^3
# Si number density = 19.902648 Si / 1000 Ang^3
#
#
#
# Elastic Constant Matrix: (Units=GPa)
#
#
# Indices 1 2 3 4 5 6 
#
# 1 74.3134 20.5397 42.4654 0.0000 -5.4474 0.0000
# 2 20.5397 27.5114 30.6194 0.0000 -6.1689 0.0000
# 3 42.4654 30.6194 137.4168 0.0000 -7.7861 0.0000
# 4 0.0000 0.0000 0.0000 27.8711 0.0000 0.5591
# 5 -5.4474 -6.1689 -7.7861 0.0000 19.3401 0.0000
# 6 0.0000 0.0000 0.0000 0.5591 0.0000 37.4668
#
#
#
# Elastic Compliance Matrix: (Units=1/GPa)
#
#
# Indices 1 2 3 4 5 6 
#
# 1 0.018105 -0.009550 -0.003429 0.000000 0.000673 0.000000
# 2 -0.009550 0.055932 -0.008855 0.000000 0.011586 0.000000
# 3 -0.003429 -0.008855 0.010331 0.000000 0.000369 0.000000
# 4 0.000000 0.000000 0.000000 0.035890 0.000000 -0.000536
# 5 0.000673 0.011586 0.000369 0.000000 0.055739 0.000000
# 6 0.000000 0.000000 0.000000 -0.000536 0.000000 0.026698
#
#
# Mechanical properties :
#
#
# Convention : Reuss Voigt Hill
#
# Bulk Modulus (GPa) = 24.57020 47.38784 35.97902
# Shear Modulus (GPa) = 19.23602 26.64341 22.93972
#
# Velocity S-wave (km/s) = 3.11224 3.66278 3.39867
# Velocity P-wave (km/s) = 5.02859 6.46138 5.78948
#
# Compressibility (1/GPa) = 0.04069971
#
# Stress axis : x y z
#
# Youngs Moduli (GPa) = 55.23441 17.87896 96.79833
#
# Poissons Ratio (x) = 0.17074 0.33190
# Poissons Ratio (y) = 0.52747 0.85717
# Poissons Ratio (z) = 0.18939 0.15832
#
# Static dielectric constant tensor:
#      x y z
#    x 1.707250 0.000000 -0.016320 
#    y 0.000000 1.668230 0.000000 
#    z -0.016320 0.000000 1.713100 
# 
# From -- ./inp_files/249988.got.cif
#   From: 2010.05.17/outbox.cif.g08.bks.cpg/sg12_125_cif.got.tgz:249988.got - 2010.06.03 13:09:07.
