data_PCOD9209698
_publ_section_title
;
Structure prediction by ZEFSAII (Michael W. Deem and Ramdas Pophale) SiO2 
 PCOD9209698
Probable space group: C 2/M
;
_chemical_formula_sum "Si O2"
_cell_formula_units_Z 48
_cell_length_a 27.103394
_cell_length_b 19.123049
_cell_length_c 12.223123
_cell_angle_alpha 90.000000
_cell_angle_beta 159.130682
_cell_angle_gamma 90.000000
_cell_volume 2256.850816
_symmetry_space_group_name_H-M "C 2/M"
_symmetry_group_IT_number 12
_symmetry_cell_setting 'monoclinic'
loop_
_space_group_symop_operation_xyz
x,y,z
-x,y,-z
-x,-y,-z
x,-y,z
1/2+x,1/2+y,z
1/2-x,1/2+y,-z
1/2-x,1/2-y,-z
1/2+x,1/2-y,z
loop_
_atom_site_type_symbol
_atom_site_label
_atom_site_fract_x
_atom_site_fract_y
_atom_site_fract_z
Si Si1 0.749811 0.078649 0.965513
Si Si2 0.169622 0.418912 0.038464
Si Si3 0.146170 0.706652 0.362544
Si Si4 0.885834 0.218341 0.188903
Si Si5 0.632927 0.702589 0.550380
Si Si6 0.613838 0.081571 0.442931
O O1 0.684740 0.083268 0.709833
O O2 0.811339 0.000000 0.102785
O O3 0.650903 0.084939 0.867266
O O4 0.848646 0.145782 0.171937
O O5 0.187592 0.500000 0.101529
O O6 0.304361 0.373503 0.339063
O O7 0.041305 0.392946 0.845463
O O8 0.250000 0.750000 0.500000
O O9 0.129243 0.754959 0.432523
O O10 0.180977 0.631198 0.490451
O O11 0.000000 0.697160 0.000000
O O12 0.000000 0.258404 0.500000
O O13 0.978513 0.201414 0.276175
O O14 0.747319 0.258137 0.865589
O O15 0.609633 0.000000 0.400482
#
# Coordination Sequence:
#
# PCOD9209698 Si02
#       6
#     8   8   8   8   8   8
#     4  10  21  38  63  97 140 177 211 254 317 398
#     4  10  21  38  64 100 137 175 212 255 317 399
#     4  12  26  46  69  92 125 168 226 291 339 376
#     4  12  24  39  61  98 133 175 214 257 317 402
#     4  12  25  42  64  92 133 173 220 273 332 384
#     4  10  21  41  69  99 131 170 217 269 328 392
#
# _framework density 21.268573
#
# number of rings (size 3 to 8) (size 9 to 14) (size 15 to 20)
#    0.000    1.000    3.333    4.000    0.000    3.333 
#    0.000    0.833    0.000    1.000    0.000    0.000 
#    0.000    0.000    0.000    0.000    0.000    0.000 
#
# Total GULP energy -133958.620248 kJ/mol
# GULP energy per Si atom -5581.609177 kJ/mol
# Density = 2.122017 g / cm^3
# Si number density = 21.268573 Si / 1000 Ang^3
#
#
#
# Elastic Constant Matrix: (Units=GPa)
#
#
# Indices 1 2 3 4 5 6 
#
# 1 93.6623 62.1185 12.7282 0.0000 11.8965 0.0000
# 2 62.1185 115.6714 21.6375 0.0000 11.8085 0.0000
# 3 12.7282 21.6375 48.6118 0.0000 2.0676 0.0000
# 4 0.0000 0.0000 0.0000 21.5299 0.0000 0.5061
# 5 11.8965 11.8085 2.0676 0.0000 42.4496 0.0000
# 6 0.0000 0.0000 0.0000 0.5061 0.0000 41.3161
#
#
#
# Elastic Compliance Matrix: (Units=1/GPa)
#
#
# Indices 1 2 3 4 5 6 
#
# 1 0.016799 -0.008711 -0.000425 0.000000 -0.002264 0.000000
# 2 -0.008711 0.014203 -0.003985 0.000000 -0.001316 0.000000
# 3 -0.000425 -0.003985 0.022450 0.000000 0.000134 0.000000
# 4 0.000000 0.000000 0.000000 0.046460 0.000000 -0.000569
# 5 -0.002264 -0.001316 0.000134 0.000000 0.024551 0.000000
# 6 0.000000 0.000000 0.000000 -0.000569 0.000000 0.024211
#
#
# Mechanical properties :
#
#
# Convention : Reuss Voigt Hill
#
# Bulk Modulus (GPa) = 36.75034 50.10153 43.42593
# Shear Modulus (GPa) = 27.17578 31.82320 29.49949
#
# Velocity S-wave (km/s) = 3.57843 3.87234 3.72828
# Velocity P-wave (km/s) = 5.86432 6.60311 6.24465
#
# Compressibility (1/GPa) = 0.02721063
#
# Stress axis : x y z
#
# Youngs Moduli (GPa) = 59.52640 70.40784 44.54245
#
# Poissons Ratio (x) = 0.61332 0.01893
# Poissons Ratio (y) = 0.51853 0.17750
# Poissons Ratio (z) = 0.02530 0.28058
#
# Static dielectric constant tensor:
#      x y z
#    x 1.811350 0.000000 -0.026000 
#    y 0.000000 1.807160 0.000000 
#    z -0.026000 0.000000 1.838130 
# 
# From -- ./inp_files/184836.got.cif
#   From: 2010.05.17/outbox.cif.g08.bks.cpg/sg12_93_cif.got.tgz:184836.got - 2010.06.03 13:09:07.
