data_PCOD9209723
_publ_section_title
;
Structure prediction by ZEFSAII (Michael W. Deem and Ramdas Pophale) SiO2 
 PCOD9209723
Probable space group: C 2/M
;
_chemical_formula_sum "Si O2"
_cell_formula_units_Z 50
_cell_length_a 9.594705
_cell_length_b 18.341433
_cell_length_c 19.026437
_cell_angle_alpha 90.000000
_cell_angle_beta 45.433820
_cell_angle_gamma 90.000000
_cell_volume 2385.453117
_symmetry_space_group_name_H-M "C 2/M"
_symmetry_group_IT_number 12
_symmetry_cell_setting 'monoclinic'
loop_
_space_group_symop_operation_xyz
x,y,z
-x,y,-z
-x,-y,-z
x,-y,z
1/2+x,1/2+y,z
1/2-x,1/2+y,-z
1/2-x,1/2-y,-z
1/2+x,1/2-y,z
loop_
_atom_site_type_symbol
_atom_site_label
_atom_site_fract_x
_atom_site_fract_y
_atom_site_fract_z
Si Si1 0.000000 0.000000 0.500000
Si Si2 0.493415 0.842526 0.277839
Si Si3 0.931508 0.132469 0.629991
Si Si4 0.722569 0.585874 0.919701
Si Si5 0.810517 0.675771 0.017714
Si Si6 0.459693 0.199622 0.593399
Si Si7 0.498281 0.676388 0.242333
O O1 0.008030 0.934917 0.558096
O O2 0.300738 0.862484 0.302708
O O3 0.667539 0.893306 0.190656
O O4 0.437034 0.842800 0.379846
O O5 0.561501 0.759731 0.238079
O O6 0.007485 0.213917 0.581510
O O7 0.971167 0.128575 0.698984
O O8 0.716072 0.500000 0.929688
O O9 0.500000 0.614807 0.000000
O O10 0.839066 0.619888 0.943896
O O11 0.629624 0.651937 0.131025
O O12 0.750000 0.750000 0.000000
O O13 0.000000 0.684128 0.000000
O O14 0.500000 0.175509 0.500000
O O15 0.231296 0.185856 0.690256
#
# Coordination Sequence:
#
# PCOD9209723 Si02
#       7
#     2   8   8   8   8   8   8
#     4  12  24  40  60  86 132 172 204 246 314 392
#     4  10  21  38  64  90 119 158 208 261 309 371
#     4  10  23  38  60  89 120 164 204 248 312 374
#     4  11  24  42  64  90 129 176 216 260 324 391
#     4  12  24  40  69  98 130 167 213 274 326 386
#     4  10  21  38  65  91 122 154 208 268 311 358
#     4  10  22  38  64  94 123 151 213 263 313 366
#
# _framework density 20.960377999999999
#
# number of rings (size 3 to 8) (size 9 to 14) (size 15 to 20)
#    0.000    1.440    2.400    2.400    7.840    2.240 
#    1.440    0.000    1.760    1.440    0.000    0.000 
#    0.000    0.000    0.000    0.000    0.000    0.000 
#
# Total GULP energy -139433.588918 kJ/mol
# GULP energy per Si atom -5577.343557 kJ/mol
# Density = 2.091267 g / cm^3
# Si number density = 20.960378 Si / 1000 Ang^3
#
#
#
# Elastic Constant Matrix: (Units=GPa)
#
#
# Indices 1 2 3 4 5 6 
#
# 1 92.2271 34.1009 30.0316 0.0004 4.3322 -0.0003
# 2 34.1009 79.6446 26.2550 0.0002 9.5315 -0.0002
# 3 30.0316 26.2550 104.0310 0.0006 14.8803 -0.0005
# 4 0.0004 0.0002 0.0006 31.6612 -0.0003 12.2336
# 5 4.3322 9.5315 14.8803 -0.0003 37.0342 0.0003
# 6 -0.0003 -0.0002 -0.0005 12.2336 0.0003 13.9203
#
#
#
# Elastic Compliance Matrix: (Units=1/GPa)
#
#
# Indices 1 2 3 4 5 6 
#
# 1 0.013550 -0.004986 -0.002769 0.000000 0.000811 0.000000
# 2 -0.004986 0.015711 -0.002155 0.000000 -0.002595 0.000000
# 3 -0.002769 -0.002155 0.011490 -0.000001 -0.003738 0.000001
# 4 0.000000 0.000000 -0.000001 0.047824 0.000001 -0.042030
# 5 0.000811 -0.002595 -0.003738 0.000001 0.029077 -0.000002
# 6 0.000000 0.000000 0.000001 -0.042030 -0.000002 0.108775
#
#
# Mechanical properties :
#
#
# Convention : Reuss Voigt Hill
#
# Bulk Modulus (GPa) = 47.77329 50.74197 49.25763
# Shear Modulus (GPa) = 19.74532 28.89082 24.31807
#
# Velocity S-wave (km/s) = 3.07258 3.71665 3.40985
# Velocity P-wave (km/s) = 5.95226 6.53292 6.24933
#
# Compressibility (1/GPa) = 0.02093220
#
# Stress axis : x y z
#
# Youngs Moduli (GPa) = 73.80117 63.64841 87.02850
#
# Poissons Ratio (x) = 0.31733 0.24101
# Poissons Ratio (y) = 0.36795 0.18753
# Poissons Ratio (z) = 0.20438 0.13715
#
# Static dielectric constant tensor:
#      x y z
#    x 1.755020 0.000000 -0.004420 
#    y 0.000000 1.717150 0.000000 
#    z -0.004420 0.000000 1.776350 
# 
# From -- ./inp_files/256937.got.cif
#   From: 2010.05.17/outbox.cif.g08.bks.cpg/sg12_129_cif.got.tgz:256937.got - 2010.06.03 13:09:07.
