data_PCOD9209074
_publ_section_title
;
Structure prediction by ZEFSAII (Michael W. Deem and Ramdas Pophale) SiO2 
 PCOD9209074
Probable space group: C 2/M
;
_chemical_formula_sum "Si O2"
_cell_formula_units_Z 40
_cell_length_a 16.132685
_cell_length_b 13.785328
_cell_length_c 18.829967
_cell_angle_alpha 90.000000
_cell_angle_beta 152.374935
_cell_angle_gamma 90.000000
_cell_volume 1941.758089
_symmetry_space_group_name_H-M "C 2/M"
_symmetry_group_IT_number 12
_symmetry_cell_setting 'monoclinic'
loop_
_space_group_symop_operation_xyz
x,y,z
-x,y,-z
-x,-y,-z
x,-y,z
1/2+x,1/2+y,z
1/2-x,1/2+y,-z
1/2-x,1/2-y,-z
1/2+x,1/2-y,z
loop_
_atom_site_type_symbol
_atom_site_label
_atom_site_fract_x
_atom_site_fract_y
_atom_site_fract_z
Si Si1 0.818171 0.388263 0.406957
Si Si2 0.188954 0.239356 0.103003
Si Si3 0.448054 0.789086 0.801401
Si Si4 0.334820 0.611624 0.323045
Si Si5 0.503740 0.111070 0.696880
O O1 0.762803 0.500000 0.351192
O O2 0.668771 0.308706 0.277301
O O3 0.000000 0.371399 0.500000
O O4 0.870851 0.378952 0.529664
O O5 0.308908 0.316886 0.237070
O O6 0.301344 0.141601 0.183527
O O7 0.000000 0.229432 0.000000
O O8 0.134393 0.275668 0.983519
O O9 0.340164 0.872232 0.761730
O O10 0.460612 0.818927 0.729462
O O11 0.500000 0.636580 0.500000
O O12 0.353725 0.500000 0.315131
O O13 0.500733 0.000000 0.718677
#
# Coordination Sequence:
#
# PCOD9209074 Si02
#       5
#     8   8   8   8   8
#     4  10  21  38  61  86 115 155 197 235 279 336
#     4  10  22  38  59  84 112 151 192 237 288 342
#     4  11  21  37  59  86 119 149 186 239 290 338
#     4  10  21  38  61  86 113 150 191 230 278 341
#     4  11  23  38  57  83 116 153 192 238 291 341
#
# _framework density 20.599888
#
# number of rings (size 3 to 8) (size 9 to 14) (size 15 to 20)
#    0.000    1.600    0.000    6.000    0.000    5.600 
#    0.000    3.000    0.000    0.000    0.000    0.000 
#    0.000    0.000    0.000    0.000    0.000    0.000 
#
# Total GULP energy -111759.898098 kJ/mol
# GULP energy per Si atom -5587.994905 kJ/mol
# Density = 2.055300 g / cm^3
# Si number density = 20.599888 Si / 1000 Ang^3
#
#
#
# Elastic Constant Matrix: (Units=GPa)
#
#
# Indices 1 2 3 4 5 6 
#
# 1 71.9444 32.1946 13.5894 -0.0036 -22.9137 -0.0008
# 2 32.1946 112.4362 51.1910 -0.0101 -10.7860 -0.0036
# 3 13.5894 51.1910 99.7239 -0.0156 -19.5763 -0.0054
# 4 -0.0036 -0.0101 -0.0156 1.5947 -0.0061 6.6445
# 5 -22.9137 -10.7860 -19.5763 -0.0061 24.9477 -0.0012
# 6 -0.0008 -0.0036 -0.0054 6.6445 -0.0012 29.6740
#
#
#
# Elastic Compliance Matrix: (Units=1/GPa)
#
#
# Indices 1 2 3 4 5 6 
#
# 1 0.022886 -0.006513 0.004490 0.001947 0.021729 -0.000434
# 2 -0.006513 0.013463 -0.007158 -0.000311 -0.005778 0.000070
# 3 0.004490 -0.007158 0.015713 0.002361 0.013360 -0.000526
# 4 0.001947 -0.000311 0.002361 9.358182 0.005685 -2.095447
# 5 0.021729 -0.005778 0.013360 0.005685 0.068028 -0.001268
# 6 -0.000434 0.000070 -0.000526 -2.095447 -0.001268 0.502904
#
#
# Mechanical properties :
#
#
# Convention : Reuss Voigt Hill
#
# Bulk Modulus (GPa) = 29.67207 53.11717 41.39462
# Shear Modulus (GPa) = 0.49946 23.71856 12.10901
#
# Velocity S-wave (km/s) = 0.49294 3.39690 2.42713
# Velocity P-wave (km/s) = 3.84178 6.42078 5.29082
#
# Compressibility (1/GPa) = 0.03370173
#
# Stress axis : x y z
#
# Youngs Moduli (GPa) = 43.69397 74.27499 63.64097
#
# Poissons Ratio (x) = 0.48376 -0.28577
# Poissons Ratio (y) = 0.28458 0.45554
# Poissons Ratio (z) = -0.19620 0.53166
#
# Static dielectric constant tensor:
#      x y z
#    x 1.759910 0.000000 -0.001250 
#    y 0.000000 1.706950 0.000000 
#    z -0.001250 0.000000 1.752080 
# 
# From -- ./inp_files/96062.got.cif
#   From: 2010.05.17/outbox.cif.g08.bks.cpg/sg12_49_cif.got.tgz:96062.got - 2010.06.03 13:09:07.
