data_PCOD9209474
_publ_section_title
;
Structure prediction by ZEFSAII (Michael W. Deem and Ramdas Pophale) SiO2 
 PCOD9209474
Probable space group: C 2/M
;
_chemical_formula_sum "Si O2"
_cell_formula_units_Z 58
_cell_length_a 23.824624
_cell_length_b 7.755795
_cell_length_c 20.760592
_cell_angle_alpha 90.000000
_cell_angle_beta 44.010379
_cell_angle_gamma 90.000000
_cell_volume 2665.292243
_symmetry_space_group_name_H-M "C 2/M"
_symmetry_group_IT_number 12
_symmetry_cell_setting 'monoclinic'
loop_
_space_group_symop_operation_xyz
x,y,z
-x,y,-z
-x,-y,-z
x,-y,z
1/2+x,1/2+y,z
1/2-x,1/2+y,-z
1/2-x,1/2-y,-z
1/2+x,1/2-y,z
loop_
_atom_site_type_symbol
_atom_site_label
_atom_site_fract_x
_atom_site_fract_y
_atom_site_fract_z
Si Si1 0.500000 0.000000 0.000000
Si Si2 0.486916 0.792972 0.701973
Si Si3 0.063080 0.206305 0.502475
Si Si4 0.398686 0.310892 0.130841
Si Si5 0.992341 0.711110 0.840232
Si Si6 0.306494 0.205392 0.013963
Si Si7 0.179335 0.699424 0.217371
Si Si8 0.776215 0.805939 0.685692
O O1 0.570279 0.847091 0.938303
O O2 0.532236 0.738399 0.599949
O O3 0.516596 0.736576 0.747720
O O4 0.393182 0.743048 0.769166
O O5 0.488819 0.000000 0.703269
O O6 0.154499 0.272597 0.416811
O O7 0.000000 0.272730 0.500000
O O8 0.068379 0.000000 0.488441
O O9 0.408061 0.500000 0.093445
O O10 0.453535 0.292226 0.149437
O O11 0.306983 0.289207 0.231037
O O12 0.998595 0.500000 0.843363
O O13 0.898601 0.757934 0.926821
O O14 0.263575 0.285997 0.111137
O O15 0.306036 0.000000 0.022077
O O16 0.250000 0.250000 0.000000
O O17 0.164890 0.500000 0.246824
O O18 0.179806 0.808517 0.281335
O O19 0.755461 0.000000 0.681507
#
# Coordination Sequence:
#
# PCOD9209474 Si02
#       8
#     2   8   8   8   8   8   8   8
#     4  12  26  52  72  98 138 172 224 292 320 388
#     4  10  21  38  62  91 130 174 216 274 340 399
#     4  10  21  38  63  96 131 171 222 277 341 403
#     4  12  27  46  72 102 133 184 231 273 338 401
#     4  10  22  44  63  88 134 179 221 278 338 397
#     4  11  22  36  57  85 124 167 207 257 321 390
#     4  11  22  36  56  91 128 165 217 268 326 404
#     4  11  23  43  65  92 136 174 212 284 343 392
#
# _framework density 21.761216000000001
#
# number of rings (size 3 to 8) (size 9 to 14) (size 15 to 20)
#    0.000    1.241    4.138    1.448    1.931    3.586 
#    0.000    0.690    0.000    0.000    0.000    0.000 
#    0.000    0.000    0.000    0.000    0.000    0.000 
#
# Total GULP energy -161891.756183 kJ/mol
# GULP energy per Si atom -5582.474351 kJ/mol
# Density = 2.171169 g / cm^3
# Si number density = 21.761216 Si / 1000 Ang^3
#
#
#
# Elastic Constant Matrix: (Units=GPa)
#
#
# Indices 1 2 3 4 5 6 
#
# 1 57.1679 12.3312 5.3527 -0.0015 -4.2306 -0.0003
# 2 12.3312 90.8480 20.7134 -0.0077 -8.7686 0.0062
# 3 5.3527 20.7134 119.8721 0.0051 -7.6671 -0.0029
# 4 -0.0015 -0.0077 0.0051 23.3901 0.0002 0.8950
# 5 -4.2306 -8.7686 -7.6671 0.0002 36.0204 -0.0005
# 6 -0.0003 0.0062 -0.0029 0.8950 -0.0005 22.0895
#
#
#
# Elastic Compliance Matrix: (Units=1/GPa)
#
#
# Indices 1 2 3 4 5 6 
#
# 1 0.018118 -0.002239 -0.000325 0.000000 0.001514 0.000001
# 2 -0.002239 0.011944 -0.001820 0.000004 0.002257 -0.000004
# 3 -0.000325 -0.001820 0.008760 -0.000003 0.001383 0.000002
# 4 0.000000 0.000004 -0.000003 0.042820 0.000000 -0.001735
# 5 0.001514 0.002257 0.001383 0.000000 0.028784 0.000000
# 6 0.000001 -0.000004 0.000002 -0.001735 0.000000 0.045341
#
#
# Mechanical properties :
#
#
# Convention : Reuss Voigt Hill
#
# Bulk Modulus (GPa) = 33.27359 38.29806 35.78583
# Shear Modulus (GPa) = 28.64495 31.59939 30.12217
#
# Velocity S-wave (km/s) = 3.63206 3.81477 3.72454
# Velocity P-wave (km/s) = 5.73696 6.08611 5.91411
#
# Compressibility (1/GPa) = 0.03005387
#
# Stress axis : x y z
#
# Youngs Moduli (GPa) = 55.19445 83.72382 114.15995
#
# Poissons Ratio (x) = 0.18745 0.03714
# Poissons Ratio (y) = 0.12358 0.20772
# Poissons Ratio (z) = 0.01796 0.15234
#
# Static dielectric constant tensor:
#      x y z
#    x 1.797020 0.000000 0.007380 
#    y 0.000000 1.800220 0.000000 
#    z 0.007380 0.000000 1.815410 
# 
# From -- ./inp_files/324591.got.cif
#   From: 2010.05.17/outbox.cif.g08.bks.cpg/sg12_163_cif.got.tgz:324591.got - 2010.06.03 13:09:07.
