data_PCOD9209744
_publ_section_title
;
Structure prediction by ZEFSAII (Michael W. Deem and Ramdas Pophale) SiO2 
 PCOD9209744
Probable space group: C 2/M
;
_chemical_formula_sum "Si O2"
_cell_formula_units_Z 56
_cell_length_a 9.827665
_cell_length_b 28.604352
_cell_length_c 12.135265
_cell_angle_alpha 90.000000
_cell_angle_beta 54.591945
_cell_angle_gamma 90.000000
_cell_volume 2780.443206
_symmetry_space_group_name_H-M "C 2/M"
_symmetry_group_IT_number 12
_symmetry_cell_setting 'monoclinic'
loop_
_space_group_symop_operation_xyz
x,y,z
-x,y,-z
-x,-y,-z
x,-y,z
1/2+x,1/2+y,z
1/2-x,1/2+y,-z
1/2-x,1/2-y,-z
1/2+x,1/2-y,z
loop_
_atom_site_type_symbol
_atom_site_label
_atom_site_fract_x
_atom_site_fract_y
_atom_site_fract_z
Si Si1 0.342111 0.054972 0.750516
Si Si2 0.268671 0.202037 0.861087
Si Si3 0.473021 0.858048 0.389306
Si Si4 0.466691 0.295147 0.834270
Si Si5 0.534956 0.555819 0.732281
Si Si6 0.905607 0.856172 0.431999
Si Si7 0.665218 0.056374 0.985835
O O1 0.487132 0.086897 0.632843
O O2 0.167213 0.064946 0.769516
O O3 0.375776 0.000000 0.721230
O O4 0.334117 0.065529 0.884207
O O5 0.391904 0.164067 0.754006
O O6 0.380015 0.247396 0.835168
O O7 0.128606 0.213471 0.834943
O O8 0.171622 0.184506 0.015795
O O9 0.500000 0.840524 0.500000
O O10 0.285547 0.845292 0.451666
O O11 0.522068 0.326768 0.705262
O O12 0.540303 0.500000 0.707069
O O13 0.586025 0.589612 0.609215
O O14 0.345514 0.569598 0.852768
O O15 0.000000 0.847377 0.500000
O O16 0.659628 0.000000 0.977540
O O17 0.500000 0.074963 0.000000
#
# Coordination Sequence:
#
# PCOD9209744 Si02
#       7
#     8   8   8   8   8   8   8
#     4  10  21  38  64  92 126 173 223 269 318 383
#     4  10  23  44  74  98 130 165 215 266 325 388
#     4  12  24  44  63  98 133 171 216 265 328 386
#     4  10  23  46  70 101 128 169 212 266 326 389
#     4  10  21  40  63  90 128 174 224 269 319 382
#     4  12  28  44  62  97 138 174 218 266 329 389
#     4   9  19  35  57  89 123 163 216 272 325 372
#
# _framework density 20.140674000000001
#
# number of rings (size 3 to 8) (size 9 to 14) (size 15 to 20)
#    0.000    1.571    2.857    0.429    6.000    4.000 
#    0.000    0.000    0.000    0.000    0.000    0.000 
#    0.000    0.000    0.000    0.000    0.000    0.000 
#
# Total GULP energy -156341.054675 kJ/mol
# GULP energy per Si atom -5583.609096 kJ/mol
# Density = 2.009483 g / cm^3
# Si number density = 20.140674 Si / 1000 Ang^3
#
#
#
# Elastic Constant Matrix: (Units=GPa)
#
#
# Indices 1 2 3 4 5 6 
#
# 1 159.2063 35.0705 62.4522 0.0000 -7.9940 0.0000
# 2 35.0705 57.7161 45.1637 0.0000 -5.4664 0.0000
# 3 62.4522 45.1637 100.6182 0.0000 -8.8435 0.0000
# 4 0.0000 0.0000 0.0000 28.1844 0.0000 -5.3970
# 5 -7.9940 -5.4664 -8.8435 0.0000 29.4714 0.0000
# 6 0.0000 0.0000 0.0000 -5.3970 0.0000 25.1366
#
#
#
# Elastic Compliance Matrix: (Units=1/GPa)
#
#
# Indices 1 2 3 4 5 6 
#
# 1 0.008407 -0.001554 -0.004463 0.000000 0.000653 0.000000
# 2 -0.001554 0.027050 -0.011065 0.000000 0.001275 0.000000
# 3 -0.004463 -0.011065 0.017860 0.000000 0.002096 0.000000
# 4 0.000000 0.000000 0.000000 0.037002 0.000000 0.007944
# 5 0.000653 0.001275 0.002096 0.000000 0.034974 0.000000
# 6 0.000000 0.000000 0.000000 0.007944 0.000000 0.041488
#
#
# Mechanical properties :
#
#
# Convention : Reuss Voigt Hill
#
# Bulk Modulus (GPa) = 52.21359 66.99039 59.60199
# Shear Modulus (GPa) = 24.11626 28.21542 26.16584
#
# Velocity S-wave (km/s) = 3.46409 3.74694 3.60829
# Velocity P-wave (km/s) = 6.47924 7.21477 6.85688
#
# Compressibility (1/GPa) = 0.01915210
#
# Stress axis : x y z
#
# Youngs Moduli (GPa) = 118.94756 36.96885 55.99222
#
# Poissons Ratio (x) = 0.05745 0.24990
# Poissons Ratio (y) = 0.18486 0.61955
# Poissons Ratio (z) = 0.53088 0.40906
#
# Static dielectric constant tensor:
#      x y z
#    x 1.669750 0.000000 0.002350 
#    y 0.000000 1.726530 0.000000 
#    z 0.002350 0.000000 1.705960 
# 
# From -- ./inp_files/125590.got.cif
#   From: 2010.05.17/outbox.cif.g08.bks.cpg/sg12_63_cif.got.tgz:125590.got - 2010.06.03 13:09:07.
