data_PCOD9209618
_publ_section_title
;
Structure prediction by ZEFSAII (Michael W. Deem and Ramdas Pophale) SiO2 
 PCOD9209618
Probable space group: C 2/M
;
_chemical_formula_sum "Si O2"
_cell_formula_units_Z 56
_cell_length_a 9.320897
_cell_length_b 17.636247
_cell_length_c 30.474419
_cell_angle_alpha 90.000000
_cell_angle_beta 145.426920
_cell_angle_gamma 90.000000
_cell_volume 2842.707832
_symmetry_space_group_name_H-M "C 2/M"
_symmetry_group_IT_number 12
_symmetry_cell_setting 'monoclinic'
loop_
_space_group_symop_operation_xyz
x,y,z
-x,y,-z
-x,-y,-z
x,-y,z
1/2+x,1/2+y,z
1/2-x,1/2+y,-z
1/2-x,1/2-y,-z
1/2+x,1/2-y,z
loop_
_atom_site_type_symbol
_atom_site_label
_atom_site_fract_x
_atom_site_fract_y
_atom_site_fract_z
Si Si1 0.907475 0.323638 0.780953
Si Si2 0.909596 0.085444 0.927331
Si Si3 0.365372 0.907884 0.510992
Si Si4 0.585563 0.909607 0.658819
Si Si5 0.883682 0.165803 0.202516
Si Si6 0.724536 0.591688 0.647934
Si Si7 0.439030 0.088342 0.035574
O O1 0.154328 0.369297 0.858680
O O2 0.006468 0.242035 0.790911
O O3 0.712964 0.320523 0.772326
O O4 0.794838 0.367462 0.710806
O O5 0.869392 0.000000 0.899809
O O6 0.000000 0.081059 0.000000
O O7 0.155361 0.120910 0.966597
O O8 0.500000 0.881050 0.500000
O O9 0.492798 0.879575 0.588099
O O10 0.067333 0.891077 0.436444
O O11 0.388330 0.000000 0.516674
O O12 0.411790 0.883182 0.655763
O O13 0.879313 0.891056 0.738718
O O14 0.552313 0.000000 0.649437
O O15 0.647232 0.133094 0.115536
O O16 0.746913 0.500000 0.658625
O O17 0.431503 0.000000 0.049576
O O18 0.500000 0.087203 0.000000
#
# Coordination Sequence:
#
# PCOD9209618 Si02
#       7
#     8   8   8   8   8   8   8
#     4  12  26  41  60  86 122 164 203 248 300 359
#     4  10  21  41  65  90 117 152 199 250 302 355
#     4   9  17  33  60  93 124 156 197 245 296 350
#     4  10  21  38  63  92 124 158 199 249 298 354
#     4  12  26  42  59  86 123 162 205 247 300 359
#     4  10  21  38  63  93 123 158 200 247 299 354
#     4  10  23  41  65  91 118 153 198 250 302 357
#
# _framework density 19.699528000000001
#
# number of rings (size 3 to 8) (size 9 to 14) (size 15 to 20)
#    0.000    1.571    1.429    3.000    4.000    5.714 
#    0.000    0.714    0.000    0.000    0.000    0.000 
#    0.000    0.000    0.000    0.000    0.000    0.000 
#
# Total GULP energy -156365.040502 kJ/mol
# GULP energy per Si atom -5584.465732 kJ/mol
# Density = 1.965469 g / cm^3
# Si number density = 19.699528 Si / 1000 Ang^3
#
#
#
# Elastic Constant Matrix: (Units=GPa)
#
#
# Indices 1 2 3 4 5 6 
#
# 1 159.7316 9.2212 21.7744 -0.0001 -3.2224 0.0000
# 2 9.2212 20.1585 3.5984 0.0001 -10.4574 0.0000
# 3 21.7744 3.5984 55.0698 0.0001 -9.1461 0.0000
# 4 -0.0001 0.0001 0.0001 -28.6409 -0.0002 -2.2558
# 5 -3.2224 -10.4574 -9.1461 -0.0002 32.3088 0.0000
# 6 0.0000 0.0000 0.0000 -2.2558 0.0000 30.8865
#
#
#
# Elastic Compliance Matrix: (Units=1/GPa)
#
#
# Indices 1 2 3 4 5 6 
#
# 1 0.006786 -0.003207 -0.002658 0.000000 -0.001114 0.000000
# 2 -0.003207 0.061161 0.000531 0.000000 0.019627 0.000000
# 3 -0.002658 0.000531 0.020105 0.000000 0.005598 0.000000
# 4 0.000000 0.000000 0.000000 -0.034715 0.000000 -0.002535
# 5 -0.001114 0.019627 0.005598 0.000000 0.038778 0.000000
# 6 0.000000 0.000000 0.000000 -0.002535 0.000000 0.032191
#
#
# Mechanical properties :
#
#
# Convention : Reuss Voigt Hill
#
# Bulk Modulus (GPa) = 12.92282 33.79422 23.35852
# Shear Modulus (GPa) = 31.10078 20.26860 25.68469
#
# Velocity S-wave (km/s) = 3.97767 3.21111 3.61477
# Velocity P-wave (km/s) = 5.26023 5.56241 5.41343
#
# Compressibility (1/GPa) = 0.07738249
#
# Stress axis : x y z
#
# Youngs Moduli (GPa) = 147.37151 16.35036 49.73907
#
# Poissons Ratio (x) = 0.05244 0.13223
# Poissons Ratio (y) = 0.47266 -0.02643
# Poissons Ratio (z) = 0.39177 -0.00869
#
# Static dielectric constant tensor:
#      x y z
#    x 1.890780 0.000000 0.011380 
#    y 0.000000 1.701990 0.000000 
#    z 0.011380 0.000000 1.663160 
# 
# From -- ./inp_files/257133.got.cif
#   From: 2010.05.17/outbox.cif.g08.bks.cpg/sg12_129_cif.got.tgz:257133.got - 2010.06.03 13:09:07.
