data_PCOD9209714
_publ_section_title
;
Structure prediction by ZEFSAII (Michael W. Deem and Ramdas Pophale) SiO2 
 PCOD9209714
Probable space group: C 2/M
;
_chemical_formula_sum "Si O2"
_cell_formula_units_Z 42
_cell_length_a 16.261418
_cell_length_b 9.594332
_cell_length_c 15.132169
_cell_angle_alpha 90.000000
_cell_angle_beta 51.844663
_cell_angle_gamma 90.000000
_cell_volume 1856.453164
_symmetry_space_group_name_H-M "C 2/M"
_symmetry_group_IT_number 12
_symmetry_cell_setting 'monoclinic'
loop_
_space_group_symop_operation_xyz
x,y,z
-x,y,-z
-x,-y,-z
x,-y,z
1/2+x,1/2+y,z
1/2-x,1/2+y,-z
1/2-x,1/2-y,-z
1/2+x,1/2-y,z
loop_
_atom_site_type_symbol
_atom_site_label
_atom_site_fract_x
_atom_site_fract_y
_atom_site_fract_z
Si Si1 0.000000 0.500000 0.500000
Si Si2 0.901411 0.160494 0.353976
Si Si3 0.365526 0.340746 0.846870
Si Si4 0.166384 0.162499 0.933013
Si Si5 0.836789 0.658820 0.229728
Si Si6 0.385979 0.284785 0.563215
O O1 0.910415 0.623424 0.565742
O O2 0.867749 0.262707 0.298723
O O3 0.857424 0.196594 0.479193
O O4 0.027261 0.173430 0.276753
O O5 0.876342 0.000000 0.348474
O O6 0.323791 0.500000 0.864131
O O7 0.281323 0.224933 0.878010
O O8 0.391230 0.325492 0.934407
O O9 0.125313 0.254827 0.880022
O O10 0.169509 0.000000 0.906509
O O11 0.873590 0.500000 0.204332
O O12 0.709610 0.660823 0.315677
O O13 0.500000 0.353118 0.500000
#
# Coordination Sequence:
#
# PCOD9209714 Si02
#       6
#     2   8   8   8   8   8
#     4   8  24  40  66  92 120 152 196 252 284 362
#     4  11  24  40  62  86 121 159 198 247 299 353
#     4   9  20  40  63  91 117 153 203 251 297 351
#     4  10  21  38  64  89 119 157 200 248 299 352
#     4  12  26  39  59  88 125 160 199 244 295 358
#     4  10  23  40  65  89 119 153 196 241 295 351
#
# _framework density 22.623787
#
# number of rings (size 3 to 8) (size 9 to 14) (size 15 to 20)
#    0.571    1.143    0.000    3.429    4.000    5.333 
#    0.000    3.810    0.000    0.000    0.000    0.000 
#    0.000    0.000    0.000    0.000    0.000    0.000 
#
# Total GULP energy -117143.442395 kJ/mol
# GULP energy per Si atom -5578.259162 kJ/mol
# Density = 2.257229 g / cm^3
# Si number density = 22.623787 Si / 1000 Ang^3
#
#
#
# Elastic Constant Matrix: (Units=GPa)
#
#
# Indices 1 2 3 4 5 6 
#
# 1 48.2258 11.6545 -1.4714 0.0000 12.9261 0.0000
# 2 11.6545 160.0332 22.0290 0.0000 19.2139 0.0000
# 3 -1.4714 22.0290 102.4340 0.0000 17.0360 0.0000
# 4 0.0000 0.0000 0.0000 -18.4050 0.0000 -21.8889
# 5 12.9261 19.2139 17.0360 0.0000 40.3414 0.0000
# 6 0.0000 0.0000 0.0000 -21.8889 0.0000 9.6465
#
#
#
# Elastic Compliance Matrix: (Units=1/GPa)
#
#
# Indices 1 2 3 4 5 6 
#
# 1 0.023097 -0.001010 0.001828 0.000000 -0.007692 0.000000
# 2 -0.001010 0.006762 -0.001062 0.000000 -0.002449 0.000000
# 3 0.001828 -0.001062 0.010788 0.000000 -0.004636 0.000000
# 4 0.000000 0.000000 0.000000 -0.014690 0.000000 -0.033333
# 5 -0.007692 -0.002449 -0.004636 0.000000 0.030377 0.000000
# 6 0.000000 0.000000 0.000000 -0.033333 0.000000 0.028028
#
#
# Mechanical properties :
#
#
# Convention : Reuss Voigt Hill
#
# Bulk Modulus (GPa) = 24.90004 41.67972 33.28988
# Shear Modulus (GPa) = 50.89756 24.88196 37.88976
#
# Velocity S-wave (km/s) = 4.74828 3.31994 4.09684
# Velocity P-wave (km/s) = 6.41028 5.75838 6.09305
#
# Compressibility (1/GPa) = 0.04016058
#
# Stress axis : x y z
#
# Youngs Moduli (GPa) = 43.29504 147.87625 92.69614
#
# Poissons Ratio (x) = 0.14939 -0.16947
# Poissons Ratio (y) = 0.04374 0.09840
# Poissons Ratio (z) = -0.07915 0.15698
#
# Static dielectric constant tensor:
#      x y z
#    x 1.929560 0.000000 0.036100 
#    y 0.000000 1.774760 0.000000 
#    z 0.036100 0.000000 1.836560 
# 
# From -- ./inp_files/221415.got.cif
#   From: 2010.05.17/outbox.cif.g08.bks.cpg/sg12_111_cif.got.tgz:221415.got - 2010.06.03 13:09:07.
