data_PCOD9209093
_publ_section_title
;
Structure prediction by ZEFSAII (Michael W. Deem and Ramdas Pophale) SiO2 
 PCOD9209093
Probable space group: C 2/M
;
_chemical_formula_sum "Si O2"
_cell_formula_units_Z 56
_cell_length_a 28.319003
_cell_length_b 11.658894
_cell_length_c 23.220039
_cell_angle_alpha 90.000000
_cell_angle_beta 21.193974
_cell_angle_gamma 90.000000
_cell_volume 2771.650142
_symmetry_space_group_name_H-M "C 2/M"
_symmetry_group_IT_number 12
_symmetry_cell_setting 'monoclinic'
loop_
_space_group_symop_operation_xyz
x,y,z
-x,y,-z
-x,-y,-z
x,-y,z
1/2+x,1/2+y,z
1/2-x,1/2+y,-z
1/2-x,1/2-y,-z
1/2+x,1/2-y,z
loop_
_atom_site_type_symbol
_atom_site_label
_atom_site_fract_x
_atom_site_fract_y
_atom_site_fract_z
Si Si1 0.307979 0.206753 0.344464
Si Si2 0.841313 0.873002 0.883683
Si Si3 0.946371 0.372810 0.996066
Si Si4 0.158398 0.371196 0.428361
Si Si5 0.918179 0.130881 0.317386
Si Si6 0.353529 0.828832 0.796976
Si Si7 0.206175 0.129991 0.846488
O O1 0.425512 0.130044 0.189065
O O2 0.241142 0.277307 0.368716
O O3 0.195890 0.139339 0.505745
O O4 0.370889 0.296967 0.317276
O O5 0.833745 0.805180 0.833144
O O6 0.951737 0.820495 0.800294
O O7 0.886382 0.000000 0.819918
O O8 0.711101 0.875895 0.070457
O O9 0.880381 0.500000 0.063794
O O10 0.874699 0.249794 0.066207
O O11 0.000000 0.367668 0.000000
O O12 0.196213 0.500000 0.404364
O O13 0.191612 0.363505 0.322842
O O14 0.005205 0.355728 0.615762
O O15 0.943769 0.000000 0.271130
O O16 0.275619 0.867688 0.829541
O O17 0.143395 0.000000 0.912352
#
# Coordination Sequence:
#
# PCOD9209093 Si02
#       7
#     8   8   8   8   8   8   8
#     4  11  21  38  62  92 123 165 207 258 316 382
#     4  10  21  38  61  86 122 168 208 260 319 375
#     4  11  24  43  66  93 128 167 208 258 317 378
#     4  11  22  38  61  92 126 165 210 263 314 373
#     4  10  21  38  61  89 122 161 210 263 316 372
#     4  11  22  39  61  92 125 167 213 260 313 371
#     4  11  24  42  67  94 127 168 214 264 316 374
#
# _framework density 20.20457
#
# number of rings (size 3 to 8) (size 9 to 14) (size 15 to 20)
#    0.000    1.286    2.857    3.429    0.000    4.286 
#    0.000    0.714    0.000    1.714    0.000    0.000 
#    0.000    0.000    0.000    0.000    0.000    0.000 
#
# Total GULP energy -156133.938995 kJ/mol
# GULP energy per Si atom -5576.212107 kJ/mol
# Density = 2.015858 g / cm^3
# Si number density = 20.204570 Si / 1000 Ang^3
#
#
#
# Elastic Constant Matrix: (Units=GPa)
#
#
# Indices 1 2 3 4 5 6 
#
# 1 66.0936 41.9264 13.3097 0.0000 11.7152 0.0000
# 2 41.9264 124.6839 30.5125 -0.0003 -12.1508 -0.0005
# 3 13.3097 30.5125 98.5262 -0.0002 10.4401 -0.0005
# 4 0.0000 -0.0003 -0.0002 57.2381 0.0000 29.4825
# 5 11.7152 -12.1508 10.4401 0.0000 26.8590 0.0001
# 6 0.0000 -0.0005 -0.0005 29.4825 0.0001 40.2220
#
#
#
# Elastic Compliance Matrix: (Units=1/GPa)
#
#
# Indices 1 2 3 4 5 6 
#
# 1 0.023839 -0.009882 0.001476 0.000000 -0.015442 0.000000
# 2 -0.009882 0.013527 -0.004129 0.000000 0.012035 0.000000
# 3 0.001476 -0.004129 0.011989 0.000000 -0.007172 0.000000
# 4 0.000000 0.000000 0.000000 0.028068 0.000000 -0.020574
# 5 -0.015442 0.012035 -0.007172 0.000000 0.052199 0.000000
# 6 0.000000 0.000000 0.000000 -0.020574 0.000000 0.039942
#
#
# Mechanical properties :
#
#
# Convention : Reuss Voigt Hill
#
# Bulk Modulus (GPa) = 41.17940 51.20009 46.18974
# Shear Modulus (GPa) = 24.66344 38.43415 31.54879
#
# Velocity S-wave (km/s) = 3.49762 4.36621 3.95583
# Velocity P-wave (km/s) = 6.06107 7.12841 6.61630
#
# Compressibility (1/GPa) = 0.02428399
#
# Stress axis : x y z
#
# Youngs Moduli (GPa) = 41.94853 73.92805 83.41030
#
# Poissons Ratio (x) = 0.73058 -0.12315
# Poissons Ratio (y) = 0.41455 0.34443
# Poissons Ratio (z) = -0.06193 0.30527
#
# Static dielectric constant tensor:
#      x y z
#    x 1.699720 0.000000 0.001720 
#    y 0.000000 1.798840 0.000000 
#    z 0.001720 0.000000 1.717800 
# 
# From -- ./inp_files/353929.got.cif
#   From: 2010.05.17/outbox.cif.g08.bks.cpg/sg12_177_cif.got.tgz:353929.got - 2010.06.03 13:09:07.
