data_PCOD9209928
_publ_section_title
;
Structure prediction by ZEFSAII (Michael W. Deem and Ramdas Pophale) SiO2 
 PCOD9209928
Probable space group: C 2/M
;
_chemical_formula_sum "Si O2"
_cell_formula_units_Z 32
_cell_length_a 9.371520
_cell_length_b 25.734131
_cell_length_c 6.357489
_cell_angle_alpha 90.000000
_cell_angle_beta 56.839546
_cell_angle_gamma 90.000000
_cell_volume 1283.524954
_symmetry_space_group_name_H-M "C 2/M"
_symmetry_group_IT_number 12
_symmetry_cell_setting 'monoclinic'
loop_
_space_group_symop_operation_xyz
x,y,z
-x,y,-z
-x,-y,-z
x,-y,z
1/2+x,1/2+y,z
1/2-x,1/2+y,-z
1/2-x,1/2-y,-z
1/2+x,1/2-y,z
loop_
_atom_site_type_symbol
_atom_site_label
_atom_site_fract_x
_atom_site_fract_y
_atom_site_fract_z
Si Si1 0.172210 0.282974 0.256410
Si Si2 0.161825 0.154758 0.522405
Si Si3 0.642927 0.119529 0.006872
Si Si4 0.790298 0.440569 0.685635
O O1 0.309547 0.300694 0.324561
O O2 0.000000 0.260175 0.500000
O O3 0.250000 0.250000 0.000000
O O4 0.111573 0.338233 0.212525
O O5 0.303224 0.156866 0.227690
O O6 0.197526 0.100000 0.607916
O O7 0.000000 0.152301 0.500000
O O8 0.500000 0.087244 0.000000
O O9 0.756590 0.078414 0.039956
O O10 0.745834 0.500000 0.682524
O O11 0.000000 0.436431 0.500000
#
# Coordination Sequence:
#
# PCOD9209928 Si02
#       4
#     8   8   8   8
#     4  11  25  48  75 103 142 190 247 303 364 439
#     4  11  24  45  70 102 146 188 233 301 369 425
#     4  11  20  43  71  96 142 187 238 292 354 425
#     4  10  21  38  68 105 139 187 244 290 348 429
#
# _framework density 24.931345
#
# number of rings (size 3 to 8) (size 9 to 14) (size 15 to 20)
#    0.000    1.250    5.000    1.500    0.000    8.000 
#    4.500    2.500    0.000    0.000    0.000    0.000 
#    0.000    0.000    0.000    0.000    0.000    0.000 
#
# Total GULP energy -89162.666779 kJ/mol
# GULP energy per Si atom -5572.666674 kJ/mol
# Density = 2.487460 g / cm^3
# Si number density = 24.931345 Si / 1000 Ang^3
#
#
#
# Elastic Constant Matrix: (Units=GPa)
#
#
# Indices 1 2 3 4 5 6 
#
# 1 192.7076 67.9898 56.0579 0.0000 56.1116 0.0000
# 2 67.9898 180.8998 57.1287 0.0000 33.5296 0.0000
# 3 56.0579 57.1287 140.9418 0.0000 36.8110 0.0000
# 4 0.0000 0.0000 0.0000 17.6289 0.0000 6.3212
# 5 56.1116 33.5296 36.8110 0.0000 47.3105 0.0000
# 6 0.0000 0.0000 0.0000 6.3212 0.0000 22.7135
#
#
#
# Elastic Compliance Matrix: (Units=1/GPa)
#
#
# Indices 1 2 3 4 5 6 
#
# 1 0.008288 -0.001383 -0.000533 0.000000 -0.008435 0.000000
# 2 -0.001383 0.006962 -0.001772 0.000000 -0.001915 0.000000
# 3 -0.000533 -0.001772 0.009453 0.000000 -0.005468 0.000000
# 4 0.000000 0.000000 0.000000 0.063013 0.000000 -0.017537
# 5 -0.008435 -0.001915 -0.005468 0.000000 0.036753 0.000000
# 6 0.000000 0.000000 0.000000 -0.017537 0.000000 0.048907
#
#
# Mechanical properties :
#
#
# Convention : Reuss Voigt Hill
#
# Bulk Modulus (GPa) = 57.70901 97.43355 77.57128
# Shear Modulus (GPa) = 26.80546 39.75544 33.28045
#
# Velocity S-wave (km/s) = 3.28254 3.99757 3.65757
# Velocity P-wave (km/s) = 6.12896 7.77644 7.00133
#
# Compressibility (1/GPa) = 0.01732832
#
# Stress axis : x y z
#
# Youngs Moduli (GPa) = 120.65005 143.63030 105.78400
#
# Poissons Ratio (x) = 0.19870 0.05636
# Poissons Ratio (y) = 0.16691 0.18741
# Poissons Ratio (z) = 0.06428 0.25447
#
# Static dielectric constant tensor:
#      x y z
#    x 2.758930 0.000000 -0.408100 
#    y 0.000000 2.022370 0.000000 
#    z -0.408100 0.000000 2.253010 
# 
# From -- ./inp_files/3736.got.cif
#   From: 2010.05.17/outbox.cif.g08.bks.cpg/sg12_2_cif.got.tgz:3736.got - 2010.06.03 13:09:07.
