data_PCOD9209961
_publ_section_title
;
Structure prediction by ZEFSAII (Michael W. Deem and Ramdas Pophale) SiO2 
 PCOD9209961
Probable space group: C 2/M
;
_chemical_formula_sum "Si O2"
_cell_formula_units_Z 64
_cell_length_a 15.956576
_cell_length_b 24.917975
_cell_length_c 7.684249
_cell_angle_alpha 90.000000
_cell_angle_beta 108.426251
_cell_angle_gamma 90.000000
_cell_volume 2898.658851
_symmetry_space_group_name_H-M "C 2/M"
_symmetry_group_IT_number 12
_symmetry_cell_setting 'monoclinic'
loop_
_space_group_symop_operation_xyz
x,y,z
-x,y,-z
-x,-y,-z
x,-y,z
1/2+x,1/2+y,z
1/2-x,1/2+y,-z
1/2-x,1/2-y,-z
1/2+x,1/2-y,z
loop_
_atom_site_type_symbol
_atom_site_label
_atom_site_fract_x
_atom_site_fract_y
_atom_site_fract_z
Si Si1 0.204992 0.939931 0.096218
Si Si2 0.074664 0.841006 0.407417
Si Si3 0.881461 0.402205 0.082347
Si Si4 0.510109 0.765408 0.301474
Si Si5 0.971696 0.940017 0.182449
Si Si6 0.570335 0.881145 0.271983
Si Si7 0.182624 0.284854 0.848445
Si Si8 0.256144 0.145492 0.414801
O O1 0.303632 0.940756 0.087624
O O2 0.208805 0.895059 0.247971
O O3 0.181353 0.000000 0.144473
O O4 0.132379 0.925878 0.900985
O O5 0.179451 0.846031 0.508724
O O6 0.000000 0.826394 0.500000
O O7 0.067552 0.786395 0.291005
O O8 0.032773 0.895840 0.309762
O O9 0.840551 0.343037 0.087216
O O10 0.973535 0.405625 0.249654
O O11 0.902181 0.406512 0.892924
O O12 0.500000 0.782216 0.500000
O O13 0.547962 0.817902 0.233103
O O14 0.408859 0.753334 0.196065
O O15 0.981146 0.000000 0.262892
O O16 0.000000 0.941278 0.000000
O O17 0.653863 0.881143 0.455215
O O18 0.215459 0.301317 0.675334
O O19 0.250000 0.250000 0.000000
#
# Coordination Sequence:
#
# PCOD9209961 Si02
#       8
#     8   8   8   8   8   8   8   8
#     4  10  22  42  66  93 121 161 212 264 324 379
#     4  11  26  38  57  97 127 164 213 262 303 367
#     4   9  22  39  63  92 118 162 203 257 316 383
#     4  10  21  39  56  85 130 166 203 249 298 372
#     4  10  21  42  65  83 120 165 205 264 324 370
#     4  10  21  42  62  88 129 167 204 247 326 378
#     4  10  22  36  59  89 118 163 213 252 305 373
#     4  11  23  40  65  88 125 171 207 263 313 378
#
# _framework density 22.079177000000001
#
# number of rings (size 3 to 8) (size 9 to 14) (size 15 to 20)
#    0.000    1.875    2.500    0.000    7.000    1.750 
#    2.250    3.125    0.000    0.000    0.000    0.000 
#    0.000    0.000    0.000    0.000    0.000    0.000 
#
# Total GULP energy -178334.278428 kJ/mol
# GULP energy per Si atom -5572.946201 kJ/mol
# Density = 2.202892 g / cm^3
# Si number density = 22.079177 Si / 1000 Ang^3
#
#
#
# Elastic Constant Matrix: (Units=GPa)
#
#
# Indices 1 2 3 4 5 6 
#
# 1 127.8022 9.0486 13.6264 0.0000 24.8669 0.0000
# 2 9.0486 42.6868 -6.7759 0.0000 9.1021 0.0000
# 3 13.6264 -6.7759 33.7666 0.0000 16.4628 0.0000
# 4 0.0000 0.0000 0.0000 5.0331 0.0000 -31.5582
# 5 24.8669 9.1021 16.4628 0.0000 37.5505 0.0000
# 6 0.0000 0.0000 0.0000 -31.5582 0.0000 -86.0211
#
#
#
# Elastic Compliance Matrix: (Units=1/GPa)
#
#
# Indices 1 2 3 4 5 6 
#
# 1 0.009043 -0.001033 -0.001347 0.000000 -0.005148 0.000000
# 2 -0.001033 0.027808 0.011383 0.000000 -0.011047 0.000000
# 3 -0.001347 0.011383 0.042420 0.000000 -0.020465 0.000000
# 4 0.000000 0.000000 0.000000 0.060202 0.000000 -0.022086
# 5 -0.005148 -0.011047 -0.020465 0.000000 0.041690 0.000000
# 6 0.000000 0.000000 0.000000 -0.022086 0.000000 -0.003522
#
#
# Mechanical properties :
#
#
# Convention : Reuss Voigt Hill
#
# Bulk Modulus (GPa) = 10.27991 26.22820 18.25406
# Shear Modulus (GPa) = 26.03351 3.86960 14.95156
#
# Velocity S-wave (km/s) = 3.43752 1.32530 2.60509
# Velocity P-wave (km/s) = 4.51901 3.77450 4.16343
#
# Compressibility (1/GPa) = 0.09727714
#
# Stress axis : x y z
#
# Youngs Moduli (GPa) = 110.58379 35.96109 23.57352
#
# Poissons Ratio (x) = 0.03715 0.03175
# Poissons Ratio (y) = 0.11424 -0.26834
# Poissons Ratio (z) = 0.14894 -0.40934
#
# Static dielectric constant tensor:
#      x y z
#    x 1.891580 0.000000 -0.003030 
#    y 0.000000 1.806390 0.000000 
#    z -0.003030 0.000000 1.891420 
# 
# From -- ./inp_files/67020.got.cif
#   From: 2010.05.17/outbox.cif.g08.bks.cpg/sg12_34_cif.got.tgz:67020.got - 2010.06.03 13:09:07.
