data_PCOD9209219
_publ_section_title
;
Structure prediction by ZEFSAII (Michael W. Deem and Ramdas Pophale) SiO2 
 PCOD9209219
Probable space group: C 2/M
;
_chemical_formula_sum "Si O2"
_cell_formula_units_Z 56
_cell_length_a 9.401552
_cell_length_b 18.109070
_cell_length_c 26.096749
_cell_angle_alpha 90.000000
_cell_angle_beta 138.506059
_cell_angle_gamma 90.000000
_cell_volume 2943.708245
_symmetry_space_group_name_H-M "C 2/M"
_symmetry_group_IT_number 12
_symmetry_cell_setting 'monoclinic'
loop_
_space_group_symop_operation_xyz
x,y,z
-x,y,-z
-x,-y,-z
x,-y,z
1/2+x,1/2+y,z
1/2-x,1/2+y,-z
1/2-x,1/2-y,-z
1/2+x,1/2-y,z
loop_
_atom_site_type_symbol
_atom_site_label
_atom_site_fract_x
_atom_site_fract_y
_atom_site_fract_z
Si Si1 0.354020 0.918348 0.410215
Si Si2 0.509382 0.226708 0.441849
Si Si3 0.878184 0.303054 0.717177
Si Si4 0.786105 0.087186 0.138098
Si Si5 0.631135 0.415044 0.717814
Si Si6 0.158151 0.187058 0.200976
Si Si7 0.494636 0.231891 0.055533
O O1 0.500000 0.926548 0.500000
O O2 0.460309 0.854456 0.405580
O O3 0.114375 0.890552 0.358950
O O4 0.332740 0.000000 0.380740
O O5 0.500000 0.219839 0.500000
O O6 0.326594 0.280417 0.372005
O O7 0.750000 0.250000 0.500000
O O8 0.804861 0.370495 0.732960
O O9 0.903029 0.237352 0.766141
O O10 0.084364 0.320081 0.737323
O O11 0.833974 0.090780 0.211932
O O12 0.596988 0.148798 0.079255
O O13 0.998825 0.116997 0.165484
O O14 0.739634 0.000000 0.113481
O O15 0.642808 0.500000 0.705873
O O16 0.106894 0.228546 0.133725
O O17 0.500000 0.264614 0.000000
O O18 0.250000 0.250000 0.000000
#
# Coordination Sequence:
#
# PCOD9209219 Si02
#       7
#     8   8   8   8   8   8   8
#     4   9  17  32  54  79 112 155 202 250 308 368
#     4  11  22  35  54  88 122 156 208 266 315 369
#     4  12  21  37  64  87 126 169 217 261 316 378
#     4  11  24  43  66  97 131 165 210 268 322 376
#     4  10  21  38  61  89 122 162 211 264 318 375
#     4  12  22  39  64  94 121 167 218 251 312 384
#     4  12  23  42  67  94 125 163 207 256 306 387
#
# _framework density 19.023624999999999
#
# number of rings (size 3 to 8) (size 9 to 14) (size 15 to 20)
#    0.000    1.000    4.286    4.286    0.000    0.857 
#    0.000    0.000    0.000    4.286    0.000    0.000 
#    0.000    0.000    0.000    0.000    0.000    0.000 
#
# Total GULP energy -155887.100155 kJ/mol
# GULP energy per Si atom -5567.396434 kJ/mol
# Density = 1.898033 g / cm^3
# Si number density = 19.023625 Si / 1000 Ang^3
#
#
#
# Elastic Constant Matrix: (Units=GPa)
#
#
# Indices 1 2 3 4 5 6 
#
# 1 122.5780 48.3773 25.9105 -0.0001 25.5352 0.0000
# 2 48.3773 91.8365 15.0075 -0.0001 21.6064 0.0001
# 3 25.9105 15.0075 80.7412 -0.0002 13.8178 0.0003
# 4 -0.0001 -0.0001 -0.0002 30.2189 -0.0001 0.6574
# 5 25.5352 21.6064 13.8178 -0.0001 47.9172 0.0001
# 6 0.0000 0.0001 0.0003 0.6574 0.0001 35.9990
#
#
#
# Elastic Compliance Matrix: (Units=1/GPa)
#
#
# Indices 1 2 3 4 5 6 
#
# 1 0.011160 -0.004782 -0.002150 0.000000 -0.003171 0.000000
# 2 -0.004782 0.014381 -0.000489 0.000000 -0.003795 0.000000
# 3 -0.002150 -0.000489 0.013604 0.000000 -0.002557 0.000000
# 4 0.000000 0.000000 0.000000 0.033105 0.000000 -0.000605
# 5 -0.003171 -0.003795 -0.002557 0.000000 0.025008 0.000000
# 6 0.000000 0.000000 0.000000 -0.000605 0.000000 0.027790
#
#
# Mechanical properties :
#
#
# Convention : Reuss Voigt Hill
#
# Bulk Modulus (GPa) = 41.14635 52.63848 46.89241
# Shear Modulus (GPa) = 33.78630 36.55105 35.16868
#
# Velocity S-wave (km/s) = 4.21885 4.38808 4.30430
# Velocity P-wave (km/s) = 6.73852 7.30779 7.02892
#
# Compressibility (1/GPa) = 0.02430350
#
# Stress axis : x y z
#
# Youngs Moduli (GPa) = 89.60362 69.53846 73.50988
#
# Poissons Ratio (x) = 0.33250 0.15804
# Poissons Ratio (y) = 0.42844 0.03595
# Poissons Ratio (z) = 0.19264 0.03400
#
# Static dielectric constant tensor:
#      x y z
#    x 1.630410 0.000000 0.056120 
#    y 0.000000 1.763460 0.000000 
#    z 0.056120 0.000000 1.818370 
# 
# From -- ./inp_files/257149.got.cif
#   From: 2010.05.17/outbox.cif.g08.bks.cpg/sg12_129_cif.got.tgz:257149.got - 2010.06.03 13:09:07.
