data_PCOD9209561
_publ_section_title
;
Structure prediction by ZEFSAII (Michael W. Deem and Ramdas Pophale) SiO2 
 PCOD9209561
Probable space group: C 2/M
;
_chemical_formula_sum "Si O2"
_cell_formula_units_Z 32
_cell_length_a 13.169507
_cell_length_b 14.054261
_cell_length_c 7.472827
_cell_angle_alpha 90.000000
_cell_angle_beta 110.550675
_cell_angle_gamma 90.000000
_cell_volume 1295.108875
_symmetry_space_group_name_H-M "C 2/M"
_symmetry_group_IT_number 12
_symmetry_cell_setting 'monoclinic'
loop_
_space_group_symop_operation_xyz
x,y,z
-x,y,-z
-x,-y,-z
x,-y,z
1/2+x,1/2+y,z
1/2-x,1/2+y,-z
1/2-x,1/2-y,-z
1/2+x,1/2-y,z
loop_
_atom_site_type_symbol
_atom_site_label
_atom_site_fract_x
_atom_site_fract_y
_atom_site_fract_z
Si Si1 0.772126 0.113140 0.675965
Si Si2 0.616187 0.885963 0.257748
Si Si3 0.885799 0.698980 0.136089
Si Si4 0.016365 0.108279 0.724550
O O1 0.713585 0.136904 0.451989
O O2 0.707047 0.165205 0.789603
O O3 0.899774 0.130428 0.739430
O O4 0.758221 0.000000 0.693299
O O5 0.501960 0.847492 0.263130
O O6 0.609569 0.000000 0.232615
O O7 0.631851 0.838543 0.074842
O O8 0.902034 0.811520 0.162221
O O9 0.000000 0.112666 0.500000
O O10 0.049003 0.000000 0.789952
#
# Coordination Sequence:
#
# PCOD9209561 Si02
#       4
#     8   8   8   8
#     4  10  21  41  69  95 126 171 215 259 319 388
#     4  10  21  38  63 100 136 163 208 273 325 374
#     4  11  21  38  66  96 127 168 216 263 318 383
#     4  10  23  43  65  93 131 172 214 265 323 379
#
# _framework density 24.708348999999998
#
# number of rings (size 3 to 8) (size 9 to 14) (size 15 to 20)
#    0.000    1.750    0.000    5.250    0.000    6.000 
#    0.000   16.250    0.000   19.500    0.000    0.000 
#    0.000    0.000    0.000    0.000    0.000    0.000 
#
# Total GULP energy -89892.696457 kJ/mol
# GULP energy per Si atom -5618.293529 kJ/mol
# Density = 2.465211 g / cm^3
# Si number density = 24.708349 Si / 1000 Ang^3
#
#
#
# Elastic Constant Matrix: (Units=GPa)
#
#
# Indices 1 2 3 4 5 6 
#
# 1 112.0796 73.2411 38.7280 0.0000 -28.3444 0.0000
# 2 73.2411 153.4393 66.0768 0.0000 -8.9567 0.0000
# 3 38.7280 66.0768 91.8175 0.0000 -10.0394 0.0000
# 4 0.0000 0.0000 0.0000 34.0524 0.0000 2.0533
# 5 -28.3444 -8.9567 -10.0394 0.0000 38.1356 0.0000
# 6 0.0000 0.0000 0.0000 2.0533 0.0000 48.9648
#
#
#
# Elastic Compliance Matrix: (Units=1/GPa)
#
#
# Indices 1 2 3 4 5 6 
#
# 1 0.016247 -0.006794 -0.000842 0.000000 0.010258 0.000000
# 2 -0.006794 0.012292 -0.006401 0.000000 -0.003848 0.000000
# 3 -0.000842 -0.006401 0.016083 0.000000 0.002105 0.000000
# 4 0.000000 0.000000 0.000000 0.029441 0.000000 -0.001235
# 5 0.010258 -0.003848 0.002105 0.000000 0.033497 0.000000
# 6 0.000000 0.000000 0.000000 -0.001235 0.000000 0.020475
#
#
# Mechanical properties :
#
#
# Convention : Reuss Voigt Hill
#
# Bulk Modulus (GPa) = 60.42955 79.26980 69.84967
# Shear Modulus (GPa) = 30.93577 36.18323 33.55950
#
# Velocity S-wave (km/s) = 3.54225 3.83092 3.68941
# Velocity P-wave (km/s) = 6.42186 7.19164 6.81763
#
# Compressibility (1/GPa) = 0.01654820
#
# Stress axis : x y z
#
# Youngs Moduli (GPa) = 61.54970 81.35323 62.17696
#
# Poissons Ratio (x) = 0.55269 0.05236
# Poissons Ratio (y) = 0.41815 0.39801
# Poissons Ratio (z) = 0.05183 0.52076
#
# Static dielectric constant tensor:
#      x y z
#    x 1.890830 0.000000 0.031100 
#    y 0.000000 1.939170 0.000000 
#    z 0.031100 0.000000 1.956890 
# 
# From -- ./inp_files/45413.got.cif
#   From: 2010.05.17/outbox.cif.g08.bks.cpg/sg12_23_cif.got.tgz:45413.got - 2010.06.03 13:09:07.
