data_PCOD9209664
_publ_section_title
;
Structure prediction by ZEFSAII (Michael W. Deem and Ramdas Pophale) SiO2 
 PCOD9209664
Probable space group: C 2/M
;
_chemical_formula_sum "Si O2"
_cell_formula_units_Z 40
_cell_length_a 17.011026
_cell_length_b 26.787351
_cell_length_c 8.748324
_cell_angle_alpha 90.000000
_cell_angle_beta 31.085221
_cell_angle_gamma 90.000000
_cell_volume 2058.248125
_symmetry_space_group_name_H-M "C 2/M"
_symmetry_group_IT_number 12
_symmetry_cell_setting 'monoclinic'
loop_
_space_group_symop_operation_xyz
x,y,z
-x,y,-z
-x,-y,-z
x,-y,z
1/2+x,1/2+y,z
1/2-x,1/2+y,-z
1/2-x,1/2-y,-z
1/2+x,1/2-y,z
loop_
_atom_site_type_symbol
_atom_site_label
_atom_site_fract_x
_atom_site_fract_y
_atom_site_fract_z
Si Si1 0.585815 0.243819 0.203990
Si Si2 0.126218 0.943638 0.922739
Si Si3 0.380264 0.148955 0.060086
Si Si4 0.529252 0.945677 0.767170
Si Si5 0.477558 0.645992 0.354529
O O1 0.500000 0.228068 0.500000
O O2 0.527748 0.296917 0.236584
O O3 0.750000 0.250000 0.000000
O O4 0.592666 0.200476 0.070400
O O5 0.293878 0.937532 0.569143
O O6 0.122478 0.000000 0.999572
O O7 0.000000 0.943806 0.000000
O O8 0.077841 0.897268 0.109485
O O9 0.201105 0.142095 0.393359
O O10 0.500000 0.149793 0.000000
O O11 0.430611 0.100955 0.876695
O O12 0.483938 0.000000 0.780375
O O13 0.500000 0.948302 0.000000
O O14 0.500000 0.641438 0.500000
#
# Coordination Sequence:
#
# PCOD9209664 Si02
#       5
#     8   8   8   8   8
#     4  11  23  44  64  87 126 169 205 254 318 373
#     4  10  21  38  63  94 127 166 209 257 311 366
#     4  11  23  39  64  94 122 161 211 258 308 363
#     4   9  19  36  59  90 125 158 198 254 312 360
#     4  11  24  42  62  91 129 169 207 251 316 377
#
# _framework density 19.434002
#
# number of rings (size 3 to 8) (size 9 to 14) (size 15 to 20)
#    0.000    1.600    4.000    2.400    2.800    4.400 
#    0.000    0.000    0.000    3.000    0.000    0.000 
#    0.000    0.000    0.000    0.000    0.000    0.000 
#
# Total GULP energy -111440.531933 kJ/mol
# GULP energy per Si atom -5572.026597 kJ/mol
# Density = 1.938977 g / cm^3
# Si number density = 19.434002 Si / 1000 Ang^3
#
#
#
# Elastic Constant Matrix: (Units=GPa)
#
#
# Indices 1 2 3 4 5 6 
#
# 1 53.4075 38.9695 26.4310 0.0000 -17.9386 0.0001
# 2 38.9695 198.5964 73.2742 0.0000 0.3232 -0.0002
# 3 26.4310 73.2742 133.0175 -0.0001 -19.2452 0.0009
# 4 0.0000 0.0000 -0.0001 43.0863 0.0001 8.7024
# 5 -17.9386 0.3232 -19.2452 0.0001 35.0019 -0.0005
# 6 0.0001 -0.0002 0.0009 8.7024 -0.0005 145.7059
#
#
#
# Elastic Compliance Matrix: (Units=1/GPa)
#
#
# Indices 1 2 3 4 5 6 
#
# 1 0.027430 -0.005183 -0.000603 0.000000 0.013775 0.000000
# 2 -0.005183 0.007450 -0.003768 0.000000 -0.004797 0.000000
# 3 -0.000603 -0.003768 0.010510 0.000000 0.005505 0.000000
# 4 0.000000 0.000000 0.000000 0.023493 0.000000 -0.001403
# 5 0.013775 -0.004797 0.005505 0.000000 0.038700 0.000000
# 6 0.000000 0.000000 0.000000 -0.001403 0.000000 0.006947
#
#
# Mechanical properties :
#
#
# Convention : Reuss Voigt Hill
#
# Bulk Modulus (GPa) = 38.04678 73.59674 55.82176
# Shear Modulus (GPa) = 35.11255 61.18193 48.14724
#
# Velocity S-wave (km/s) = 4.25521 5.61696 4.98282
# Velocity P-wave (km/s) = 6.61531 8.94535 7.86707
#
# Compressibility (1/GPa) = 0.02628343
#
# Stress axis : x y z
#
# Youngs Moduli (GPa) = 36.45587 134.21937 95.14882
#
# Poissons Ratio (x) = 0.69560 0.05734
# Poissons Ratio (y) = 0.18894 0.35856
# Poissons Ratio (z) = 0.02197 0.50579
#
# Static dielectric constant tensor:
#      x y z
#    x 1.656170 0.000000 0.009300 
#    y 0.000000 1.688100 0.000000 
#    z 0.009300 0.000000 1.668760 
# 
# From -- ./inp_files/79297.got.cif
#   From: 2010.05.17/outbox.cif.g08.bks.cpg/sg12_40_cif.got.tgz:79297.got - 2010.06.03 13:09:07.
