data_PCOD9209438
_publ_section_title
;
Structure prediction by ZEFSAII (Michael W. Deem and Ramdas Pophale) SiO2 
 PCOD9209438
Probable space group: C 2/M
;
_chemical_formula_sum "Si O2"
_cell_formula_units_Z 56
_cell_length_a 17.672258
_cell_length_b 18.383724
_cell_length_c 14.718132
_cell_angle_alpha 90.000000
_cell_angle_beta 141.814245
_cell_angle_gamma 90.000000
_cell_volume 2956.081188
_symmetry_space_group_name_H-M "C 2/M"
_symmetry_group_IT_number 12
_symmetry_cell_setting 'monoclinic'
loop_
_space_group_symop_operation_xyz
x,y,z
-x,y,-z
-x,-y,-z
x,-y,z
1/2+x,1/2+y,z
1/2-x,1/2+y,-z
1/2-x,1/2-y,-z
1/2+x,1/2-y,z
loop_
_atom_site_type_symbol
_atom_site_label
_atom_site_fract_x
_atom_site_fract_y
_atom_site_fract_z
Si Si1 0.251754 0.669456 0.960776
Si Si2 0.171664 0.692985 0.210980
Si Si3 0.129172 0.584285 0.003439
Si Si4 0.648152 0.082913 0.331742
Si Si5 0.015597 0.170165 0.117397
Si Si6 0.248830 0.414675 0.621972
Si Si7 0.134884 0.685254 0.663462
O O1 0.219310 0.613324 0.009908
O O2 0.386424 0.662229 0.044471
O O3 0.250000 0.750000 0.000000
O O4 0.152780 0.665621 0.785824
O O5 0.136811 0.637480 0.097367
O O6 0.215937 0.642875 0.335510
O O7 0.065748 0.747191 0.149845
O O8 0.274733 0.747214 0.270769
O O9 0.153155 0.500000 0.051126
O O10 0.992613 0.587406 0.832927
O O11 0.666947 0.097619 0.455483
O O12 0.690164 0.000000 0.354069
O O13 0.122484 0.126399 0.267622
O O14 0.000000 0.141111 0.000000
O O15 0.268272 0.500000 0.651363
O O16 0.184875 0.380623 0.649356
O O17 0.000000 0.701932 0.500000
#
# Coordination Sequence:
#
# PCOD9209438 Si02
#       7
#     8   8   8   8   8   8   8
#     4  12  22  39  62  90 127 160 200 253 299 365
#     4  11  21  40  64  90 122 158 209 255 303 359
#     4  11  23  38  63  94 125 165 206 251 307 364
#     4  10  21  38  62  90 123 160 203 254 302 358
#     4  11  21  39  63  90 116 160 204 250 306 357
#     4  10  23  41  60  88 121 157 202 252 307 365
#     4  11  24  39  62  90 120 161 200 253 309 364
#
# _framework density 18.943999000000002
#
# number of rings (size 3 to 8) (size 9 to 14) (size 15 to 20)
#    0.000    1.143    4.286    3.429    0.000    6.286 
#    0.000    0.000    0.000    0.857    0.000    0.000 
#    0.000    0.000    0.000    0.000    0.000    0.000 
#
# Total GULP energy -156384.605080 kJ/mol
# GULP energy per Si atom -5585.164467 kJ/mol
# Density = 1.890088 g / cm^3
# Si number density = 18.943999 Si / 1000 Ang^3
#
#
#
# Elastic Constant Matrix: (Units=GPa)
#
#
# Indices 1 2 3 4 5 6 
#
# 1 77.4166 40.2411 14.9781 0.0000 -8.6221 0.0000
# 2 40.2411 124.5541 51.6083 0.0000 -15.2034 0.0000
# 3 14.9781 51.6083 84.1941 0.0000 -16.8237 0.0000
# 4 0.0000 0.0000 0.0000 30.3554 0.0000 -11.0876
# 5 -8.6221 -15.2034 -16.8237 0.0000 33.8043 0.0000
# 6 0.0000 0.0000 0.0000 -11.0876 0.0000 22.5899
#
#
#
# Elastic Compliance Matrix: (Units=1/GPa)
#
#
# Indices 1 2 3 4 5 6 
#
# 1 0.015664 -0.005127 0.000770 0.000000 0.002073 0.000000
# 2 -0.005127 0.012532 -0.006557 0.000000 0.001065 0.000000
# 3 0.000770 -0.006557 0.016889 0.000000 0.005653 0.000000
# 4 0.000000 0.000000 0.000000 0.040139 0.000000 0.019701
# 5 0.002073 0.001065 0.005653 0.000000 0.033403 0.000000
# 6 0.000000 0.000000 0.000000 0.019701 0.000000 0.053937
#
#
# Mechanical properties :
#
#
# Convention : Reuss Voigt Hill
#
# Bulk Modulus (GPa) = 42.99610 55.53553 49.26582
# Shear Modulus (GPa) = 24.73490 29.30573 27.02032
#
# Velocity S-wave (km/s) = 3.61735 3.93742 3.78077
# Velocity P-wave (km/s) = 6.33977 7.07462 6.71725
#
# Compressibility (1/GPa) = 0.02325792
#
# Stress axis : x y z
#
# Youngs Moduli (GPa) = 63.84115 79.79714 59.21060
#
# Poissons Ratio (x) = 0.40911 -0.04560
# Poissons Ratio (y) = 0.32730 0.38822
# Poissons Ratio (z) = -0.04917 0.52320
#
# Static dielectric constant tensor:
#      x y z
#    x 1.668610 0.000000 0.005800 
#    y 0.000000 1.650400 0.000000 
#    z 0.005800 0.000000 1.667210 
# 
# From -- ./inp_files/234693.got.cif
#   From: 2010.05.17/outbox.cif.g08.bks.cpg/sg12_118_cif.got.tgz:234693.got - 2010.06.03 13:09:07.
