data_PCOD9209687
_publ_section_title
;
Structure prediction by ZEFSAII (Michael W. Deem and Ramdas Pophale) SiO2 
 PCOD9209687
Probable space group: C 2/M
;
_chemical_formula_sum "Si O2"
_cell_formula_units_Z 32
_cell_length_a 13.517502
_cell_length_b 25.584988
_cell_length_c 8.238142
_cell_angle_alpha 90.000000
_cell_angle_beta 28.132475
_cell_angle_gamma 90.000000
_cell_volume 1343.394270
_symmetry_space_group_name_H-M "C 2/M"
_symmetry_group_IT_number 12
_symmetry_cell_setting 'monoclinic'
loop_
_space_group_symop_operation_xyz
x,y,z
-x,y,-z
-x,-y,-z
x,-y,z
1/2+x,1/2+y,z
1/2-x,1/2+y,-z
1/2-x,1/2-y,-z
1/2+x,1/2-y,z
loop_
_atom_site_type_symbol
_atom_site_label
_atom_site_fract_x
_atom_site_fract_y
_atom_site_fract_z
Si Si1 0.404669 0.942802 0.957263
Si Si2 0.206556 0.104511 0.767623
Si Si3 0.608356 0.199584 0.674008
Si Si4 0.706410 0.342188 0.120725
O O1 0.589792 0.930831 0.559458
O O2 0.311333 0.000000 0.060736
O O3 0.500000 0.943104 0.000000
O O4 0.252942 0.893632 0.162074
O O5 0.241350 0.153382 0.597385
O O6 0.189105 0.131952 0.967926
O O7 0.000000 0.076392 0.000000
O O8 0.750000 0.250000 0.500000
O O9 0.500000 0.187661 0.000000
O O10 0.408656 0.196169 0.840298
O O11 0.500000 0.317357 0.500000
#
# Coordination Sequence:
#
# PCOD9209687 Si02
#       4
#     8   8   8   8
#     4  10  21  38  63  96 130 167 212 261 317 383
#     4  11  22  41  64  90 128 170 214 264 322 378
#     4  11  23  42  65  91 123 161 209 264 323 384
#     4  11  23  42  66  92 128 171 213 263 323 383
#
# _framework density 23.820260999999999
#
# number of rings (size 3 to 8) (size 9 to 14) (size 15 to 20)
#    0.000    1.250    0.000    9.750    0.000    3.000 
#    0.000   17.500    0.000    0.000    0.000    0.000 
#    0.000    0.000    0.000    0.000    0.000    0.000 
#
# Total GULP energy -89407.620424 kJ/mol
# GULP energy per Si atom -5587.976276 kJ/mol
# Density = 2.376604 g / cm^3
# Si number density = 23.820261 Si / 1000 Ang^3
#
#
#
# Elastic Constant Matrix: (Units=GPa)
#
#
# Indices 1 2 3 4 5 6 
#
# 1 111.7582 14.2757 35.6302 0.0000 12.1992 0.0000
# 2 14.2757 113.5194 7.1423 0.0000 -6.2239 0.0000
# 3 35.6302 7.1423 101.5782 0.0000 0.5715 0.0000
# 4 0.0000 0.0000 0.0000 6.2404 0.0000 4.5558
# 5 12.1992 -6.2239 0.5715 0.0000 55.1841 0.0000
# 6 0.0000 0.0000 0.0000 4.5558 0.0000 10.7605
#
#
#
# Elastic Compliance Matrix: (Units=1/GPa)
#
#
# Indices 1 2 3 4 5 6 
#
# 1 0.010514 -0.001229 -0.003588 0.000000 -0.002426 0.000000
# 2 -0.001229 0.009048 -0.000212 0.000000 0.001294 0.000000
# 3 -0.003588 -0.000212 0.011114 0.000000 0.000654 0.000000
# 4 0.000000 0.000000 0.000000 0.231936 0.000000 -0.098197
# 5 -0.002426 0.001294 0.000654 0.000000 0.018797 0.000000
# 6 0.000000 0.000000 0.000000 -0.098197 0.000000 0.134507
#
#
# Mechanical properties :
#
#
# Convention : Reuss Voigt Hill
#
# Bulk Modulus (GPa) = 48.50334 48.99472 48.74903
# Shear Modulus (GPa) = 11.55144 32.42416 21.98780
#
# Velocity S-wave (km/s) = 2.20453 3.69345 3.04151
# Velocity P-wave (km/s) = 5.18521 6.22912 5.73098
#
# Compressibility (1/GPa) = 0.02061714
#
# Stress axis : x y z
#
# Youngs Moduli (GPa) = 95.11561 110.52168 89.97402
#
# Poissons Ratio (x) = 0.13588 0.32280
# Poissons Ratio (y) = 0.11694 0.01910
# Poissons Ratio (z) = 0.34125 0.02346
#
# Static dielectric constant tensor:
#      x y z
#    x 2.025890 0.000000 -0.065910 
#    y 0.000000 1.890080 0.000000 
#    z -0.065910 0.000000 1.901340 
# 
# From -- ./inp_files/66688.got.cif
#   From: 2010.05.17/outbox.cif.g08.bks.cpg/sg12_34_cif.got.tgz:66688.got - 2010.06.03 13:09:07.
