data_PCOD9209021
_publ_section_title
;
Structure prediction by ZEFSAII (Michael W. Deem and Ramdas Pophale) SiO2 
 PCOD9209021
Probable space group: C 2/M
;
_chemical_formula_sum "Si O2"
_cell_formula_units_Z 32
_cell_length_a 10.406780
_cell_length_b 22.686288
_cell_length_c 6.175927
_cell_angle_alpha 90.000000
_cell_angle_beta 79.150250
_cell_angle_gamma 90.000000
_cell_volume 1432.017650
_symmetry_space_group_name_H-M "C 2/M"
_symmetry_group_IT_number 12
_symmetry_cell_setting 'monoclinic'
loop_
_space_group_symop_operation_xyz
x,y,z
-x,y,-z
-x,-y,-z
x,-y,z
1/2+x,1/2+y,z
1/2-x,1/2+y,-z
1/2-x,1/2-y,-z
1/2+x,1/2-y,z
loop_
_atom_site_type_symbol
_atom_site_label
_atom_site_fract_x
_atom_site_fract_y
_atom_site_fract_z
Si Si1 0.879931 0.568983 0.696013
Si Si2 0.365723 0.386141 0.496796
Si Si3 0.684571 0.161150 0.939706
Si Si4 0.338296 0.272274 0.274164
O O1 0.890700 0.500000 0.742575
O O2 0.743611 0.581845 0.614040
O O3 0.881946 0.608582 0.908947
O O4 0.000000 0.585506 0.500000
O O5 0.500000 0.420191 0.500000
O O6 0.414221 0.327773 0.347465
O O7 0.288804 0.366206 0.737366
O O8 0.756704 0.197966 0.106743
O O9 0.604798 0.210650 0.829422
O O10 0.250000 0.250000 0.500000
#
# Coordination Sequence:
#
# PCOD9209021 Si02
#       4
#     8   8   8   8
#     4  10  23  42  61  85 119 161 211 257 296 351
#     4  10  21  38  60  90 123 154 196 251 306 363
#     4   9  18  37  60  83 116 161 200 242 303 361
#     4   8  16  34  56  85 121 156 194 242 300 367
#
# _framework density 22.346091999999999
#
# number of rings (size 3 to 8) (size 9 to 14) (size 15 to 20)
#    0.000    2.750    0.000    0.000    0.000    6.500 
#    0.000   61.250    0.000    0.000    0.000    0.000 
#    0.000    0.000    0.000    0.000    0.000    0.000 
#
# Total GULP energy -89219.038770 kJ/mol
# GULP energy per Si atom -5576.189923 kJ/mol
# Density = 2.229523 g / cm^3
# Si number density = 22.346092 Si / 1000 Ang^3
#
#
#
# Elastic Constant Matrix: (Units=GPa)
#
#
# Indices 1 2 3 4 5 6 
#
# 1 104.5436 26.4602 25.9924 0.0000 -2.9913 0.0000
# 2 26.4602 110.2958 70.5002 0.0000 -14.9230 0.0000
# 3 25.9924 70.5002 142.5196 0.0000 -12.7927 0.0000
# 4 0.0000 0.0000 0.0000 43.6623 0.0000 -5.8716
# 5 -2.9913 -14.9230 -12.7927 0.0000 38.1796 0.0000
# 6 0.0000 0.0000 0.0000 -5.8716 0.0000 0.9662
#
#
#
# Elastic Compliance Matrix: (Units=1/GPa)
#
#
# Indices 1 2 3 4 5 6 
#
# 1 0.010275 -0.001882 -0.000966 0.000000 -0.000254 0.000000
# 2 -0.001882 0.013964 -0.006276 0.000000 0.003207 0.000000
# 3 -0.000966 -0.006276 0.010383 0.000000 0.000950 0.000000
# 4 0.000000 0.000000 0.000000 0.125337 0.000000 0.761711
# 5 -0.000254 0.003207 0.000950 0.000000 0.027744 0.000000
# 6 0.000000 0.000000 0.000000 0.761711 0.000000 5.664183
#
#
# Mechanical properties :
#
#
# Convention : Reuss Voigt Hill
#
# Bulk Modulus (GPa) = 61.07633 67.02941 64.05287
# Shear Modulus (GPa) = 0.85098 32.18867 16.51982
#
# Velocity S-wave (km/s) = 0.61777 3.79946 2.72190
# Velocity P-wave (km/s) = 5.28206 7.02204 6.21326
#
# Compressibility (1/GPa) = 0.01637295
#
# Stress axis : x y z
#
# Youngs Moduli (GPa) = 97.32784 71.61387 96.31415
#
# Poissons Ratio (x) = 0.13478 0.09301
# Poissons Ratio (y) = 0.18317 0.60450
# Poissons Ratio (z) = 0.09399 0.44947
#
# Static dielectric constant tensor:
#      x y z
#    x 1.819060 0.000000 0.010840 
#    y 0.000000 1.838480 0.000000 
#    z 0.010840 0.000000 1.813980 
# 
# From -- ./inp_files/6045.got.cif
#   From: 2010.05.17/outbox.cif.g08.bks.cpg/sg12_4_cif.got.tgz:6045.got - 2010.06.03 13:09:07.
