data_PCOD9209509
_publ_section_title
;
Structure prediction by ZEFSAII (Michael W. Deem and Ramdas Pophale) SiO2 
 PCOD9209509
Probable space group: C 2/M
;
_chemical_formula_sum "Si O2"
_cell_formula_units_Z 48
_cell_length_a 11.427963
_cell_length_b 21.998568
_cell_length_c 8.102030
_cell_angle_alpha 90.000000
_cell_angle_beta 95.726481
_cell_angle_gamma 90.000000
_cell_volume 2026.676059
_symmetry_space_group_name_H-M "C 2/M"
_symmetry_group_IT_number 12
_symmetry_cell_setting 'monoclinic'
loop_
_space_group_symop_operation_xyz
x,y,z
-x,y,-z
-x,-y,-z
x,-y,z
1/2+x,1/2+y,z
1/2-x,1/2+y,-z
1/2-x,1/2-y,-z
1/2+x,1/2-y,z
loop_
_atom_site_type_symbol
_atom_site_label
_atom_site_fract_x
_atom_site_fract_y
_atom_site_fract_z
Si Si1 0.569402 0.146036 0.680614
Si Si2 0.433070 0.652237 0.754875
Si Si3 0.235019 0.753042 0.299905
Si Si4 0.315800 0.639141 0.096789
Si Si5 0.259797 0.432020 0.552057
Si Si6 0.121840 0.431022 0.188125
O O1 0.500000 0.162015 0.500000
O O2 0.662626 0.198598 0.738090
O O3 0.649450 0.087840 0.646534
O O4 0.477112 0.119774 0.798396
O O5 0.399859 0.722995 0.729220
O O6 0.566569 0.631429 0.776758
O O7 0.361045 0.615625 0.607838
O O8 0.372972 0.643456 0.924828
O O9 0.250000 0.750000 0.500000
O O10 0.254838 0.696370 0.181328
O O11 0.216173 0.588295 0.066145
O O12 0.300519 0.500000 0.591542
O O13 0.205910 0.428465 0.362232
O O14 0.078050 0.500000 0.166962
#
# Coordination Sequence:
#
# PCOD9209509 Si02
#       6
#     8   8   8   8   8   8
#     4   9  18  34  58  93 120 151 192 247 311 355
#     4  10  24  42  56  86 119 163 206 248 305 368
#     4  11  23  38  64  89 120 156 203 256 305 368
#     4  11  24  40  60  83 124 162 205 248 307 370
#     4   9  18  36  61  86 117 155 200 252 299 356
#     4  10  21  38  62  93 124 158 205 256 306 364
#
# _framework density 23.684100000000001
#
# number of rings (size 3 to 8) (size 9 to 14) (size 15 to 20)
#    0.000    2.000    0.000    4.000    4.667    5.333 
#    0.000    5.833    0.000    5.000    0.000    0.000 
#    0.000    0.000    0.000    0.000    0.000    0.000 
#
# Total GULP energy -133948.780139 kJ/mol
# GULP energy per Si atom -5581.199172 kJ/mol
# Density = 2.363019 g / cm^3
# Si number density = 23.684100 Si / 1000 Ang^3
#
#
#
# Elastic Constant Matrix: (Units=GPa)
#
#
# Indices 1 2 3 4 5 6 
#
# 1 100.0080 17.1688 10.6852 0.0000 1.3906 0.0000
# 2 17.1688 84.3545 4.2751 0.0000 -8.8677 0.0000
# 3 10.6852 4.2751 72.3504 0.0000 -4.5711 0.0000
# 4 0.0000 0.0000 0.0000 8.5957 0.0000 -6.6214
# 5 1.3906 -8.8677 -4.5711 0.0000 40.2619 0.0000
# 6 0.0000 0.0000 0.0000 -6.6214 0.0000 17.0254
#
#
#
# Elastic Compliance Matrix: (Units=1/GPa)
#
#
# Indices 1 2 3 4 5 6 
#
# 1 0.010547 -0.002177 -0.001493 0.000000 -0.001013 0.000000
# 2 -0.002177 0.012607 -0.000245 0.000000 0.002824 0.000000
# 3 -0.001493 -0.000245 0.014158 0.000000 0.001605 0.000000
# 4 0.000000 0.000000 0.000000 0.166097 0.000000 0.064597
# 5 -0.001013 0.002824 0.001605 0.000000 0.025677 0.000000
# 6 0.000000 0.000000 0.000000 0.064597 0.000000 0.083858
#
#
# Mechanical properties :
#
#
# Convention : Reuss Voigt Hill
#
# Bulk Modulus (GPa) = 33.91998 35.66347 34.79172
# Shear Modulus (GPa) = 15.12396 28.14887 21.63641
#
# Velocity S-wave (km/s) = 2.52974 3.45122 3.02576
# Velocity P-wave (km/s) = 4.78390 5.56524 5.18930
#
# Compressibility (1/GPa) = 0.02948115
#
# Stress axis : x y z
#
# Youngs Moduli (GPa) = 94.81721 79.31971 70.63148
#
# Poissons Ratio (x) = 0.17271 0.10545
# Poissons Ratio (y) = 0.20646 0.01730
# Poissons Ratio (z) = 0.14156 0.01943
#
# Static dielectric constant tensor:
#      x y z
#    x 1.900970 0.000000 0.022770 
#    y 0.000000 1.938790 0.000000 
#    z 0.022770 0.000000 1.974040 
# 
# From -- ./inp_files/50577.got.cif
#   From: 2010.05.17/outbox.cif.g08.bks.cpg/sg12_26_cif.got.tgz:50577.got - 2010.06.03 13:09:07.
