data_PCOD9209715
_publ_section_title
;
Structure prediction by ZEFSAII (Michael W. Deem and Ramdas Pophale) SiO2 
 PCOD9209715
Probable space group: C 2/M
;
_chemical_formula_sum "Si O2"
_cell_formula_units_Z 48
_cell_length_a 17.858953
_cell_length_b 14.939609
_cell_length_c 18.156655
_cell_angle_alpha 90.000000
_cell_angle_beta 150.689799
_cell_angle_gamma 90.000000
_cell_volume 2371.467719
_symmetry_space_group_name_H-M "C 2/M"
_symmetry_group_IT_number 12
_symmetry_cell_setting 'monoclinic'
loop_
_space_group_symop_operation_xyz
x,y,z
-x,y,-z
-x,-y,-z
x,-y,z
1/2+x,1/2+y,z
1/2-x,1/2+y,-z
1/2-x,1/2-y,-z
1/2+x,1/2-y,z
loop_
_atom_site_type_symbol
_atom_site_label
_atom_site_fract_x
_atom_site_fract_y
_atom_site_fract_z
Si Si1 0.151733 0.266436 0.097739
Si Si2 0.783751 0.846070 0.493228
Si Si3 0.199469 0.103243 0.045960
Si Si4 0.638994 0.395551 0.821350
Si Si5 0.955752 0.401964 0.599681
Si Si6 0.650653 0.262695 0.593731
O O1 0.109753 0.179852 0.012790
O O2 0.258042 0.331550 0.140828
O O3 0.245332 0.234879 0.249382
O O4 0.000000 0.311291 0.000000
O O5 0.750000 0.750000 0.500000
O O6 0.661991 0.904186 0.432818
O O7 0.767440 0.830522 0.392098
O O8 0.959095 0.873499 0.657577
O O9 0.375552 0.114448 0.222861
O O10 0.153715 0.000000 0.022066
O O11 0.182426 0.118055 0.944203
O O12 0.663334 0.500000 0.824292
O O13 0.954367 0.500000 0.562348
O O14 0.905939 0.323268 0.501679
O O15 0.500000 0.306390 0.500000
#
# Coordination Sequence:
#
# PCOD9209715 Si02
#       6
#     8   8   8   8   8   8
#     4  12  26  40  63  91 126 170 209 258 323 372
#     4  10  21  38  64  89 119 158 205 253 304 369
#     4  10  23  42  64  93 127 166 211 259 313 377
#     4  11  24  44  65  91 128 168 215 260 306 371
#     4  10  21  38  64  91 120 160 203 254 311 371
#     4  11  21  40  59  89 122 157 207 255 310 376
#
# _framework density 20.240628999999998
#
# number of rings (size 3 to 8) (size 9 to 14) (size 15 to 20)
#    0.000    1.333    3.333    2.000    7.000    1.667 
#    0.000    2.500    0.000    0.000    0.000    0.000 
#    0.000    0.000    0.000    0.000    0.000    0.000 
#
# Total GULP energy -133986.204623 kJ/mol
# GULP energy per Si atom -5582.758526 kJ/mol
# Density = 2.019456 g / cm^3
# Si number density = 20.240629 Si / 1000 Ang^3
#
#
#
# Elastic Constant Matrix: (Units=GPa)
#
#
# Indices 1 2 3 4 5 6 
#
# 1 100.5511 30.1802 18.4650 -0.0004 -5.8360 -0.0001
# 2 30.1802 79.2578 25.7184 -0.0002 -16.0619 0.0000
# 3 18.4650 25.7184 40.5250 0.0003 -12.6419 0.0001
# 4 -0.0004 -0.0002 0.0003 19.9612 0.0004 -6.2503
# 5 -5.8360 -16.0619 -12.6419 0.0004 39.2358 0.0001
# 6 -0.0001 0.0000 0.0001 -6.2503 0.0001 8.1907
#
#
#
# Elastic Compliance Matrix: (Units=1/GPa)
#
#
# Indices 1 2 3 4 5 6 
#
# 1 0.011551 -0.003487 -0.003291 0.000000 -0.000769 0.000001
# 2 -0.003487 0.017418 -0.008230 0.000000 0.003960 0.000000
# 3 -0.003291 -0.008230 0.033569 -0.000001 0.006957 -0.000002
# 4 0.000000 0.000000 -0.000001 0.065826 -0.000001 0.050232
# 5 -0.000769 0.003960 0.006957 -0.000001 0.029235 -0.000001
# 6 0.000001 0.000000 -0.000002 0.050232 -0.000001 0.160421
#
#
# Mechanical properties :
#
#
# Convention : Reuss Voigt Hill
#
# Bulk Modulus (GPa) = 30.74683 41.00678 35.87681
# Shear Modulus (GPa) = 13.93243 23.20890 18.57066
#
# Velocity S-wave (km/s) = 2.62647 3.38989 3.03230
# Velocity P-wave (km/s) = 4.94180 5.96871 5.47936
#
# Compressibility (1/GPa) = 0.03252367
#
# Stress axis : x y z
#
# Youngs Moduli (GPa) = 86.56997 57.41273 29.78967
#
# Poissons Ratio (x) = 0.20018 0.09802
# Poissons Ratio (y) = 0.30185 0.24516
# Poissons Ratio (z) = 0.28486 0.47249
#
# Static dielectric constant tensor:
#      x y z
#    x 1.730520 0.000000 0.025200 
#    y 0.000000 1.513090 0.000010 
#    z 0.025200 0.000010 1.761470 
# 
# From -- ./inp_files/105062.got.cif
#   From: 2010.05.17/outbox.cif.g08.bks.cpg/sg12_53_cif.got.tgz:105062.got - 2010.06.03 13:09:07.
