data_PCOD9209752
_publ_section_title
;
Structure prediction by ZEFSAII (Michael W. Deem and Ramdas Pophale) SiO2 
 PCOD9209752
Probable space group: C 2/M
;
_chemical_formula_sum "Si O2"
_cell_formula_units_Z 64
_cell_length_a 23.246686
_cell_length_b 21.459554
_cell_length_c 17.351653
_cell_angle_alpha 90.000000
_cell_angle_beta 158.178049
_cell_angle_gamma 90.000000
_cell_volume 3217.678470
_symmetry_space_group_name_H-M "C 2/M"
_symmetry_group_IT_number 12
_symmetry_cell_setting 'monoclinic'
loop_
_space_group_symop_operation_xyz
x,y,z
-x,y,-z
-x,-y,-z
x,-y,z
1/2+x,1/2+y,z
1/2-x,1/2+y,-z
1/2-x,1/2-y,-z
1/2+x,1/2-y,z
loop_
_atom_site_type_symbol
_atom_site_label
_atom_site_fract_x
_atom_site_fract_y
_atom_site_fract_z
Si Si1 0.809767 0.831988 0.414108
Si Si2 0.890960 0.706855 0.706753
Si Si3 0.027278 0.073663 0.279115
Si Si4 0.246156 0.930476 0.945783
Si Si5 0.254632 0.189151 0.842472
Si Si6 0.063968 0.616755 0.374937
Si Si7 0.589422 0.760384 0.753480
Si Si8 0.597525 0.425218 0.193072
O O1 0.658958 0.806274 0.268571
O O2 0.781565 0.832832 0.288498
O O3 0.854474 0.894939 0.513966
O O4 0.955679 0.787144 0.613201
O O5 0.750000 0.750000 0.500000
O O6 0.890981 0.646795 0.651439
O O7 0.074685 0.720072 0.936094
O O8 0.860357 0.082934 0.112036
O O9 0.046096 0.097961 0.214662
O O10 0.055949 0.000000 0.311826
O O11 0.233720 0.872253 0.871164
O O12 0.201482 0.000000 0.860998
O O13 0.425739 0.931106 0.191608
O O14 0.136632 0.240750 0.726660
O O15 0.224204 0.589790 0.603108
O O16 0.985411 0.672508 0.325930
O O17 0.750000 0.750000 0.000000
O O18 0.577675 0.500000 0.170556
O O19 0.500000 0.399607 0.000000
#
# Coordination Sequence:
#
# PCOD9209752 Si02
#       8
#     8   8   8   8   8   8   8   8
#     4  12  22  39  61  91 130 165 208 261 313 378
#     4  11  21  40  62  84 121 170 208 255 311 380
#     4  10  21  38  64  93 125 170 212 256 319 383
#     4  10  21  39  65  93 125 170 213 253 311 384
#     4  11  24  39  61  93 130 168 212 260 318 373
#     4  11  21  39  65  92 119 166 214 263 322 376
#     4  12  21  40  60  85 122 170 213 258 317 373
#     4  10  22  43  67  93 126 163 214 276 328 382
#
# _framework density 19.890115999999999
#
# number of rings (size 3 to 8) (size 9 to 14) (size 15 to 20)
#    0.000    1.125    6.250    1.125    0.000    0.500 
#    2.250    4.375    0.000    5.250    0.000    0.000 
#    0.000    0.000    0.000    0.000    0.000    0.000 
#
# Total GULP energy -178365.231897 kJ/mol
# GULP energy per Si atom -5573.913497 kJ/mol
# Density = 1.984485 g / cm^3
# Si number density = 19.890116 Si / 1000 Ang^3
#
#
#
# Elastic Constant Matrix: (Units=GPa)
#
#
# Indices 1 2 3 4 5 6 
#
# 1 159.1451 43.4274 57.0106 0.0000 1.7273 0.0000
# 2 43.4274 58.9371 11.5380 0.0000 -0.4497 0.0000
# 3 57.0106 11.5380 83.5791 0.0000 -2.3832 0.0000
# 4 0.0000 0.0000 0.0000 24.3196 0.0000 2.5904
# 5 1.7273 -0.4497 -2.3832 0.0000 38.9496 0.0000
# 6 0.0000 0.0000 0.0000 2.5904 0.0000 19.9835
#
#
#
# Elastic Compliance Matrix: (Units=1/GPa)
#
#
# Indices 1 2 3 4 5 6 
#
# 1 0.010214 -0.006335 -0.006118 0.000000 -0.000900 0.000000
# 2 -0.006335 0.021368 0.001389 0.000000 0.000613 0.000000
# 3 -0.006118 0.001389 0.015982 0.000000 0.001265 0.000000
# 4 0.000000 0.000000 0.000000 0.041695 0.000000 -0.005405
# 5 -0.000900 0.000613 0.001265 0.000000 0.025799 0.000000
# 6 0.000000 0.000000 0.000000 -0.005405 0.000000 0.050742
#
#
# Mechanical properties :
#
#
# Convention : Reuss Voigt Hill
#
# Bulk Modulus (GPa) = 39.31516 58.40148 48.85832
# Shear Modulus (GPa) = 25.45744 29.29623 27.37683
#
# Velocity S-wave (km/s) = 3.58146 3.84201 3.71402
# Velocity P-wave (km/s) = 6.07549 7.00765 6.55815
#
# Compressibility (1/GPa) = 0.02543548
#
# Stress axis : x y z
#
# Youngs Moduli (GPa) = 97.90747 46.79906 62.56927
#
# Poissons Ratio (x) = 0.29647 0.38280
# Poissons Ratio (y) = 0.62025 -0.08690
# Poissons Ratio (z) = 0.59900 -0.06500
#
# Static dielectric constant tensor:
#      x y z
#    x 1.718730 0.000000 0.004180 
#    y 0.000000 1.754050 0.000000 
#    z 0.004180 0.000000 1.720040 
# 
# From -- ./inp_files/291120.got.cif
#   From: 2010.05.17/outbox.cif.g08.bks.cpg/sg12_146_cif.got.tgz:291120.got - 2010.06.03 13:09:07.
