data_PCOD9209538
_publ_section_title
;
Structure prediction by ZEFSAII (Michael W. Deem and Ramdas Pophale) SiO2 
 PCOD9209538
Probable space group: C 2/M
;
_chemical_formula_sum "Si O2"
_cell_formula_units_Z 48
_cell_length_a 21.287303
_cell_length_b 13.744885
_cell_length_c 18.470863
_cell_angle_alpha 90.000000
_cell_angle_beta 21.337911
_cell_angle_gamma 90.000000
_cell_volume 1966.492776
_symmetry_space_group_name_H-M "C 2/M"
_symmetry_group_IT_number 12
_symmetry_cell_setting 'monoclinic'
loop_
_space_group_symop_operation_xyz
x,y,z
-x,y,-z
-x,-y,-z
x,-y,z
1/2+x,1/2+y,z
1/2-x,1/2+y,-z
1/2-x,1/2-y,-z
1/2+x,1/2-y,z
loop_
_atom_site_type_symbol
_atom_site_label
_atom_site_fract_x
_atom_site_fract_y
_atom_site_fract_z
Si Si1 0.047975 0.384318 0.631741
Si Si2 0.297481 0.616982 0.907922
Si Si3 0.713448 0.246443 0.698378
Si Si4 0.824839 0.884827 0.456280
Si Si5 0.929055 0.892598 0.993386
Si Si6 0.178849 0.237217 0.266527
O O1 0.060944 0.500000 0.601929
O O2 0.118947 0.319057 0.489688
O O3 0.188053 0.355347 0.542630
O O4 0.863900 0.364199 0.866013
O O5 0.297921 0.500000 0.893137
O O6 0.474324 0.644291 0.759486
O O7 0.295303 0.674336 0.833669
O O8 0.752658 0.153634 0.609174
O O9 0.558432 0.308598 0.829934
O O10 0.691033 0.217049 0.805679
O O11 0.823484 0.000000 0.455832
O O12 0.945666 0.000000 0.942013
O O13 0.737111 0.850070 0.190887
O O14 0.000000 0.903304 0.000000
O O15 0.000000 0.216606 0.500000
#
# Coordination Sequence:
#
# PCOD9209538 Si02
#       6
#     8   8   8   8   8   8
#     4  10  22  41  65  94 128 174 227 276 331 391
#     4  10  22  42  67  97 137 175 217 275 332 395
#     4  11  21  39  65  93 128 171 216 274 331 393
#     4  10  21  38  62  94 130 173 220 265 326 393
#     4   9  20  38  60  84 120 168 217 268 321 382
#     4  11  22  39  61  96 131 171 221 266 331 397
#
# _framework density 24.408937999999999
#
# number of rings (size 3 to 8) (size 9 to 14) (size 15 to 20)
#    0.000    1.833    1.667    2.000    0.000    2.667 
#    3.000    0.000    0.000    6.000    0.000    0.000 
#    0.000    0.000    0.000    0.000    0.000    0.000 
#
# Total GULP energy -134116.286155 kJ/mol
# GULP energy per Si atom -5588.178590 kJ/mol
# Density = 2.435338 g / cm^3
# Si number density = 24.408938 Si / 1000 Ang^3
#
#
#
# Elastic Constant Matrix: (Units=GPa)
#
#
# Indices 1 2 3 4 5 6 
#
# 1 127.5420 33.9664 35.4008 0.0034 8.4978 -0.0015
# 2 33.9664 61.9452 21.0286 0.0033 -0.6144 -0.0012
# 3 35.4008 21.0286 125.1608 0.0001 -6.5630 -0.0015
# 4 0.0034 0.0033 0.0001 38.9090 0.0005 5.1900
# 5 8.4978 -0.6144 -6.5630 0.0005 37.9265 0.0014
# 6 -0.0015 -0.0012 -0.0015 5.1900 0.0014 9.7472
#
#
#
# Elastic Compliance Matrix: (Units=1/GPa)
#
#
# Indices 1 2 3 4 5 6 
#
# 1 0.009865 -0.004710 -0.002138 -0.000001 -0.002657 0.000001
# 2 -0.004710 0.019370 -0.001867 -0.000002 0.001046 0.000002
# 3 -0.002138 -0.001867 0.009014 0.000000 0.002009 0.000000
# 4 -0.000001 -0.000002 0.000000 0.027666 0.000000 -0.014731
# 5 -0.002657 0.001046 0.002009 0.000000 0.027327 -0.000004
# 6 0.000001 0.000002 0.000000 -0.014731 -0.000004 0.110437
#
#
# Mechanical properties :
#
#
# Convention : Reuss Voigt Hill
#
# Bulk Modulus (GPa) = 48.03577 55.04885 51.54231
# Shear Modulus (GPa) = 21.92503 32.26668 27.09585
#
# Velocity S-wave (km/s) = 3.00031 3.63977 3.33540
# Velocity P-wave (km/s) = 5.63248 6.34552 5.99960
#
# Compressibility (1/GPa) = 0.02081782
#
# Stress axis : x y z
#
# Youngs Moduli (GPa) = 101.36415 51.62571 110.94338
#
# Poissons Ratio (x) = 0.24315 0.23724
# Poissons Ratio (y) = 0.47742 0.20718
# Poissons Ratio (z) = 0.21675 0.09641
#
# Static dielectric constant tensor:
#      x y z
#    x 1.981770 0.000000 -0.050610 
#    y 0.000000 1.906000 0.000000 
#    z -0.050610 0.000000 2.064730 
# 
# From -- ./inp_files/325642.got.cif
#   From: 2010.05.17/outbox.cif.g08.bks.cpg/sg12_163_cif.got.tgz:325642.got - 2010.06.03 13:09:07.
