data_PCOD9209223
_publ_section_title
;
Structure prediction by ZEFSAII (Michael W. Deem and Ramdas Pophale) SiO2 
 PCOD9209223
Probable space group: C 2/M
;
_chemical_formula_sum "Si O2"
_cell_formula_units_Z 48
_cell_length_a 15.334932
_cell_length_b 9.207799
_cell_length_c 26.521479
_cell_angle_alpha 90.000000
_cell_angle_beta 143.154272
_cell_angle_gamma 90.000000
_cell_volume 2245.651176
_symmetry_space_group_name_H-M "C 2/M"
_symmetry_group_IT_number 12
_symmetry_cell_setting 'monoclinic'
loop_
_space_group_symop_operation_xyz
x,y,z
-x,y,-z
-x,-y,-z
x,-y,z
1/2+x,1/2+y,z
1/2-x,1/2+y,-z
1/2-x,1/2-y,-z
1/2+x,1/2-y,z
loop_
_atom_site_type_symbol
_atom_site_label
_atom_site_fract_x
_atom_site_fract_y
_atom_site_fract_z
Si Si1 0.658235 0.830508 0.633662
Si Si2 0.095481 0.171119 0.429169
Si Si3 0.204363 0.334874 0.858700
Si Si4 0.636354 0.171803 0.983905
Si Si5 0.428938 0.328253 0.699176
Si Si6 0.360330 0.660954 0.825174
O O1 0.516976 0.739613 0.583113
O O2 0.763043 0.785050 0.636064
O O3 0.766666 0.819794 0.731758
O O4 0.617079 0.000000 0.608061
O O5 0.250000 0.250000 0.500000
O O6 0.039765 0.189718 0.345632
O O7 0.112839 0.000000 0.446375
O O8 0.198119 0.500000 0.875590
O O9 0.323259 0.242062 0.943712
O O10 0.254748 0.340706 0.824272
O O11 0.047056 0.259306 0.786099
O O12 0.653268 0.000000 0.993241
O O13 0.750000 0.250000 0.000000
O O14 0.479486 0.218146 0.890987
O O15 0.440748 0.500000 0.716630
O O16 0.431749 0.500000 0.855674
#
# Coordination Sequence:
#
# PCOD9209223 Si02
#       6
#     8   8   8   8   8   8
#     4  10  21  41  66  92 124 164 205 254 313 372
#     4  11  24  42  65  94 127 163 205 256 311 375
#     4  11  22  38  62  91 123 162 207 256 311 373
#     4  12  25  39  57  84 121 165 213 264 311 364
#     4  10  22  40  65  94 126 166 211 256 310 375
#     4  10  21  38  61  89 123 163 205 253 313 376
#
# _framework density 21.374648000000001
#
# number of rings (size 3 to 8) (size 9 to 14) (size 15 to 20)
#    0.000    1.333    1.667    4.000    0.000    7.333 
#    0.000    3.333    0.000    0.000    0.000    0.000 
#    0.000    0.000    0.000    0.000    0.000    0.000 
#
# Total GULP energy -134205.366264 kJ/mol
# GULP energy per Si atom -5591.890261 kJ/mol
# Density = 2.132600 g / cm^3
# Si number density = 21.374648 Si / 1000 Ang^3
#
#
#
# Elastic Constant Matrix: (Units=GPa)
#
#
# Indices 1 2 3 4 5 6 
#
# 1 72.5703 16.9659 -8.0415 0.0000 22.8014 0.0000
# 2 16.9659 131.1366 45.8175 0.0000 26.5048 0.0000
# 3 -8.0415 45.8175 59.7349 0.0000 18.5139 0.0000
# 4 0.0000 0.0000 0.0000 33.7320 0.0000 12.1186
# 5 22.8014 26.5048 18.5139 0.0000 36.9164 0.0000
# 6 0.0000 0.0000 0.0000 12.1186 0.0000 31.9976
#
#
#
# Elastic Compliance Matrix: (Units=1/GPa)
#
#
# Indices 1 2 3 4 5 6 
#
# 1 0.020379 -0.002941 0.009763 0.000000 -0.015372 0.000000
# 2 -0.002941 0.011397 -0.008483 0.000000 -0.002112 0.000000
# 3 0.009763 -0.008483 0.029060 0.000000 -0.014514 0.000000
# 4 0.000000 0.000000 0.000000 0.034314 0.000000 -0.012996
# 5 -0.015372 -0.002112 -0.014514 0.000000 0.045378 0.000000
# 6 0.000000 0.000000 0.000000 -0.012996 0.000000 0.036174
#
#
# Mechanical properties :
#
#
# Convention : Reuss Voigt Hill
#
# Bulk Modulus (GPa) = 17.38678 41.43617 29.41148
# Shear Modulus (GPa) = 25.10114 34.44252 29.77183
#
# Velocity S-wave (km/s) = 3.43058 4.01855 3.73615
# Velocity P-wave (km/s) = 4.88302 6.39995 5.69224
#
# Compressibility (1/GPa) = 0.05751496
#
# Stress axis : x y z
#
# Youngs Moduli (GPa) = 49.07014 87.74440 34.41199
#
# Poissons Ratio (x) = 0.25804 -0.33598
# Poissons Ratio (y) = 0.14431 0.29191
# Poissons Ratio (z) = -0.47909 0.74432
#
# Static dielectric constant tensor:
#      x y z
#    x 1.818700 0.000000 -0.036450 
#    y 0.000000 1.737840 0.000000 
#    z -0.036450 0.000000 1.796660 
# 
# From -- ./inp_files/295339.got.cif
#   From: 2010.05.17/outbox.cif.g08.bks.cpg/sg12_148_cif.got.tgz:295339.got - 2010.06.03 13:09:07.
