data_PCOD9209866
_publ_section_title
;
Structure prediction by ZEFSAII (Michael W. Deem and Ramdas Pophale) SiO2 
 PCOD9209866
Probable space group: C 2/M
;
_chemical_formula_sum "Si O2"
_cell_formula_units_Z 44
_cell_length_a 12.885419
_cell_length_b 21.336826
_cell_length_c 8.745768
_cell_angle_alpha 90.000000
_cell_angle_beta 51.801592
_cell_angle_gamma 90.000000
_cell_volume 1889.640881
_symmetry_space_group_name_H-M "C 2/M"
_symmetry_group_IT_number 12
_symmetry_cell_setting 'monoclinic'
loop_
_space_group_symop_operation_xyz
x,y,z
-x,y,-z
-x,-y,-z
x,-y,z
1/2+x,1/2+y,z
1/2-x,1/2+y,-z
1/2-x,1/2-y,-z
1/2+x,1/2-y,z
loop_
_atom_site_type_symbol
_atom_site_label
_atom_site_fract_x
_atom_site_fract_y
_atom_site_fract_z
Si Si1 0.462915 0.000000 0.211458
Si Si2 0.275429 0.319069 0.034926
Si Si3 0.005096 0.639887 0.167753
Si Si4 0.703249 0.135584 0.426046
Si Si5 0.450044 0.500000 0.870064
Si Si6 0.820668 0.500000 0.724914
Si Si7 0.529894 0.370790 0.650162
O O1 0.423266 0.926258 0.246469
O O2 0.550599 0.000000 0.286172
O O3 0.500000 0.000000 0.000000
O O4 0.160259 0.363411 0.066111
O O5 0.254704 0.326385 0.232894
O O6 0.250000 0.250000 0.000000
O O7 0.422578 0.334753 0.849381
O O8 0.928068 0.667990 0.383074
O O9 0.000000 0.665737 0.000000
O O10 0.819486 0.141216 0.443912
O O11 0.690879 0.063738 0.366053
O O12 0.500862 0.441421 0.730151
O O13 0.500000 0.500000 0.000000
O O14 0.294602 0.500000 0.042696
O O15 0.500000 0.361401 0.500000
#
# Coordination Sequence:
#
# PCOD9209866 Si02
#       7
#     4   8   8   8   4   4   8
#     4  10  21  38  66 104 146 180 221 278 343 423
#     4  12  27  47  69  97 135 187 242 293 348 414
#     4  11  24  44  69 104 141 180 227 286 353 417
#     4  12  24  43  74 105 140 183 230 288 351 425
#     4  12  19  40  70 104 142 186 226 283 355 428
#     4  12  21  38  74 106 143 184 235 277 358 427
#     4  12  25  44  70 106 144 182 233 292 355 423
#
# _framework density 23.284848
#
# number of rings (size 3 to 8) (size 9 to 14) (size 15 to 20)
#    0.000    0.364    5.455    3.000    0.000    5.091 
#    0.000    4.545    0.000    0.000    0.000    0.000 
#    0.000    0.000    0.000    0.000    0.000    0.000 
#
# Total GULP energy -122687.650213 kJ/mol
# GULP energy per Si atom -5576.711373 kJ/mol
# Density = 2.323185 g / cm^3
# Si number density = 23.284848 Si / 1000 Ang^3
#
#
#
# Elastic Constant Matrix: (Units=GPa)
#
#
# Indices 1 2 3 4 5 6 
#
# 1 124.9579 -4.6619 40.4454 0.0000 13.5305 0.0000
# 2 -4.6619 67.1360 -0.8929 0.0000 -3.5349 0.0000
# 3 40.4454 -0.8929 122.0886 0.0000 14.1073 0.0000
# 4 0.0000 0.0000 0.0000 -18.3740 0.0000 17.9362
# 5 13.5305 -3.5349 14.1073 0.0000 55.6259 0.0000
# 6 0.0000 0.0000 0.0000 17.9362 0.0000 -26.2713
#
#
#
# Elastic Compliance Matrix: (Units=1/GPa)
#
#
# Indices 1 2 3 4 5 6 
#
# 1 0.009100 0.000517 -0.002842 0.000000 -0.001460 0.000000
# 2 0.000517 0.014975 -0.000162 0.000000 0.000867 0.000000
# 3 -0.002842 -0.000162 0.009326 0.000000 -0.001684 0.000000
# 4 0.000000 0.000000 0.000000 -0.163174 0.000000 -0.111404
# 5 -0.001460 0.000867 -0.001684 0.000000 0.018815 0.000000
# 6 0.000000 0.000000 0.000000 -0.111404 0.000000 -0.114123
#
#
# Mechanical properties :
#
#
# Convention : Reuss Voigt Hill
#
# Bulk Modulus (GPa) = 35.17856 42.66262 38.92059
# Shear Modulus (GPa) = -23.73800 20.81558 -1.46121
#
# Velocity S-wave (km/s) = -3.19636 2.99315 -0.79303
# Velocity P-wave (km/s) = 1.23223 5.50519 3.98908
#
# Compressibility (1/GPa) = 0.02842641
#
# Stress axis : x y z
#
# Youngs Moduli (GPa) = 109.89016 66.77996 107.23017
#
# Poissons Ratio (x) = -0.03454 0.30477
# Poissons Ratio (y) = -0.05684 0.01737
# Poissons Ratio (z) = 0.31233 0.01082
#
# Static dielectric constant tensor:
#      x y z
#    x 1.924310 0.000000 -0.083280 
#    y 0.000000 2.093730 0.000000 
#    z -0.083280 0.000000 2.004630 
# 
# From -- ./inp_files/65184.got.cif
#   From: 2010.05.17/outbox.cif.g08.bks.cpg/sg12_33_cif.got.tgz:65184.got - 2010.06.03 13:09:07.
