data_PCOD9209583
_publ_section_title
;
Structure prediction by ZEFSAII (Michael W. Deem and Ramdas Pophale) SiO2 
 PCOD9209583
Probable space group: C 2/M
;
_chemical_formula_sum "Si O2"
_cell_formula_units_Z 50
_cell_length_a 14.132474
_cell_length_b 12.466863
_cell_length_c 14.351210
_cell_angle_alpha 90.000000
_cell_angle_beta 106.704812
_cell_angle_gamma 90.000000
_cell_volume 2421.798409
_symmetry_space_group_name_H-M "C 2/M"
_symmetry_group_IT_number 12
_symmetry_cell_setting 'monoclinic'
loop_
_space_group_symop_operation_xyz
x,y,z
-x,y,-z
-x,-y,-z
x,-y,z
1/2+x,1/2+y,z
1/2-x,1/2+y,-z
1/2-x,1/2-y,-z
1/2+x,1/2-y,z
loop_
_atom_site_type_symbol
_atom_site_label
_atom_site_fract_x
_atom_site_fract_y
_atom_site_fract_z
Si Si1 0.861520 0.874760 0.548704
Si Si2 0.119048 0.375515 0.214704
Si Si3 0.853412 0.618725 0.987291
Si Si4 0.469674 0.751837 0.299549
Si Si5 0.500000 0.500000 0.000000
Si Si6 0.782678 0.735924 0.356137
Si Si7 0.377659 0.338292 0.098130
O O1 0.819163 0.822005 0.443044
O O2 0.779384 0.852842 0.605624
O O3 0.957217 0.808906 0.609223
O O4 0.881542 0.000000 0.543667
O O5 0.144015 0.500000 0.237733
O O6 0.096080 0.363714 0.098828
O O7 0.209388 0.297155 0.265493
O O8 0.032651 0.336924 0.258493
O O9 0.879150 0.500000 0.030294
O O10 0.735219 0.621663 0.933693
O O11 0.873625 0.715464 0.062013
O O12 0.378124 0.803180 0.327877
O O13 0.426353 0.665668 0.213725
O O14 0.557456 0.407417 0.954032
#
# Coordination Sequence:
#
# PCOD9209583 Si02
#       7
#     8   8   8   8   2   8   8
#     4  10  23  40  62  92 123 161 202 253 307 372
#     4  10  21  38  63  89 122 161 208 249 306 372
#     4  10  21  42  63  88 120 172 210 254 313 376
#     4  11  23  39  61  93 120 162 203 259 305 368
#     4  12  24  40  58  96 122 166 200 266 316 368
#     4  10  21  41  62  89 127 158 203 253 309 366
#     4  11  23  39  62  90 129 160 210 262 314 370
#
# _framework density 20.645813
#
# number of rings (size 3 to 8) (size 9 to 14) (size 15 to 20)
#    0.000    1.600    2.400    1.920    1.120    3.200 
#    0.000    2.000    0.000    5.760    0.000    0.000 
#    0.000    0.000    0.000    0.000    0.000    0.000 
#
# Total GULP energy -139521.668945 kJ/mol
# GULP energy per Si atom -5580.866758 kJ/mol
# Density = 2.059882 g / cm^3
# Si number density = 20.645813 Si / 1000 Ang^3
#
#
#
# Elastic Constant Matrix: (Units=GPa)
#
#
# Indices 1 2 3 4 5 6 
#
# 1 97.0994 -17.0378 -5.1786 0.0000 -18.2079 0.0000
# 2 -17.0378 73.7732 4.7827 0.0000 1.0715 0.0000
# 3 -5.1786 4.7827 39.5295 0.0000 7.2526 0.0000
# 4 0.0000 0.0000 0.0000 6.9106 0.0000 0.0584
# 5 -18.2079 1.0715 7.2526 0.0000 30.6351 0.0000
# 6 0.0000 0.0000 0.0000 0.0584 0.0000 12.5405
#
#
#
# Elastic Compliance Matrix: (Units=1/GPa)
#
#
# Indices 1 2 3 4 5 6 
#
# 1 0.012102 0.002695 -0.000045 0.000000 0.007109 0.000000
# 2 0.002695 0.014262 -0.001646 0.000000 0.001493 0.000000
# 3 -0.000045 -0.001646 0.026642 0.000000 -0.006277 0.000000
# 4 0.000000 0.000000 0.000000 0.144710 0.000000 -0.000674
# 5 0.007109 0.001493 -0.006277 0.000000 0.038301 0.000000
# 6 0.000000 0.000000 0.000000 -0.000674 0.000000 0.079745
#
#
# Mechanical properties :
#
#
# Convention : Reuss Voigt Hill
#
# Bulk Modulus (GPa) = 18.17729 19.50387 18.84058
# Shear Modulus (GPa) = 15.05593 25.20630 20.13112
#
# Velocity S-wave (km/s) = 2.70339 3.49792 3.12600
# Velocity P-wave (km/s) = 4.30905 5.07753 4.70899
#
# Compressibility (1/GPa) = 0.05501370
#
# Stress axis : x y z
#
# Youngs Moduli (GPa) = 82.62901 70.11421 37.53408
#
# Poissons Ratio (x) = -0.18893 0.00169
# Poissons Ratio (y) = -0.22266 0.06180
# Poissons Ratio (z) = 0.00371 0.11544
#
# Static dielectric constant tensor:
#      x y z
#    x 1.766800 0.000000 0.011830 
#    y 0.000000 1.674260 0.000000 
#    z 0.011830 0.000000 1.720280 
# 
# From -- ./inp_files/213478.got.cif
#   From: 2010.05.17/outbox.cif.g08.bks.cpg/sg12_107_cif.got.tgz:213478.got - 2010.06.03 13:09:07.
