data_PCOD9209487
_publ_section_title
;
Structure prediction by ZEFSAII (Michael W. Deem and Ramdas Pophale) SiO2 
 PCOD9209487
Probable space group: C 2/M
;
_chemical_formula_sum "Si O2"
_cell_formula_units_Z 64
_cell_length_a 29.701581
_cell_length_b 8.909220
_cell_length_c 19.546530
_cell_angle_alpha 90.000000
_cell_angle_beta 139.913249
_cell_angle_gamma 90.000000
_cell_volume 3330.725678
_symmetry_space_group_name_H-M "C 2/M"
_symmetry_group_IT_number 12
_symmetry_cell_setting 'monoclinic'
loop_
_space_group_symop_operation_xyz
x,y,z
-x,y,-z
-x,-y,-z
x,-y,z
1/2+x,1/2+y,z
1/2-x,1/2+y,-z
1/2-x,1/2-y,-z
1/2+x,1/2-y,z
loop_
_atom_site_type_symbol
_atom_site_label
_atom_site_fract_x
_atom_site_fract_y
_atom_site_fract_z
Si Si1 0.572883 0.680488 0.120503
Si Si2 0.536892 0.176682 0.216029
Si Si3 0.375724 0.175163 0.033215
Si Si4 0.354512 0.319238 0.391673
Si Si5 0.926226 0.176836 0.336689
Si Si6 0.823801 0.824026 0.100509
Si Si7 0.548842 0.819485 0.388642
Si Si8 0.205287 0.820120 0.180881
O O1 0.570418 0.500000 0.118047
O O2 0.577170 0.738385 0.203042
O O3 0.641479 0.724686 0.157251
O O4 0.500000 0.732589 0.000000
O O5 0.545638 0.227646 0.304993
O O6 0.554040 0.000000 0.233981
O O7 0.455089 0.192584 0.101424
O O8 0.321782 0.266601 0.924554
O O9 0.356722 0.000000 0.010797
O O10 0.374898 0.238810 0.108526
O O11 0.353079 0.500000 0.392722
O O12 0.408972 0.276363 0.393888
O O13 0.383860 0.248961 0.495345
O O14 0.278017 0.256851 0.285070
O O15 0.853171 0.192149 0.210712
O O16 0.983749 0.262241 0.358903
O O17 0.945569 0.000000 0.359368
O O18 0.821798 0.000000 0.082263
O O19 0.750000 0.750000 0.000000
O O20 0.549527 0.000000 0.390883
O O21 0.213005 0.000000 0.191123
#
# Coordination Sequence:
#
# PCOD9209487 Si02
#       8
#     8   8   8   8   8   8   8   8
#     4  10  21  38  62  92 124 155 195 245 302 366
#     4  10  22  38  60  90 121 154 197 246 296 356
#     4  11  21  36  57  85 121 159 197 243 298 361
#     4  11  24  42  62  88 121 161 205 252 302 358
#     4  10  22  39  59  85 118 157 204 251 298 356
#     4  11  22  35  54  82 119 162 202 248 304 362
#     4  11  23  41  63  90 121 158 205 254 298 352
#     4  11  23  40  62  91 123 159 200 249 305 364
#
# _framework density 19.215031
#
# number of rings (size 3 to 8) (size 9 to 14) (size 15 to 20)
#    0.000    1.375    2.500    3.000    0.000    6.750 
#    0.000    0.625    0.000    0.000    0.000    0.000 
#    0.000    0.000    0.000    0.000    0.000    0.000 
#
# Total GULP energy -178737.661454 kJ/mol
# GULP energy per Si atom -5585.551920 kJ/mol
# Density = 1.917130 g / cm^3
# Si number density = 19.215031 Si / 1000 Ang^3
#
#
#
# Elastic Constant Matrix: (Units=GPa)
#
#
# Indices 1 2 3 4 5 6 
#
# 1 85.3421 23.4982 37.1225 0.0000 -16.0416 0.0000
# 2 23.4982 26.1371 27.0444 0.0000 1.2487 0.0000
# 3 37.1225 27.0444 117.6765 0.0000 -13.6682 0.0000
# 4 0.0000 0.0000 0.0000 27.4439 0.0000 -0.3006
# 5 -16.0416 1.2487 -13.6682 0.0000 24.8410 0.0000
# 6 0.0000 0.0000 0.0000 -0.3006 0.0000 32.1020
#
#
#
# Elastic Compliance Matrix: (Units=1/GPa)
#
#
# Indices 1 2 3 4 5 6 
#
# 1 0.019137 -0.017221 -0.000581 0.000000 0.012905 0.000000
# 2 -0.017221 0.067872 -0.012663 0.000000 -0.021500 0.000000
# 3 -0.000581 -0.012663 0.012415 0.000000 0.007093 0.000000
# 4 0.000000 0.000000 0.000000 0.036442 0.000000 0.000341
# 5 0.012905 -0.021500 0.007093 0.000000 0.053573 0.000000
# 6 0.000000 0.000000 0.000000 0.000341 0.000000 0.031154
#
#
# Mechanical properties :
#
#
# Convention : Reuss Voigt Hill
#
# Bulk Modulus (GPa) = 25.97726 44.94289 35.46007
# Shear Modulus (GPa) = 16.98638 26.31009 21.64824
#
# Velocity S-wave (km/s) = 2.97647 3.70435 3.36017
# Velocity P-wave (km/s) = 5.03598 6.46038 5.79213
#
# Compressibility (1/GPa) = 0.03849520
#
# Stress axis : x y z
#
# Youngs Moduli (GPa) = 52.25379 14.73366 80.54753
#
# Poissons Ratio (x) = 0.25373 0.04676
# Poissons Ratio (y) = 0.89986 1.01997
# Poissons Ratio (z) = 0.03033 0.18657
#
# Static dielectric constant tensor:
#      x y z
#    x 1.685610 0.000000 0.006750 
#    y 0.000000 1.641420 0.000000 
#    z 0.006750 0.000000 1.669010 
# 
# From -- ./inp_files/295670.got.cif
#   From: 2010.05.17/outbox.cif.g08.bks.cpg/sg12_148_cif.got.tgz:295670.got - 2010.06.03 13:09:07.
