data_PCOD9209045
_publ_section_title
;
Structure prediction by ZEFSAII (Michael W. Deem and Ramdas Pophale) SiO2 
 PCOD9209045
Probable space group: C 2/M
;
_chemical_formula_sum "Si O2"
_cell_formula_units_Z 44
_cell_length_a 13.092805
_cell_length_b 12.944661
_cell_length_c 15.423476
_cell_angle_alpha 90.000000
_cell_angle_beta 125.571603
_cell_angle_gamma 90.000000
_cell_volume 2126.199593
_symmetry_space_group_name_H-M "C 2/M"
_symmetry_group_IT_number 12
_symmetry_cell_setting 'monoclinic'
loop_
_space_group_symop_operation_xyz
x,y,z
-x,y,-z
-x,-y,-z
x,-y,z
1/2+x,1/2+y,z
1/2-x,1/2+y,-z
1/2-x,1/2-y,-z
1/2+x,1/2-y,z
loop_
_atom_site_type_symbol
_atom_site_label
_atom_site_fract_x
_atom_site_fract_y
_atom_site_fract_z
Si Si1 0.500000 0.278818 0.000000
Si Si2 0.487403 0.114719 0.837884
Si Si3 0.232989 0.297829 0.896326
Si Si4 0.816873 0.883752 0.605399
Si Si5 0.609584 0.382070 0.729036
Si Si6 0.270019 0.331001 0.383049
O O1 0.509048 0.202923 0.087325
O O2 0.630382 0.340761 0.060982
O O3 0.612987 0.128669 0.842525
O O4 0.362571 0.129035 0.719530
O O5 0.486439 0.000000 0.876117
O O6 0.197740 0.202028 0.817196
O O7 0.250000 0.250000 0.000000
O O8 0.741889 0.793114 0.615761
O O9 0.791527 0.872602 0.490065
O O10 0.966660 0.866379 0.689190
O O11 0.786574 0.000000 0.618669
O O12 0.646162 0.500000 0.767812
O O13 0.625462 0.365541 0.634023
#
# Coordination Sequence:
#
# PCOD9209045 Si02
#       6
#     4   8   8   8   8   8
#     4  10  21  38  61  78 114 152 195 242 293 348
#     4  11  21  36  59  87 115 149 195 244 293 343
#     4  10  22  37  55  86 118 149 189 243 292 343
#     4  10  22  39  60  88 122 156 190 236 292 347
#     4  11  21  38  63  87 115 155 201 239 285 344
#     4  11  21  36  64  90 119 149 197 242 286 341
#
# _framework density 20.694199999999999
#
# number of rings (size 3 to 8) (size 9 to 14) (size 15 to 20)
#    0.000    1.455    3.636    2.455    0.000    4.364 
#    0.000    1.364    0.000    3.273    0.000    0.000 
#    0.000    0.000    0.000    0.000    0.000    0.000 
#
# Total GULP energy -122879.434133 kJ/mol
# GULP energy per Si atom -5585.428824 kJ/mol
# Density = 2.064710 g / cm^3
# Si number density = 20.694200 Si / 1000 Ang^3
#
#
#
# Elastic Constant Matrix: (Units=GPa)
#
#
# Indices 1 2 3 4 5 6 
#
# 1 54.5000 1.3613 -5.1993 0.0000 10.8037 0.0000
# 2 1.3613 60.4750 -12.9239 0.0000 2.2971 0.0000
# 3 -5.1993 -12.9239 56.3456 0.0000 7.2361 0.0000
# 4 0.0000 0.0000 0.0000 2.5552 0.0000 -8.6056
# 5 10.8037 2.2971 7.2361 0.0000 25.7071 0.0000
# 6 0.0000 0.0000 0.0000 -8.6056 0.0000 2.7816
#
#
#
# Elastic Compliance Matrix: (Units=1/GPa)
#
#
# Indices 1 2 3 4 5 6 
#
# 1 0.020550 0.000601 0.003268 0.000000 -0.009610 0.000000
# 2 0.000601 0.017599 0.004489 0.000000 -0.003089 0.000000
# 3 0.003268 0.004489 0.020031 0.000000 -0.007413 0.000000
# 4 0.000000 0.000000 0.000000 -0.041548 0.000000 -0.128540
# 5 -0.009610 -0.003089 -0.007413 0.000000 0.045301 0.000000
# 6 0.000000 0.000000 0.000000 -0.128540 0.000000 -0.038167
#
#
# Mechanical properties :
#
#
# Convention : Reuss Voigt Hill
#
# Bulk Modulus (GPa) = 13.35187 15.31076 14.33131
# Shear Modulus (GPa) = 156.17242 18.74762 87.46002
#
# Velocity S-wave (km/s) = 8.69658 3.01314 6.50806
# Velocity P-wave (km/s) = 10.35890 4.41814 7.96325
#
# Compressibility (1/GPa) = 0.07489589
#
# Stress axis : x y z
#
# Youngs Moduli (GPa) = 48.66071 56.82205 49.92317
#
# Poissons Ratio (x) = -0.03415 -0.16316
# Poissons Ratio (y) = -0.02924 -0.22409
# Poissons Ratio (z) = -0.15904 -0.25506
#
# Static dielectric constant tensor:
#      x y z
#    x 1.659840 0.000000 0.048990 
#    y 0.000000 1.737330 0.000000 
#    z 0.048990 0.000000 1.709320 
# 
# From -- ./inp_files/204625.got.cif
#   From: 2010.05.17/outbox.cif.g08.bks.cpg/sg12_103_cif.got.tgz:204625.got - 2010.06.03 13:09:07.
