data_PCOD9209934
_publ_section_title
;
Structure prediction by ZEFSAII (Michael W. Deem and Ramdas Pophale) SiO2 
 PCOD9209934
Probable space group: C 2/M
;
_chemical_formula_sum "Si O2"
_cell_formula_units_Z 48
_cell_length_a 9.879522
_cell_length_b 27.549389
_cell_length_c 14.892945
_cell_angle_alpha 90.000000
_cell_angle_beta 143.748372
_cell_angle_gamma 90.000000
_cell_volume 2396.957227
_symmetry_space_group_name_H-M "C 2/M"
_symmetry_group_IT_number 12
_symmetry_cell_setting 'monoclinic'
loop_
_space_group_symop_operation_xyz
x,y,z
-x,y,-z
-x,-y,-z
x,-y,z
1/2+x,1/2+y,z
1/2-x,1/2+y,-z
1/2-x,1/2-y,-z
1/2+x,1/2-y,z
loop_
_atom_site_type_symbol
_atom_site_label
_atom_site_fract_x
_atom_site_fract_y
_atom_site_fract_z
Si Si1 0.256347 0.664629 0.319806
Si Si2 0.410972 0.898371 0.610114
Si Si3 0.055912 0.896316 0.740616
Si Si4 0.725631 0.000000 0.178763
Si Si5 0.509862 0.746231 0.108152
Si Si6 0.228522 0.500000 0.380121
Si Si7 0.412547 0.367425 0.852479
O O1 0.500000 0.667047 0.500000
O O2 0.101507 0.635428 0.307715
O O3 0.289188 0.635516 0.244212
O O4 0.160134 0.717291 0.246747
O O5 0.349079 0.952388 0.609393
O O6 0.663635 0.891563 0.707097
O O7 0.204204 0.885642 0.431760
O O8 0.125010 0.951969 0.759633
O O9 0.070603 0.884114 0.853759
O O10 0.628859 0.000000 0.227660
O O11 0.500000 0.000000 0.000000
O O12 0.599106 0.691094 0.159612
O O13 0.500000 0.762280 0.000000
O O14 0.250000 0.750000 0.000000
O O15 0.500000 0.500000 0.500000
O O16 0.500000 0.379412 0.000000
#
# Coordination Sequence:
#
# PCOD9209934 Si02
#       7
#     8   8   8   4   8   4   8
#     4  10  21  38  68  96 120 162 220 266 311 375
#     4  11  22  41  68  94 127 169 208 267 324 380
#     4  11  23  43  64  94 126 167 213 262 319 383
#     4  12  26  39  68 101 125 159 221 265 312 377
#     4  11  23  42  63  89 128 175 212 259 324 384
#     4  12  20  45  70  95 127 169 215 263 316 393
#     4  11  26  42  60  92 134 169 210 262 325 380
#
# _framework density 20.025388
#
# number of rings (size 3 to 8) (size 9 to 14) (size 15 to 20)
#    0.000    1.000    3.333    4.000    2.333    4.000 
#    0.000    6.667    0.000    0.000    0.000    0.000 
#    0.000    0.000    0.000    0.000    0.000    0.000 
#
# Total GULP energy -134115.581668 kJ/mol
# GULP energy per Si atom -5588.149236 kJ/mol
# Density = 1.997981 g / cm^3
# Si number density = 20.025388 Si / 1000 Ang^3
#
#
#
# Elastic Constant Matrix: (Units=GPa)
#
#
# Indices 1 2 3 4 5 6 
#
# 1 116.4303 19.0257 19.7056 0.0000 -18.2256 0.0000
# 2 19.0257 89.1929 8.4743 0.0000 -5.6575 0.0000
# 3 19.7056 8.4743 40.3351 0.0000 -5.9906 0.0000
# 4 0.0000 0.0000 0.0000 6.0429 0.0000 -13.3145
# 5 -18.2256 -5.6575 -5.9906 0.0000 40.3930 0.0000
# 6 0.0000 0.0000 0.0000 -13.3145 0.0000 25.8062
#
#
#
# Elastic Compliance Matrix: (Units=1/GPa)
#
#
# Indices 1 2 3 4 5 6 
#
# 1 0.010113 -0.001534 -0.004062 0.000000 0.003746 0.000000
# 2 -0.001534 0.011737 -0.001611 0.000000 0.000713 0.000000
# 3 -0.004062 -0.001611 0.027413 0.000000 0.002007 0.000000
# 4 0.000000 0.000000 0.000000 -1.209702 0.000000 -0.624137
# 5 0.003746 0.000713 0.002007 0.000000 0.026844 0.000000
# 6 0.000000 0.000000 0.000000 -0.624137 0.000000 -0.283269
#
#
# Mechanical properties :
#
#
# Convention : Reuss Voigt Hill
#
# Bulk Modulus (GPa) = 28.69407 37.81882 33.25645
# Shear Modulus (GPa) = -3.59497 27.69861 12.05182
#
# Velocity S-wave (km/s) = -1.34131 3.72314 2.45588
# Velocity P-wave (km/s) = 3.45849 6.11627 4.96840
#
# Compressibility (1/GPa) = 0.03485040
#
# Stress axis : x y z
#
# Youngs Moduli (GPa) = 98.87913 85.20013 36.47845
#
# Poissons Ratio (x) = 0.13067 0.14819
# Poissons Ratio (y) = 0.15165 0.05876
# Poissons Ratio (z) = 0.40168 0.13723
#
# Static dielectric constant tensor:
#      x y z
#    x 1.703870 0.000000 -0.022850 
#    y 0.000000 1.670250 0.000000 
#    z -0.022850 0.000000 1.737740 
# 
# From -- ./inp_files/200268.got.cif
#   From: 2010.05.17/outbox.cif.g08.bks.cpg/sg12_101_cif.got.tgz:200268.got - 2010.06.03 13:09:07.
