data_PCOD9209405
_publ_section_title
;
Structure prediction by ZEFSAII (Michael W. Deem and Ramdas Pophale) SiO2 
 PCOD9209405
Probable space group: C 2/M
;
_chemical_formula_sum "Si O2"
_cell_formula_units_Z 40
_cell_length_a 14.989030
_cell_length_b 30.564650
_cell_length_c 7.374223
_cell_angle_alpha 90.000000
_cell_angle_beta 141.471588
_cell_angle_gamma 90.000000
_cell_volume 2104.405342
_symmetry_space_group_name_H-M "C 2/M"
_symmetry_group_IT_number 12
_symmetry_cell_setting 'monoclinic'
loop_
_space_group_symop_operation_xyz
x,y,z
-x,y,-z
-x,-y,-z
x,-y,z
1/2+x,1/2+y,z
1/2-x,1/2+y,-z
1/2-x,1/2-y,-z
1/2+x,1/2-y,z
loop_
_atom_site_type_symbol
_atom_site_label
_atom_site_fract_x
_atom_site_fract_y
_atom_site_fract_z
Si Si1 0.160741 0.395069 0.688369
Si Si2 0.670298 0.450409 0.763303
Si Si3 0.866861 0.300086 0.509860
Si Si4 0.844710 0.448696 0.678632
Si Si5 0.871861 0.731870 0.902062
O O1 0.167039 0.344234 0.646753
O O2 0.192188 0.421543 0.555991
O O3 0.000000 0.404851 0.500000
O O4 0.264725 0.413149 0.007123
O O5 0.500000 0.449185 0.500000
O O6 0.716878 0.500000 0.894545
O O7 0.730510 0.444161 0.657163
O O8 0.834989 0.301919 0.679174
O O9 0.765090 0.261100 0.277984
O O10 0.962420 0.289028 0.210067
O O11 0.856808 0.500000 0.650865
O O12 0.000000 0.434234 0.000000
O O13 0.000000 0.758820 0.000000
#
# Coordination Sequence:
#
# PCOD9209405 Si02
#       5
#     8   8   8   8   8
#     4  12  23  36  61  94 121 156 208 256 295 356
#     4  10  23  43  61  87 128 162 200 255 305 356
#     4   8  17  32  55  82 111 151 195 240 301 347
#     4  10  21  38  62  89 121 166 202 239 303 363
#     4   7  14  33  55  77 110 154 189 241 298 362
#
# _framework density 19.007745
#
# number of rings (size 3 to 8) (size 9 to 14) (size 15 to 20)
#    1.200    1.200    2.000    0.600    2.800    1.600 
#    3.600    6.000    0.000    0.000    0.000    0.000 
#    0.000    0.000    0.000    0.000    0.000    0.000 
#
# Total GULP energy -111358.026591 kJ/mol
# GULP energy per Si atom -5567.901330 kJ/mol
# Density = 1.896448 g / cm^3
# Si number density = 19.007745 Si / 1000 Ang^3
#
#
#
# Elastic Constant Matrix: (Units=GPa)
#
#
# Indices 1 2 3 4 5 6 
#
# 1 81.6461 31.4916 21.2230 0.0000 2.7800 0.0000
# 2 31.4916 85.6034 61.7804 0.0000 -8.5102 0.0000
# 3 21.2230 61.7804 63.2830 0.0000 -0.5856 0.0000
# 4 0.0000 0.0000 0.0000 31.7685 0.0000 -7.4449
# 5 2.7800 -8.5102 -0.5856 0.0000 18.0178 0.0000
# 6 0.0000 0.0000 0.0000 -7.4449 0.0000 37.8277
#
#
#
# Elastic Compliance Matrix: (Units=1/GPa)
#
#
# Indices 1 2 3 4 5 6 
#
# 1 0.014851 -0.008236 0.003003 0.000000 -0.006084 0.000000
# 2 -0.008236 0.050457 -0.046279 0.000000 0.023599 0.000000
# 3 0.003003 -0.046279 0.059786 0.000000 -0.020379 0.000000
# 4 0.000000 0.000000 0.000000 0.033000 0.000000 0.006495
# 5 -0.006084 0.023599 -0.020379 0.000000 0.066923 0.000000
# 6 0.000000 0.000000 0.000000 0.006495 0.000000 0.027714
#
#
# Mechanical properties :
#
#
# Convention : Reuss Voigt Hill
#
# Bulk Modulus (GPa) = 45.30612 51.05804 48.18208
# Shear Modulus (GPa) = 13.76990 25.25864 19.51427
#
# Velocity S-wave (km/s) = 2.69446 3.64931 3.20761
# Velocity P-wave (km/s) = 5.79374 6.68406 6.25476
#
# Compressibility (1/GPa) = 0.02207207
#
# Stress axis : x y z
#
# Youngs Moduli (GPa) = 67.33548 19.81879 16.72626
#
# Poissons Ratio (x) = 0.16322 -0.05023
# Poissons Ratio (y) = 0.55455 0.77407
# Poissons Ratio (z) = -0.20222 0.91719
#
# Static dielectric constant tensor:
#      x y z
#    x 1.662690 0.000000 -0.006640 
#    y 0.000000 1.653090 0.000000 
#    z -0.006640 0.000000 1.692740 
# 
# From -- ./inp_files/13015.got.cif
#   From: 2010.05.17/outbox.cif.g08.bks.cpg/sg12_7_cif.got.tgz:13015.got - 2010.06.03 13:09:07.
