data_PCOD9209661
_publ_section_title
;
Structure prediction by ZEFSAII (Michael W. Deem and Ramdas Pophale) SiO2 
 PCOD9209661
Probable space group: C 2/M
;
_chemical_formula_sum "Si O2"
_cell_formula_units_Z 30
_cell_length_a 5.371796
_cell_length_b 24.719549
_cell_length_c 9.308633
_cell_angle_alpha 90.000000
_cell_angle_beta 86.697010
_cell_angle_gamma 90.000000
_cell_volume 1234.024885
_symmetry_space_group_name_H-M "C 2/M"
_symmetry_group_IT_number 12
_symmetry_cell_setting 'monoclinic'
loop_
_space_group_symop_operation_xyz
x,y,z
-x,y,-z
-x,-y,-z
x,-y,z
1/2+x,1/2+y,z
1/2-x,1/2+y,-z
1/2-x,1/2-y,-z
1/2+x,1/2-y,z
loop_
_atom_site_type_symbol
_atom_site_label
_atom_site_fract_x
_atom_site_fract_y
_atom_site_fract_z
Si Si1 0.583707 0.887351 0.660786
Si Si2 0.741256 0.000000 0.597749
Si Si3 0.237243 0.772222 0.334173
Si Si4 0.000000 0.000000 0.000000
Si Si5 0.747614 0.387936 0.923874
O O1 0.500000 0.888558 0.500000
O O2 0.765454 0.836725 0.669821
O O3 0.332907 0.878283 0.759018
O O4 0.715695 0.944880 0.690225
O O5 0.500000 0.000000 0.500000
O O6 0.000000 0.000000 0.500000
O O7 0.250000 0.750000 0.500000
O O8 0.501020 0.752892 0.265683
O O9 0.190576 0.951727 0.939852
O O10 0.500000 0.361438 0.000000
O O11 0.000000 0.373955 0.000000
#
# Coordination Sequence:
#
# PCOD9209661 Si02
#       5
#     8   4   8   2   8
#     4  11  23  43  69 100 135 166 227 275 330 389
#     4  10  25  37  56  98 138 162 195 276 340 371
#     4  10  21  38  63  94 125 170 213 272 322 386
#     4   8  20  42  64  82 130 180 222 234 332 400
#     4  10  23  41  64  90 130 176 214 261 325 400
#
# _framework density 24.310693000000001
#
# number of rings (size 3 to 8) (size 9 to 14) (size 15 to 20)
#    0.800    1.067    2.667    1.200    3.733    6.400 
#    4.800    0.000    0.000    4.800    0.000    0.000 
#    0.000    0.000    0.000    0.000    0.000    0.000 
#
# Total GULP energy -83568.788180 kJ/mol
# GULP energy per Si atom -5571.252545 kJ/mol
# Density = 2.425536 g / cm^3
# Si number density = 24.310693 Si / 1000 Ang^3
#
#
#
# Elastic Constant Matrix: (Units=GPa)
#
#
# Indices 1 2 3 4 5 6 
#
# 1 177.7197 34.0742 44.2110 0.0000 -33.1036 0.0000
# 2 34.0742 170.0562 -2.1437 0.0000 -11.7349 0.0000
# 3 44.2110 -2.1437 124.4390 0.0000 -32.6396 0.0000
# 4 0.0000 0.0000 0.0000 20.2041 0.0000 -36.5576
# 5 -33.1036 -11.7349 -32.6396 0.0000 33.9955 0.0000
# 6 0.0000 0.0000 0.0000 -36.5576 0.0000 57.1357
#
#
#
# Elastic Compliance Matrix: (Units=1/GPa)
#
#
# Indices 1 2 3 4 5 6 
#
# 1 0.007133 -0.001062 -0.001105 0.000000 0.005518 0.000000
# 2 -0.001062 0.006253 0.001043 0.000000 0.002125 0.000000
# 3 -0.001105 0.001043 0.011039 0.000000 0.009882 0.000000
# 4 0.000000 0.000000 0.000000 -0.313800 0.000000 -0.200781
# 5 0.005518 0.002125 0.009882 0.000000 0.045011 0.000000
# 6 0.000000 0.000000 0.000000 -0.200781 0.000000 -0.110965
#
#
# Mechanical properties :
#
#
# Convention : Reuss Voigt Hill
#
# Bulk Modulus (GPa) = 45.09621 69.38864 57.24243
# Shear Modulus (GPa) = -14.46392 48.67198 17.10403
#
# Velocity S-wave (km/s) = -2.44183 4.47932 2.65535
# Velocity P-wave (km/s) = 3.26193 7.44021 5.74443
#
# Compressibility (1/GPa) = 0.02217481
#
# Stress axis : x y z
#
# Youngs Moduli (GPa) = 140.18589 159.92161 90.59044
#
# Poissons Ratio (x) = 0.16991 0.10012
# Poissons Ratio (y) = 0.14894 -0.09444
# Poissons Ratio (z) = 0.15494 -0.16672
#
# Static dielectric constant tensor:
#      x y z
#    x 1.303600 0.000000 -0.192360 
#    y 0.000000 1.984550 0.000000 
#    z -0.192360 0.000000 1.999660 
# 
# From -- ./inp_files/114810.got.cif
#   From: 2010.05.17/outbox.cif.g08.bks.cpg/sg12_58_cif.got.tgz:114810.got - 2010.06.03 13:09:07.
