data_PCOD9209065
_publ_section_title
;
Structure prediction by ZEFSAII (Michael W. Deem and Ramdas Pophale) SiO2 
 PCOD9209065
Probable space group: C 2/M
;
_chemical_formula_sum "Si O2"
_cell_formula_units_Z 64
_cell_length_a 9.617935
_cell_length_b 21.905596
_cell_length_c 22.982606
_cell_angle_alpha 90.000000
_cell_angle_beta 136.626420
_cell_angle_gamma 90.000000
_cell_volume 3325.342407
_symmetry_space_group_name_H-M "C 2/M"
_symmetry_group_IT_number 12
_symmetry_cell_setting 'monoclinic'
loop_
_space_group_symop_operation_xyz
x,y,z
-x,y,-z
-x,-y,-z
x,-y,z
1/2+x,1/2+y,z
1/2-x,1/2+y,-z
1/2-x,1/2-y,-z
1/2+x,1/2-y,z
loop_
_atom_site_type_symbol
_atom_site_label
_atom_site_fract_x
_atom_site_fract_y
_atom_site_fract_z
Si Si1 0.637809 0.854963 0.696657
Si Si2 0.031727 0.567669 0.079088
Si Si3 0.126590 0.929247 0.728577
Si Si4 0.964523 0.295361 0.920831
Si Si5 0.830414 0.427785 0.402373
Si Si6 0.985587 0.747006 0.561322
Si Si7 0.180101 0.335527 0.299748
Si Si8 0.979186 0.220696 0.173136
O O1 0.619126 0.912609 0.648886
O O2 0.571023 0.800293 0.633672
O O3 0.485569 0.856520 0.703996
O O4 0.866279 0.836158 0.783063
O O5 0.952907 0.500000 0.075882
O O6 0.260268 0.569669 0.174447
O O7 0.955561 0.636405 0.071318
O O8 0.000000 0.566468 0.000000
O O9 0.259695 0.888582 0.726106
O O10 0.898311 0.903281 0.658547
O O11 0.121096 0.000000 0.707585
O O12 0.049492 0.245671 0.901561
O O13 0.717713 0.294086 0.847746
O O14 0.000000 0.283305 0.000000
O O15 0.816409 0.500000 0.405274
O O16 0.000000 0.406813 0.500000
O O17 0.750000 0.750000 0.500000
O O18 0.000000 0.725745 0.500000
O O19 0.117150 0.808560 0.608536
O O20 0.084490 0.278690 0.235911
#
# Coordination Sequence:
#
# PCOD9209065 Si02
#       8
#     8   8   8   8   8   8   8   8
#     4  11  23  36  59  80 113 156 187 239 290 347
#     4   9  18  34  59  89 114 147 198 245 284 336
#     4  10  21  38  61  85 114 154 195 244 297 347
#     4  11  21  36  60  86 121 158 193 244 299 356
#     4  10  23  41  61  86 113 150 199 247 296 353
#     4  11  23  37  54  83 110 143 192 240 287 343
#     4  11  23  36  56  82 117 150 190 241 293 356
#     4  11  22  38  53  87 119 153 195 238 293 356
#
# _framework density 19.246137999999998
#
# number of rings (size 3 to 8) (size 9 to 14) (size 15 to 20)
#    0.000    1.500    3.750    1.500    3.500    0.500 
#    0.000    0.000    0.000    2.625    0.000    0.000 
#    0.000   16.000    0.000    0.000    0.000    0.000 
#
# Total GULP energy -178232.624314 kJ/mol
# GULP energy per Si atom -5569.769510 kJ/mol
# Density = 1.920233 g / cm^3
# Si number density = 19.246138 Si / 1000 Ang^3
#
#
#
# Elastic Constant Matrix: (Units=GPa)
#
#
# Indices 1 2 3 4 5 6 
#
# 1 106.0325 13.6380 26.6278 -0.0015 -4.0230 -0.0024
# 2 13.6380 59.8224 17.9068 -0.0007 -5.4449 -0.0011
# 3 26.6278 17.9068 88.2680 -0.0041 -7.6697 -0.0063
# 4 -0.0015 -0.0007 -0.0041 551.1486 -0.0035 804.3932
# 5 -4.0230 -5.4449 -7.6697 -0.0035 23.1954 -0.0055
# 6 -0.0024 -0.0011 -0.0063 804.3932 -0.0055 1254.9663
#
#
#
# Elastic Compliance Matrix: (Units=1/GPa)
#
#
# Indices 1 2 3 4 5 6 
#
# 1 0.010338 -0.001479 -0.002773 0.000000 0.000529 0.000000
# 2 -0.001479 0.018224 -0.002987 0.000000 0.003034 0.000000
# 3 -0.002773 -0.002987 0.013044 0.000000 0.003131 0.000000
# 4 0.000000 0.000000 0.000000 0.028123 0.000000 -0.018026
# 5 0.000529 0.003034 0.003131 0.000000 0.044951 0.000000
# 6 0.000000 0.000000 0.000000 -0.018026 0.000000 0.012351
#
#
# Mechanical properties :
#
#
# Convention : Reuss Voigt Hill
#
# Bulk Modulus (GPa) = 36.86279 41.16313 39.01296
# Shear Modulus (GPa) = 33.21175 378.92541 206.06858
#
# Velocity S-wave (km/s) = 4.15858 14.04675 10.35869
# Velocity P-wave (km/s) = 6.50025 16.86760 12.78220
#
# Compressibility (1/GPa) = 0.02712763
#
# Stress axis : x y z
#
# Youngs Moduli (GPa) = 96.73414 54.87400 76.66578
#
# Poissons Ratio (x) = 0.08114 0.21256
# Poissons Ratio (y) = 0.14303 0.22903
# Poissons Ratio (z) = 0.26821 0.16393
#
# Static dielectric constant tensor:
#      x y z
#    x 1.634080 0.000000 0.023620 
#    y 0.000000 1.688910 0.000000 
#    z 0.023620 0.000000 1.738420 
# 
# From -- ./inp_files/302356.got.cif
#   From: 2010.05.17/outbox.cif.g08.bks.cpg/sg12_152_cif.got.tgz:302356.got - 2010.06.03 13:09:07.
