data_PCOD9209127
_publ_section_title
;
Structure prediction by ZEFSAII (Michael W. Deem and Ramdas Pophale) SiO2 
 PCOD9209127
Probable space group: C 2/M
;
_chemical_formula_sum "Si O2"
_cell_formula_units_Z 40
_cell_length_a 9.582579
_cell_length_b 28.371548
_cell_length_c 14.891775
_cell_angle_alpha 90.000000
_cell_angle_beta 151.649934
_cell_angle_gamma 90.000000
_cell_volume 1922.538830
_symmetry_space_group_name_H-M "C 2/M"
_symmetry_group_IT_number 12
_symmetry_cell_setting 'monoclinic'
loop_
_space_group_symop_operation_xyz
x,y,z
-x,y,-z
-x,-y,-z
x,-y,z
1/2+x,1/2+y,z
1/2-x,1/2+y,-z
1/2-x,1/2-y,-z
1/2+x,1/2-y,z
loop_
_atom_site_type_symbol
_atom_site_label
_atom_site_fract_x
_atom_site_fract_y
_atom_site_fract_z
Si Si1 0.158668 0.270726 0.823234
Si Si2 0.170736 0.879038 0.811049
Si Si3 0.209816 0.553125 0.275964
Si Si4 0.777027 0.307858 0.443525
Si Si5 0.778690 0.872263 0.958119
O O1 0.162522 0.318385 0.884422
O O2 0.992864 0.283989 0.636971
O O3 0.945927 0.228311 0.733170
O O4 0.500000 0.257901 0.000000
O O5 0.207061 0.926505 0.775110
O O6 0.937751 0.845171 0.631926
O O7 0.500000 0.858116 0.000000
O O8 0.080582 0.881510 0.864211
O O9 0.500000 0.552394 0.500000
O O10 0.090678 0.500000 0.202452
O O11 0.982716 0.589896 0.190958
O O12 0.000000 0.330656 0.500000
O O13 0.000000 0.877801 0.000000
#
# Coordination Sequence:
#
# PCOD9209127 Si02
#       5
#     8   8   8   8   8
#     4  10  22  37  54  82 121 161 202 247 302 363
#     4  10  22  38  61  88 120 161 204 250 304 366
#     4  10  22  41  64  89 120 159 203 252 308 368
#     4  11  22  35  57  85 117 161 208 253 297 353
#     4  10  21  38  61  87 120 158 200 253 302 356
#
# _framework density 20.805820000000001
#
# number of rings (size 3 to 8) (size 9 to 14) (size 15 to 20)
#    0.000    1.800    0.000    4.200    0.000   14.400 
#    0.000    0.000    0.000    3.000    0.000    0.000 
#    0.000    0.000    0.000    0.000    0.000    0.000 
#
# Total GULP energy -111570.050663 kJ/mol
# GULP energy per Si atom -5578.502533 kJ/mol
# Density = 2.075847 g / cm^3
# Si number density = 20.805820 Si / 1000 Ang^3
#
#
#
# Elastic Constant Matrix: (Units=GPa)
#
#
# Indices 1 2 3 4 5 6 
#
# 1 93.5097 19.5155 26.8412 0.0000 -7.3381 0.0000
# 2 19.5155 100.2965 35.9072 0.0000 4.8936 0.0000
# 3 26.8412 35.9072 127.8418 0.0000 9.3981 0.0000
# 4 0.0000 0.0000 0.0000 29.7475 0.0000 -0.2462
# 5 -7.3381 4.8936 9.3981 0.0000 22.7019 0.0000
# 6 0.0000 0.0000 0.0000 -0.2462 0.0000 25.6386
#
#
#
# Elastic Compliance Matrix: (Units=1/GPa)
#
#
# Indices 1 2 3 4 5 6 
#
# 1 0.012184 -0.001751 -0.002458 0.000000 0.005333 0.000000
# 2 -0.001751 0.011365 -0.002685 0.000000 -0.001904 0.000000
# 3 -0.002458 -0.002685 0.009394 0.000000 -0.004105 0.000000
# 4 0.000000 0.000000 0.000000 0.033619 0.000000 0.000323
# 5 0.005333 -0.001904 -0.004105 0.000000 0.047883 0.000000
# 6 0.000000 0.000000 0.000000 0.000323 0.000000 0.039007
#
#
# Mechanical properties :
#
#
# Convention : Reuss Voigt Hill
#
# Bulk Modulus (GPa) = 52.20436 54.01951 53.11194
# Shear Modulus (GPa) = 28.79787 31.57656 30.18722
#
# Velocity S-wave (km/s) = 3.72442 3.89997 3.81320
# Velocity P-wave (km/s) = 6.60612 6.80439 6.70598
#
# Compressibility (1/GPa) = 0.01915549
#
# Stress axis : x y z
#
# Youngs Moduli (GPa) = 82.07728 87.98856 106.44985
#
# Poissons Ratio (x) = 0.15405 0.26169
# Poissons Ratio (y) = 0.14370 0.28577
# Poissons Ratio (z) = 0.20178 0.23621
#
# Static dielectric constant tensor:
#      x y z
#    x 1.774250 0.000000 -0.038110 
#    y 0.000000 1.762730 0.000000 
#    z -0.038110 0.000000 1.766410 
# 
# From -- ./inp_files/201408.got.cif
#   From: 2010.05.17/outbox.cif.g08.bks.cpg/sg12_101_cif.got.tgz:201408.got - 2010.06.03 13:09:07.
