data_PCOD9209794
_publ_section_title
;
Structure prediction by ZEFSAII (Michael W. Deem and Ramdas Pophale) SiO2 
 PCOD9209794
Probable space group: C 2/M
;
_chemical_formula_sum "Si O2"
_cell_formula_units_Z 64
_cell_length_a 22.841377
_cell_length_b 32.575062
_cell_length_c 8.368989
_cell_angle_alpha 90.000000
_cell_angle_beta 31.048766
_cell_angle_gamma 90.000000
_cell_volume 3211.696198
_symmetry_space_group_name_H-M "C 2/M"
_symmetry_group_IT_number 12
_symmetry_cell_setting 'monoclinic'
loop_
_space_group_symop_operation_xyz
x,y,z
-x,y,-z
-x,-y,-z
x,-y,z
1/2+x,1/2+y,z
1/2-x,1/2+y,-z
1/2-x,1/2-y,-z
1/2+x,1/2-y,z
loop_
_atom_site_type_symbol
_atom_site_label
_atom_site_fract_x
_atom_site_fract_y
_atom_site_fract_z
Si Si1 0.760136 0.759562 0.165192
Si Si2 0.627380 0.043279 0.273540
Si Si3 0.126976 0.633266 0.268914
Si Si4 0.610012 0.172960 0.640503
Si Si5 0.192260 0.174488 0.368484
Si Si6 0.707606 0.378942 0.626696
Si Si7 0.046867 0.827965 0.218523
Si Si8 0.129021 0.452554 0.655207
O O1 0.649460 0.785224 0.470261
O O2 0.753652 0.716885 0.277793
O O3 0.750000 0.750000 0.000000
O O4 0.865866 0.789891 0.957323
O O5 0.500000 0.042074 0.500000
O O6 0.668105 0.087689 0.126487
O O7 0.630811 0.045149 0.458126
O O8 0.682655 0.000000 0.094658
O O9 0.111270 0.640045 0.493774
O O10 0.000000 0.640982 0.500000
O O11 0.225482 0.661423 0.969242
O O12 0.700684 0.155799 0.550056
O O13 0.500000 0.177025 0.000000
O O14 0.177432 0.134993 0.518332
O O15 0.064975 0.185928 0.614624
O O16 0.773473 0.421915 0.505024
O O17 0.607975 0.365571 0.982262
O O18 0.000000 0.841761 0.500000
O O19 0.142211 0.500000 0.683401
O O20 0.000000 0.438739 0.000000
#
# Coordination Sequence:
#
# PCOD9209794 Si02
#       8
#     8   8   8   8   8   8   8   8
#     4  11  23  44  63  92 122 165 215 266 325 384
#     4   9  19  34  57  91 131 166 204 252 312 384
#     4  11  22  36  61  93 128 168 208 262 320 385
#     4  11  22  38  60  90 126 163 206 264 320 380
#     4  12  25  42  64  93 124 172 216 263 329 387
#     4  11  24  40  62  92 128 165 219 262 318 395
#     4  11  24  44  67  88 125 170 215 272 322 390
#     4  10  21  38  64  97 136 173 207 263 334 393
#
# _framework density 19.927164999999999
#
# number of rings (size 3 to 8) (size 9 to 14) (size 15 to 20)
#    0.000    1.250    3.750    2.250    3.500    5.500 
#    0.000    0.000    0.000    2.625    0.000    0.000 
#    0.000    0.000    0.000    0.000    0.000    0.000 
#
# Total GULP energy -178259.711470 kJ/mol
# GULP energy per Si atom -5570.615983 kJ/mol
# Density = 1.988181 g / cm^3
# Si number density = 19.927165 Si / 1000 Ang^3
#
#
#
# Elastic Constant Matrix: (Units=GPa)
#
#
# Indices 1 2 3 4 5 6 
#
# 1 64.4645 20.8316 18.5613 0.0000 -6.8265 0.0000
# 2 20.8316 137.7848 42.5358 0.0000 -3.0745 0.0000
# 3 18.5613 42.5358 120.3054 0.0000 -0.6443 0.0000
# 4 0.0000 0.0000 0.0000 25.4987 0.0000 3.0423
# 5 -6.8265 -3.0745 -0.6443 0.0000 17.6978 0.0000
# 6 0.0000 0.0000 0.0000 3.0423 0.0000 54.1841
#
#
#
# Elastic Compliance Matrix: (Units=1/GPa)
#
#
# Indices 1 2 3 4 5 6 
#
# 1 0.017355 -0.001871 -0.001982 0.000000 0.006297 0.000000
# 2 -0.001871 0.008379 -0.002670 0.000000 0.000637 0.000000
# 3 -0.001982 -0.002670 0.009557 0.000000 -0.000881 0.000000
# 4 0.000000 0.000000 0.000000 0.039482 0.000000 -0.002217
# 5 0.006297 0.000637 -0.000881 0.000000 0.059012 0.000000
# 6 0.000000 0.000000 0.000000 -0.002217 0.000000 0.018580
#
#
# Mechanical properties :
#
#
# Convention : Reuss Voigt Hill
#
# Bulk Modulus (GPa) = 44.95737 54.04579 49.50158
# Shear Modulus (GPa) = 28.93052 35.51785 32.22419
#
# Velocity S-wave (km/s) = 3.81440 4.22641 4.02568
# Velocity P-wave (km/s) = 6.48146 7.14124 6.81933
#
# Compressibility (1/GPa) = 0.02224329
#
# Stress axis : x y z
#
# Youngs Moduli (GPa) = 57.62131 119.34250 104.63027
#
# Poissons Ratio (x) = 0.22334 0.20739
# Poissons Ratio (y) = 0.10783 0.27941
# Poissons Ratio (z) = 0.11421 0.31870
#
# Static dielectric constant tensor:
#      x y z
#    x 1.683600 0.000000 -0.124640 
#    y 0.000000 1.780050 0.000000 
#    z -0.124640 0.000000 1.532550 
# 
# From -- ./inp_files/100203.got.cif
#   From: 2010.05.17/outbox.cif.g08.bks.cpg/sg12_51_cif.got.tgz:100203.got - 2010.06.03 13:09:07.
