data_PCOD9209387
_publ_section_title
;
Structure prediction by ZEFSAII (Michael W. Deem and Ramdas Pophale) SiO2 
 PCOD9209387
Probable space group: C 2/M
;
_chemical_formula_sum "Si O2"
_cell_formula_units_Z 56
_cell_length_a 20.766454
_cell_length_b 8.964240
_cell_length_c 23.384274
_cell_angle_alpha 90.000000
_cell_angle_beta 133.367054
_cell_angle_gamma 90.000000
_cell_volume 3164.579303
_symmetry_space_group_name_H-M "C 2/M"
_symmetry_group_IT_number 12
_symmetry_cell_setting 'monoclinic'
loop_
_space_group_symop_operation_xyz
x,y,z
-x,y,-z
-x,-y,-z
x,-y,z
1/2+x,1/2+y,z
1/2-x,1/2+y,-z
1/2-x,1/2-y,-z
1/2+x,1/2-y,z
loop_
_atom_site_type_symbol
_atom_site_label
_atom_site_fract_x
_atom_site_fract_y
_atom_site_fract_z
Si Si1 0.009115 0.178815 0.172847
Si Si2 0.948973 0.177236 0.265251
Si Si3 0.823838 0.821059 0.004216
Si Si4 0.517791 0.821996 0.417068
Si Si5 0.743124 0.178679 0.833414
Si Si6 0.354248 0.821820 0.403066
Si Si7 0.691344 0.177512 0.244310
O O1 0.988618 0.208298 0.226977
O O2 0.921695 0.224000 0.083987
O O3 0.096032 0.262330 0.205032
O O4 0.021463 0.000000 0.173542
O O5 0.855530 0.260815 0.215551
O O6 0.011314 0.233673 0.354383
O O7 0.934231 0.000000 0.260892
O O8 0.818330 0.000000 0.007325
O O9 0.750000 0.750000 0.000000
O O10 0.801224 0.785223 0.924881
O O11 0.428646 0.792491 0.399745
O O12 0.599527 0.784032 0.508488
O O13 0.520152 0.000000 0.407925
O O14 0.782085 0.252718 0.800540
O O15 0.740110 0.000000 0.824231
O O16 0.266117 0.734324 0.334078
O O17 0.337451 0.000000 0.392073
O O18 0.692221 0.000000 0.241513
#
# Coordination Sequence:
#
# PCOD9209387 Si02
#       7
#     8   8   8   8   8   8   8
#     4  10  23  42  60  82 119 159 192 236 295 351
#     4  11  21  35  59  90 119 150 194 243 286 339
#     4  10  21  38  62  89 116 151 195 241 289 342
#     4   9  18  33  58  88 117 151 193 236 285 346
#     4  11  22  37  61  87 117 156 193 236 291 350
#     4   9  18  35  58  85 117 154 191 235 290 346
#     4  12  25  39  58  87 119 154 197 244 290 343
#
# _framework density 17.695875000000001
#
# number of rings (size 3 to 8) (size 9 to 14) (size 15 to 20)
#    0.000    1.714    2.857    3.000    0.000    3.429 
#    0.000    5.000    0.000    0.000    0.000    0.000 
#    0.000    0.000    0.000    0.000    0.000    0.000 
#
# Total GULP energy -156413.159529 kJ/mol
# GULP energy per Si atom -5586.184269 kJ/mol
# Density = 1.765560 g / cm^3
# Si number density = 17.695875 Si / 1000 Ang^3
#
#
#
# Elastic Constant Matrix: (Units=GPa)
#
#
# Indices 1 2 3 4 5 6 
#
# 1 118.5423 67.7676 77.9748 0.0000 12.4141 0.0000
# 2 67.7676 68.5825 70.1328 0.0000 2.2098 0.0000
# 3 77.9748 70.1328 153.9851 0.0000 6.6685 0.0000
# 4 0.0000 0.0000 0.0000 23.5477 0.0000 -1.8991
# 5 12.4141 2.2098 6.6685 0.0000 25.7342 0.0000
# 6 0.0000 0.0000 0.0000 -1.8991 0.0000 30.7141
#
#
#
# Elastic Compliance Matrix: (Units=1/GPa)
#
#
# Indices 1 2 3 4 5 6 
#
# 1 0.021315 -0.018948 -0.001809 0.000000 -0.008187 0.000000
# 2 -0.018948 0.044157 -0.010870 0.000000 0.008166 0.000000
# 3 -0.001809 -0.010870 0.012422 0.000000 -0.001413 0.000000
# 4 0.000000 0.000000 0.000000 0.042680 0.000000 0.002639
# 5 -0.008187 0.008166 -0.001413 0.000000 0.042473 0.000000
# 6 0.000000 0.000000 0.000000 0.002639 0.000000 0.032722
#
#
# Mechanical properties :
#
#
# Convention : Reuss Voigt Hill
#
# Bulk Modulus (GPa) = 68.30779 85.87335 77.09057
# Shear Modulus (GPa) = 18.94638 24.34817 21.64727
#
# Velocity S-wave (km/s) = 3.27565 3.71337 3.50136
# Velocity P-wave (km/s) = 7.27951 8.18646 7.74627
#
# Compressibility (1/GPa) = 0.01463962
#
# Stress axis : x y z
#
# Youngs Moduli (GPa) = 46.91438 22.64668 80.50212
#
# Poissons Ratio (x) = 0.42912 0.14563
# Poissons Ratio (y) = 0.88895 0.87504
# Poissons Ratio (z) = 0.08487 0.24616
#
# Static dielectric constant tensor:
#      x y z
#    x 1.561840 0.000000 -0.002150 
#    y 0.000000 1.589030 0.000000 
#    z -0.002150 0.000000 1.614960 
# 
# From -- ./inp_files/314410.got.cif
#   From: 2010.05.17/outbox.cif.g08.bks.cpg/sg12_158_cif.got.tgz:314410.got - 2010.06.03 13:09:07.
