data_PCOD9209857
_publ_section_title
;
Structure prediction by ZEFSAII (Michael W. Deem and Ramdas Pophale) SiO2 
 PCOD9209857
Probable space group: C 2/M
;
_chemical_formula_sum "Si O2"
_cell_formula_units_Z 56
_cell_length_a 10.920311
_cell_length_b 19.172991
_cell_length_c 13.367491
_cell_angle_alpha 90.000000
_cell_angle_beta 68.022613
_cell_angle_gamma 90.000000
_cell_volume 2595.433156
_symmetry_space_group_name_H-M "C 2/M"
_symmetry_group_IT_number 12
_symmetry_cell_setting 'monoclinic'
loop_
_space_group_symop_operation_xyz
x,y,z
-x,y,-z
-x,-y,-z
x,-y,z
1/2+x,1/2+y,z
1/2-x,1/2+y,-z
1/2-x,1/2-y,-z
1/2+x,1/2-y,z
loop_
_atom_site_type_symbol
_atom_site_label
_atom_site_fract_x
_atom_site_fract_y
_atom_site_fract_z
Si Si1 0.465297 0.916756 0.715787
Si Si2 0.606617 0.082082 0.879107
Si Si3 0.813279 0.919181 0.277747
Si Si4 0.528430 0.691196 0.883154
Si Si5 0.634941 0.290071 0.412666
Si Si6 0.670583 0.140991 0.507381
Si Si7 0.715707 0.710633 0.165383
O O1 0.535597 0.895660 0.797029
O O2 0.310195 0.901075 0.757760
O O3 0.535234 0.886526 0.595814
O O4 0.477264 0.000000 0.705249
O O5 0.729580 0.132061 0.863070
O O6 0.642246 0.000000 0.860578
O O7 0.500000 0.089204 0.000000
O O8 0.926664 0.865339 0.212902
O O9 0.752668 0.907589 0.407042
O O10 0.849801 0.000000 0.254107
O O11 0.393320 0.727064 0.885466
O O12 0.651624 0.743269 0.863368
O O13 0.500000 0.657959 0.000000
O O14 0.500000 0.317082 0.500000
O O15 0.656616 0.214028 0.453999
O O16 0.746573 0.341155 0.418682
O O17 0.638731 0.283117 0.293684
#
# Coordination Sequence:
#
# PCOD9209857 Si02
#       7
#     8   8   8   8   8   8   8
#     4  10  21  38  65  98 131 177 226 280 334 397
#     4  10  23  43  71 102 135 180 232 281 338 402
#     4  11  24  42  67  99 140 181 227 283 341 404
#     4  12  29  47  72 101 134 181 228 282 346 407
#     4  11  23  36  62  95 133 177 221 277 339 399
#     4  11  21  38  62  94 134 178 225 276 334 402
#     4  12  26  47  71 101 141 174 227 282 343 409
#
# _framework density 21.576359
#
# number of rings (size 3 to 8) (size 9 to 14) (size 15 to 20)
#    0.000    1.000    2.857    3.429    6.000    2.000 
#    0.000    0.000    0.000    2.143    0.000    0.000 
#    0.000    0.000    0.000    0.000    0.000    0.000 
#
# Total GULP energy -156556.258676 kJ/mol
# GULP energy per Si atom -5591.294953 kJ/mol
# Density = 2.152725 g / cm^3
# Si number density = 21.576359 Si / 1000 Ang^3
#
#
#
# Elastic Constant Matrix: (Units=GPa)
#
#
# Indices 1 2 3 4 5 6 
#
# 1 98.8989 30.7669 15.2941 0.0000 7.0238 0.0000
# 2 30.7669 65.2914 13.5336 0.0000 -9.3307 0.0000
# 3 15.2941 13.5336 92.9450 0.0000 12.6693 0.0000
# 4 0.0000 0.0000 0.0000 19.8389 0.0000 3.6214
# 5 7.0238 -9.3307 12.6693 0.0000 29.1474 0.0000
# 6 0.0000 0.0000 0.0000 3.6214 0.0000 19.2899
#
#
#
# Elastic Compliance Matrix: (Units=1/GPa)
#
#
# Indices 1 2 3 4 5 6 
#
# 1 0.012562 -0.006531 -0.000445 0.000000 -0.004924 0.000000
# 2 -0.006531 0.020412 -0.003192 0.000000 0.009495 0.000000
# 3 -0.000445 -0.003192 0.012141 0.000000 -0.006192 0.000000
# 4 0.000000 0.000000 0.000000 0.052195 0.000000 -0.009799
# 5 -0.004924 0.009495 -0.006192 0.000000 0.041226 0.000000
# 6 0.000000 0.000000 0.000000 -0.009799 0.000000 0.053680
#
#
# Mechanical properties :
#
#
# Convention : Reuss Voigt Hill
#
# Bulk Modulus (GPa) = 40.35579 41.81384 41.08482
# Shear Modulus (GPa) = 22.64384 26.82460 24.73422
#
# Velocity S-wave (km/s) = 3.24307 3.52979 3.38946
# Velocity P-wave (km/s) = 5.72431 6.00284 5.86523
#
# Compressibility (1/GPa) = 0.02477959
#
# Stress axis : x y z
#
# Youngs Moduli (GPa) = 79.60790 48.99067 82.36539
#
# Poissons Ratio (x) = 0.31995 0.03664
# Poissons Ratio (y) = 0.51991 0.26290
# Poissons Ratio (z) = 0.03541 0.15637
#
# Static dielectric constant tensor:
#      x y z
#    x 1.927160 0.000000 -0.034020 
#    y 0.000000 1.775060 0.000000 
#    z -0.034020 0.000000 1.779110 
# 
# From -- ./inp_files/206592.got.cif
#   From: 2010.05.17/outbox.cif.g08.bks.cpg/sg12_104_cif.got.tgz:206592.got - 2010.06.03 13:09:07.
