data_PCOD9209844
_publ_section_title
;
Structure prediction by ZEFSAII (Michael W. Deem and Ramdas Pophale) SiO2 
 PCOD9209844
Probable space group: C 2/M
;
_chemical_formula_sum "Si O2"
_cell_formula_units_Z 58
_cell_length_a 19.327802
_cell_length_b 14.531778
_cell_length_c 12.317653
_cell_angle_alpha 90.000000
_cell_angle_beta 134.392844
_cell_angle_gamma 90.000000
_cell_volume 2472.110762
_symmetry_space_group_name_H-M "C 2/M"
_symmetry_group_IT_number 12
_symmetry_cell_setting 'monoclinic'
loop_
_space_group_symop_operation_xyz
x,y,z
-x,y,-z
-x,-y,-z
x,-y,z
1/2+x,1/2+y,z
1/2-x,1/2+y,-z
1/2-x,1/2-y,-z
1/2+x,1/2-y,z
loop_
_atom_site_type_symbol
_atom_site_label
_atom_site_fract_x
_atom_site_fract_y
_atom_site_fract_z
Si Si1 0.256416 0.887798 0.197452
Si Si2 0.560153 0.104723 0.732984
Si Si3 0.572125 0.855998 0.993230
Si Si4 0.957560 0.158715 0.112121
Si Si5 0.156052 0.612512 0.484825
Si Si6 0.457801 0.388182 0.569012
Si Si7 0.500000 0.500000 0.000000
Si Si8 0.233093 0.612045 0.334409
O O1 0.349631 0.853821 0.232531
O O2 0.270847 0.861532 0.338957
O O3 0.252244 0.000000 0.189867
O O4 0.156072 0.857241 0.035756
O O5 0.452299 0.144276 0.603526
O O6 0.553288 0.000000 0.683644
O O7 0.583003 0.101133 0.886397
O O8 0.673256 0.849651 0.167056
O O9 0.500000 0.902871 0.000000
O O10 0.522558 0.759121 0.910908
O O11 0.982174 0.150444 0.264667
O O12 0.013425 0.080484 0.107363
O O13 0.153095 0.500000 0.478536
O O14 0.187241 0.641554 0.399092
O O15 0.500000 0.359094 0.500000
O O16 0.463639 0.500000 0.581121
O O17 0.345368 0.362536 0.455418
O O18 0.226649 0.500000 0.320772
#
# Coordination Sequence:
#
# PCOD9209844 Si02
#       8
#     8   8   8   8   8   8   2   8
#     4  10  21  38  65  95 127 171 221 272 332 401
#     4  10  21  39  63  91 136 176 214 267 334 411
#     4  12  25  42  63  99 135 172 220 281 339 398
#     4  12  26  44  70  96 131 174 229 285 335 391
#     4   9  18  34  62  97 126 164 218 265 322 393
#     4  10  23  45  71  97 131 174 231 283 333 398
#     4  12  24  44  74  96 132 180 228 282 328 390
#     4  10  22  40  69  98 132 180 224 277 337 406
#
# _framework density 23.461731
#
# number of rings (size 3 to 8) (size 9 to 14) (size 15 to 20)
#    0.000    1.517    3.448    0.828    3.862    2.759 
#    2.483    1.379    0.000    0.000    0.000    0.000 
#    0.000    0.000    0.000    0.000    0.000    0.000 
#
# Total GULP energy -162056.863491 kJ/mol
# GULP energy per Si atom -5588.167707 kJ/mol
# Density = 2.340833 g / cm^3
# Si number density = 23.461731 Si / 1000 Ang^3
#
#
#
# Elastic Constant Matrix: (Units=GPa)
#
#
# Indices 1 2 3 4 5 6 
#
# 1 65.9762 4.3751 47.3068 0.0000 -11.3371 0.0000
# 2 4.3751 77.6773 10.7732 0.0000 -9.5418 0.0000
# 3 47.3068 10.7732 201.0576 0.0000 -9.6485 0.0000
# 4 0.0000 0.0000 0.0000 24.3526 0.0000 -0.6075
# 5 -11.3371 -9.5418 -9.6485 0.0000 43.2732 0.0000
# 6 0.0000 0.0000 0.0000 -0.6075 0.0000 12.0485
#
#
#
# Elastic Compliance Matrix: (Units=1/GPa)
#
#
# Indices 1 2 3 4 5 6 
#
# 1 0.018895 0.000018 -0.004254 0.000000 0.004006 0.000000
# 2 0.000018 0.013298 -0.000582 0.000000 0.002807 0.000000
# 3 -0.004254 -0.000582 0.006011 0.000000 0.000097 0.000000
# 4 0.000000 0.000000 0.000000 0.041115 0.000000 0.002073
# 5 0.004006 0.002807 0.000097 0.000000 0.024799 0.000000
# 6 0.000000 0.000000 0.000000 0.002073 0.000000 0.083102
#
#
# Mechanical properties :
#
#
# Convention : Reuss Voigt Hill
#
# Bulk Modulus (GPa) = 35.00633 52.18017 43.59325
# Shear Modulus (GPa) = 24.22725 34.75194 29.48959
#
# Velocity S-wave (km/s) = 3.21694 3.85283 3.54916
# Velocity P-wave (km/s) = 5.36202 6.48701 5.95116
#
# Compressibility (1/GPa) = 0.02856626
#
# Stress axis : x y z
#
# Youngs Moduli (GPa) = 52.92505 75.19745 166.37324
#
# Poissons Ratio (x) = -0.00134 0.70783
# Poissons Ratio (y) = -0.00095 0.09684
# Poissons Ratio (z) = 0.22517 0.04377
#
# Static dielectric constant tensor:
#      x y z
#    x 1.906220 0.000000 0.015390 
#    y 0.000000 1.918040 0.000000 
#    z 0.015390 0.000000 1.837800 
# 
# From -- ./inp_files/168994.got.cif
#   From: 2010.05.17/outbox.cif.g08.bks.cpg/sg12_85_cif.got.tgz:168994.got - 2010.06.03 13:09:07.
