data_PCOD9209476
_publ_section_title
;
Structure prediction by ZEFSAII (Michael W. Deem and Ramdas Pophale) SiO2 
 PCOD9209476
Probable space group: C 2/M
;
_chemical_formula_sum "Si O2"
_cell_formula_units_Z 56
_cell_length_a 29.413417
_cell_length_b 14.029650
_cell_length_c 9.862848
_cell_angle_alpha 90.000000
_cell_angle_beta 46.731729
_cell_angle_gamma 90.000000
_cell_volume 2963.582103
_symmetry_space_group_name_H-M "C 2/M"
_symmetry_group_IT_number 12
_symmetry_cell_setting 'monoclinic'
loop_
_space_group_symop_operation_xyz
x,y,z
-x,y,-z
-x,-y,-z
x,-y,z
1/2+x,1/2+y,z
1/2-x,1/2+y,-z
1/2-x,1/2-y,-z
1/2+x,1/2-y,z
loop_
_atom_site_type_symbol
_atom_site_label
_atom_site_fract_x
_atom_site_fract_y
_atom_site_fract_z
Si Si1 0.927595 0.208495 0.612954
Si Si2 0.746093 0.388042 0.199689
Si Si3 0.575084 0.292485 0.862636
Si Si4 0.146149 0.742285 0.983532
Si Si5 0.935772 0.000000 0.545408
Si Si6 0.749421 0.389128 0.867925
Si Si7 0.436022 0.500000 0.216562
Si Si8 0.354268 0.771286 0.521720
O O1 0.913263 0.251725 0.497218
O O2 0.000000 0.206450 0.500000
O O3 0.903733 0.098467 0.654220
O O4 0.890915 0.266231 0.800679
O O5 0.734431 0.500000 0.245972
O O6 0.811449 0.350642 0.128393
O O7 0.691902 0.320009 0.367799
O O8 0.750844 0.370077 0.027166
O O9 0.597769 0.274658 0.968258
O O10 0.592386 0.399222 0.773128
O O11 0.617009 0.222460 0.685241
O O12 0.500000 0.281192 0.000000
O O13 0.196196 0.826011 0.907207
O O14 0.944702 0.000000 0.363119
O O15 0.000000 0.000000 0.500000
O O16 0.737740 0.500000 0.872745
O O17 0.813741 0.356834 0.665537
O O18 0.500000 0.500000 0.000000
#
# Coordination Sequence:
#
# PCOD9209476 Si02
#       8
#     8   8   8   8   4   8   4   8
#     4  11  21  33  57  84 117 153 202 240 283 353
#     4  10  21  38  64  90 117 151 199 259 300 336
#     4  11  25  39  58  84 129 162 190 239 301 357
#     4  11  22  39  59  90 117 159 198 241 298 358
#     4  10  22  32  52  86 114 160 202 226 277 356
#     4  10  21  38  62  92 119 150 198 259 298 333
#     4  10  22  36  48  80 126 160 186 230 293 350
#     4  11  20  39  60  87 118 159 196 240 296 355
#
# _framework density 18.896051
#
# number of rings (size 3 to 8) (size 9 to 14) (size 15 to 20)
#    0.000    1.429    4.286    1.714   10.000    2.286 
#    0.000    2.143    0.000    5.143    0.000    0.000 
#    0.000    0.000    0.000    0.000    0.000    0.000 
#
# Total GULP energy -156218.880416 kJ/mol
# GULP energy per Si atom -5579.245729 kJ/mol
# Density = 1.885304 g / cm^3
# Si number density = 18.896051 Si / 1000 Ang^3
#
#
#
# Elastic Constant Matrix: (Units=GPa)
#
#
# Indices 1 2 3 4 5 6 
#
# 1 82.5866 12.2806 -6.2336 0.0000 -0.6210 0.0000
# 2 12.2806 45.1297 5.5226 0.0000 -2.5151 0.0000
# 3 -6.2336 5.5226 61.2081 0.0000 -5.4687 0.0000
# 4 0.0000 0.0000 0.0000 21.8829 0.0000 -3.5289
# 5 -0.6210 -2.5151 -5.4687 0.0000 29.5923 0.0000
# 6 0.0000 0.0000 0.0000 -3.5289 0.0000 14.5905
#
#
#
# Elastic Compliance Matrix: (Units=1/GPa)
#
#
# Indices 1 2 3 4 5 6 
#
# 1 0.012781 -0.003666 0.001656 0.000000 0.000263 0.000000
# 2 -0.003666 0.023528 -0.002363 0.000000 0.001486 0.000000
# 3 0.001656 -0.002363 0.016985 0.000000 0.002973 0.000000
# 4 0.000000 0.000000 0.000000 0.047552 0.000000 0.011501
# 5 0.000263 0.001486 0.002973 0.000000 0.034474 0.000000
# 6 0.000000 0.000000 0.000000 0.011501 0.000000 0.071319
#
#
# Mechanical properties :
#
#
# Convention : Reuss Voigt Hill
#
# Bulk Modulus (GPa) = 22.44827 23.56263 23.00545
# Shear Modulus (GPa) = 21.71695 25.03680 23.37688
#
# Velocity S-wave (km/s) = 3.39379 3.64397 3.52110
# Velocity P-wave (km/s) = 5.22137 5.49558 5.36023
#
# Compressibility (1/GPa) = 0.04454687
#
# Stress axis : x y z
#
# Youngs Moduli (GPa) = 78.24384 42.50268 58.87486
#
# Poissons Ratio (x) = 0.15581 -0.09749
# Poissons Ratio (y) = 0.28683 0.13915
# Poissons Ratio (z) = -0.12956 0.10045
#
# Static dielectric constant tensor:
#      x y z
#    x 1.666360 0.000000 -0.022510 
#    y 0.000000 1.672370 0.000000 
#    z -0.022510 0.000000 1.662170 
# 
# From -- ./inp_files/86403.got.cif
#   From: 2010.05.17/outbox.cif.g08.bks.cpg/sg12_44_cif.got.tgz:86403.got - 2010.06.03 13:09:07.
