data_PCOD9209933
_publ_section_title
;
Structure prediction by ZEFSAII (Michael W. Deem and Ramdas Pophale) SiO2 
 PCOD9209933
Probable space group: C 2/M
;
_chemical_formula_sum "Si O2"
_cell_formula_units_Z 48
_cell_length_a 9.043747
_cell_length_b 24.845175
_cell_length_c 9.797410
_cell_angle_alpha 90.000000
_cell_angle_beta 110.578206
_cell_angle_gamma 90.000000
_cell_volume 2060.949148
_symmetry_space_group_name_H-M "C 2/M"
_symmetry_group_IT_number 12
_symmetry_cell_setting 'monoclinic'
loop_
_space_group_symop_operation_xyz
x,y,z
-x,y,-z
-x,-y,-z
x,-y,z
1/2+x,1/2+y,z
1/2-x,1/2+y,-z
1/2-x,1/2-y,-z
1/2+x,1/2-y,z
loop_
_atom_site_type_symbol
_atom_site_label
_atom_site_fract_x
_atom_site_fract_y
_atom_site_fract_z
Si Si1 0.890633 0.584660 0.070309
Si Si2 0.728443 0.179853 0.565756
Si Si3 0.264509 0.060250 0.328274
Si Si4 0.571694 0.269159 0.721305
Si Si5 0.890673 0.314757 0.785349
Si Si6 0.427078 0.563086 0.118803
O O1 0.830404 0.560460 0.194014
O O2 0.997891 0.635507 0.144760
O O3 0.735108 0.593900 0.928225
O O4 0.000000 0.553338 0.000000
O O5 0.689994 0.118390 0.597024
O O6 0.641216 0.223525 0.636485
O O7 0.665969 0.183380 0.391636
O O8 0.916930 0.195422 0.626641
O O9 0.072935 0.064765 0.268257
O O10 0.304643 0.000000 0.398381
O O11 0.725607 0.303520 0.805020
O O12 0.504770 0.236680 0.827892
O O13 0.384757 0.500000 0.092439
O O14 0.500000 0.581857 0.000000
#
# Coordination Sequence:
#
# PCOD9209933 Si02
#       6
#     8   8   8   8   8   8
#     4  11  23  37  59  87 125 160 209 256 297 361
#     4  11  20  38  69  96 123 157 204 261 310 368
#     4  10  22  41  66  91 122 165 206 253 313 372
#     4  10  21  38  68  95 121 162 208 251 304 378
#     4  11  21  38  61  97 122 159 203 255 316 360
#     4   8  17  37  60  78 106 161 213 238 282 364
#
# _framework density 23.290241000000002
#
# number of rings (size 3 to 8) (size 9 to 14) (size 15 to 20)
#    0.000    1.833    1.667    5.500    2.333    1.333 
#    0.000    3.333    0.000    2.000    0.000    0.000 
#    0.000    0.000    0.000    0.000    0.000    0.000 
#
# Total GULP energy -133634.573426 kJ/mol
# GULP energy per Si atom -5568.107226 kJ/mol
# Density = 2.323723 g / cm^3
# Si number density = 23.290241 Si / 1000 Ang^3
#
#
#
# Elastic Constant Matrix: (Units=GPa)
#
#
# Indices 1 2 3 4 5 6 
#
# 1 187.1103 67.6519 33.9119 0.0000 36.8284 0.0000
# 2 67.6519 147.7488 20.4891 0.0000 7.7253 0.0000
# 3 33.9119 20.4891 17.9031 0.0000 6.3864 0.0000
# 4 0.0000 0.0000 0.0000 18.4466 0.0000 13.2980
# 5 36.8284 7.7253 6.3864 0.0000 34.3541 0.0000
# 6 0.0000 0.0000 0.0000 13.2980 0.0000 26.8626
#
#
#
# Elastic Compliance Matrix: (Units=1/GPa)
#
#
# Indices 1 2 3 4 5 6 
#
# 1 0.010282 -0.002359 -0.013958 0.000000 -0.007897 0.000000
# 2 -0.002359 0.008587 -0.005967 0.000000 0.001708 0.000000
# 3 -0.013958 -0.005967 0.089225 0.000000 -0.000281 0.000000
# 4 0.000000 0.000000 0.000000 0.084292 0.000000 -0.041728
# 5 -0.007897 0.001708 -0.000281 0.000000 0.037242 0.000000
# 6 0.000000 0.000000 0.000000 -0.041728 0.000000 0.057883
#
#
# Mechanical properties :
#
#
# Convention : Reuss Voigt Hill
#
# Bulk Modulus (GPa) = 15.74210 66.31865 41.03037
# Shear Modulus (GPa) = 14.15407 31.31327 22.73367
#
# Velocity S-wave (km/s) = 2.46788 3.67069 3.12765
# Velocity P-wave (km/s) = 3.85932 6.81924 5.54059
#
# Compressibility (1/GPa) = 0.06352393
#
# Stress axis : x y z
#
# Youngs Moduli (GPa) = 97.26196 116.45882 11.20759
#
# Poissons Ratio (x) = 0.27475 0.15644
# Poissons Ratio (y) = 0.22946 0.06688
# Poissons Ratio (z) = 1.35760 0.69495
#
# Static dielectric constant tensor:
#      x y z
#    x 1.952900 0.000000 0.010780 
#    y 0.000000 1.924430 0.000000 
#    z 0.010780 0.000000 1.924910 
# 
# From -- ./inp_files/122551.got.cif
#   From: 2010.05.17/outbox.cif.g08.bks.cpg/sg12_62_cif.got.tgz:122551.got - 2010.06.03 13:09:07.
