data_PCOD9209151
_publ_section_title
;
Structure prediction by ZEFSAII (Michael W. Deem and Ramdas Pophale) SiO2 
 PCOD9209151
Probable space group: C 2/M
;
_chemical_formula_sum "Si O2"
_cell_formula_units_Z 56
_cell_length_a 20.589489
_cell_length_b 8.730691
_cell_length_c 19.919286
_cell_angle_alpha 90.000000
_cell_angle_beta 123.046520
_cell_angle_gamma 90.000000
_cell_volume 3001.443419
_symmetry_space_group_name_H-M "C 2/M"
_symmetry_group_IT_number 12
_symmetry_cell_setting 'monoclinic'
loop_
_space_group_symop_operation_xyz
x,y,z
-x,y,-z
-x,-y,-z
x,-y,z
1/2+x,1/2+y,z
1/2-x,1/2+y,-z
1/2-x,1/2-y,-z
1/2+x,1/2-y,z
loop_
_atom_site_type_symbol
_atom_site_label
_atom_site_fract_x
_atom_site_fract_y
_atom_site_fract_z
Si Si1 0.484071 0.186861 0.066936
Si Si2 0.333880 0.817296 0.062259
Si Si3 0.124126 0.816792 0.770844
Si Si4 0.387226 0.814705 0.751224
Si Si5 0.555323 0.682367 0.356988
Si Si6 0.788009 0.815122 0.312613
Si Si7 0.416895 0.183463 0.484186
O O1 0.400501 0.235630 0.048005
O O2 0.550257 0.234125 0.157291
O O3 0.484714 0.000000 0.066524
O O4 0.500000 0.238535 0.000000
O O5 0.359879 0.767638 0.150941
O O6 0.329959 0.000000 0.055900
O O7 0.250000 0.750000 0.000000
O O8 0.182991 0.770828 0.745216
O O9 0.036801 0.785153 0.697457
O O10 0.131078 0.000000 0.785633
O O11 0.408697 0.747296 0.691064
O O12 0.300348 0.770153 0.723178
O O13 0.390441 0.000000 0.749027
O O14 0.565883 0.500000 0.365551
O O15 0.588695 0.756798 0.443062
O O16 0.847553 0.746808 0.399791
O O17 0.792776 0.000000 0.319120
O O18 0.500000 0.233967 0.500000
O O19 0.415282 0.000000 0.482783
#
# Coordination Sequence:
#
# PCOD9209151 Si02
#       7
#     8   8   8   8   8   8   8
#     4   9  19  36  60  86 114 152 195 238 285 344
#     4  11  23  38  61  89 120 154 194 246 294 347
#     4  10  21  38  61  88 118 155 198 240 290 352
#     4  10  21  39  62  88 118 154 200 243 291 354
#     4  11  22  38  63  87 119 159 195 242 296 355
#     4  10  22  39  62  89 119 157 199 247 294 351
#     4  11  23  38  60  89 121 155 198 250 297 349
#
# _framework density 18.657691
#
# number of rings (size 3 to 8) (size 9 to 14) (size 15 to 20)
#    0.000    1.714    2.857    1.286    2.000    2.857 
#    0.000    0.000    0.000    2.143    0.000    0.000 
#    0.000    0.000    0.000    0.000    0.000    0.000 
#
# Total GULP energy -156435.695103 kJ/mol
# GULP energy per Si atom -5586.989111 kJ/mol
# Density = 1.861522 g / cm^3
# Si number density = 18.657691 Si / 1000 Ang^3
#
#
#
# Elastic Constant Matrix: (Units=GPa)
#
#
# Indices 1 2 3 4 5 6 
#
# 1 184.8736 36.6248 82.4262 0.0000 -11.8621 0.0000
# 2 36.6248 15.5528 27.7255 0.0000 0.4741 0.0000
# 3 82.4262 27.7255 127.2381 0.0000 -16.2993 0.0000
# 4 0.0000 0.0000 0.0000 31.0715 0.0000 0.8876
# 5 -11.8621 0.4741 -16.2993 0.0000 38.4505 0.0000
# 6 0.0000 0.0000 0.0000 0.8876 0.0000 23.4276
#
#
#
# Elastic Compliance Matrix: (Units=1/GPa)
#
#
# Indices 1 2 3 4 5 6 
#
# 1 0.010821 -0.022451 -0.001750 0.000000 0.002873 0.000000
# 2 -0.022451 0.156884 -0.021970 0.000000 -0.018174 0.000000
# 3 -0.001750 -0.021970 0.014535 0.000000 0.005892 0.000000
# 4 0.000000 0.000000 0.000000 0.032219 0.000000 -0.001221
# 5 0.002873 -0.018174 0.005892 0.000000 0.029616 0.000000
# 6 0.000000 0.000000 0.000000 -0.001221 0.000000 0.042731
#
#
# Mechanical properties :
#
#
# Convention : Reuss Voigt Hill
#
# Bulk Modulus (GPa) = 11.12351 69.02417 40.07384
# Shear Modulus (GPa) = 12.22153 30.64911 21.43532
#
# Velocity S-wave (km/s) = 2.56215 4.05743 3.39318
# Velocity P-wave (km/s) = 3.83766 7.68281 6.07261
#
# Compressibility (1/GPa) = 0.08989971
#
# Stress axis : x y z
#
# Youngs Moduli (GPa) = 92.40969 6.37412 68.79903
#
# Poissons Ratio (x) = 0.14310 0.12040
# Poissons Ratio (y) = 2.07466 1.51150
# Poissons Ratio (z) = 0.16172 0.14004
#
# Static dielectric constant tensor:
#      x y z
#    x 1.638430 0.000000 0.003750 
#    y 0.000000 1.634040 0.000000 
#    z 0.003750 0.000000 1.609500 
# 
# From -- ./inp_files/280899.got.cif
#   From: 2010.05.17/outbox.cif.g08.bks.cpg/sg12_141_cif.got.tgz:280899.got - 2010.06.03 13:09:07.
