data_PCOD9209591
_publ_section_title
;
Structure prediction by ZEFSAII (Michael W. Deem and Ramdas Pophale) SiO2 
 PCOD9209591
Probable space group: C 2/M
;
_chemical_formula_sum "Si O2"
_cell_formula_units_Z 28
_cell_length_a 14.360721
_cell_length_b 15.238723
_cell_length_c 6.224398
_cell_angle_alpha 90.000000
_cell_angle_beta 61.776529
_cell_angle_gamma 90.000000
_cell_volume 1200.196084
_symmetry_space_group_name_H-M "C 2/M"
_symmetry_group_IT_number 12
_symmetry_cell_setting 'monoclinic'
loop_
_space_group_symop_operation_xyz
x,y,z
-x,y,-z
-x,-y,-z
x,-y,z
1/2+x,1/2+y,z
1/2-x,1/2+y,-z
1/2-x,1/2-y,-z
1/2+x,1/2-y,z
loop_
_atom_site_type_symbol
_atom_site_label
_atom_site_fract_x
_atom_site_fract_y
_atom_site_fract_z
Si Si1 0.401694 0.758029 0.730391
Si Si2 0.880702 0.600369 0.061336
Si Si3 0.500000 0.642864 0.000000
Si Si4 0.328857 0.596714 0.517763
O O1 0.500000 0.801574 0.500000
O O2 0.358401 0.684835 0.614969
O O3 0.339690 0.835821 0.916318
O O4 0.444589 0.700683 0.880119
O O5 0.882986 0.500000 0.983496
O O6 0.798425 0.604394 0.350138
O O7 0.000000 0.623410 0.000000
O O8 0.402947 0.596195 0.228224
O O9 0.348826 0.500000 0.602766
#
# Coordination Sequence:
#
# PCOD9209591 Si02
#       4
#     8   8   4   8
#     4  10  21  39  62  92 121 158 202 249 304 355
#     4  10  21  41  64  88 123 161 203 248 298 362
#     4  10  21  38  63  90 122 160 197 252 303 354
#     4  10  22  39  63  93 122 158 200 250 302 358
#
# _framework density 23.329519999999999
#
# number of rings (size 3 to 8) (size 9 to 14) (size 15 to 20)
#    0.000    2.000    1.429    1.286    0.000    8.000 
#    5.143    0.000    0.000    0.000    0.000    0.000 
#    0.000    0.000    0.000    0.000    0.000    0.000 
#
# Total GULP energy -77979.339092 kJ/mol
# GULP energy per Si atom -5569.952792 kJ/mol
# Density = 2.327642 g / cm^3
# Si number density = 23.329520 Si / 1000 Ang^3
#
#
#
# Elastic Constant Matrix: (Units=GPa)
#
#
# Indices 1 2 3 4 5 6 
#
# 1 54.9503 24.5983 45.0150 0.0000 -26.0002 0.0000
# 2 24.5983 116.1234 53.1185 0.0000 -18.4416 0.0000
# 3 45.0150 53.1185 160.7919 0.0000 -47.5971 0.0000
# 4 0.0000 0.0000 0.0000 22.8458 0.0000 -9.5030
# 5 -26.0002 -18.4416 -47.5971 0.0000 38.9753 0.0000
# 6 0.0000 0.0000 0.0000 -9.5030 0.0000 18.5873
#
#
#
# Elastic Compliance Matrix: (Units=1/GPa)
#
#
# Indices 1 2 3 4 5 6 
#
# 1 0.028422 -0.002413 -0.002953 0.000000 0.014213 0.000000
# 2 -0.002413 0.010380 -0.002782 0.000000 -0.000095 0.000000
# 3 -0.002953 -0.002782 0.010951 0.000000 0.010087 0.000000
# 4 0.000000 0.000000 0.000000 0.055595 0.000000 0.028424
# 5 0.014213 -0.000095 0.010087 0.000000 0.047412 0.000000
# 6 0.000000 0.000000 0.000000 0.028424 0.000000 0.068332
#
#
# Mechanical properties :
#
#
# Convention : Reuss Voigt Hill
#
# Bulk Modulus (GPa) = 29.88807 64.14770 47.01788
# Shear Modulus (GPa) = 20.11754 30.02395 25.07074
#
# Velocity S-wave (km/s) = 2.93972 3.59130 3.28172
# Velocity P-wave (km/s) = 4.93575 6.68974 5.87853
#
# Compressibility (1/GPa) = 0.03345817
#
# Stress axis : x y z
#
# Youngs Moduli (GPa) = 35.18398 96.33926 91.31698
#
# Poissons Ratio (x) = 0.23245 0.26963
# Poissons Ratio (y) = 0.08489 0.25403
# Poissons Ratio (z) = 0.10389 0.26800
#
# Static dielectric constant tensor:
#      x y z
#    x 1.954850 0.000000 -0.050170 
#    y 0.000000 1.891430 0.000000 
#    z -0.050170 0.000000 1.903060 
# 
# From -- ./inp_files/10096.got.cif
#   From: 2010.05.17/outbox.cif.g08.bks.cpg/sg12_6_cif.got.tgz:10096.got - 2010.06.03 13:09:07.
