data_PCOD9209194
_publ_section_title
;
Structure prediction by ZEFSAII (Michael W. Deem and Ramdas Pophale) SiO2 
 PCOD9209194
Probable space group: C 2/M
;
_chemical_formula_sum "Si O2"
_cell_formula_units_Z 56
_cell_length_a 18.836872
_cell_length_b 9.329880
_cell_length_c 17.221588
_cell_angle_alpha 90.000000
_cell_angle_beta 81.438776
_cell_angle_gamma 90.000000
_cell_volume 2992.896429
_symmetry_space_group_name_H-M "C 2/M"
_symmetry_group_IT_number 12
_symmetry_cell_setting 'monoclinic'
loop_
_space_group_symop_operation_xyz
x,y,z
-x,y,-z
-x,-y,-z
x,-y,z
1/2+x,1/2+y,z
1/2-x,1/2+y,-z
1/2-x,1/2-y,-z
1/2+x,1/2-y,z
loop_
_atom_site_type_symbol
_atom_site_label
_atom_site_fract_x
_atom_site_fract_y
_atom_site_fract_z
Si Si1 0.544172 0.170032 0.270614
Si Si2 0.877287 0.669980 0.308646
Si Si3 0.649922 0.671131 0.136142
Si Si4 0.416284 0.328904 0.022083
Si Si5 0.679604 0.664598 0.533397
Si Si6 0.941627 0.165436 0.572442
Si Si7 0.311968 0.827888 0.156637
O O1 0.459494 0.195547 0.269316
O O2 0.595104 0.246637 0.200642
O O3 0.559861 0.236783 0.352300
O O4 0.556266 0.000000 0.268167
O O5 0.870186 0.500000 0.327096
O O6 0.859699 0.759854 0.388025
O O7 0.825263 0.705494 0.245170
O O8 0.644182 0.500000 0.151388
O O9 0.625699 0.697512 0.051728
O O10 0.732286 0.713110 0.140636
O O11 0.415507 0.500000 0.037335
O O12 0.500000 0.285640 0.000000
O O13 0.373248 0.247799 0.096104
O O14 0.694739 0.500000 0.551490
O O15 0.750000 0.750000 0.500000
O O16 0.631068 0.665234 0.464340
O O17 0.000000 0.215014 0.500000
O O18 0.959489 0.000000 0.591481
O O19 0.318916 0.000000 0.147058
#
# Coordination Sequence:
#
# PCOD9209194 Si02
#       7
#     8   8   8   8   8   8   8
#     4  11  23  37  59  88 117 150 195 248 292 339
#     4  10  22  40  58  83 118 154 195 242 293 346
#     4  10  22  39  59  85 119 155 192 236 290 352
#     4  10  21  38  61  89 118 151 191 237 288 342
#     4  11  24  40  61  86 116 154 195 242 294 348
#     4  10  21  40  62  84 113 154 198 238 291 353
#     4  10  22  39  60  85 116 155 193 234 287 346
#
# _framework density 18.710972000000002
#
# number of rings (size 3 to 8) (size 9 to 14) (size 15 to 20)
#    0.000    1.714    1.429    2.143    2.000    4.000 
#    0.000    0.000    0.000    0.000    0.000    0.000 
#    0.000    0.000    0.000    0.000    0.000    0.000 
#
# Total GULP energy -156414.632031 kJ/mol
# GULP energy per Si atom -5586.236858 kJ/mol
# Density = 1.866838 g / cm^3
# Si number density = 18.710972 Si / 1000 Ang^3
#
#
#
# Elastic Constant Matrix: (Units=GPa)
#
#
# Indices 1 2 3 4 5 6 
#
# 1 88.5616 29.9281 17.0931 0.0000 7.6339 0.0000
# 2 29.9281 43.6613 32.1834 0.0000 0.7190 0.0000
# 3 17.0931 32.1834 52.6262 0.0000 5.4629 0.0000
# 4 0.0000 0.0000 0.0000 31.9124 0.0000 -8.9507
# 5 7.6339 0.7190 5.4629 0.0000 30.5722 0.0000
# 6 0.0000 0.0000 0.0000 -8.9507 0.0000 24.9080
#
#
#
# Elastic Compliance Matrix: (Units=1/GPa)
#
#
# Indices 1 2 3 4 5 6 
#
# 1 0.015374 -0.012938 0.003347 0.000000 -0.004133 0.000000
# 2 -0.012938 0.052992 -0.028948 0.000000 0.007157 0.000000
# 3 0.003347 -0.028948 0.036307 0.000000 -0.006643 0.000000
# 4 0.000000 0.000000 0.000000 0.034848 0.000000 0.012523
# 5 -0.004133 0.007157 -0.006643 0.000000 0.034760 0.000000
# 6 0.000000 0.000000 0.000000 0.012523 0.000000 0.044648
#
#
# Mechanical properties :
#
#
# Convention : Reuss Voigt Hill
#
# Bulk Modulus (GPa) = 36.23574 38.13980 37.18777
# Shear Modulus (GPa) = 16.38255 24.52149 20.45202
#
# Velocity S-wave (km/s) = 2.96219 3.62407 3.30972
# Velocity P-wave (km/s) = 5.57741 6.15952 5.87568
#
# Compressibility (1/GPa) = 0.02759706
#
# Stress axis : x y z
#
# Youngs Moduli (GPa) = 65.04583 18.87090 27.54286
#
# Poissons Ratio (x) = 0.24414 -0.09220
# Poissons Ratio (y) = 0.84153 0.79730
# Poissons Ratio (z) = -0.21774 0.54627
#
# Static dielectric constant tensor:
#      x y z
#    x 1.603360 0.000000 0.004420 
#    y 0.000000 1.626150 0.000000 
#    z 0.004420 0.000000 1.606750 
# 
# From -- ./inp_files/275268.got.cif
#   From: 2010.05.17/outbox.cif.g08.bks.cpg/sg12_138_cif.got.tgz:275268.got - 2010.06.03 13:09:07.
