data_PCOD9209175
_publ_section_title
;
Structure prediction by ZEFSAII (Michael W. Deem and Ramdas Pophale) SiO2 
 PCOD9209175
Probable space group: C 2/M
;
_chemical_formula_sum "Si O2"
_cell_formula_units_Z 64
_cell_length_a 12.127146
_cell_length_b 14.445233
_cell_length_c 30.738382
_cell_angle_alpha 90.000000
_cell_angle_beta 141.654092
_cell_angle_gamma 90.000000
_cell_volume 3340.729348
_symmetry_space_group_name_H-M "C 2/M"
_symmetry_group_IT_number 12
_symmetry_cell_setting 'monoclinic'
loop_
_space_group_symop_operation_xyz
x,y,z
-x,y,-z
-x,-y,-z
x,-y,z
1/2+x,1/2+y,z
1/2-x,1/2+y,-z
1/2-x,1/2-y,-z
1/2+x,1/2-y,z
loop_
_atom_site_type_symbol
_atom_site_label
_atom_site_fract_x
_atom_site_fract_y
_atom_site_fract_z
Si Si1 0.780552 0.893698 0.860072
Si Si2 0.183062 0.145662 0.975199
Si Si3 0.867924 0.108257 0.661083
Si Si4 0.349584 0.392000 0.550610
Si Si5 0.489760 0.217867 0.444570
Si Si6 0.962974 0.600191 0.131082
Si Si7 0.782827 0.207626 0.195694
Si Si8 0.806217 0.392725 0.921024
O O1 0.664864 0.883455 0.867831
O O2 0.709654 0.818038 0.804410
O O3 0.987389 0.871059 0.933165
O O4 0.768363 0.000000 0.841892
O O5 0.180495 0.117445 0.923971
O O6 0.250000 0.250000 0.000000
O O7 0.335356 0.095594 0.049734
O O8 0.874449 0.110326 0.610473
O O9 0.694690 0.165993 0.621997
O O10 0.042410 0.157690 0.733286
O O11 0.857879 0.000000 0.671019
O O12 0.365594 0.500000 0.541842
O O13 0.480873 0.317535 0.568888
O O14 0.152456 0.349894 0.481386
O O15 0.500000 0.230073 0.500000
O O16 0.052725 0.500000 0.164182
O O17 0.112301 0.676403 0.170692
O O18 0.744158 0.170808 0.134840
O O19 0.810666 0.500000 0.908242
O O20 0.000000 0.367865 0.000000
#
# Coordination Sequence:
#
# PCOD9209175 Si02
#       8
#     8   8   8   8   8   8   8   8
#     4  11  25  42  60  83 113 151 196 251 313 372
#     4  12  21  38  60  84 112 145 191 248 314 376
#     4  10  21  38  61  88 120 160 204 246 290 348
#     4   9  18  35  62  93 128 165 200 239 287 343
#     4   9  18  35  61  95 128 159 198 242 288 344
#     4  11  22  39  62  84 109 145 193 249 305 372
#     4  12  24  40  61  85 118 156 206 250 306 363
#     4  11  21  35  58  86 115 146 193 257 312 357
#
# _framework density 19.157492000000001
#
# number of rings (size 3 to 8) (size 9 to 14) (size 15 to 20)
#    0.000    1.375    2.500    3.750    0.000    3.750 
#    0.000    1.875    0.000    3.000    0.000    0.000 
#    0.000    0.000    0.000    0.000    0.000    0.000 
#
# Total GULP energy -178753.658069 kJ/mol
# GULP energy per Si atom -5586.051815 kJ/mol
# Density = 1.911389 g / cm^3
# Si number density = 19.157492 Si / 1000 Ang^3
#
#
#
# Elastic Constant Matrix: (Units=GPa)
#
#
# Indices 1 2 3 4 5 6 
#
# 1 92.3049 62.2634 24.7177 0.0000 20.3758 0.0000
# 2 62.2634 190.7859 55.4462 0.0000 16.7319 0.0000
# 3 24.7177 55.4462 76.8378 0.0000 25.1339 0.0000
# 4 0.0000 0.0000 0.0000 22.9342 0.0000 -4.0008
# 5 20.3758 16.7319 25.1339 0.0000 18.9869 0.0000
# 6 0.0000 0.0000 0.0000 -4.0008 0.0000 29.8779
#
#
#
# Elastic Compliance Matrix: (Units=1/GPa)
#
#
# Indices 1 2 3 4 5 6 
#
# 1 0.017777 -0.005434 0.005073 0.000000 -0.021004 0.000000
# 2 -0.005434 0.008301 -0.006626 0.000000 0.007287 0.000000
# 3 0.005073 -0.006626 0.028280 0.000000 -0.037041 0.000000
# 4 0.000000 0.000000 0.000000 0.044646 0.000000 0.005978
# 5 -0.021004 0.007287 -0.037041 0.000000 0.117820 0.000000
# 6 0.000000 0.000000 0.000000 0.005978 0.000000 0.034270
#
#
# Mechanical properties :
#
#
# Convention : Reuss Voigt Hill
#
# Bulk Modulus (GPa) = 24.76167 71.64260 48.20213
# Shear Modulus (GPa) = 17.95145 28.85989 23.40567
#
# Velocity S-wave (km/s) = 3.06444 3.88552 3.49915
# Velocity P-wave (km/s) = 5.04722 7.58996 6.44523
#
# Compressibility (1/GPa) = 0.04038500
#
# Stress axis : x y z
#
# Youngs Moduli (GPa) = 56.25201 120.46209 35.36096
#
# Poissons Ratio (x) = 0.65457 -0.17939
# Poissons Ratio (y) = 0.30566 0.23429
# Poissons Ratio (z) = -0.28537 0.79816
#
# Static dielectric constant tensor:
#      x y z
#    x 1.687470 0.000000 -0.001240 
#    y 0.000000 1.761810 0.000000 
#    z -0.001240 0.000000 1.637360 
# 
# From -- ./inp_files/374109.got.cif
#   From: 2010.05.17/outbox.cif.g08.bks.cpg/sg12_188_cif.got.tgz:374109.got - 2010.06.03 13:09:07.
