data_PCOD9209084
_publ_section_title
;
Structure prediction by ZEFSAII (Michael W. Deem and Ramdas Pophale) SiO2 
 PCOD9209084
Probable space group: C 2/M
;
_chemical_formula_sum "Si O2"
_cell_formula_units_Z 48
_cell_length_a 23.599914
_cell_length_b 8.958833
_cell_length_c 12.768228
_cell_angle_alpha 90.000000
_cell_angle_beta 88.876979
_cell_angle_gamma 90.000000
_cell_volume 2699.038394
_symmetry_space_group_name_H-M "C 2/M"
_symmetry_group_IT_number 12
_symmetry_cell_setting 'monoclinic'
loop_
_space_group_symop_operation_xyz
x,y,z
-x,y,-z
-x,-y,-z
x,-y,z
1/2+x,1/2+y,z
1/2-x,1/2+y,-z
1/2-x,1/2-y,-z
1/2+x,1/2-y,z
loop_
_atom_site_type_symbol
_atom_site_label
_atom_site_fract_x
_atom_site_fract_y
_atom_site_fract_z
Si Si1 0.878921 0.323625 0.182773
Si Si2 0.307451 0.321939 0.370488
Si Si3 0.310084 0.177047 0.971250
Si Si4 0.504219 0.679176 0.877191
Si Si5 0.824503 0.678134 0.592744
Si Si6 0.882119 0.178785 0.784375
O O1 0.879833 0.500000 0.203830
O O2 0.840856 0.242948 0.270900
O O3 0.941995 0.258291 0.175851
O O4 0.850675 0.300420 0.069936
O O5 0.314347 0.500000 0.376036
O O6 0.240041 0.290069 0.366588
O O7 0.328913 0.246947 0.476966
O O8 0.338582 0.253444 0.870185
O O9 0.303591 0.000000 0.953261
O O10 0.250000 0.250000 0.000000
O O11 0.512403 0.500000 0.873093
O O12 0.445403 0.715003 0.821733
O O13 0.500000 0.722025 0.000000
O O14 0.831688 0.500000 0.588902
O O15 0.867204 0.751996 0.672922
O O16 0.876244 0.000000 0.781836
#
# Coordination Sequence:
#
# PCOD9209084 Si02
#       6
#     8   8   8   8   8   8
#     4  11  23  37  57  85 116 150 192 241 288 338
#     4  10  21  38  61  86 116 154 192 234 286 346
#     4  11  23  36  54  83 117 151 188 234 288 343
#     4  10  21  39  60  82 112 155 197 235 285 344
#     4  10  21  38  61  88 118 152 190 236 289 343
#     4  11  22  37  59  85 115 151 193 237 284 342
#
# _framework density 17.784112
#
# number of rings (size 3 to 8) (size 9 to 14) (size 15 to 20)
#    0.000    1.500    1.667    3.500    0.000    8.333 
#    0.000    0.833    0.000    5.000    0.000    0.000 
#    0.000    0.000    0.000    0.000    0.000    0.000 
#
# Total GULP energy -134160.535795 kJ/mol
# GULP energy per Si atom -5590.022325 kJ/mol
# Density = 1.774363 g / cm^3
# Si number density = 17.784112 Si / 1000 Ang^3
#
#
#
# Elastic Constant Matrix: (Units=GPa)
#
#
# Indices 1 2 3 4 5 6 
#
# 1 43.7812 23.9240 0.3008 0.0000 20.7079 0.0000
# 2 23.9240 49.4824 28.2882 0.0000 17.3975 0.0000
# 3 0.3008 28.2882 60.3128 0.0000 19.0327 0.0000
# 4 0.0000 0.0000 0.0000 37.2552 0.0000 -0.9906
# 5 20.7079 17.3975 19.0327 0.0000 33.1782 0.0000
# 6 0.0000 0.0000 0.0000 -0.9906 0.0000 31.6731
#
#
#
# Elastic Compliance Matrix: (Units=1/GPa)
#
#
# Indices 1 2 3 4 5 6 
#
# 1 0.052167 -0.026969 0.022224 0.000000 -0.031167 0.000000
# 2 -0.026969 0.043727 -0.022529 0.000000 0.006827 0.000000
# 3 0.022224 -0.022529 0.033805 0.000000 -0.021450 0.000000
# 4 0.000000 0.000000 0.000000 0.026864 0.000000 0.000840
# 5 -0.031167 0.006827 -0.021450 0.000000 0.058317 0.000000
# 6 0.000000 0.000000 0.000000 0.000840 0.000000 0.031599
#
#
# Mechanical properties :
#
#
# Convention : Reuss Voigt Hill
#
# Bulk Modulus (GPa) = 13.30660 28.73360 21.02010
# Shear Modulus (GPa) = 15.33376 27.15887 21.24631
#
# Velocity S-wave (km/s) = 2.93954 3.91211 3.46016
# Velocity P-wave (km/s) = 4.36116 6.04963 5.27341
#
# Compressibility (1/GPa) = 0.07515069
#
# Stress axis : x y z
#
# Youngs Moduli (GPa) = 19.16934 22.86891 29.58149
#
# Poissons Ratio (x) = 0.61675 -0.65742
# Poissons Ratio (y) = 0.51698 0.66645
# Poissons Ratio (z) = -0.42602 0.51522
#
# Static dielectric constant tensor:
#      x y z
#    x 1.581860 0.000000 0.013690 
#    y 0.000000 1.590130 0.000000 
#    z 0.013690 0.000000 1.579670 
# 
# From -- ./inp_files/172104.got.cif
#   From: 2010.05.17/outbox.cif.g08.bks.cpg/sg12_87_cif.got.tgz:172104.got - 2010.06.03 13:09:07.
