data_PCOD9209955
_publ_section_title
;
Structure prediction by ZEFSAII (Michael W. Deem and Ramdas Pophale) SiO2 
 PCOD9209955
Probable space group: C 2/M
;
_chemical_formula_sum "Si O2"
_cell_formula_units_Z 44
_cell_length_a 13.309823
_cell_length_b 12.539205
_cell_length_c 18.116069
_cell_angle_alpha 90.000000
_cell_angle_beta 44.974311
_cell_angle_gamma 90.000000
_cell_volume 2136.960253
_symmetry_space_group_name_H-M "C 2/M"
_symmetry_group_IT_number 12
_symmetry_cell_setting 'monoclinic'
loop_
_space_group_symop_operation_xyz
x,y,z
-x,y,-z
-x,-y,-z
x,-y,z
1/2+x,1/2+y,z
1/2-x,1/2+y,-z
1/2-x,1/2-y,-z
1/2+x,1/2-y,z
loop_
_atom_site_type_symbol
_atom_site_label
_atom_site_fract_x
_atom_site_fract_y
_atom_site_fract_z
Si Si1 0.133255 0.229226 0.149131
Si Si2 0.100348 0.324091 0.323521
Si Si3 0.000000 0.181153 0.500000
Si Si4 0.086369 0.000000 0.559075
Si Si5 0.216559 0.000000 0.718541
Si Si6 0.591758 0.500000 0.206093
Si Si7 0.618454 0.000000 0.515836
Si Si8 0.906731 0.869810 0.975550
O O1 0.073233 0.268408 0.259035
O O2 0.251798 0.317151 0.068947
O O3 0.043401 0.201319 0.121654
O O4 0.178655 0.106760 0.142729
O O5 0.102465 0.247204 0.393134
O O6 0.241824 0.397996 0.253058
O O7 0.965892 0.398382 0.411156
O O8 0.084679 0.103933 0.509853
O O9 0.954921 0.000000 0.684200
O O10 0.227622 0.000000 0.530728
O O11 0.063567 0.000000 0.757354
O O12 0.342040 0.000000 0.591254
O O13 0.899588 0.000000 0.968245
O O14 0.000000 0.852584 0.000000
#
# Coordination Sequence:
#
# PCOD9209955 Si02
#       8
#     8   8   4   4   4   4   4   8
#     4  11  24  40  67  97 126 154 209 262 315 372
#     4  11  21  37  61  90 124 161 210 263 292 357
#     4  11  20  37  54  84 126 169 204 239 304 364
#     4  10  23  37  54  81 133 177 197 239 302 370
#     4  10  22  36  64  90 126 170 218 249 296 344
#     4  11  22  40  60  96 126 163 210 257 300 371
#     4  10  21  39  54  91 127 163 217 257 286 341
#     4  10  24  47  73  91 118 157 208 266 323 376
#
# _framework density 20.589994000000001
#
# number of rings (size 3 to 8) (size 9 to 14) (size 15 to 20)
#    0.000    1.455    4.545    0.545    5.091    2.182 
#    0.000    0.455    0.000    0.000    0.000    0.000 
#    0.000    0.000    0.000    0.000    0.000    0.000 
#
# Total GULP energy -122498.019287 kJ/mol
# GULP energy per Si atom -5568.091786 kJ/mol
# Density = 2.054313 g / cm^3
# Si number density = 20.589994 Si / 1000 Ang^3
#
#
#
# Elastic Constant Matrix: (Units=GPa)
#
#
# Indices 1 2 3 4 5 6 
#
# 1 87.7851 46.0847 34.8083 0.0000 31.9888 0.0000
# 2 46.0847 113.9475 35.5248 0.0000 22.0245 0.0000
# 3 34.8083 35.5248 92.9680 0.0000 33.7940 0.0000
# 4 0.0000 0.0000 0.0000 43.7232 0.0000 5.1238
# 5 31.9888 22.0245 33.7940 0.0000 37.0927 0.0000
# 6 0.0000 0.0000 0.0000 5.1238 0.0000 34.8624
#
#
#
# Elastic Compliance Matrix: (Units=1/GPa)
#
#
# Indices 1 2 3 4 5 6 
#
# 1 0.018909 -0.005005 -0.000478 0.000000 -0.012900 0.000000
# 2 -0.005005 0.011631 -0.002436 0.000000 -0.000371 0.000000
# 3 -0.000478 -0.002436 0.016732 0.000000 -0.013385 0.000000
# 4 0.000000 0.000000 0.000000 0.023272 0.000000 -0.003420
# 5 -0.012900 -0.000371 -0.013385 0.000000 0.050499 0.000000
# 6 0.000000 0.000000 0.000000 -0.003420 0.000000 0.029187
#
#
# Mechanical properties :
#
#
# Convention : Reuss Voigt Hill
#
# Bulk Modulus (GPa) = 31.81274 58.61513 45.21394
# Shear Modulus (GPa) = 28.32113 35.02119 31.67116
#
# Velocity S-wave (km/s) = 3.71277 4.12865 3.92622
# Velocity P-wave (km/s) = 5.81925 7.15942 6.52384
#
# Compressibility (1/GPa) = 0.03143395
#
# Stress axis : x y z
#
# Youngs Moduli (GPa) = 52.88389 85.97493 59.76690
#
# Poissons Ratio (x) = 0.43032 0.02858
# Poissons Ratio (y) = 0.26469 0.14558
# Poissons Ratio (z) = 0.02529 0.20942
#
# Static dielectric constant tensor:
#      x y z
#    x 1.740500 0.000000 0.038200 
#    y 0.000000 1.777070 0.000000 
#    z 0.038200 0.000000 1.813870 
# 
# From -- ./inp_files/268515.got.cif
#   From: 2010.05.17/outbox.cif.g08.bks.cpg/sg12_135_cif.got.tgz:268515.got - 2010.06.03 13:09:07.
