data_PCOD9209918
_publ_section_title
;
Structure prediction by ZEFSAII (Michael W. Deem and Ramdas Pophale) SiO2 
 PCOD9209918
Probable space group: C 2/M
;
_chemical_formula_sum "Si O2"
_cell_formula_units_Z 56
_cell_length_a 22.057806
_cell_length_b 25.387403
_cell_length_c 14.470614
_cell_angle_alpha 90.000000
_cell_angle_beta 161.876934
_cell_angle_gamma 90.000000
_cell_volume 2520.637571
_symmetry_space_group_name_H-M "C 2/M"
_symmetry_group_IT_number 12
_symmetry_cell_setting 'monoclinic'
loop_
_space_group_symop_operation_xyz
x,y,z
-x,y,-z
-x,-y,-z
x,-y,z
1/2+x,1/2+y,z
1/2-x,1/2+y,-z
1/2-x,1/2-y,-z
1/2+x,1/2-y,z
loop_
_atom_site_type_symbol
_atom_site_label
_atom_site_fract_x
_atom_site_fract_y
_atom_site_fract_z
Si Si1 0.695727 0.398001 0.205631
Si Si2 0.001993 0.272384 0.263389
Si Si3 0.160623 0.799768 0.652549
Si Si4 0.100753 0.056765 0.884929
Si Si5 0.593084 0.143706 0.725649
Si Si6 0.170410 0.844658 0.348396
Si Si7 0.215982 0.391486 0.293406
O O1 0.918496 0.395437 0.498966
O O2 0.700441 0.395266 0.323178
O O3 0.605829 0.439280 0.004089
O O4 0.565892 0.344944 0.995850
O O5 0.060366 0.226105 0.417191
O O6 0.898376 0.315401 0.179727
O O7 0.196835 0.298227 0.500840
O O8 0.838473 0.264026 0.948896
O O9 0.259177 0.854098 0.759802
O O10 0.000000 0.807095 0.500000
O O11 0.882378 0.064747 0.533581
O O12 0.181074 0.000000 0.972677
O O13 0.220720 0.108019 0.024725
O O14 0.500000 0.171186 0.500000
O O15 0.237023 0.856148 0.547777
O O16 0.000000 0.411536 0.000000
#
# Coordination Sequence:
#
# PCOD9209918 Si02
#       7
#     8   8   8   8   8   8   8
#     4   8  17  32  59  92 125 159 203 266 322 384
#     4  11  23  40  64  94 136 177 228 274 331 398
#     4  12  26  42  65  99 132 180 226 279 331 400
#     4  10  21  38  67  98 127 170 223 277 335 402
#     4   9  18  36  61  93 129 172 208 267 334 388
#     4   9  18  38  60  90 127 177 212 258 327 390
#     4  11  23  44  63  91 134 176 223 266 334 389
#
# _framework density 22.216602000000002
#
# number of rings (size 3 to 8) (size 9 to 14) (size 15 to 20)
#    0.000    2.000    1.429    1.714    0.000   10.286 
#    5.143    5.714    0.000    7.286    0.000    0.000 
#    0.000    0.000    0.000    0.000    0.000    0.000 
#
# Total GULP energy -156067.790136 kJ/mol
# GULP energy per Si atom -5573.849648 kJ/mol
# Density = 2.216604 g / cm^3
# Si number density = 22.216602 Si / 1000 Ang^3
#
#
#
# Elastic Constant Matrix: (Units=GPa)
#
#
# Indices 1 2 3 4 5 6 
#
# 1 75.6058 21.4220 15.6134 0.0001 8.2454 0.0000
# 2 21.4220 60.3464 9.5396 0.0000 8.3497 0.0000
# 3 15.6134 9.5396 111.0405 0.0004 15.8003 0.0000
# 4 0.0001 0.0000 0.0004 4.2659 0.0002 3.5777
# 5 8.2454 8.3497 15.8003 0.0002 40.9224 0.0000
# 6 0.0000 0.0000 0.0000 3.5777 0.0000 15.2034
#
#
#
# Elastic Compliance Matrix: (Units=1/GPa)
#
#
# Indices 1 2 3 4 5 6 
#
# 1 0.015087 -0.004918 -0.001491 0.000000 -0.001461 0.000000
# 2 -0.004918 0.018767 -0.000547 0.000000 -0.002627 0.000000
# 3 -0.001491 -0.000547 0.009739 -0.000001 -0.003348 0.000000
# 4 0.000000 0.000000 -0.000001 0.292060 -0.000001 -0.068728
# 5 -0.001461 -0.002627 -0.003348 -0.000001 0.026560 0.000000
# 6 0.000000 0.000000 0.000000 -0.068728 0.000000 0.081948
#
#
# Mechanical properties :
#
#
# Convention : Reuss Voigt Hill
#
# Bulk Modulus (GPa) = 33.69173 37.79365 35.74269
# Shear Modulus (GPa) = 10.68456 25.43952 18.06204
#
# Velocity S-wave (km/s) = 2.19538 3.38756 2.85440
# Velocity P-wave (km/s) = 4.65019 5.68763 5.19487
#
# Compressibility (1/GPa) = 0.02968088
#
# Stress axis : x y z
#
# Youngs Moduli (GPa) = 66.28157 53.28586 102.68221
#
# Poissons Ratio (x) = 0.26205 0.15310
# Poissons Ratio (y) = 0.32596 0.05616
# Poissons Ratio (z) = 0.09883 0.02915
#
# Static dielectric constant tensor:
#      x y z
#    x 1.901700 0.000000 -0.002980 
#    y 0.000000 1.803400 0.000000 
#    z -0.002980 0.000000 1.882420 
# 
# From -- ./inp_files/242296.got.cif
#   From: 2010.05.17/outbox.cif.g08.bks.cpg/sg12_122_cif.got.tgz:242296.got - 2010.06.03 13:09:07.
