data_PCOD9209841
_publ_section_title
;
Structure prediction by ZEFSAII (Michael W. Deem and Ramdas Pophale) SiO2 
 PCOD9209841
Probable space group: C 2/M
;
_chemical_formula_sum "Si O2"
_cell_formula_units_Z 40
_cell_length_a 11.764262
_cell_length_b 14.930399
_cell_length_c 11.044947
_cell_angle_alpha 90.000000
_cell_angle_beta 115.593141
_cell_angle_gamma 90.000000
_cell_volume 1749.647413
_symmetry_space_group_name_H-M "C 2/M"
_symmetry_group_IT_number 12
_symmetry_cell_setting 'monoclinic'
loop_
_space_group_symop_operation_xyz
x,y,z
-x,y,-z
-x,-y,-z
x,-y,z
1/2+x,1/2+y,z
1/2-x,1/2+y,-z
1/2-x,1/2-y,-z
1/2+x,1/2-y,z
loop_
_atom_site_type_symbol
_atom_site_label
_atom_site_fract_x
_atom_site_fract_y
_atom_site_fract_z
Si Si1 0.581912 0.322191 0.934075
Si Si2 0.449276 0.101190 0.604168
Si Si3 0.515939 0.601432 0.341888
Si Si4 0.692730 0.828365 0.809170
Si Si5 0.202433 0.817247 0.610325
O O1 0.499602 0.383406 0.807799
O O2 0.640226 0.249578 0.871931
O O3 0.500000 0.275298 0.000000
O O4 0.690527 0.368496 0.063595
O O5 0.500000 0.141115 0.500000
O O6 0.577684 0.104917 0.738626
O O7 0.335964 0.148108 0.623052
O O8 0.407195 0.000000 0.559083
O O9 0.558212 0.500000 0.386435
O O10 0.377103 0.618318 0.335578
O O11 0.608673 0.672604 0.450293
O O12 0.721301 0.774404 0.696347
#
# Coordination Sequence:
#
# PCOD9209841 Si02
#       5
#     8   8   8   8   8
#     4  10  22  39  59  91 125 168 217 270 314 387
#     4  11  25  40  62  97 136 166 205 271 336 383
#     4  10  21  38  65  95 124 169 219 270 323 382
#     4  10  23  41  64  89 126 172 222 260 319 391
#     4  10  21  42  67  92 127 170 219 274 313 391
#
# _framework density 22.861749
#
# number of rings (size 3 to 8) (size 9 to 14) (size 15 to 20)
#    0.000    1.800    0.000    3.600    8.400    2.000 
#    0.000    0.000    0.000   12.600    0.000    0.000 
#    0.000    0.000    0.000    0.000    0.000    0.000 
#
# Total GULP energy -111519.845632 kJ/mol
# GULP energy per Si atom -5575.992282 kJ/mol
# Density = 2.280971 g / cm^3
# Si number density = 22.861749 Si / 1000 Ang^3
#
#
#
# Elastic Constant Matrix: (Units=GPa)
#
#
# Indices 1 2 3 4 5 6 
#
# 1 127.5976 12.1146 54.1856 0.0000 -29.3280 0.0000
# 2 12.1146 58.9318 28.6109 0.0000 -10.1028 0.0000
# 3 54.1856 28.6109 154.4695 0.0000 0.3327 0.0000
# 4 0.0000 0.0000 0.0000 9.0448 0.0000 0.4659
# 5 -29.3280 -10.1028 0.3327 0.0000 36.4760 0.0000
# 6 0.0000 0.0000 0.0000 0.4659 0.0000 17.3322
#
#
#
# Elastic Compliance Matrix: (Units=1/GPa)
#
#
# Indices 1 2 3 4 5 6 
#
# 1 0.011893 0.001434 -0.004459 0.000000 0.010000 0.000000
# 2 0.001434 0.019858 -0.004196 0.000000 0.006692 0.000000
# 3 -0.004459 -0.004196 0.008826 0.000000 -0.004828 0.000000
# 4 0.000000 0.000000 0.000000 0.110714 0.000000 -0.002976
# 5 0.010000 0.006692 -0.004828 0.000000 0.037353 0.000000
# 6 0.000000 0.000000 0.000000 -0.002976 0.000000 0.057776
#
#
# Mechanical properties :
#
#
# Convention : Reuss Voigt Hill
#
# Bulk Modulus (GPa) = 38.26164 58.98012 48.62088
# Shear Modulus (GPa) = 18.54784 28.97645 23.76214
#
# Velocity S-wave (km/s) = 2.85143 3.56401 3.22745
# Velocity P-wave (km/s) = 5.25484 6.54147 5.93313
#
# Compressibility (1/GPa) = 0.02613583
#
# Stress axis : x y z
#
# Youngs Moduli (GPa) = 84.08191 50.35739 113.30798
#
# Poissons Ratio (x) = -0.07223 0.50526
# Poissons Ratio (y) = -0.12061 0.47541
# Poissons Ratio (z) = 0.37494 0.21128
#
# Static dielectric constant tensor:
#      x y z
#    x 1.894150 0.000000 0.030020 
#    y 0.000000 1.836330 0.000000 
#    z 0.030020 0.000000 1.938300 
# 
# From -- ./inp_files/131366.got.cif
#   From: 2010.05.17/outbox.cif.g08.bks.cpg/sg12_66_cif.got.tgz:131366.got - 2010.06.03 13:09:07.
