data_PCOD9209257
_publ_section_title
;
Structure prediction by ZEFSAII (Michael W. Deem and Ramdas Pophale) SiO2 
 PCOD9209257
Probable space group: C 2/M
;
_chemical_formula_sum "Si O2"
_cell_formula_units_Z 56
_cell_length_a 9.212207
_cell_length_b 15.770405
_cell_length_c 28.060093
_cell_angle_alpha 90.000000
_cell_angle_beta 41.136296
_cell_angle_gamma 90.000000
_cell_volume 2681.786252
_symmetry_space_group_name_H-M "C 2/M"
_symmetry_group_IT_number 12
_symmetry_cell_setting 'monoclinic'
loop_
_space_group_symop_operation_xyz
x,y,z
-x,y,-z
-x,-y,-z
x,-y,z
1/2+x,1/2+y,z
1/2-x,1/2+y,-z
1/2-x,1/2-y,-z
1/2+x,1/2-y,z
loop_
_atom_site_type_symbol
_atom_site_label
_atom_site_fract_x
_atom_site_fract_y
_atom_site_fract_z
Si Si1 0.730137 0.500000 0.468929
Si Si2 0.373645 0.325316 0.347608
Si Si3 0.509791 0.846274 0.076601
Si Si4 0.242128 0.000000 0.573168
Si Si5 0.645524 0.663801 0.084818
Si Si6 0.164763 0.402129 0.782900
Si Si7 0.005338 0.335638 0.634287
Si Si8 0.843270 0.600270 0.776583
O O1 0.500000 0.500000 0.500000
O O2 0.651170 0.500000 0.542852
O O3 0.868511 0.415486 0.420624
O O4 0.317142 0.415093 0.384969
O O5 0.626265 0.339223 0.268433
O O6 0.204734 0.312752 0.346212
O O7 0.355608 0.249569 0.390261
O O8 0.587766 0.757644 0.080406
O O9 0.300826 0.833763 0.093085
O O10 0.444344 0.901299 0.138129
O O11 0.707917 0.877748 0.993601
O O12 0.500000 0.000000 0.500000
O O13 0.412922 0.620387 0.152078
O O14 0.231250 0.500000 0.755766
O O15 0.992860 0.373035 0.784735
O O16 0.927495 0.361015 0.706470
O O17 0.869430 0.500000 0.765985
#
# Coordination Sequence:
#
# PCOD9209257 Si02
#       8
#     4   8   8   4   8   8   8   8
#     4  12  30  48  78 104 145 180 219 280 336 403
#     4  12  26  45  75 101 141 179 230 278 334 406
#     4  10  21  38  61  90 127 170 224 273 341 393
#     4  12  26  52  74 106 141 180 223 274 338 403
#     4  10  21  38  61  90 127 172 218 282 331 402
#     4  11  24  41  65  95 129 178 222 282 334 398
#     4  12  26  47  71 106 136 184 227 277 338 401
#     4  11  24  41  65  93 133 173 227 278 337 396
#
# _framework density 20.881603999999999
#
# number of rings (size 3 to 8) (size 9 to 14) (size 15 to 20)
#    0.000    0.857    2.857    3.429    4.000    5.143 
#    0.000    2.857    0.000    0.000    0.000    0.000 
#    0.000    0.000    0.000    0.000    0.000    0.000 
#
# Total GULP energy -156525.216039 kJ/mol
# GULP energy per Si atom -5590.186287 kJ/mol
# Density = 2.083408 g / cm^3
# Si number density = 20.881604 Si / 1000 Ang^3
#
#
#
# Elastic Constant Matrix: (Units=GPa)
#
#
# Indices 1 2 3 4 5 6 
#
# 1 159.8993 17.8463 25.5981 0.0021 9.3799 -0.0002
# 2 17.8463 91.9121 16.0528 -0.0007 4.3390 0.0000
# 3 25.5981 16.0528 52.1115 0.0022 6.3269 -0.0012
# 4 0.0021 -0.0007 0.0022 -18.3796 -0.0014 9.4120
# 5 9.3799 4.3390 6.3269 -0.0014 40.1483 0.0001
# 6 -0.0002 0.0000 -0.0012 9.4120 0.0001 25.6301
#
#
#
# Elastic Compliance Matrix: (Units=1/GPa)
#
#
# Indices 1 2 3 4 5 6 
#
# 1 0.006884 -0.000760 -0.003020 0.000000 -0.001050 0.000000
# 2 -0.000760 0.011602 -0.003130 -0.000001 -0.000583 0.000000
# 3 -0.003020 -0.003130 0.021930 0.000003 -0.002412 0.000000
# 4 0.000000 -0.000001 0.000003 -0.045796 -0.000002 0.016817
# 5 -0.001050 -0.000583 -0.002412 -0.000002 0.025596 0.000001
# 6 0.000000 0.000000 0.000000 0.016817 0.000001 0.032841
#
#
# Mechanical properties :
#
#
# Convention : Reuss Voigt Hill
#
# Bulk Modulus (GPa) = 37.59876 46.99080 42.29478
# Shear Modulus (GPa) = 66.01457 25.77480 45.89469
#
# Velocity S-wave (km/s) = 5.62871 3.51712 4.69321
# Velocity P-wave (km/s) = 7.76453 6.24866 7.04747
#
# Compressibility (1/GPa) = 0.02659662
#
# Stress axis : x y z
#
# Youngs Moduli (GPa) = 145.26898 86.19477 45.59946
#
# Poissons Ratio (x) = 0.06547 0.13771
# Poissons Ratio (y) = 0.11034 0.14272
# Poissons Ratio (z) = 0.43870 0.26978
#
# Static dielectric constant tensor:
#      x y z
#    x 1.683800 0.000000 -0.043470 
#    y 0.000000 1.768630 0.000000 
#    z -0.043470 0.000000 1.753840 
# 
# From -- ./inp_files/356704.got.cif
#   From: 2010.05.17/outbox.cif.g08.bks.cpg/sg12_179_cif.got.tgz:356704.got - 2010.06.03 13:09:07.
