data_PCOD9209911
_publ_section_title
;
Structure prediction by ZEFSAII (Michael W. Deem and Ramdas Pophale) SiO2 
 PCOD9209911
Probable space group: C 2/M
;
_chemical_formula_sum "Si O2"
_cell_formula_units_Z 44
_cell_length_a 14.172276
_cell_length_b 10.038355
_cell_length_c 15.754667
_cell_angle_alpha 90.000000
_cell_angle_beta 64.939233
_cell_angle_gamma 90.000000
_cell_volume 2030.355142
_symmetry_space_group_name_H-M "C 2/M"
_symmetry_group_IT_number 12
_symmetry_cell_setting 'monoclinic'
loop_
_space_group_symop_operation_xyz
x,y,z
-x,y,-z
-x,-y,-z
x,-y,z
1/2+x,1/2+y,z
1/2-x,1/2+y,-z
1/2-x,1/2-y,-z
1/2+x,1/2-y,z
loop_
_atom_site_type_symbol
_atom_site_label
_atom_site_fract_x
_atom_site_fract_y
_atom_site_fract_z
Si Si1 0.093246 0.791135 0.696112
Si Si2 0.224563 0.500000 0.868198
Si Si3 0.102703 0.500000 0.074188
Si Si4 0.387094 0.000000 0.258510
Si Si5 0.172850 0.349792 0.343095
Si Si6 0.630134 0.250427 0.170798
Si Si7 0.341368 0.655187 0.503975
O O1 0.110255 0.632048 0.687666
O O2 0.200376 0.845354 0.695886
O O3 0.080795 0.845153 0.605753
O O4 0.987636 0.808234 0.789160
O O5 0.204720 0.500000 0.774971
O O6 0.289414 0.369372 0.865152
O O7 0.122793 0.500000 0.966594
O O8 0.149988 0.634960 0.095350
O O9 0.988229 0.500000 0.159146
O O10 0.139438 0.500000 0.379190
O O11 0.140741 0.316943 0.259683
O O12 0.129651 0.236683 0.423049
O O13 0.314838 0.500000 0.531267
O O14 0.250000 0.750000 0.500000
#
# Coordination Sequence:
#
# PCOD9209911 Si02
#       7
#     8   4   4   4   8   8   8
#     4  10  22  39  60  90 127 159 203 250 298 360
#     4  12  23  40  69  92 119 156 206 258 307 366
#     4  10  23  46  60  92 125 158 198 254 312 372
#     4  10  21  38  67  91 119 161 207 249 300 369
#     4  11  23  41  62  87 126 165 208 247 303 358
#     4  11  24  40  65  91 122 161 200 252 312 364
#     4  10  22  36  59  89 126 166 206 251 295 351
#
# _framework density 21.671085000000001
#
# number of rings (size 3 to 8) (size 9 to 14) (size 15 to 20)
#    0.000    1.455    2.727    3.000   10.182    0.727 
#    0.000    1.818    0.000    1.091    0.000    0.000 
#    0.000    0.000    0.000    0.000    0.000    0.000 
#
# Total GULP energy -122869.548235 kJ/mol
# GULP energy per Si atom -5584.979465 kJ/mol
# Density = 2.162176 g / cm^3
# Si number density = 21.671085 Si / 1000 Ang^3
#
#
#
# Elastic Constant Matrix: (Units=GPa)
#
#
# Indices 1 2 3 4 5 6 
#
# 1 57.3510 11.5807 6.8622 0.0000 2.4385 0.0000
# 2 11.5807 173.9858 36.7073 0.0000 1.9188 0.0000
# 3 6.8622 36.7073 74.6377 0.0000 7.4969 0.0000
# 4 0.0000 0.0000 0.0000 20.6142 0.0000 -9.8853
# 5 2.4385 1.9188 7.4969 0.0000 33.5187 0.0000
# 6 0.0000 0.0000 0.0000 -9.8853 0.0000 10.1985
#
#
#
# Elastic Compliance Matrix: (Units=1/GPa)
#
#
# Indices 1 2 3 4 5 6 
#
# 1 0.017798 -0.000948 -0.001070 0.000000 -0.001001 0.000000
# 2 -0.000948 0.006467 -0.003134 0.000000 0.000400 0.000000
# 3 -0.001070 -0.003134 0.015357 0.000000 -0.003178 0.000000
# 4 0.000000 0.000000 0.000000 0.090641 0.000000 0.087857
# 5 -0.001001 0.000400 -0.003178 0.000000 0.030595 0.000000
# 6 0.000000 0.000000 0.000000 0.087857 0.000000 0.183212
#
#
# Mechanical properties :
#
#
# Convention : Reuss Voigt Hill
#
# Bulk Modulus (GPa) = 34.10634 46.25278 40.17956
# Shear Modulus (GPa) = 13.73075 29.58791 21.65933
#
# Velocity S-wave (km/s) = 2.51987 3.69903 3.16485
# Velocity P-wave (km/s) = 4.92328 6.29549 5.65119
#
# Compressibility (1/GPa) = 0.02932006
#
# Stress axis : x y z
#
# Youngs Moduli (GPa) = 56.18458 154.62084 65.11797
#
# Poissons Ratio (x) = 0.14658 0.06965
# Poissons Ratio (y) = 0.05326 0.20406
# Poissons Ratio (z) = 0.06010 0.48454
#
# Static dielectric constant tensor:
#      x y z
#    x 1.824140 0.000000 -0.050050 
#    y 0.000000 1.775340 0.000000 
#    z -0.050050 0.000000 1.796070 
# 
# From -- ./inp_files/267581.got.cif
#   From: 2010.05.17/outbox.cif.g08.bks.cpg/sg12_134_cif.got.tgz:267581.got - 2010.06.03 13:09:07.
