data_PCOD9209106
_publ_section_title
;
Structure prediction by ZEFSAII (Michael W. Deem and Ramdas Pophale) SiO2 
 PCOD9209106
Probable space group: C 2/M
;
_chemical_formula_sum "Si O2"
_cell_formula_units_Z 40
_cell_length_a 10.198096
_cell_length_b 10.399892
_cell_length_c 24.271313
_cell_angle_alpha 90.000000
_cell_angle_beta 50.527410
_cell_angle_gamma 90.000000
_cell_volume 1987.094109
_symmetry_space_group_name_H-M "C 2/M"
_symmetry_group_IT_number 12
_symmetry_cell_setting 'monoclinic'
loop_
_space_group_symop_operation_xyz
x,y,z
-x,y,-z
-x,-y,-z
x,-y,z
1/2+x,1/2+y,z
1/2-x,1/2+y,-z
1/2-x,1/2-y,-z
1/2+x,1/2-y,z
loop_
_atom_site_type_symbol
_atom_site_label
_atom_site_fract_x
_atom_site_fract_y
_atom_site_fract_z
Si Si1 0.402687 0.650325 0.968366
Si Si2 0.174519 0.149872 0.797839
Si Si3 0.449935 0.355389 0.455131
Si Si4 0.907454 0.638396 0.396139
Si Si5 0.562234 0.148670 0.735288
O O1 0.345095 0.500000 0.984200
O O2 0.537562 0.665867 0.883048
O O3 0.500000 0.673615 0.000000
O O4 0.250000 0.750000 0.000000
O O5 0.363070 0.170429 0.772754
O O6 0.128862 0.248895 0.761379
O O7 0.165082 0.000000 0.782242
O O8 0.500000 0.294665 0.500000
O O9 0.518504 0.500000 0.432506
O O10 0.247720 0.370419 0.519353
O O11 0.499722 0.265436 0.391827
O O12 0.997987 0.500000 0.373977
O O13 0.850777 0.656967 0.348419
O O14 0.579248 0.000000 0.750092
#
# Coordination Sequence:
#
# PCOD9209106 Si02
#       5
#     8   8   8   8   8
#     4  10  21  38  61  87 117 151 187 231 281 331
#     4  10  22  39  58  86 118 149 189 233 279 337
#     4   9  18  32  51  74 102 134 178 229 276 329
#     4   9  19  34  50  74 103 138 181 227 278 330
#     4  10  22  39  59  83 116 153 192 235 283 339
#
# _framework density 20.129898000000001
#
# number of rings (size 3 to 8) (size 9 to 14) (size 15 to 20)
#    0.000    2.400    0.000    1.200    2.800    4.800 
#    0.000    0.000    0.000    0.000    0.000    0.000 
#    0.000    0.000    0.000    0.000    0.000    0.000 
#
# Total GULP energy -111486.198859 kJ/mol
# GULP energy per Si atom -5574.309943 kJ/mol
# Density = 2.008408 g / cm^3
# Si number density = 20.129898 Si / 1000 Ang^3
#
#
#
# Elastic Constant Matrix: (Units=GPa)
#
#
# Indices 1 2 3 4 5 6 
#
# 1 95.1365 90.7883 46.5688 0.0000 7.3002 0.0000
# 2 90.7883 143.4476 80.2879 0.0000 24.5794 0.0000
# 3 46.5688 80.2879 102.6515 0.0000 6.0548 0.0000
# 4 0.0000 0.0000 0.0000 22.8141 0.0000 9.0355
# 5 7.3002 24.5794 6.0548 0.0000 35.9222 0.0000
# 6 0.0000 0.0000 0.0000 9.0355 0.0000 25.0242
#
#
#
# Elastic Compliance Matrix: (Units=1/GPa)
#
#
# Indices 1 2 3 4 5 6 
#
# 1 0.028713 -0.021386 0.003214 0.000000 0.008257 0.000000
# 2 -0.021386 0.030301 -0.013162 0.000000 -0.014169 0.000000
# 3 0.003214 -0.013162 0.018267 0.000000 0.005274 0.000000
# 4 0.000000 0.000000 0.000000 0.051147 0.000000 -0.018468
# 5 0.008257 -0.014169 0.005274 0.000000 0.034966 0.000000
# 6 0.000000 0.000000 0.000000 -0.018468 0.000000 0.046630
#
#
# Mechanical properties :
#
#
# Convention : Reuss Voigt Hill
#
# Bulk Modulus (GPa) = 68.43190 86.28064 77.35627
# Shear Modulus (GPa) = 18.01389 24.99145 21.50267
#
# Velocity S-wave (km/s) = 2.99470 3.52733 3.27187
# Velocity P-wave (km/s) = 6.78429 7.71650 7.26536
#
# Compressibility (1/GPa) = 0.01461307
#
# Stress axis : x y z
#
# Youngs Moduli (GPa) = 34.82699 33.00188 54.74345
#
# Poissons Ratio (x) = 0.70579 -0.17595
# Poissons Ratio (y) = 0.74483 0.72053
# Poissons Ratio (z) = -0.11194 0.43437
#
# Static dielectric constant tensor:
#      x y z
#    x 1.720910 0.000000 -0.067110 
#    y 0.000000 1.774330 0.000000 
#    z -0.067110 0.000000 1.758030 
# 
# From -- ./inp_files/254732.got.cif
#   From: 2010.05.17/outbox.cif.g08.bks.cpg/sg12_128_cif.got.tgz:254732.got - 2010.06.03 13:09:07.
