data_PCOD9209572
_publ_section_title
;
Structure prediction by ZEFSAII (Michael W. Deem and Ramdas Pophale) SiO2 
 PCOD9209572
Probable space group: C 2/M
;
_chemical_formula_sum "Si O2"
_cell_formula_units_Z 60
_cell_length_a 8.880838
_cell_length_b 20.264059
_cell_length_c 21.722744
_cell_angle_alpha 90.000000
_cell_angle_beta 132.311846
_cell_angle_gamma 90.000000
_cell_volume 2890.869678
_symmetry_space_group_name_H-M "C 2/M"
_symmetry_group_IT_number 12
_symmetry_cell_setting 'monoclinic'
loop_
_space_group_symop_operation_xyz
x,y,z
-x,y,-z
-x,-y,-z
x,-y,z
1/2+x,1/2+y,z
1/2-x,1/2+y,-z
1/2-x,1/2-y,-z
1/2+x,1/2-y,z
loop_
_atom_site_type_symbol
_atom_site_label
_atom_site_fract_x
_atom_site_fract_y
_atom_site_fract_z
Si Si1 0.777706 0.274877 0.778047
Si Si2 0.909615 0.703058 0.386866
Si Si3 0.562259 0.699720 0.947725
Si Si4 0.555179 0.613129 0.294041
Si Si5 0.712211 0.335893 0.574367
Si Si6 0.484927 0.115452 0.759140
Si Si7 0.057945 0.076339 0.152020
Si Si8 0.298378 0.500000 0.276625
O O1 0.675067 0.221865 0.704399
O O2 0.599992 0.325013 0.748003
O O3 0.944511 0.317127 0.785699
O O4 0.884354 0.238930 0.863389
O O5 0.773727 0.642453 0.371653
O O6 0.859422 0.768468 0.411479
O O7 0.144050 0.683902 0.443025
O O8 0.590736 0.630950 0.918914
O O9 0.500000 0.683947 0.000000
O O10 0.750000 0.750000 0.000000
O O11 0.554773 0.584011 0.224994
O O12 0.471209 0.558155 0.316123
O O13 0.500000 0.370963 0.500000
O O14 0.853102 0.376569 0.660088
O O15 0.716315 0.096404 0.809036
O O16 0.377750 0.057408 0.766975
O O17 0.013730 0.000000 0.124264
#
# Coordination Sequence:
#
# PCOD9209572 Si02
#       8
#     8   8   8   8   8   8   8   4
#     4  10  21  38  63  88 123 160 211 263 312 366
#     4  11  20  36  61  91 123 159 212 261 314 380
#     4  12  25  40  62  93 130 164 203 259 325 384
#     4  11  20  36  63  91 118 155 212 268 304 364
#     4  11  22  36  58  95 132 163 199 265 335 376
#     4  10  21  39  65  92 119 163 221 266 299 376
#     4  12  23  40  67  91 123 166 220 260 308 373
#     4  10  22  38  59  91 118 156 212 274 308 348
#
# _framework density 20.755001
#
# number of rings (size 3 to 8) (size 9 to 14) (size 15 to 20)
#    0.000    1.067    5.333    2.000    1.867    0.267 
#    0.000    0.333    1.467    2.000    0.000    0.000 
#    0.000    0.000    0.000    0.000    0.000    0.000 
#
# Total GULP energy -167211.231792 kJ/mol
# GULP energy per Si atom -5573.707726 kJ/mol
# Density = 2.070776 g / cm^3
# Si number density = 20.755001 Si / 1000 Ang^3
#
#
#
# Elastic Constant Matrix: (Units=GPa)
#
#
# Indices 1 2 3 4 5 6 
#
# 1 49.4120 -6.8418 5.5002 0.0000 26.5122 0.0000
# 2 -6.8418 92.3338 21.1782 0.0000 16.5736 0.0000
# 3 5.5002 21.1782 64.4581 -0.0001 7.6558 -0.0001
# 4 0.0000 0.0000 -0.0001 15.8823 0.0000 13.5201
# 5 26.5122 16.5736 7.6558 0.0000 33.0786 0.0000
# 6 0.0000 0.0000 -0.0001 13.5201 0.0000 32.8210
#
#
#
# Elastic Compliance Matrix: (Units=1/GPa)
#
#
# Indices 1 2 3 4 5 6 
#
# 1 0.043228 0.010884 -0.002573 0.000000 -0.039504 0.000000
# 2 0.010884 0.015362 -0.004139 0.000000 -0.015462 0.000000
# 3 -0.002573 -0.004139 0.017072 0.000000 0.000185 0.000000
# 4 0.000000 0.000000 0.000000 0.096966 0.000000 -0.039943
# 5 -0.039504 -0.015462 0.000185 0.000000 0.069598 0.000000
# 6 0.000000 0.000000 0.000000 -0.039943 0.000000 0.046922
#
#
# Mechanical properties :
#
#
# Convention : Reuss Voigt Hill
#
# Bulk Modulus (GPa) = 11.90410 27.31967 19.61188
# Shear Modulus (GPa) = 16.19150 28.78087 22.48618
#
# Velocity S-wave (km/s) = 2.79610 3.72788 3.29509
# Velocity P-wave (km/s) = 4.02147 5.63213 4.89352
#
# Compressibility (1/GPa) = 0.08400468
#
# Stress axis : x y z
#
# Youngs Moduli (GPa) = 23.13339 65.09742 58.57694
#
# Poissons Ratio (x) = -0.70852 0.15070
# Poissons Ratio (y) = -0.25178 0.24247
# Poissons Ratio (z) = 0.05951 0.26947
#
# Static dielectric constant tensor:
#      x y z
#    x 1.800690 0.000000 -0.009470 
#    y 0.000000 1.718040 0.000000 
#    z -0.009470 0.000000 1.772520 
# 
# From -- ./inp_files/333861.got.cif
#   From: 2010.05.17/outbox.cif.g08.bks.cpg/sg12_167_cif.got.tgz:333861.got - 2010.06.03 13:09:07.
