data_PCOD9209550
_publ_section_title
;
Structure prediction by ZEFSAII (Michael W. Deem and Ramdas Pophale) SiO2 
 PCOD9209550
Probable space group: C 2/M
;
_chemical_formula_sum "Si O2"
_cell_formula_units_Z 44
_cell_length_a 21.328859
_cell_length_b 14.759977
_cell_length_c 7.468992
_cell_angle_alpha 90.000000
_cell_angle_beta 53.636487
_cell_angle_gamma 90.000000
_cell_volume 1893.466586
_symmetry_space_group_name_H-M "C 2/M"
_symmetry_group_IT_number 12
_symmetry_cell_setting 'monoclinic'
loop_
_space_group_symop_operation_xyz
x,y,z
-x,y,-z
-x,-y,-z
x,-y,z
1/2+x,1/2+y,z
1/2-x,1/2+y,-z
1/2-x,1/2-y,-z
1/2+x,1/2-y,z
loop_
_atom_site_type_symbol
_atom_site_label
_atom_site_fract_x
_atom_site_fract_y
_atom_site_fract_z
Si Si1 0.093085 0.597371 0.851463
Si Si2 0.124730 0.597252 0.219179
Si Si3 0.590675 0.396139 0.517671
Si Si4 0.500000 0.250915 0.500000
Si Si5 0.209234 0.157802 0.002970
Si Si6 0.664683 0.714817 0.691016
O O1 0.121228 0.500000 0.726196
O O2 0.115711 0.694178 0.735123
O O3 0.124262 0.599853 0.003076
O O4 0.000000 0.594180 0.000000
O O5 0.089346 0.500000 0.331541
O O6 0.072915 0.683267 0.360589
O O7 0.212153 0.599458 0.146433
O O8 0.564773 0.500000 0.565830
O O9 0.521253 0.322812 0.618868
O O10 0.648882 0.380248 0.250682
O O11 0.638806 0.366848 0.609381
O O12 0.250000 0.250000 0.000000
O O13 0.166206 0.180612 0.891789
O O14 0.750000 0.750000 0.500000
#
# Coordination Sequence:
#
# PCOD9209550 Si02
#       6
#     8   8   8   4   8   8
#     4  10  21  38  62  95 131 169 213 269 334 399
#     4  11  22  39  66  98 131 171 218 273 338 404
#     4  12  27  45  68  97 134 180 231 277 329 401
#     4  12  22  44  66  94 138 176 222 280 342 390
#     4  12  22  45  70  97 136 181 216 274 339 395
#     4  12  23  41  69  99 135 174 221 275 335 398
#
# _framework density 23.237801000000001
#
# number of rings (size 3 to 8) (size 9 to 14) (size 15 to 20)
#    0.000    0.545    5.455    2.182    0.000    3.636 
#    0.000    4.545    0.000    6.000    0.000    0.000 
#    0.000    0.000    0.000    0.000    0.000    0.000 
#
# Total GULP energy -122977.235795 kJ/mol
# GULP energy per Si atom -5589.874354 kJ/mol
# Density = 2.318491 g / cm^3
# Si number density = 23.237801 Si / 1000 Ang^3
#
#
#
# Elastic Constant Matrix: (Units=GPa)
#
#
# Indices 1 2 3 4 5 6 
#
# 1 91.4448 37.5904 34.7803 0.0000 2.2214 0.0000
# 2 37.5904 206.2530 36.4222 0.0000 -6.7579 0.0000
# 3 34.7803 36.4222 57.6344 0.0000 8.1192 0.0000
# 4 0.0000 0.0000 0.0000 21.4016 0.0000 -3.8908
# 5 2.2214 -6.7579 8.1192 0.0000 46.1335 0.0000
# 6 0.0000 0.0000 0.0000 -3.8908 0.0000 41.8836
#
#
#
# Elastic Compliance Matrix: (Units=1/GPa)
#
#
# Indices 1 2 3 4 5 6 
#
# 1 0.014479 -0.001198 -0.008057 0.000000 0.000545 0.000000
# 2 -0.001198 0.005652 -0.003049 0.000000 0.001422 0.000000
# 3 -0.008057 -0.003049 0.024762 0.000000 -0.004417 0.000000
# 4 0.000000 0.000000 0.000000 0.047528 0.000000 0.004415
# 5 0.000545 0.001422 -0.004417 0.000000 0.022636 0.000000
# 6 0.000000 0.000000 0.000000 0.004415 0.000000 0.024286
#
#
# Mechanical properties :
#
#
# Convention : Reuss Voigt Hill
#
# Bulk Modulus (GPa) = 49.29954 63.65754 56.47854
# Shear Modulus (GPa) = 29.28882 38.31968 33.80425
#
# Velocity S-wave (km/s) = 3.55406 4.06522 3.81820
# Velocity P-wave (km/s) = 6.17277 7.03478 6.61782
#
# Compressibility (1/GPa) = 0.02028417
#
# Stress axis : x y z
#
# Youngs Moduli (GPa) = 69.06341 176.93463 40.38430
#
# Poissons Ratio (x) = 0.21200 0.32539
# Poissons Ratio (y) = 0.08275 0.12313
# Poissons Ratio (z) = 0.55647 0.53946
#
# Static dielectric constant tensor:
#      x y z
#    x 1.885770 0.000000 -0.019720 
#    y 0.000000 2.113190 0.000000 
#    z -0.019720 0.000000 1.922830 
# 
# From -- ./inp_files/85613.got.cif
#   From: 2010.05.17/outbox.cif.g08.bks.cpg/sg12_43_cif.got.tgz:85613.got - 2010.06.03 13:09:07.
