data_PCOD9209906
_publ_section_title
;
Structure prediction by ZEFSAII (Michael W. Deem and Ramdas Pophale) SiO2 
 PCOD9209906
Probable space group: C 2/M
;
_chemical_formula_sum "Si O2"
_cell_formula_units_Z 52
_cell_length_a 21.578757
_cell_length_b 12.149566
_cell_length_c 22.463662
_cell_angle_alpha 90.000000
_cell_angle_beta 24.100412
_cell_angle_gamma 90.000000
_cell_volume 2404.841758
_symmetry_space_group_name_H-M "C 2/M"
_symmetry_group_IT_number 12
_symmetry_cell_setting 'monoclinic'
loop_
_space_group_symop_operation_xyz
x,y,z
-x,y,-z
-x,-y,-z
x,-y,z
1/2+x,1/2+y,z
1/2-x,1/2+y,-z
1/2-x,1/2-y,-z
1/2+x,1/2-y,z
loop_
_atom_site_type_symbol
_atom_site_label
_atom_site_fract_x
_atom_site_fract_y
_atom_site_fract_z
Si Si1 0.456913 0.500000 0.781183
Si Si2 0.851723 0.500000 0.669157
Si Si3 0.462906 0.500000 0.102057
Si Si4 0.371397 0.207049 0.738716
Si Si5 0.152251 0.183231 0.538476
Si Si6 0.100031 0.625017 0.773404
Si Si7 0.333033 0.631567 0.672313
Si Si8 0.118607 0.825918 0.049861
O O1 0.542428 0.595714 0.665783
O O2 0.389030 0.402215 0.885491
O O3 0.716989 0.500000 0.739736
O O4 0.845036 0.604733 0.718308
O O5 0.000000 0.500000 0.500000
O O6 0.529822 0.395302 0.076929
O O7 0.500000 0.500000 0.000000
O O8 0.547301 0.229918 0.595698
O O9 0.310257 0.311910 0.755759
O O10 0.284723 0.191104 0.876696
O O11 0.250000 0.250000 0.500000
O O12 0.269340 0.126933 0.390997
O O13 0.042185 0.500000 0.831671
O O14 0.193956 0.659216 0.750359
O O15 0.970346 0.710600 0.868506
O O16 0.500000 0.665766 0.500000
O O17 0.337992 0.500000 0.673505
#
# Coordination Sequence:
#
# PCOD9209906 Si02
#       8
#     4   4   4   8   8   8   8   8
#     4  11  25  48  72  93 134 180 235 291 349 386
#     4  12  26  40  68 113 142 178 226 284 343 417
#     4  11  21  44  73  99 148 184 211 278 361 427
#     4  12  26  44  68 102 142 181 229 282 350 426
#     4  12  26  46  71  97 130 182 238 296 344 397
#     4  11  23  43  69 104 139 176 228 282 346 418
#     4  10  21  38  67 101 137 176 221 274 339 415
#     4  11  25  44  69 104 138 183 228 279 353 422
#
# _framework density 21.623044
#
# number of rings (size 3 to 8) (size 9 to 14) (size 15 to 20)
#    0.000    0.769    5.385    1.846    3.231    1.846 
#    0.000    1.538    0.000    0.000    0.000    0.000 
#    0.000    0.000    0.000    0.000    0.000    0.000 
#
# Total GULP energy -144905.532401 kJ/mol
# GULP energy per Si atom -5573.289708 kJ/mol
# Density = 2.157383 g / cm^3
# Si number density = 21.623044 Si / 1000 Ang^3
#
#
#
# Elastic Constant Matrix: (Units=GPa)
#
#
# Indices 1 2 3 4 5 6 
#
# 1 44.7938 12.3853 -22.0605 -0.0002 0.7621 0.0006
# 2 12.3853 71.5331 6.2444 0.0040 -15.4420 -0.0018
# 3 -22.0605 6.2444 63.4874 0.0034 15.8831 -0.0017
# 4 -0.0002 0.0040 0.0034 19.4916 -0.0028 13.7174
# 5 0.7621 -15.4420 15.8831 -0.0028 33.7884 0.0016
# 6 0.0006 -0.0018 -0.0017 13.7174 0.0016 27.2552
#
#
#
# Elastic Compliance Matrix: (Units=1/GPa)
#
#
# Indices 1 2 3 4 5 6 
#
# 1 0.032861 -0.009735 0.015497 -0.000004 -0.012475 0.000002
# 2 -0.009735 0.019218 -0.008528 -0.000001 0.013012 0.000001
# 3 0.015497 -0.008528 0.026108 -0.000010 -0.016520 0.000006
# 4 -0.000004 -0.000001 -0.000010 0.079443 0.000012 -0.039983
# 5 -0.012475 0.013012 -0.016520 0.000012 0.043590 -0.000009
# 6 0.000002 0.000001 0.000006 -0.039983 -0.000009 0.056814
#
#
# Mechanical properties :
#
#
# Convention : Reuss Voigt Hill
#
# Bulk Modulus (GPa) = 13.76402 19.21696 16.49049
# Shear Modulus (GPa) = 17.37416 28.32339 22.84878
#
# Velocity S-wave (km/s) = 2.83769 3.62314 3.25420
# Velocity P-wave (km/s) = 4.13713 5.13901 4.66505
#
# Compressibility (1/GPa) = 0.07265318
#
# Stress axis : x y z
#
# Youngs Moduli (GPa) = 30.43157 52.03327 38.30297
#
# Poissons Ratio (x) = 0.50656 -0.59358
# Poissons Ratio (y) = 0.29626 0.32666
# Poissons Ratio (z) = -0.47159 0.44376
#
# Static dielectric constant tensor:
#      x y z
#    x 1.815430 0.000000 -0.001760 
#    y 0.000000 1.775960 0.000000 
#    z -0.001760 0.000000 1.813850 
# 
# From -- ./inp_files/321565.got.cif
#   From: 2010.05.17/outbox.cif.g08.bks.cpg/sg12_161_cif.got.tgz:321565.got - 2010.06.03 13:09:07.
