data_PCOD9209113
_publ_section_title
;
Structure prediction by ZEFSAII (Michael W. Deem and Ramdas Pophale) SiO2 
 PCOD9209113
Probable space group: C 2/M
;
_chemical_formula_sum "Si O2"
_cell_formula_units_Z 48
_cell_length_a 10.707914
_cell_length_b 24.442732
_cell_length_c 12.682061
_cell_angle_alpha 90.000000
_cell_angle_beta 142.300658
_cell_angle_gamma 90.000000
_cell_volume 2029.801973
_symmetry_space_group_name_H-M "C 2/M"
_symmetry_group_IT_number 12
_symmetry_cell_setting 'monoclinic'
loop_
_space_group_symop_operation_xyz
x,y,z
-x,y,-z
-x,-y,-z
x,-y,z
1/2+x,1/2+y,z
1/2-x,1/2+y,-z
1/2-x,1/2-y,-z
1/2+x,1/2-y,z
loop_
_atom_site_type_symbol
_atom_site_label
_atom_site_fract_x
_atom_site_fract_y
_atom_site_fract_z
Si Si1 0.732273 0.838004 0.935212
Si Si2 0.628224 0.219413 0.187479
Si Si3 0.497345 0.058700 0.175465
Si Si4 0.207041 0.167331 0.271543
Si Si5 0.262938 0.436714 0.567219
Si Si6 0.358306 0.606978 0.302080
O O1 0.545839 0.799037 0.845645
O O2 0.665616 0.894435 0.942853
O O3 0.742564 0.844267 0.816500
O O4 0.962030 0.827436 0.125282
O O5 0.764071 0.268669 0.324681
O O6 0.756544 0.167642 0.228682
O O7 0.500000 0.239759 0.000000
O O8 0.613059 0.064473 0.365662
O O9 0.671749 0.067449 0.205733
O O10 0.400394 0.000000 0.104986
O O11 0.283720 0.115635 0.389704
O O12 0.254581 0.500000 0.603367
O O13 0.489045 0.421463 0.677204
O O14 0.500000 0.612139 0.500000
#
# Coordination Sequence:
#
# PCOD9209113 Si02
#       6
#     8   8   8   8   8   8
#     4  10  22  38  56  85 114 151 193 235 287 339
#     4  11  21  38  62  84 114 152 193 238 288 342
#     4   9  19  38  61  84 115 153 193 239 285 334
#     4  11  23  37  56  84 116 154 191 234 286 343
#     4  10  21  38  61  87 118 154 192 235 287 345
#     4   9  19  37  60  92 115 146 192 243 290 333
#
# _framework density 23.647627
#
# number of rings (size 3 to 8) (size 9 to 14) (size 15 to 20)
#    0.000    2.000    1.667    2.000    2.333    4.000 
#    3.000    5.833    0.000    5.500    0.000    0.000 
#    0.000    0.000    0.000    0.000    0.000    0.000 
#
# Total GULP energy -134013.588545 kJ/mol
# GULP energy per Si atom -5583.899523 kJ/mol
# Density = 2.359380 g / cm^3
# Si number density = 23.647627 Si / 1000 Ang^3
#
#
#
# Elastic Constant Matrix: (Units=GPa)
#
#
# Indices 1 2 3 4 5 6 
#
# 1 83.6430 20.9324 9.5172 0.0000 14.5798 0.0000
# 2 20.9324 162.8818 20.3330 0.0000 6.1820 0.0000
# 3 9.5172 20.3330 61.0601 0.0000 14.4174 0.0000
# 4 0.0000 0.0000 0.0000 37.9322 0.0000 -6.9174
# 5 14.5798 6.1820 14.4174 0.0000 32.8175 0.0000
# 6 0.0000 0.0000 0.0000 -6.9174 0.0000 11.2032
#
#
#
# Elastic Compliance Matrix: (Units=1/GPa)
#
#
# Indices 1 2 3 4 5 6 
#
# 1 0.013316 -0.001466 -0.000285 0.000000 -0.005514 0.000000
# 2 -0.001466 0.006570 -0.002032 0.000000 0.000306 0.000000
# 3 -0.000285 -0.002032 0.018943 0.000000 -0.007813 0.000000
# 4 0.000000 0.000000 0.000000 0.029708 0.000000 0.018343
# 5 -0.005514 0.000306 -0.007813 0.000000 0.036296 0.000000
# 6 0.000000 0.000000 0.000000 0.018343 0.000000 0.100586
#
#
# Mechanical properties :
#
#
# Convention : Reuss Voigt Hill
#
# Bulk Modulus (GPa) = 31.98688 45.46110 38.72399
# Shear Modulus (GPa) = 22.38078 33.51074 27.94576
#
# Velocity S-wave (km/s) = 3.07974 3.76851 3.44140
# Velocity P-wave (km/s) = 5.11882 6.18075 5.67468
#
# Compressibility (1/GPa) = 0.03126282
#
# Stress axis : x y z
#
# Youngs Moduli (GPa) = 75.09634 152.21056 52.79013
#
# Poissons Ratio (x) = 0.22320 0.01505
# Poissons Ratio (y) = 0.11012 0.10724
# Poissons Ratio (z) = 0.02141 0.30922
#
# Static dielectric constant tensor:
#      x y z
#    x 1.937640 0.000000 -0.043530 
#    y 0.000000 1.927020 0.000000 
#    z -0.043530 0.000000 1.908550 
# 
# From -- ./inp_files/50619.got.cif
#   From: 2010.05.17/outbox.cif.g08.bks.cpg/sg12_26_cif.got.tgz:50619.got - 2010.06.03 13:09:07.
