data_PCOD9209348
_publ_section_title
;
Structure prediction by ZEFSAII (Michael W. Deem and Ramdas Pophale) SiO2 
 PCOD9209348
Probable space group: C 2/M
;
_chemical_formula_sum "Si O2"
_cell_formula_units_Z 52
_cell_length_a 18.352935
_cell_length_b 14.591697
_cell_length_c 14.317308
_cell_angle_alpha 90.000000
_cell_angle_beta 40.501758
_cell_angle_gamma 90.000000
_cell_volume 2490.191319
_symmetry_space_group_name_H-M "C 2/M"
_symmetry_group_IT_number 12
_symmetry_cell_setting 'monoclinic'
loop_
_space_group_symop_operation_xyz
x,y,z
-x,y,-z
-x,-y,-z
x,-y,z
1/2+x,1/2+y,z
1/2-x,1/2+y,-z
1/2-x,1/2-y,-z
1/2+x,1/2-y,z
loop_
_atom_site_type_symbol
_atom_site_label
_atom_site_fract_x
_atom_site_fract_y
_atom_site_fract_z
Si Si1 0.500000 0.253914 0.500000
Si Si2 0.512579 0.396624 0.653858
Si Si3 0.913689 0.394493 0.348846
Si Si4 0.965997 0.260373 0.131077
Si Si5 0.174512 0.830435 0.030787
Si Si6 0.625712 0.898625 0.280568
Si Si7 0.320271 0.606032 0.332321
O O1 0.525386 0.319640 0.562771
O O2 0.399185 0.185049 0.625959
O O3 0.520673 0.500000 0.608323
O O4 0.392746 0.382629 0.822035
O O5 0.605807 0.386799 0.644357
O O6 0.898987 0.500000 0.333988
O O7 0.921705 0.330146 0.251665
O O8 0.806302 0.371118 0.516311
O O9 0.026570 0.388997 0.300132
O O10 0.875842 0.178471 0.208580
O O11 0.077692 0.214695 0.063470
O O12 0.000000 0.303965 0.000000
O O13 0.250000 0.750000 0.000000
O O14 0.257165 0.889759 0.886840
O O15 0.616691 0.000000 0.333099
O O16 0.327087 0.500000 0.293890
#
# Coordination Sequence:
#
# PCOD9209348 Si02
#       7
#     4   8   8   8   8   8   8
#     4  12  22  36  56  88 126 142 194 254 290 346
#     4  10  21  38  62  86 115 158 196 241 295 345
#     4  10  21  40  61  83 116 158 197 236 287 358
#     4  11  23  37  62  92 118 150 195 248 299 336
#     4  11  20  42  62  81 118 162 198 238 285 357
#     4  11  23  39  61  86 117 161 199 238 296 352
#     4   9  20  40  62  83 113 155 199 235 288 354
#
# _framework density 20.881929
#
# number of rings (size 3 to 8) (size 9 to 14) (size 15 to 20)
#    0.000    1.538    3.077    2.308    0.000    3.692 
#    0.000    1.538    0.000    0.000    0.000    0.000 
#    0.000    0.000    0.000    0.000    0.000    0.000 
#
# Total GULP energy -145405.948887 kJ/mol
# GULP energy per Si atom -5592.536496 kJ/mol
# Density = 2.083440 g / cm^3
# Si number density = 20.881929 Si / 1000 Ang^3
#
#
#
# Elastic Constant Matrix: (Units=GPa)
#
#
# Indices 1 2 3 4 5 6 
#
# 1 35.6214 23.1195 20.6389 0.0000 0.5998 0.0000
# 2 23.1195 112.8182 42.9129 0.0000 14.8931 0.0000
# 3 20.6389 42.9129 98.5265 0.0000 -6.7049 0.0000
# 4 0.0000 0.0000 0.0000 32.1033 0.0000 -10.9337
# 5 0.5998 14.8931 -6.7049 0.0000 33.5562 0.0000
# 6 0.0000 0.0000 0.0000 -10.9337 0.0000 3.1254
#
#
#
# Elastic Compliance Matrix: (Units=1/GPa)
#
#
# Indices 1 2 3 4 5 6 
#
# 1 0.034291 -0.005294 -0.004825 0.000000 0.000773 0.000000
# 2 -0.005294 0.012646 -0.004840 0.000000 -0.006485 0.000000
# 3 -0.004825 -0.004840 0.013605 0.000000 0.004953 0.000000
# 4 0.000000 0.000000 0.000000 -0.162688 0.000000 -0.569138
# 5 0.000773 -0.006485 0.004953 0.000000 0.033655 0.000000
# 6 0.000000 0.000000 0.000000 -0.569138 0.000000 -1.671086
#
#
# Mechanical properties :
#
#
# Convention : Reuss Voigt Hill
#
# Bulk Modulus (GPa) = 32.65345 46.70097 39.67721
# Shear Modulus (GPa) = -2.94213 24.44329 10.75058
#
# Velocity S-wave (km/s) = -1.18827 3.42504 2.27144
# Velocity P-wave (km/s) = 3.71328 6.16880 5.09129
#
# Compressibility (1/GPa) = 0.03062464
#
# Stress axis : x y z
#
# Youngs Moduli (GPa) = 29.16176 79.07713 73.50003
#
# Poissons Ratio (x) = 0.41863 0.35463
# Poissons Ratio (y) = 0.15438 0.35576
# Poissons Ratio (z) = 0.14070 0.38275
#
# Static dielectric constant tensor:
#      x y z
#    x 1.745640 0.000000 0.005690 
#    y 0.000000 1.758140 0.000000 
#    z 0.005690 0.000000 1.743750 
# 
# From -- ./inp_files/225631.got.cif
#   From: 2010.05.17/outbox.cif.g08.bks.cpg/sg12_113_cif.got.tgz:225631.got - 2010.06.03 13:09:07.
