data_PCOD9209053
_publ_section_title
;
Structure prediction by ZEFSAII (Michael W. Deem and Ramdas Pophale) SiO2 
 PCOD9209053
Probable space group: C 2/M
;
_chemical_formula_sum "Si O2"
_cell_formula_units_Z 56
_cell_length_a 14.508201
_cell_length_b 27.705497
_cell_length_c 11.224941
_cell_angle_alpha 90.000000
_cell_angle_beta 40.308205
_cell_angle_gamma 90.000000
_cell_volume 2918.771179
_symmetry_space_group_name_H-M "C 2/M"
_symmetry_group_IT_number 12
_symmetry_cell_setting 'monoclinic'
loop_
_space_group_symop_operation_xyz
x,y,z
-x,y,-z
-x,-y,-z
x,-y,z
1/2+x,1/2+y,z
1/2-x,1/2+y,-z
1/2-x,1/2-y,-z
1/2+x,1/2-y,z
loop_
_atom_site_type_symbol
_atom_site_label
_atom_site_fract_x
_atom_site_fract_y
_atom_site_fract_z
Si Si1 0.963058 0.898551 0.663459
Si Si2 0.415187 0.442678 0.968247
Si Si3 0.455958 0.249893 0.678907
Si Si4 0.079309 0.555399 0.295289
Si Si5 0.985946 0.346420 0.276332
Si Si6 0.805028 0.814994 0.521700
Si Si7 0.778893 0.322205 0.132544
O O1 0.812791 0.871167 0.794114
O O2 0.000000 0.923847 0.500000
O O3 0.081421 0.857043 0.562634
O O4 0.960226 0.925690 0.791958
O O5 0.436729 0.500000 0.948418
O O6 0.246556 0.433789 0.147730
O O7 0.500000 0.422369 0.000000
O O8 0.500000 0.261185 0.500000
O O9 0.443099 0.192806 0.705221
O O10 0.592710 0.270658 0.617452
O O11 0.315109 0.281106 0.841133
O O12 0.066082 0.500000 0.261627
O O13 0.015070 0.598259 0.279345
O O14 0.000000 0.556727 0.500000
O O15 0.818487 0.334647 0.440929
O O16 0.068414 0.332363 0.073821
O O17 0.725965 0.806305 0.725514
#
# Coordination Sequence:
#
# PCOD9209053 Si02
#       7
#     8   8   8   8   8   8   8
#     4   9  18  37  57  81 112 152 194 237 289 347
#     4  10  21  38  61  84 112 151 197 247 298 350
#     4   9  19  35  51  77 115 148 188 235 288 345
#     4  10  23  40  56  80 117 155 189 239 299 346
#     4  12  19  32  59  83 106 150 199 232 284 352
#     4   9  20  33  54  80 115 147 183 238 289 346
#     4   9  18  35  54  77 112 151 183 231 292 347
#
# _framework density 19.186156
#
# number of rings (size 3 to 8) (size 9 to 14) (size 15 to 20)
#    0.000    2.286    1.429    3.429    2.000    0.286 
#    0.000    0.000    0.000    2.571    0.000    0.000 
#    0.000    0.000    0.000    0.000    0.000    0.000 
#
# Total GULP energy -155886.504130 kJ/mol
# GULP energy per Si atom -5567.375147 kJ/mol
# Density = 1.914249 g / cm^3
# Si number density = 19.186156 Si / 1000 Ang^3
#
#
#
# Elastic Constant Matrix: (Units=GPa)
#
#
# Indices 1 2 3 4 5 6 
#
# 1 60.5779 33.1373 17.4844 0.0000 0.6403 0.0000
# 2 33.1373 67.6778 16.2819 0.0000 -10.6257 0.0000
# 3 17.4844 16.2819 82.5964 0.0000 5.7017 0.0000
# 4 0.0000 0.0000 0.0000 19.4416 0.0000 17.9191
# 5 0.6403 -10.6257 5.7017 0.0000 27.4361 0.0000
# 6 0.0000 0.0000 0.0000 17.9191 0.0000 -40.7421
#
#
#
# Elastic Compliance Matrix: (Units=1/GPa)
#
#
# Indices 1 2 3 4 5 6 
#
# 1 0.023663 -0.011737 -0.002378 0.000000 -0.004604 0.000000
# 2 -0.011737 0.022667 -0.002647 0.000000 0.009603 0.000000
# 3 -0.002378 -0.002647 0.013391 0.000000 -0.003752 0.000000
# 4 0.000000 0.000000 0.000000 0.036600 0.000000 0.016097
# 5 -0.004604 0.009603 -0.003752 0.000000 0.041055 0.000000
# 6 0.000000 0.000000 0.000000 0.016097 0.000000 -0.017465
#
#
# Mechanical properties :
#
#
# Convention : Reuss Voigt Hill
#
# Bulk Modulus (GPa) = 38.16980 38.29550 38.23265
# Shear Modulus (GPa) = 30.83268 10.82368 20.82818
#
# Velocity S-wave (km/s) = 4.01312 2.37774 3.29839
# Velocity P-wave (km/s) = 6.43515 5.24800 5.87166
#
# Compressibility (1/GPa) = 0.02619872
#
# Stress axis : x y z
#
# Youngs Moduli (GPa) = 42.26021 44.11687 74.67632
#
# Poissons Ratio (x) = 0.51780 0.17755
# Poissons Ratio (y) = 0.49601 0.19764
# Poissons Ratio (z) = 0.10048 0.11676
#
# Static dielectric constant tensor:
#      x y z
#    x 1.735530 0.000000 0.016490 
#    y 0.000000 1.669930 0.000000 
#    z 0.016490 0.000000 1.690210 
# 
# From -- ./inp_files/68145.got.cif
#   From: 2010.05.17/outbox.cif.g08.bks.cpg/sg12_35_cif.got.tgz:68145.got - 2010.06.03 13:09:07.
