data_PCOD9209743
_publ_section_title
;
Structure prediction by ZEFSAII (Michael W. Deem and Ramdas Pophale) SiO2 
 PCOD9209743
Probable space group: C 2/M
;
_chemical_formula_sum "Si O2"
_cell_formula_units_Z 48
_cell_length_a 11.113383
_cell_length_b 14.122252
_cell_length_c 24.437938
_cell_angle_alpha 90.000000
_cell_angle_beta 146.806069
_cell_angle_gamma 90.000000
_cell_volume 2099.804015
_symmetry_space_group_name_H-M "C 2/M"
_symmetry_group_IT_number 12
_symmetry_cell_setting 'monoclinic'
loop_
_space_group_symop_operation_xyz
x,y,z
-x,y,-z
-x,-y,-z
x,-y,z
1/2+x,1/2+y,z
1/2-x,1/2+y,-z
1/2-x,1/2-y,-z
1/2+x,1/2-y,z
loop_
_atom_site_type_symbol
_atom_site_label
_atom_site_fract_x
_atom_site_fract_y
_atom_site_fract_z
Si Si1 0.748046 0.294832 0.389969
Si Si2 0.355830 0.393467 0.284554
Si Si3 0.551510 0.892625 0.737837
Si Si4 0.255238 0.180043 0.079928
Si Si5 0.352342 0.303313 0.764725
Si Si6 0.027355 0.393200 0.947114
O O1 0.609683 0.365240 0.375527
O O2 0.620939 0.192828 0.339939
O O3 0.722404 0.343734 0.321091
O O4 0.000000 0.281864 0.500000
O O5 0.327831 0.500000 0.296113
O O6 0.258510 0.301338 0.276801
O O7 0.214111 0.390409 0.174030
O O8 0.631103 0.886175 0.830976
O O9 0.760956 0.862862 0.780247
O O10 0.479486 0.000000 0.698276
O O11 0.391697 0.278188 0.137811
O O12 0.318064 0.151442 0.041792
O O13 0.000000 0.178343 0.000000
O O14 0.107305 0.500000 0.980565
O O15 0.000000 0.364475 0.000000
#
# Coordination Sequence:
#
# PCOD9209743 Si02
#       6
#     8   8   8   8   8   8
#     4  10  22  40  60  86 120 157 205 266 323 375
#     4   9  19  37  60  86 119 160 203 249 308 378
#     4  10  22  40  62  90 123 163 212 263 316 376
#     4  10  21  38  64  92 126 166 211 262 317 371
#     4   9  21  41  61  86 123 163 204 256 316 378
#     4   9  18  34  58  90 129 171 212 254 307 375
#
# _framework density 22.859276000000001
#
# number of rings (size 3 to 8) (size 9 to 14) (size 15 to 20)
#    0.000    2.500    0.000    0.500    0.000   11.333 
#    0.000   15.000    0.000    0.500    0.000    0.000 
#    0.000    0.000    0.000    0.000    0.000    0.000 
#
# Total GULP energy -133753.498790 kJ/mol
# GULP energy per Si atom -5573.062450 kJ/mol
# Density = 2.280725 g / cm^3
# Si number density = 22.859276 Si / 1000 Ang^3
#
#
#
# Elastic Constant Matrix: (Units=GPa)
#
#
# Indices 1 2 3 4 5 6 
#
# 1 126.6564 31.2431 56.6074 -0.0007 24.3362 0.0004
# 2 31.2431 83.4363 3.0344 -0.0001 12.2973 0.0001
# 3 56.6074 3.0344 102.3651 -0.0003 37.6108 0.0002
# 4 -0.0007 -0.0001 -0.0003 502.8865 -0.0009 -228.3982
# 5 24.3362 12.2973 37.6108 -0.0009 28.2081 0.0004
# 6 0.0004 0.0001 0.0002 -228.3982 0.0004 114.7623
#
#
#
# Elastic Compliance Matrix: (Units=1/GPa)
#
#
# Indices 1 2 3 4 5 6 
#
# 1 0.011785 -0.004233 -0.006536 0.000000 0.000392 0.000000
# 2 -0.004233 0.014915 0.005775 0.000000 -0.010551 0.000000
# 3 -0.006536 0.005775 0.023653 0.000000 -0.028416 0.000000
# 4 0.000000 0.000000 0.000000 0.020690 0.000000 0.041178
# 5 0.000392 -0.010551 -0.028416 0.000000 0.077599 0.000000
# 6 0.000000 0.000000 0.000000 0.041178 0.000000 0.090665
#
#
# Mechanical properties :
#
#
# Convention : Reuss Voigt Hill
#
# Bulk Modulus (GPa) = 24.77367 54.91416 39.84392
# Shear Modulus (GPa) = 19.02946 143.94290 81.48618
#
# Velocity S-wave (km/s) = 2.88837 7.94392 5.97698
# Velocity P-wave (km/s) = 4.68877 10.40269 8.06847
#
# Compressibility (1/GPa) = 0.04036544
#
# Stress axis : x y z
#
# Youngs Moduli (GPa) = 84.85102 67.04528 42.27881
#
# Poissons Ratio (x) = 0.28382 0.27633
# Poissons Ratio (y) = 0.35919 -0.24417
# Poissons Ratio (z) = 0.55458 -0.38720
#
# Static dielectric constant tensor:
#      x y z
#    x 1.913800 0.000000 0.013430 
#    y 0.000000 1.879300 0.000000 
#    z 0.013430 0.000000 1.884800 
# 
# From -- ./inp_files/358497.got.cif
#   From: 2010.05.17/outbox.cif.g08.bks.cpg/sg12_180_cif.got.tgz:358497.got - 2010.06.03 13:09:07.
