data_PCOD9209708
_publ_section_title
;
Structure prediction by ZEFSAII (Michael W. Deem and Ramdas Pophale) SiO2 
 PCOD9209708
Probable space group: C 2/M
;
_chemical_formula_sum "Si O2"
_cell_formula_units_Z 48
_cell_length_a 17.621762
_cell_length_b 15.445783
_cell_length_c 17.967357
_cell_angle_alpha 90.000000
_cell_angle_beta 31.373023
_cell_angle_gamma 90.000000
_cell_volume 2545.974425
_symmetry_space_group_name_H-M "C 2/M"
_symmetry_group_IT_number 12
_symmetry_cell_setting 'monoclinic'
loop_
_space_group_symop_operation_xyz
x,y,z
-x,y,-z
-x,-y,-z
x,-y,z
1/2+x,1/2+y,z
1/2-x,1/2+y,-z
1/2-x,1/2-y,-z
1/2+x,1/2-y,z
loop_
_atom_site_type_symbol
_atom_site_label
_atom_site_fract_x
_atom_site_fract_y
_atom_site_fract_z
Si Si1 0.039584 0.749229 0.880230
Si Si2 0.613572 0.400641 0.561043
Si Si3 0.951847 0.096130 0.848357
Si Si4 0.653023 0.163030 0.076394
Si Si5 0.584433 0.899224 0.613202
Si Si6 0.628619 0.761781 0.448152
O O1 0.213258 0.747680 0.721276
O O2 0.983781 0.838253 0.888403
O O3 0.953535 0.675658 0.904794
O O4 0.000000 0.745088 0.000000
O O5 0.571813 0.500000 0.577481
O O6 0.535245 0.375291 0.703860
O O7 0.784841 0.399243 0.436522
O O8 0.584044 0.328002 0.525308
O O9 0.004505 0.000000 0.823124
O O10 0.782078 0.093960 0.968390
O O11 0.554071 0.143818 0.230845
O O12 0.750000 0.250000 0.000000
O O13 0.635409 0.838470 0.503152
O O14 0.558168 0.000000 0.614373
O O15 0.500000 0.785418 0.500000
#
# Coordination Sequence:
#
# PCOD9209708 Si02
#       6
#     8   8   8   8   8   8
#     4  11  24  39  57  88 127 161 200 250 313 378
#     4  10  21  41  68  90 116 161 215 267 308 358
#     4  10  21  39  64  90 118 156 204 254 308 369
#     4  10  21  38  64  87 119 160 208 252 300 362
#     4  11  22  41  67  93 121 161 214 265 308 361
#     4  12  25  39  63  91 126 167 206 255 317 373
#
# _framework density 18.853292
#
# number of rings (size 3 to 8) (size 9 to 14) (size 15 to 20)
#    0.000    1.333    3.333    3.000    7.000    1.000 
#    0.000    0.000    0.000    2.500    0.000    0.000 
#    0.000    0.000    0.000    0.000    0.000    0.000 
#
# Total GULP energy -133878.759881 kJ/mol
# GULP energy per Si atom -5578.281662 kJ/mol
# Density = 1.881038 g / cm^3
# Si number density = 18.853292 Si / 1000 Ang^3
#
#
#
# Elastic Constant Matrix: (Units=GPa)
#
#
# Indices 1 2 3 4 5 6 
#
# 1 52.7399 7.5403 28.8215 -0.0001 3.3743 0.0000
# 2 7.5403 63.6046 9.0809 -0.0003 19.1417 0.0000
# 3 28.8215 9.0809 124.4932 -0.0005 3.6595 0.0001
# 4 -0.0001 -0.0003 -0.0005 -131.5847 0.0003 -24.2619
# 5 3.3743 19.1417 3.6595 0.0003 34.4162 -0.0001
# 6 0.0000 0.0000 0.0001 -24.2619 -0.0001 8.0649
#
#
#
# Elastic Compliance Matrix: (Units=1/GPa)
#
#
# Indices 1 2 3 4 5 6 
#
# 1 0.021944 -0.001690 -0.004937 0.000000 -0.000687 0.000000
# 2 -0.001690 0.019157 -0.000700 0.000000 -0.010414 0.000000
# 3 -0.004937 -0.000700 0.009230 0.000000 -0.000108 0.000000
# 4 0.000000 0.000000 0.000000 -0.004888 0.000000 -0.014705
# 5 -0.000687 -0.010414 -0.000108 0.000000 0.034927 0.000001
# 6 0.000000 0.000000 0.000000 -0.014705 0.000001 0.079755
#
#
# Mechanical properties :
#
#
# Convention : Reuss Voigt Hill
#
# Bulk Modulus (GPa) = 28.02915 36.85809 32.44362
# Shear Modulus (GPa) = 26.78506 -4.79438 10.99534
#
# Velocity S-wave (km/s) = 3.77332 -1.59641 2.41758
# Velocity P-wave (km/s) = 5.82093 4.02422 5.00388
#
# Compressibility (1/GPa) = 0.03567715
#
# Stress axis : x y z
#
# Youngs Moduli (GPa) = 45.56956 52.20118 108.34537
#
# Poissons Ratio (x) = 0.08822 0.53489
# Poissons Ratio (y) = 0.07701 0.07584
# Poissons Ratio (z) = 0.22497 0.03654
#
# Static dielectric constant tensor:
#      x y z
#    x 1.638570 0.000000 -0.029800 
#    y 0.000000 1.710990 0.000000 
#    z -0.029800 0.000000 1.669120 
# 
# From -- ./inp_files/216224.got.cif
#   From: 2010.05.17/outbox.cif.g08.bks.cpg/sg12_109_cif.got.tgz:216224.got - 2010.06.03 13:09:07.
