data_PCOD9209137
_publ_section_title
;
Structure prediction by ZEFSAII (Michael W. Deem and Ramdas Pophale) SiO2 
 PCOD9209137
Probable space group: C 2/M
;
_chemical_formula_sum "Si O2"
_cell_formula_units_Z 40
_cell_length_a 9.054889
_cell_length_b 27.046391
_cell_length_c 6.902006
_cell_angle_alpha 90.000000
_cell_angle_beta 78.183132
_cell_angle_gamma 90.000000
_cell_volume 1654.492928
_symmetry_space_group_name_H-M "C 2/M"
_symmetry_group_IT_number 12
_symmetry_cell_setting 'monoclinic'
loop_
_space_group_symop_operation_xyz
x,y,z
-x,y,-z
-x,-y,-z
x,-y,z
1/2+x,1/2+y,z
1/2-x,1/2+y,-z
1/2-x,1/2-y,-z
1/2+x,1/2-y,z
loop_
_atom_site_type_symbol
_atom_site_label
_atom_site_fract_x
_atom_site_fract_y
_atom_site_fract_z
Si Si1 0.799563 0.640101 0.791996
Si Si2 0.478064 0.055287 0.273460
Si Si3 0.647156 0.684223 0.212380
Si Si4 0.966430 0.719514 0.236131
Si Si5 0.844710 0.910749 0.546941
O O1 0.915808 0.682766 0.692190
O O2 0.711044 0.612679 0.642822
O O3 0.911990 0.597107 0.842014
O O4 0.697674 0.667313 0.981934
O O5 0.500000 0.058250 0.500000
O O6 0.299453 0.064725 0.310067
O O7 0.520325 0.000000 0.201971
O O8 0.516057 0.724531 0.258362
O O9 0.610633 0.634325 0.327812
O O10 0.790754 0.707275 0.289021
O O11 0.000000 0.710651 0.000000
O O12 0.000000 0.941399 0.500000
#
# Coordination Sequence:
#
# PCOD9209137 Si02
#       5
#     8   8   8   8   8
#     4  10  21  42  62  89 126 161 204 260 305 367
#     4   9  19  41  70  93 120 160 206 261 316 365
#     4  11  24  41  61  90 128 167 208 255 301 371
#     4  10  21  38  61  87 123 167 205 246 311 356
#     4  11  25  39  60  94 124 164 208 252 311 367
#
# _framework density 24.176594000000001
#
# number of rings (size 3 to 8) (size 9 to 14) (size 15 to 20)
#    0.000    1.800    2.000    2.400    5.600    1.200 
#    0.000    2.000    0.000    0.000    0.000    7.000 
#    0.000    0.000    0.000    0.000    0.000    0.000 
#
# Total GULP energy -111786.602263 kJ/mol
# GULP energy per Si atom -5589.330113 kJ/mol
# Density = 2.412157 g / cm^3
# Si number density = 24.176594 Si / 1000 Ang^3
#
#
#
# Elastic Constant Matrix: (Units=GPa)
#
#
# Indices 1 2 3 4 5 6 
#
# 1 113.4671 23.7586 8.7862 0.0000 2.3147 0.0000
# 2 23.7586 134.0021 -4.4838 0.0000 -8.9735 0.0000
# 3 8.7862 -4.4838 88.1351 0.0000 6.9645 0.0000
# 4 0.0000 0.0000 0.0000 10.0374 0.0000 -3.2875
# 5 2.3147 -8.9735 6.9645 0.0000 31.2041 0.0000
# 6 0.0000 0.0000 0.0000 -3.2875 0.0000 26.2583
#
#
#
# Elastic Compliance Matrix: (Units=1/GPa)
#
#
# Indices 1 2 3 4 5 6 
#
# 1 0.009270 -0.001740 -0.000935 0.000000 -0.000979 0.000000
# 2 -0.001740 0.007940 0.000394 0.000000 0.002325 0.000000
# 3 -0.000935 0.000394 0.011651 0.000000 -0.002418 0.000000
# 4 0.000000 0.000000 0.000000 0.103887 0.000000 0.013006
# 5 -0.000979 0.002325 -0.002418 0.000000 0.033328 0.000000
# 6 0.000000 0.000000 0.000000 0.013006 0.000000 0.039712
#
#
# Mechanical properties :
#
#
# Convention : Reuss Voigt Hill
#
# Bulk Modulus (GPa) = 41.15809 43.52515 42.34162
# Shear Modulus (GPa) = 22.88858 34.00285 28.44572
#
# Velocity S-wave (km/s) = 3.08023 3.75432 3.43385
# Velocity P-wave (km/s) = 5.45081 6.06921 5.76830
#
# Compressibility (1/GPa) = 0.02429656
#
# Stress axis : x y z
#
# Youngs Moduli (GPa) = 107.87534 125.94469 85.83299
#
# Poissons Ratio (x) = 0.21920 0.08028
# Poissons Ratio (y) = 0.18775 -0.03380
# Poissons Ratio (z) = 0.10089 -0.04959
#
# Static dielectric constant tensor:
#      x y z
#    x 2.044680 0.000000 -0.028560 
#    y 0.000000 1.880390 0.000000 
#    z -0.028560 0.000000 2.061710 
# 
# From -- ./inp_files/40316.got.cif
#   From: 2010.05.17/outbox.cif.g08.bks.cpg/sg12_21_cif.got.tgz:40316.got - 2010.06.03 13:09:07.
