data_PCOD9209836
_publ_section_title
;
Structure prediction by ZEFSAII (Michael W. Deem and Ramdas Pophale) SiO2 
 PCOD9209836
Probable space group: C 2/M
;
_chemical_formula_sum "Si O2"
_cell_formula_units_Z 34
_cell_length_a 21.673467
_cell_length_b 7.718139
_cell_length_c 20.293802
_cell_angle_alpha 90.000000
_cell_angle_beta 152.100730
_cell_angle_gamma 90.000000
_cell_volume 1588.454100
_symmetry_space_group_name_H-M "C 2/M"
_symmetry_group_IT_number 12
_symmetry_cell_setting 'monoclinic'
loop_
_space_group_symop_operation_xyz
x,y,z
-x,y,-z
-x,-y,-z
x,-y,z
1/2+x,1/2+y,z
1/2-x,1/2+y,-z
1/2-x,1/2-y,-z
1/2+x,1/2-y,z
loop_
_atom_site_type_symbol
_atom_site_label
_atom_site_fract_x
_atom_site_fract_y
_atom_site_fract_z
Si Si1 0.500000 0.500000 0.000000
Si Si2 0.616509 0.702258 0.786922
Si Si3 0.866299 0.700048 0.805082
Si Si4 0.409461 0.790998 0.088069
Si Si5 0.421979 0.798581 0.489536
O O1 0.610578 0.344065 0.117534
O O2 0.622592 0.500000 0.775586
O O3 0.571729 0.722638 0.820393
O O4 0.514960 0.784607 0.640695
O O5 0.766738 0.771864 0.927692
O O6 0.889663 0.500000 0.847000
O O7 0.719482 0.710195 0.637823
O O8 0.972979 0.753898 0.850088
O O9 0.403560 0.000000 0.086677
O O10 0.500000 0.726482 0.500000
O O11 0.395021 0.000000 0.451527
#
# Coordination Sequence:
#
# PCOD9209836 Si02
#       5
#     2   8   8   8   8
#     4  12  26  44  66 102 132 172 214 272 312 406
#     4  10  21  38  65  94 127 168 212 268 322 385
#     4  11  25  44  68  96 131 173 217 267 325 383
#     4   9  21  41  64  95 126 166 218 264 321 381
#     4  11  25  43  63  93 131 172 217 268 331 389
#
# _framework density 21.40446
#
# number of rings (size 3 to 8) (size 9 to 14) (size 15 to 20)
#    0.000    1.647    1.176    1.765    4.941    3.765 
#    0.000    0.000    0.000    0.000    0.000    0.000 
#    0.000    0.000    0.000    0.000    0.000    0.000 
#
# Total GULP energy -94762.131823 kJ/mol
# GULP energy per Si atom -5574.243048 kJ/mol
# Density = 2.135574 g / cm^3
# Si number density = 21.404460 Si / 1000 Ang^3
#
#
#
# Elastic Constant Matrix: (Units=GPa)
#
#
# Indices 1 2 3 4 5 6 
#
# 1 96.7716 18.1489 59.4838 0.0000 17.9477 0.0000
# 2 18.1489 79.8284 15.8767 0.0000 2.3068 0.0000
# 3 59.4838 15.8767 170.5491 0.0000 2.3876 0.0000
# 4 0.0000 0.0000 0.0000 61.8830 0.0000 -13.7577
# 5 17.9477 2.3068 2.3876 0.0000 24.0735 0.0000
# 6 0.0000 0.0000 0.0000 -13.7577 0.0000 15.1737
#
#
#
# Elastic Compliance Matrix: (Units=1/GPa)
#
#
# Indices 1 2 3 4 5 6 
#
# 1 0.016063 -0.002287 -0.005232 0.000000 -0.011237 0.000000
# 2 -0.002287 0.013118 -0.000431 0.000000 0.000490 0.000000
# 3 -0.005232 -0.000431 0.007684 0.000000 0.003180 0.000000
# 4 0.000000 0.000000 0.000000 0.020239 0.000000 0.018350
# 5 -0.011237 0.000490 0.003180 0.000000 0.049555 0.000000
# 6 0.000000 0.000000 0.000000 0.018350 0.000000 0.082542
#
#
# Mechanical properties :
#
#
# Convention : Reuss Voigt Hill
#
# Bulk Modulus (GPa) = 47.69576 59.35200 53.52388
# Shear Modulus (GPa) = 23.57518 37.13535 30.35527
#
# Velocity S-wave (km/s) = 3.32236 4.16977 3.76995
# Velocity P-wave (km/s) = 6.08678 7.13945 6.63402
#
# Compressibility (1/GPa) = 0.02096623
#
# Stress axis : x y z
#
# Youngs Moduli (GPa) = 62.25629 76.23011 130.14339
#
# Poissons Ratio (x) = 0.17430 0.68093
# Poissons Ratio (y) = 0.14235 0.05604
# Poissons Ratio (z) = 0.32573 0.03282
#
# Static dielectric constant tensor:
#      x y z
#    x 1.788140 0.000000 0.005000 
#    y 0.000000 1.790310 0.000000 
#    z 0.005000 0.000000 1.760140 
# 
# From -- ./inp_files/281987.got.cif
#   From: 2010.05.17/outbox.cif.g08.bks.cpg/sg12_141_cif.got.tgz:281987.got - 2010.06.03 13:09:07.
