data_PCOD9209077
_publ_section_title
;
Structure prediction by ZEFSAII (Michael W. Deem and Ramdas Pophale) SiO2 
 PCOD9209077
Probable space group: C 2/M
;
_chemical_formula_sum "Si O2"
_cell_formula_units_Z 56
_cell_length_a 31.634637
_cell_length_b 10.860533
_cell_length_c 26.675340
_cell_angle_alpha 90.000000
_cell_angle_beta 161.270181
_cell_angle_gamma 90.000000
_cell_volume 2942.878021
_symmetry_space_group_name_H-M "C 2/M"
_symmetry_group_IT_number 12
_symmetry_cell_setting 'monoclinic'
loop_
_space_group_symop_operation_xyz
x,y,z
-x,y,-z
-x,-y,-z
x,-y,z
1/2+x,1/2+y,z
1/2-x,1/2+y,-z
1/2-x,1/2-y,-z
1/2+x,1/2-y,z
loop_
_atom_site_type_symbol
_atom_site_label
_atom_site_fract_x
_atom_site_fract_y
_atom_site_fract_z
Si Si1 0.534956 0.852770 0.960530
Si Si2 0.153076 0.639883 0.785678
Si Si3 0.731168 0.634216 0.442864
Si Si4 0.011300 0.358478 0.730230
Si Si5 0.554365 0.286448 0.881659
Si Si6 0.992541 0.143205 0.431413
Si Si7 0.790431 0.350720 0.750336
O O1 0.561607 0.811987 0.934440
O O2 0.391819 0.811542 0.820771
O O3 0.535600 0.000000 0.963286
O O4 0.644157 0.809441 0.123525
O O5 0.108447 0.500000 0.722252
O O6 0.106309 0.751310 0.697759
O O7 0.093579 0.671718 0.773484
O O8 0.310517 0.640079 0.965331
O O9 0.751072 0.500000 0.490348
O O10 0.750000 0.750000 0.500000
O O11 0.853689 0.646271 0.542555
O O12 0.580197 0.641055 0.257211
O O13 0.042610 0.500000 0.778826
O O14 0.040319 0.274586 0.810968
O O15 0.000000 0.141938 0.500000
O O16 0.137724 0.180539 0.574433
O O17 0.962221 0.000000 0.382084
O O18 0.792338 0.500000 0.753363
#
# Coordination Sequence:
#
# PCOD9209077 Si02
#       7
#     8   8   8   8   8   8   8
#     4   9  17  30  54  85 115 147 182 232 292 339
#     4  11  24  39  56  82 119 157 190 233 289 343
#     4   9  19  36  56  78 107 145 187 233 279 328
#     4   9  20  38  56  79 114 153 192 233 285 343
#     4  11  20  33  57  84 110 150 193 239 277 336
#     4  10  21  38  61  86 114 148 192 239 282 336
#     4   8  16  32  52  81 118 146 182 236 287 335
#
# _framework density 19.028991999999999
#
# number of rings (size 3 to 8) (size 9 to 14) (size 15 to 20)
#    0.000    2.429    0.000    3.000    2.000    3.143 
#    0.000    3.571    0.000    0.000    0.000    4.000 
#    0.000    0.000    0.000    0.000    0.000    0.000 
#
# Total GULP energy -155928.185322 kJ/mol
# GULP energy per Si atom -5568.863762 kJ/mol
# Density = 1.898568 g / cm^3
# Si number density = 19.028992 Si / 1000 Ang^3
#
#
#
# Elastic Constant Matrix: (Units=GPa)
#
#
# Indices 1 2 3 4 5 6 
#
# 1 74.5748 27.5314 32.7272 0.0001 8.6055 0.0000
# 2 27.5314 77.1159 39.6291 0.0001 -5.5001 0.0001
# 3 32.7272 39.6291 97.9168 0.0001 21.8667 0.0000
# 4 0.0001 0.0001 0.0001 21.6673 0.0001 6.7909
# 5 8.6055 -5.5001 21.8667 0.0001 26.2111 0.0001
# 6 0.0000 0.0001 0.0000 6.7909 0.0001 6.6470
#
#
#
# Elastic Compliance Matrix: (Units=1/GPa)
#
#
# Indices 1 2 3 4 5 6 
#
# 1 0.016924 -0.004989 -0.002658 0.000000 -0.004386 0.000000
# 2 -0.004989 0.020918 -0.010009 0.000000 0.014377 0.000000
# 3 -0.002658 -0.010009 0.018958 0.000000 -0.017044 0.000000
# 4 0.000000 0.000000 0.000000 0.067892 0.000000 -0.069361
# 5 -0.004386 0.014377 -0.017044 0.000000 0.056827 -0.000001
# 6 0.000000 0.000000 0.000000 -0.069361 -0.000001 0.221306
#
#
# Mechanical properties :
#
#
# Convention : Reuss Voigt Hill
#
# Bulk Modulus (GPa) = 46.53847 49.93143 48.23495
# Shear Modulus (GPa) = 11.22841 20.88639 16.05740
#
# Velocity S-wave (km/s) = 2.43177 3.31661 2.90804
# Velocity P-wave (km/s) = 5.69161 6.40025 6.05630
#
# Compressibility (1/GPa) = 0.02148760
#
# Stress axis : x y z
#
# Youngs Moduli (GPa) = 59.08877 47.80664 52.74777
#
# Poissons Ratio (x) = 0.23850 0.14020
# Poissons Ratio (y) = 0.29479 0.52796
# Poissons Ratio (z) = 0.15706 0.47850
#
# Static dielectric constant tensor:
#      x y z
#    x 1.652710 0.000000 0.032240 
#    y 0.000000 1.657230 0.000000 
#    z 0.032240 0.000000 1.707130 
# 
# From -- ./inp_files/353993.got.cif
#   From: 2010.05.17/outbox.cif.g08.bks.cpg/sg12_177_cif.got.tgz:353993.got - 2010.06.03 13:09:07.
