data_PCOD9209372
_publ_section_title
;
Structure prediction by ZEFSAII (Michael W. Deem and Ramdas Pophale) SiO2 
 PCOD9209372
Probable space group: C 2/M
;
_chemical_formula_sum "Si O2"
_cell_formula_units_Z 58
_cell_length_a 9.079668
_cell_length_b 27.603494
_cell_length_c 23.974503
_cell_angle_alpha 90.000000
_cell_angle_beta 150.066699
_cell_angle_gamma 90.000000
_cell_volume 2998.311791
_symmetry_space_group_name_H-M "C 2/M"
_symmetry_group_IT_number 12
_symmetry_cell_setting 'monoclinic'
loop_
_space_group_symop_operation_xyz
x,y,z
-x,y,-z
-x,-y,-z
x,-y,z
1/2+x,1/2+y,z
1/2-x,1/2+y,-z
1/2-x,1/2-y,-z
1/2+x,1/2-y,z
loop_
_atom_site_type_symbol
_atom_site_label
_atom_site_fract_x
_atom_site_fract_y
_atom_site_fract_z
Si Si1 0.207151 0.639252 0.937274
Si Si2 0.219544 0.813611 0.697073
Si Si3 0.365417 0.943300 0.394233
Si Si4 0.293022 0.367927 0.483158
Si Si5 0.236210 0.911565 0.849259
Si Si6 0.687833 0.314886 0.910562
Si Si7 0.473473 0.219423 0.317028
Si Si8 0.000000 0.500000 0.000000
O O1 0.972701 0.667041 0.821290
O O2 0.026453 0.595738 0.906645
O O3 0.500000 0.625227 0.000000
O O4 0.303012 0.671559 0.021451
O O5 0.378021 0.790515 0.694285
O O6 0.008132 0.774480 0.657120
O O7 0.008080 0.855758 0.604921
O O8 0.500000 0.939345 0.500000
O O9 0.567267 0.910237 0.421477
O O10 0.040272 0.921355 0.280978
O O11 0.363938 0.000000 0.378522
O O12 0.500000 0.382070 0.500000
O O13 0.125262 0.318719 0.408896
O O14 0.195746 0.863004 0.873567
O O15 0.283002 0.957207 0.904032
O O16 0.378977 0.289270 0.798918
O O17 0.000000 0.288510 0.000000
#
# Coordination Sequence:
#
# PCOD9209372 Si02
#       8
#     8   8   8   8   8   8   8   2
#     4  11  22  40  59  90 129 163 202 256 318 360
#     4  11  25  38  61  90 124 163 211 259 310 373
#     4  11  23  39  67  97 124 158 204 258 314 372
#     4  10  23  44  63  87 125 162 207 261 316 367
#     4  11  22  40  68  91 126 166 209 254 300 386
#     4  10  21  38  62  88 119 168 203 248 311 368
#     4  11  23  40  61  89 122 164 212 259 305 376
#     4  12  20  40  68  96 122 160 224 240 298 372
#
# _framework density 19.344218000000001
#
# number of rings (size 3 to 8) (size 9 to 14) (size 15 to 20)
#    0.000    1.241    5.517    1.241    3.862    2.483 
#    0.000    0.345    0.000    0.000    0.000    0.000 
#    0.000    0.000    0.000    0.000    0.000    0.000 
#
# Total GULP energy -161708.206637 kJ/mol
# GULP energy per Si atom -5576.145056 kJ/mol
# Density = 1.930019 g / cm^3
# Si number density = 19.344218 Si / 1000 Ang^3
#
#
#
# Elastic Constant Matrix: (Units=GPa)
#
#
# Indices 1 2 3 4 5 6 
#
# 1 54.5599 12.7791 26.3155 -0.0002 8.9279 0.0001
# 2 12.7791 24.8268 -2.2910 -0.0004 -8.9064 0.0013
# 3 26.3155 -2.2910 101.2581 0.0069 -9.4372 -0.0001
# 4 -0.0002 -0.0004 0.0069 7.0956 0.0019 -7.6905
# 5 8.9279 -8.9064 -9.4372 0.0019 34.6237 -0.0001
# 6 0.0001 0.0013 -0.0001 -7.6905 -0.0001 3.5097
#
#
#
# Elastic Compliance Matrix: (Units=1/GPa)
#
#
# Indices 1 2 3 4 5 6 
#
# 1 0.031493 -0.023221 -0.010285 -0.000015 -0.016897 -0.000027
# 2 -0.023221 0.061945 0.009726 0.000027 0.024573 0.000036
# 3 -0.010285 0.009726 0.013594 0.000013 0.008859 0.000026
# 4 -0.000015 0.000027 0.000013 -0.102501 0.000019 -0.224603
# 5 -0.016897 0.024573 0.008859 0.000019 0.041975 0.000035
# 6 -0.000027 0.000036 0.000026 -0.224603 0.000035 -0.207228
#
#
# Mechanical properties :
#
#
# Convention : Reuss Voigt Hill
#
# Bulk Modulus (GPa) = 16.81430 28.25022 22.53226
# Shear Modulus (GPa) = -53.56770 18.63519 -17.46626
#
# Velocity S-wave (km/s) = -5.26801 3.10715 -3.00812
# Velocity P-wave (km/s) = 5.31898 5.24482 0.62586
#
# Compressibility (1/GPa) = 0.05947319
#
# Stress axis : x y z
#
# Youngs Moduli (GPa) = 31.75330 16.14348 73.56013
#
# Poissons Ratio (x) = 0.37487 0.75654
# Poissons Ratio (y) = 0.73734 -0.71548
# Poissons Ratio (z) = 0.32657 -0.15702
#
# Static dielectric constant tensor:
#      x y z
#    x 1.669400 0.000000 -0.012060 
#    y 0.000000 1.645930 0.000000 
#    z -0.012060 0.000000 1.693990 
# 
# From -- ./inp_files/302425.got.cif
#   From: 2010.05.17/outbox.cif.g08.bks.cpg/sg12_152_cif.got.tgz:302425.got - 2010.06.03 13:09:07.
