data_PCOD9209686
_publ_section_title
;
Structure prediction by ZEFSAII (Michael W. Deem and Ramdas Pophale) SiO2 
 PCOD9209686
Probable space group: C 2/M
;
_chemical_formula_sum "Si O2"
_cell_formula_units_Z 58
_cell_length_a 16.340462
_cell_length_b 26.200865
_cell_length_c 11.426093
_cell_angle_alpha 90.000000
_cell_angle_beta 148.947440
_cell_angle_gamma 90.000000
_cell_volume 2523.361129
_symmetry_space_group_name_H-M "C 2/M"
_symmetry_group_IT_number 12
_symmetry_cell_setting 'monoclinic'
loop_
_space_group_symop_operation_xyz
x,y,z
-x,y,-z
-x,-y,-z
x,-y,z
1/2+x,1/2+y,z
1/2-x,1/2+y,-z
1/2-x,1/2-y,-z
1/2+x,1/2-y,z
loop_
_atom_site_type_symbol
_atom_site_label
_atom_site_fract_x
_atom_site_fract_y
_atom_site_fract_z
Si Si1 0.586126 0.655955 0.307074
Si Si2 0.758299 0.059354 0.450669
Si Si3 0.948937 0.253233 0.072447
Si Si4 0.157582 0.205701 0.635154
Si Si5 0.629671 0.188488 0.488287
Si Si6 0.458946 0.912264 0.249482
Si Si7 0.815127 0.060191 0.253577
Si Si8 0.000000 0.500000 0.500000
O O1 0.592565 0.595220 0.329903
O O2 0.439929 0.694869 0.108842
O O3 0.671379 0.676247 0.530274
O O4 0.698796 0.666202 0.333635
O O5 0.601069 0.075294 0.329709
O O6 0.734825 0.065871 0.282859
O O7 0.791778 0.000000 0.514191
O O8 0.079057 0.279614 0.311864
O O9 0.804367 0.292809 0.901327
O O10 0.000000 0.253234 0.000000
O O11 0.141463 0.266583 0.595235
O O12 0.000000 0.185915 0.500000
O O13 0.508104 0.142949 0.359968
O O14 0.465586 0.955109 0.357574
O O15 0.291868 0.912863 0.975425
O O16 0.000000 0.074240 0.500000
O O17 0.814476 0.000000 0.222631
#
# Coordination Sequence:
#
# PCOD9209686 Si02
#       8
#     8   8   8   8   8   8   8   2
#     4  10  21  38  63  96 129 169 218 268 334 395
#     4  10  21  41  69  98 132 171 231 278 323 399
#     4  11  19  39  67  89 128 178 211 267 338 402
#     4  11  23  39  60  95 132 161 213 275 332 394
#     4  10  22  38  63  95 124 170 223 262 316 410
#     4  11  23  41  68 102 132 181 226 274 339 396
#     4  10  21  40  66  96 135 169 218 289 340 382
#     4  12  24  44  68  98 142 180 226 276 328 406
#
# _framework density 22.985216000000001
#
# number of rings (size 3 to 8) (size 9 to 14) (size 15 to 20)
#    0.000    1.517    4.138    1.241    2.897    3.862 
#    2.483    0.000    0.000    1.241    0.000    0.000 
#    0.000    0.000    0.000    0.000    0.000    0.000 
#
# Total GULP energy -161580.909255 kJ/mol
# GULP energy per Si atom -5571.755492 kJ/mol
# Density = 2.293290 g / cm^3
# Si number density = 22.985216 Si / 1000 Ang^3
#
#
#
# Elastic Constant Matrix: (Units=GPa)
#
#
# Indices 1 2 3 4 5 6 
#
# 1 46.0602 -4.8287 21.1602 0.0000 2.8937 0.0000
# 2 -4.8287 141.3164 14.1783 0.0000 -6.6990 0.0000
# 3 21.1602 14.1783 70.4808 0.0000 2.5097 0.0000
# 4 0.0000 0.0000 0.0000 6.5002 0.0000 3.0216
# 5 2.8937 -6.6990 2.5097 0.0000 21.1017 0.0000
# 6 0.0000 0.0000 0.0000 3.0216 0.0000 11.1425
#
#
#
# Elastic Compliance Matrix: (Units=1/GPa)
#
#
# Indices 1 2 3 4 5 6 
#
# 1 0.025657 0.001576 -0.007946 0.000000 -0.002073 0.000000
# 2 0.001576 0.007450 -0.002057 0.000000 0.002394 0.000000
# 3 -0.007946 -0.002057 0.017044 0.000000 -0.001590 0.000000
# 4 0.000000 0.000000 0.000000 0.176032 0.000000 -0.047737
# 5 -0.002073 0.002394 -0.001590 0.000000 0.048623 0.000000
# 6 0.000000 0.000000 0.000000 -0.047737 0.000000 0.102692
#
#
# Mechanical properties :
#
#
# Convention : Reuss Voigt Hill
#
# Bulk Modulus (GPa) = 30.03341 35.43079 32.73210
# Shear Modulus (GPa) = 12.33195 22.90537 17.61866
#
# Velocity S-wave (km/s) = 2.31880 3.16020 2.77162
# Velocity P-wave (km/s) = 4.50154 5.36320 4.95115
#
# Compressibility (1/GPa) = 0.03329625
#
# Stress axis : x y z
#
# Youngs Moduli (GPa) = 38.97645 134.22815 58.67082
#
# Poissons Ratio (x) = -0.21149 0.46619
# Poissons Ratio (y) = -0.06141 0.12068
# Poissons Ratio (z) = 0.30970 0.27610
#
# Static dielectric constant tensor:
#      x y z
#    x 1.891480 0.000000 0.087130 
#    y 0.000000 1.886820 0.000000 
#    z 0.087130 0.000000 1.967470 
# 
# From -- ./inp_files/160937.got.cif
#   From: 2010.05.17/outbox.cif.g08.bks.cpg/sg12_81_cif.got.tgz:160937.got - 2010.06.03 13:09:07.
