data_PCOD9209055
_publ_section_title
;
Structure prediction by ZEFSAII (Michael W. Deem and Ramdas Pophale) SiO2 
 PCOD9209055
Probable space group: C 2/M
;
_chemical_formula_sum "Si O2"
_cell_formula_units_Z 32
_cell_length_a 14.774172
_cell_length_b 15.158734
_cell_length_c 8.125061
_cell_angle_alpha 90.000000
_cell_angle_beta 65.674606
_cell_angle_gamma 90.000000
_cell_volume 1658.121451
_symmetry_space_group_name_H-M "C 2/M"
_symmetry_group_IT_number 12
_symmetry_cell_setting 'monoclinic'
loop_
_space_group_symop_operation_xyz
x,y,z
-x,y,-z
-x,-y,-z
x,-y,z
1/2+x,1/2+y,z
1/2-x,1/2+y,-z
1/2-x,1/2-y,-z
1/2+x,1/2-y,z
loop_
_atom_site_type_symbol
_atom_site_label
_atom_site_fract_x
_atom_site_fract_y
_atom_site_fract_z
Si Si1 0.007327 0.897486 0.691196
Si Si2 0.097885 0.397591 0.323440
Si Si3 0.595952 0.756209 0.040982
Si Si4 0.714506 0.681247 0.662950
O O1 0.116300 0.868928 0.673306
O O2 0.000000 0.886373 0.500000
O O3 0.304995 0.882811 0.638324
O O4 0.989041 0.000000 0.744813
O O5 0.086996 0.500000 0.287136
O O6 0.000000 0.370277 0.500000
O O7 0.109220 0.335786 0.156702
O O8 0.184391 0.234871 0.849930
O O9 0.569422 0.667806 0.162658
O O10 0.500000 0.775641 0.000000
O O11 0.750000 0.750000 0.500000
#
# Coordination Sequence:
#
# PCOD9209055 Si02
#       4
#     8   8   8   8
#     4  10  21  38  62  90 117 146 189 245 298 346
#     4  11  23  39  59  85 119 157 195 234 281 344
#     4  10  21  38  61  84 113 152 193 242 292 339
#     4  11  22  38  60  85 118 156 193 236 290 344
#
# _framework density 19.298949
#
# number of rings (size 3 to 8) (size 9 to 14) (size 15 to 20)
#    0.000    1.500    0.000    6.750    0.000    6.000 
#    0.000    5.000    0.000    0.000    0.000    0.000 
#    0.000    0.000    0.000    0.000    0.000    0.000 
#
# Total GULP energy -89460.613785 kJ/mol
# GULP energy per Si atom -5591.288362 kJ/mol
# Density = 1.925502 g / cm^3
# Si number density = 19.298949 Si / 1000 Ang^3
#
#
#
# Elastic Constant Matrix: (Units=GPa)
#
#
# Indices 1 2 3 4 5 6 
#
# 1 64.3895 23.4803 39.5854 0.0000 -4.8601 0.0000
# 2 23.4803 109.8943 71.4512 0.0000 5.7787 0.0000
# 3 39.5854 71.4512 132.7287 0.0000 -6.9141 0.0000
# 4 0.0000 0.0000 0.0000 11.5296 0.0000 14.8575
# 5 -4.8601 5.7787 -6.9141 0.0000 33.5298 0.0000
# 6 0.0000 0.0000 0.0000 14.8575 0.0000 19.4354
#
#
#
# Elastic Compliance Matrix: (Units=1/GPa)
#
#
# Indices 1 2 3 4 5 6 
#
# 1 0.019150 -0.000828 -0.005169 0.000000 0.001853 0.000000
# 2 -0.000828 0.014590 -0.007828 0.000000 -0.004249 0.000000
# 3 -0.005169 -0.007828 0.013466 0.000000 0.003377 0.000000
# 4 0.000000 0.000000 0.000000 5.825970 0.000000 -4.453705
# 5 0.001853 -0.004249 0.003377 0.000000 0.031521 0.000000
# 6 0.000000 0.000000 0.000000 -4.453705 0.000000 3.456120
#
#
# Mechanical properties :
#
#
# Convention : Reuss Voigt Hill
#
# Bulk Modulus (GPa) = 51.13897 64.00518 57.57208
# Shear Modulus (GPa) = 0.53220 24.39866 12.46543
#
# Velocity S-wave (km/s) = 0.52570 3.55948 2.54424
# Velocity P-wave (km/s) = 5.18887 7.08028 6.20704
#
# Compressibility (1/GPa) = 0.01955456
#
# Stress axis : x y z
#
# Youngs Moduli (GPa) = 52.21886 68.54032 74.26153
#
# Poissons Ratio (x) = 0.05677 0.38386
# Poissons Ratio (y) = 0.04325 0.58135
# Poissons Ratio (z) = 0.26992 0.53656
#
# Static dielectric constant tensor:
#      x y z
#    x 1.693400 0.000000 0.001680 
#    y 0.000000 1.638500 0.000000 
#    z 0.001680 0.000000 1.656640 
# 
# From -- ./inp_files/10153.got.cif
#   From: 2010.05.17/outbox.cif.g08.bks.cpg/sg12_6_cif.got.tgz:10153.got - 2010.06.03 13:09:07.
