data_PCOD9209386
_publ_section_title
;
Structure prediction by ZEFSAII (Michael W. Deem and Ramdas Pophale) SiO2 
 PCOD9209386
Probable space group: C 2/M
;
_chemical_formula_sum "Si O2"
_cell_formula_units_Z 56
_cell_length_a 20.802669
_cell_length_b 8.837227
_cell_length_c 28.194266
_cell_angle_alpha 90.000000
_cell_angle_beta 145.092162
_cell_angle_gamma 90.000000
_cell_volume 2966.113624
_symmetry_space_group_name_H-M "C 2/M"
_symmetry_group_IT_number 12
_symmetry_cell_setting 'monoclinic'
loop_
_space_group_symop_operation_xyz
x,y,z
-x,y,-z
-x,-y,-z
x,-y,z
1/2+x,1/2+y,z
1/2-x,1/2+y,-z
1/2-x,1/2-y,-z
1/2+x,1/2-y,z
loop_
_atom_site_type_symbol
_atom_site_label
_atom_site_fract_x
_atom_site_fract_y
_atom_site_fract_z
Si Si1 0.164332 0.182208 0.712808
Si Si2 0.962798 0.318987 0.530999
Si Si3 0.095299 0.317865 0.184920
Si Si4 0.528370 0.182065 0.251275
Si Si5 0.195127 0.180847 0.842272
Si Si6 0.757458 0.681561 0.556879
Si Si7 0.565283 0.681090 0.991196
O O1 0.279101 0.225178 0.755191
O O2 0.178417 0.221669 0.776660
O O3 0.058449 0.261838 0.624841
O O4 0.150386 0.000000 0.700885
O O5 0.951874 0.500000 0.527608
O O6 0.845728 0.242764 0.474450
O O7 0.000000 0.279247 0.500000
O O8 0.087664 0.500000 0.175770
O O9 0.070061 0.277293 0.223883
O O10 0.005426 0.244169 0.095488
O O11 0.412009 0.259915 0.194037
O O12 0.625148 0.223798 0.347298
O O13 0.514331 0.000000 0.244455
O O14 0.310045 0.252505 0.930610
O O15 0.202923 0.000000 0.849944
O O16 0.751283 0.500000 0.550740
O O17 0.750000 0.750000 0.500000
O O18 0.570213 0.500000 0.991964
O O19 0.500000 0.725087 0.000000
#
# Coordination Sequence:
#
# PCOD9209386 Si02
#       7
#     8   8   8   8   8   8   8
#     4  10  21  38  62  89 115 154 206 252 300 356
#     4  11  24  39  58  88 124 161 203 252 304 360
#     4  10  21  40  64  88 119 158 201 248 299 354
#     4  10  23  41  61  88 122 159 198 247 302 356
#     4  11  23  39  63  90 119 156 198 246 294 354
#     4  11  23  41  65  90 122 163 206 253 306 363
#     4  11  23  39  62  92 123 155 194 243 301 357
#
# _framework density 18.879925
#
# number of rings (size 3 to 8) (size 9 to 14) (size 15 to 20)
#    0.000    1.429    1.429    3.429    0.000    9.143 
#    0.000    0.000    0.000    0.000    0.000    0.000 
#    0.000    0.000    0.000    0.000    0.000    0.000 
#
# Total GULP energy -156600.378265 kJ/mol
# GULP energy per Si atom -5592.870652 kJ/mol
# Density = 1.883695 g / cm^3
# Si number density = 18.879925 Si / 1000 Ang^3
#
#
#
# Elastic Constant Matrix: (Units=GPa)
#
#
# Indices 1 2 3 4 5 6 
#
# 1 81.3951 17.3269 3.5557 0.0000 12.3626 0.0000
# 2 17.3269 22.5497 19.0985 0.0000 3.4724 0.0001
# 3 3.5557 19.0985 87.4570 0.0000 12.6278 0.0000
# 4 0.0000 0.0000 0.0000 23.0808 0.0000 -4.5771
# 5 12.3626 3.4724 12.6278 0.0000 38.6447 0.0000
# 6 0.0000 0.0001 0.0000 -4.5771 0.0000 29.6389
#
#
#
# Elastic Compliance Matrix: (Units=1/GPa)
#
#
# Indices 1 2 3 4 5 6 
#
# 1 0.015890 -0.014120 0.003136 0.000000 -0.004839 0.000000
# 2 -0.014120 0.066999 -0.014525 0.000000 0.003243 0.000000
# 3 0.003136 -0.014525 0.015150 0.000000 -0.004649 0.000000
# 4 0.000000 0.000000 0.000000 0.044695 0.000000 0.006902
# 5 -0.004839 0.003243 -0.004649 0.000000 0.028652 0.000000
# 6 0.000000 0.000000 0.000000 0.006902 0.000000 0.034805
#
#
# Mechanical properties :
#
#
# Convention : Reuss Voigt Hill
#
# Bulk Modulus (GPa) = 21.26763 30.15155 25.70959
# Shear Modulus (GPa) = 18.32291 28.36761 23.34526
#
# Velocity S-wave (km/s) = 3.11866 3.88045 3.52022
# Velocity P-wave (km/s) = 4.92516 6.00683 5.49269
#
# Compressibility (1/GPa) = 0.04701981
#
# Stress axis : x y z
#
# Youngs Moduli (GPa) = 62.93434 14.92563 66.00749
#
# Poissons Ratio (x) = 0.21076 -0.20701
# Poissons Ratio (y) = 0.88865 0.95876
# Poissons Ratio (z) = -0.19738 0.21680
#
# Static dielectric constant tensor:
#      x y z
#    x 1.639130 0.000000 -0.017070 
#    y 0.000000 1.631120 0.000000 
#    z -0.017070 0.000000 1.636400 
# 
# From -- ./inp_files/363245.got.cif
#   From: 2010.05.17/outbox.cif.g08.bks.cpg/sg12_182_cif.got.tgz:363245.got - 2010.06.03 13:09:07.
