data_PCOD9209024
_publ_section_title
;
Structure prediction by ZEFSAII (Michael W. Deem and Ramdas Pophale) SiO2 
 PCOD9209024
Probable space group: C 2/M
;
_chemical_formula_sum "Si O2"
_cell_formula_units_Z 40
_cell_length_a 7.745358
_cell_length_b 31.276205
_cell_length_c 10.192613
_cell_angle_alpha 90.000000
_cell_angle_beta 54.107604
_cell_angle_gamma 90.000000
_cell_volume 2000.277009
_symmetry_space_group_name_H-M "C 2/M"
_symmetry_group_IT_number 12
_symmetry_cell_setting 'monoclinic'
loop_
_space_group_symop_operation_xyz
x,y,z
-x,y,-z
-x,-y,-z
x,-y,z
1/2+x,1/2+y,z
1/2-x,1/2+y,-z
1/2-x,1/2-y,-z
1/2+x,1/2-y,z
loop_
_atom_site_type_symbol
_atom_site_label
_atom_site_fract_x
_atom_site_fract_y
_atom_site_fract_z
Si Si1 0.137041 0.863131 0.810477
Si Si2 0.000000 0.585576 0.000000
Si Si3 0.068906 0.953447 0.176566
Si Si4 0.000000 0.067884 0.500000
Si Si5 0.376259 0.870457 0.312497
Si Si6 0.729191 0.799058 0.467463
O O1 0.385299 0.870070 0.736569
O O2 0.126120 0.826823 0.700302
O O3 0.053562 0.910395 0.809554
O O4 0.000000 0.849796 0.000000
O O5 0.812842 0.556120 0.026763
O O6 0.896397 0.616360 0.153423
O O7 0.061491 0.955150 0.338473
O O8 0.995265 0.000000 0.160444
O O9 0.208379 0.095714 0.444545
O O10 0.276963 0.825289 0.394286
O O11 0.500000 0.801640 0.500000
O O12 0.750000 0.750000 0.500000
#
# Coordination Sequence:
#
# PCOD9209024 Si02
#       6
#     8   4   8   4   8   8
#     4  11  22  43  62  90 131 162 207 255 314 363
#     4  10  21  38  60  90 126 166 208 256 309 362
#     4  11  22  38  62  91 126 168 213 257 306 366
#     4  10  21  38  64  86 126 160 214 252 315 356
#     4  10  21  40  63  89 122 166 200 258 312 371
#     4  10  23  41  65  91 122 160 206 253 313 378
#
# _framework density 19.997230999999999
#
# number of rings (size 3 to 8) (size 9 to 14) (size 15 to 20)
#    0.000    1.600    4.000    0.600    1.400    0.400 
#    1.800    5.000    0.000    0.000    0.000    0.000 
#    0.000    0.000    0.000    0.000    0.000    0.000 
#
# Total GULP energy -111373.281949 kJ/mol
# GULP energy per Si atom -5568.664097 kJ/mol
# Density = 1.995172 g / cm^3
# Si number density = 19.997231 Si / 1000 Ang^3
#
#
#
# Elastic Constant Matrix: (Units=GPa)
#
#
# Indices 1 2 3 4 5 6 
#
# 1 40.7520 22.1405 14.6084 0.0000 -16.0267 0.0000
# 2 22.1405 174.1670 67.8353 0.0000 4.0397 0.0000
# 3 14.6084 67.8353 120.5900 0.0000 0.9308 0.0000
# 4 0.0000 0.0000 0.0000 19.7908 0.0000 -7.7565
# 5 -16.0267 4.0397 0.9308 0.0000 33.8038 0.0000
# 6 0.0000 0.0000 0.0000 -7.7565 0.0000 22.5897
#
#
#
# Elastic Compliance Matrix: (Units=1/GPa)
#
#
# Indices 1 2 3 4 5 6 
#
# 1 0.033921 -0.003902 -0.002043 0.000000 0.016605 0.000000
# 2 -0.003902 0.007821 -0.003906 0.000000 -0.002677 0.000000
# 3 -0.002043 -0.003906 0.010744 0.000000 -0.000797 0.000000
# 4 0.000000 0.000000 0.000000 0.058386 0.000000 0.020048
# 5 0.016605 -0.002677 -0.000797 0.000000 0.037797 0.000000
# 6 0.000000 0.000000 0.000000 0.020048 0.000000 0.051152
#
#
# Mechanical properties :
#
#
# Convention : Reuss Voigt Hill
#
# Bulk Modulus (GPa) = 30.50230 60.51971 45.51100
# Shear Modulus (GPa) = 21.69682 30.63187 26.16434
#
# Velocity S-wave (km/s) = 3.29749 3.91807 3.62110
# Velocity P-wave (km/s) = 5.45750 7.12728 6.34754
#
# Compressibility (1/GPa) = 0.03278442
#
# Stress axis : x y z
#
# Youngs Moduli (GPa) = 29.48044 127.85868 93.07906
#
# Poissons Ratio (x) = 0.49886 0.19012
# Poissons Ratio (y) = 0.11502 0.36359
# Poissons Ratio (z) = 0.06022 0.49945
#
# Static dielectric constant tensor:
#      x y z
#    x 1.325290 0.000000 0.163250 
#    y 0.000000 1.740280 0.000000 
#    z 0.163250 0.000000 1.683010 
# 
# From -- ./inp_files/123447.got.cif
#   From: 2010.05.17/outbox.cif.g08.bks.cpg/sg12_62_cif.got.tgz:123447.got - 2010.06.03 13:09:07.
