data_PCOD9209970
_publ_section_title
;
Structure prediction by ZEFSAII (Michael W. Deem and Ramdas Pophale) SiO2 
 PCOD9209970
Probable space group: C 2/M
;
_chemical_formula_sum "Si O2"
_cell_formula_units_Z 64
_cell_length_a 23.409452
_cell_length_b 7.987822
_cell_length_c 23.167425
_cell_angle_alpha 90.000000
_cell_angle_beta 126.931434
_cell_angle_gamma 90.000000
_cell_volume 3462.877741
_symmetry_space_group_name_H-M "C 2/M"
_symmetry_group_IT_number 12
_symmetry_cell_setting 'monoclinic'
loop_
_space_group_symop_operation_xyz
x,y,z
-x,y,-z
-x,-y,-z
x,-y,z
1/2+x,1/2+y,z
1/2-x,1/2+y,-z
1/2-x,1/2-y,-z
1/2+x,1/2-y,z
loop_
_atom_site_type_symbol
_atom_site_label
_atom_site_fract_x
_atom_site_fract_y
_atom_site_fract_z
Si Si1 0.459685 0.698335 0.918908
Si Si2 0.819462 0.301157 0.888975
Si Si3 0.948679 0.301097 0.552927
Si Si4 0.108758 0.698934 0.597044
Si Si5 0.672136 0.200490 0.974948
Si Si6 0.486385 0.799972 0.294644
Si Si7 0.666303 0.796473 0.749527
Si Si8 0.476386 0.697033 0.161245
O O1 0.475639 0.500000 0.927166
O O2 0.376091 0.723178 0.879421
O O3 0.487070 0.768769 0.874640
O O4 0.500000 0.769572 0.000000
O O5 0.829694 0.500000 0.894839
O O6 0.738259 0.262195 0.823220
O O7 0.835688 0.238845 0.963722
O O8 0.932330 0.500000 0.546679
O O9 0.897252 0.229893 0.471515
O O10 0.957835 0.233341 0.623354
O O11 0.029138 0.287804 0.576005
O O12 0.123154 0.500000 0.600394
O O13 0.159940 0.762963 0.678891
O O14 0.608098 0.271417 0.897827
O O15 0.666627 0.000000 0.970772
O O16 0.750000 0.250000 0.000000
O O17 0.406040 0.739745 0.261749
O O18 0.502251 0.766681 0.237907
O O19 0.484420 0.000000 0.301744
O O20 0.666296 0.000000 0.749583
O O21 0.489713 0.500000 0.171090
#
# Coordination Sequence:
#
# PCOD9209970 Si02
#       8
#     8   8   8   8   8   8   8   8
#     4  10  21  39  58  71  86 117 161 205 246 289
#     4  11  23  35  50  72  96 123 157 200 246 284
#     4   7  10  19  38  65  96 126 160 195 227 267
#     4   7  10  19  38  65  94 126 162 196 224 263
#     4  11  23  36  51  72  98 128 159 191 232 284
#     4   9  17  29  47  73 103 134 161 193 237 284
#     4   9  17  29  47  71 101 134 164 193 231 281
#     4  11  22  35  52  72  94 123 159 200 243 285
#
# _framework density 18.481739000000001
#
# number of rings (size 3 to 8) (size 9 to 14) (size 15 to 20)
#    0.000    2.625    1.250    4.125    0.000    5.250 
#    0.000    0.000    0.000    0.750    0.000    4.375 
#    0.000    0.000    0.000    0.000    0.000    0.000 
#
# Total GULP energy -178279.995129 kJ/mol
# GULP energy per Si atom -5571.249848 kJ/mol
# Density = 1.843967 g / cm^3
# Si number density = 18.481739 Si / 1000 Ang^3
#
#
#
# Elastic Constant Matrix: (Units=GPa)
#
#
# Indices 1 2 3 4 5 6 
#
# 1 69.6584 0.5146 18.2893 0.0000 -26.6942 0.0000
# 2 0.5146 8.9898 7.7744 0.0000 -6.0153 0.0000
# 3 18.2893 7.7744 91.6284 0.0000 -43.7467 0.0000
# 4 0.0000 0.0000 0.0000 4.7971 0.0000 -0.9252
# 5 -26.6942 -6.0153 -43.7467 0.0000 30.1008 0.0000
# 6 0.0000 0.0000 0.0000 -0.9252 0.0000 11.2282
#
#
#
# Elastic Compliance Matrix: (Units=1/GPa)
#
#
# Indices 1 2 3 4 5 6 
#
# 1 0.036964 0.026349 0.027933 0.000000 0.078642 0.000000
# 2 0.026349 0.147743 0.024361 0.000000 0.088297 -0.000001
# 3 0.027933 0.024361 0.056913 0.000000 0.112354 0.000000
# 4 0.000000 0.000000 0.000000 0.211825 0.000000 0.017454
# 5 0.078642 0.088297 0.112354 0.000000 0.283897 0.000000
# 6 0.000000 -0.000001 0.000000 0.017454 0.000000 0.090500
#
#
# Mechanical properties :
#
#
# Convention : Reuss Voigt Hill
#
# Bulk Modulus (GPa) = 2.50685 24.82592 13.66638
# Shear Modulus (GPa) = 6.22259 18.80511 12.51385
#
# Velocity S-wave (km/s) = 1.83690 3.19328 2.60492
# Velocity P-wave (km/s) = 2.42038 5.20172 4.05686
#
# Compressibility (1/GPa) = 0.39890722
#
# Stress axis : x y z
#
# Youngs Moduli (GPa) = 27.05324 6.76851 17.57071
#
# Poissons Ratio (x) = -0.17835 -0.49080
# Poissons Ratio (y) = -0.71283 -0.42805
# Poissons Ratio (z) = -0.75567 -0.16489
#
# Static dielectric constant tensor:
#      x y z
#    x 1.629520 0.000000 -0.045000 
#    y 0.000000 1.672440 0.000000 
#    z -0.045000 0.000000 1.671570 
# 
# From -- ./inp_files/346210.got.cif
#   From: 2010.05.17/outbox.cif.g08.bks.cpg/sg12_174_cif.got.tgz:346210.got - 2010.06.03 13:09:07.
