data_PCOD9209448
_publ_section_title
;
Structure prediction by ZEFSAII (Michael W. Deem and Ramdas Pophale) SiO2 
 PCOD9209448
Probable space group: C 2/M
;
_chemical_formula_sum "Si O2"
_cell_formula_units_Z 40
_cell_length_a 24.308822
_cell_length_b 8.793370
_cell_length_c 8.397512
_cell_angle_alpha 90.000000
_cell_angle_beta 96.713409
_cell_angle_gamma 90.000000
_cell_volume 1782.714590
_symmetry_space_group_name_H-M "C 2/M"
_symmetry_group_IT_number 12
_symmetry_cell_setting 'monoclinic'
loop_
_space_group_symop_operation_xyz
x,y,z
-x,y,-z
-x,-y,-z
x,-y,z
1/2+x,1/2+y,z
1/2-x,1/2+y,-z
1/2-x,1/2-y,-z
1/2+x,1/2-y,z
loop_
_atom_site_type_symbol
_atom_site_label
_atom_site_fract_x
_atom_site_fract_y
_atom_site_fract_z
Si Si1 0.834714 0.176997 0.609616
Si Si2 0.425744 0.177366 0.831825
Si Si3 0.366953 0.320999 0.114441
Si Si4 0.220097 0.322022 0.716141
Si Si5 0.477744 0.318687 0.318789
O O1 0.885774 0.283012 0.669860
O O2 0.806217 0.221838 0.434405
O O3 0.786131 0.197416 0.725064
O O4 0.851871 0.000000 0.612929
O O5 0.486159 0.233817 0.801606
O O6 0.425860 0.000000 0.868543
O O7 0.398232 0.269965 0.966155
O O8 0.355051 0.500000 0.104668
O O9 0.311515 0.230064 0.136893
O O10 0.412904 0.291197 0.267895
O O11 0.209468 0.500000 0.681906
O O12 0.500000 0.274206 0.500000
O O13 0.486713 0.500000 0.303588
#
# Coordination Sequence:
#
# PCOD9209448 Si02
#       5
#     8   8   8   8   8
#     4  10  21  39  62  87 119 158 197 239 291 352
#     4  12  25  39  59  87 120 156 197 248 296 341
#     4  11  23  39  61  87 120 160 196 237 294 357
#     4  10  21  38  62  91 120 152 195 245 292 343
#     4  10  22  41  64  88 115 151 195 240 293 358
#
# _framework density 22.437691999999998
#
# number of rings (size 3 to 8) (size 9 to 14) (size 15 to 20)
#    0.000    1.400    0.000    5.400    0.000    9.200 
#    0.000    0.000    0.000    0.000    0.000    0.000 
#    0.000    0.000    0.000    0.000    0.000    0.000 
#
# Total GULP energy -111952.724166 kJ/mol
# GULP energy per Si atom -5597.636208 kJ/mol
# Density = 2.238662 g / cm^3
# Si number density = 22.437692 Si / 1000 Ang^3
#
#
#
# Elastic Constant Matrix: (Units=GPa)
#
#
# Indices 1 2 3 4 5 6 
#
# 1 80.0480 32.3860 -4.8371 0.0000 -20.6273 0.0000
# 2 32.3860 54.4402 -0.1870 0.0000 -10.1851 0.0000
# 3 -4.8371 -0.1870 46.1227 0.0000 -9.5560 0.0000
# 4 0.0000 0.0000 0.0000 30.6332 0.0000 -6.6236
# 5 -20.6273 -10.1851 -9.5560 0.0000 39.5178 0.0000
# 6 0.0000 0.0000 0.0000 -6.6236 0.0000 34.3391
#
#
#
# Elastic Compliance Matrix: (Units=1/GPa)
#
#
# Indices 1 2 3 4 5 6 
#
# 1 0.018689 -0.009579 0.003612 0.000000 0.008160 0.000000
# 2 -0.009579 0.024269 -0.000680 0.000000 0.001091 0.000000
# 3 0.003612 -0.000680 0.023594 0.000000 0.007415 0.000000
# 4 0.000000 0.000000 0.000000 0.034065 0.000000 0.006571
# 5 0.008160 0.001091 0.007415 0.000000 0.031638 0.000000
# 6 0.000000 0.000000 0.000000 0.006571 0.000000 0.030389
#
#
# Mechanical properties :
#
#
# Convention : Reuss Voigt Hill
#
# Bulk Modulus (GPa) = 18.77701 26.14830 22.46266
# Shear Modulus (GPa) = 25.81441 31.11461 28.46451
#
# Velocity S-wave (km/s) = 3.39557 3.72790 3.56561
# Velocity P-wave (km/s) = 4.87441 5.49624 5.19464
#
# Compressibility (1/GPa) = 0.05325661
#
# Stress axis : x y z
#
# Youngs Moduli (GPa) = 53.50802 41.20514 42.38429
#
# Poissons Ratio (x) = 0.39470 -0.15308
# Poissons Ratio (y) = 0.51254 0.02883
# Poissons Ratio (z) = -0.19326 0.02803
#
# Static dielectric constant tensor:
#      x y z
#    x 1.821680 0.000000 0.015570 
#    y 0.000000 1.732660 0.000000 
#    z 0.015570 0.000000 1.875290 
# 
# From -- ./inp_files/92732.got.cif
#   From: 2010.05.17/outbox.cif.g08.bks.cpg/sg12_47_cif.got.tgz:92732.got - 2010.06.03 13:09:07.
