data_PCOD9209327
_publ_section_title
;
Structure prediction by ZEFSAII (Michael W. Deem and Ramdas Pophale) SiO2 
 PCOD9209327
Probable space group: C 2/M
;
_chemical_formula_sum "Si O2"
_cell_formula_units_Z 34
_cell_length_a 13.839728
_cell_length_b 21.236693
_cell_length_c 14.230245
_cell_angle_alpha 90.000000
_cell_angle_beta 159.421083
_cell_angle_gamma 90.000000
_cell_volume 1470.106074
_symmetry_space_group_name_H-M "C 2/M"
_symmetry_group_IT_number 12
_symmetry_cell_setting 'monoclinic'
loop_
_space_group_symop_operation_xyz
x,y,z
-x,y,-z
-x,-y,-z
x,-y,z
1/2+x,1/2+y,z
1/2-x,1/2+y,-z
1/2-x,1/2-y,-z
1/2+x,1/2-y,z
loop_
_atom_site_type_symbol
_atom_site_label
_atom_site_fract_x
_atom_site_fract_y
_atom_site_fract_z
Si Si1 0.303453 0.245908 0.740476
Si Si2 0.035539 0.875171 0.897045
Si Si3 0.376674 0.846051 0.638586
Si Si4 0.000000 0.000000 0.000000
Si Si5 0.281197 0.069570 0.718891
O O1 0.364005 0.320044 0.791055
O O2 0.344593 0.216852 0.673482
O O3 0.000000 0.236722 0.500000
O O4 0.500000 0.217436 0.000000
O O5 0.888107 0.870202 0.660536
O O6 0.349082 0.849917 0.174467
O O7 0.015116 0.942527 0.931458
O O8 0.419111 0.896433 0.758641
O O9 0.000000 0.100277 0.500000
O O10 0.200410 0.000000 0.612841
O O11 0.500000 0.066057 0.000000
#
# Coordination Sequence:
#
# PCOD9209327 Si02
#       5
#     8   8   8   2   8
#     4  12  24  47  76 111 150 190 237 306 379 435
#     4  12  28  47  73 104 146 192 256 297 361 430
#     4  12  25  44  75 107 142 188 244 309 358 441
#     4  12  32  54  76 102 152 206 246 302 368 430
#     4  10  21  38  61  95 138 179 228 286 360 428
#
# _framework density 23.127583000000001
#
# number of rings (size 3 to 8) (size 9 to 14) (size 15 to 20)
#    0.000    0.471    1.176    7.059    3.294    0.941 
#    0.000    0.000    0.000    0.000    0.000    0.000 
#    0.000    0.000    0.000    0.000    0.000    0.000 
#
# Total GULP energy -94684.867610 kJ/mol
# GULP energy per Si atom -5569.698095 kJ/mol
# Density = 2.307494 g / cm^3
# Si number density = 23.127583 Si / 1000 Ang^3
#
#
#
# Elastic Constant Matrix: (Units=GPa)
#
#
# Indices 1 2 3 4 5 6 
#
# 1 100.5345 55.2666 57.6236 -0.0003 -12.8468 -0.0009
# 2 55.2666 190.2330 13.1227 0.0006 9.7638 0.0017
# 3 57.6236 13.1227 130.9675 0.0040 16.9368 0.0067
# 4 -0.0003 0.0006 0.0040 -41.8698 0.0002 -101.1346
# 5 -12.8468 9.7638 16.9368 0.0002 53.6349 -0.0005
# 6 -0.0009 0.0017 0.0067 -101.1346 -0.0005 -28.4183
#
#
#
# Elastic Compliance Matrix: (Units=1/GPa)
#
#
# Indices 1 2 3 4 5 6 
#
# 1 0.019089 -0.005359 -0.008945 -0.000001 0.008372 0.000000
# 2 -0.005359 0.006833 0.002085 0.000000 -0.003186 0.000000
# 3 -0.008945 0.002085 0.012186 0.000001 -0.006370 0.000000
# 4 -0.000001 0.000000 0.000001 0.003144 -0.000001 -0.011190
# 5 0.008372 -0.003186 -0.006370 -0.000001 0.023241 0.000000
# 6 0.000000 0.000000 0.000000 -0.011190 0.000000 0.004632
#
#
# Mechanical properties :
#
#
# Convention : Reuss Voigt Hill
#
# Bulk Modulus (GPa) = 73.14367 74.86231 74.00299
# Shear Modulus (GPa) = 50.95772 16.38416 33.67094
#
# Velocity S-wave (km/s) = 4.69906 2.66451 3.81974
# Velocity P-wave (km/s) = 7.81897 6.47346 7.17782
#
# Compressibility (1/GPa) = 0.01367172
#
# Stress axis : x y z
#
# Youngs Moduli (GPa) = 52.38517 146.34510 82.06179
#
# Poissons Ratio (x) = 0.78420 0.73403
# Poissons Ratio (y) = 0.28071 -0.17110
# Poissons Ratio (z) = 0.46858 -0.30513
#
# Static dielectric constant tensor:
#      x y z
#    x 1.970440 0.000000 0.078350 
#    y 0.000000 1.902960 0.000000 
#    z 0.078350 0.000000 2.040080 
# 
# From -- ./inp_files/218601.got.cif
#   From: 2010.05.17/outbox.cif.g08.bks.cpg/sg12_110_cif.got.tgz:218601.got - 2010.06.03 13:09:07.
