data_PCOD9209191
_publ_section_title
;
Structure prediction by ZEFSAII (Michael W. Deem and Ramdas Pophale) SiO2 
 PCOD9209191
Probable space group: C 2/M
;
_chemical_formula_sum "Si O2"
_cell_formula_units_Z 48
_cell_length_a 14.569655
_cell_length_b 8.433544
_cell_length_c 27.457113
_cell_angle_alpha 90.000000
_cell_angle_beta 40.552382
_cell_angle_gamma 90.000000
_cell_volume 2193.426694
_symmetry_space_group_name_H-M "C 2/M"
_symmetry_group_IT_number 12
_symmetry_cell_setting 'monoclinic'
loop_
_space_group_symop_operation_xyz
x,y,z
-x,y,-z
-x,-y,-z
x,-y,z
1/2+x,1/2+y,z
1/2-x,1/2+y,-z
1/2-x,1/2-y,-z
1/2+x,1/2-y,z
loop_
_atom_site_type_symbol
_atom_site_label
_atom_site_fract_x
_atom_site_fract_y
_atom_site_fract_z
Si Si1 0.826990 0.819598 0.164879
Si Si2 0.574556 0.809094 0.420226
Si Si3 0.405641 0.310665 0.287647
Si Si4 0.428397 0.686524 0.680202
Si Si5 0.658511 0.184051 0.940587
Si Si6 0.432853 0.183521 0.870972
O O1 0.713788 0.786124 0.252598
O O2 0.788618 0.703233 0.136215
O O3 0.980934 0.782872 0.124008
O O4 0.815919 0.000000 0.152271
O O5 0.500000 0.756831 0.500000
O O6 0.740762 0.768856 0.354499
O O7 0.512497 0.734845 0.396035
O O8 0.562424 0.000000 0.422181
O O9 0.419632 0.500000 0.271757
O O10 0.470158 0.280879 0.315010
O O11 0.490503 0.219268 0.211504
O O12 0.394004 0.500000 0.694074
O O13 0.770264 0.269475 0.929706
O O14 0.650352 0.000000 0.957798
O O15 0.500000 0.250628 0.000000
O O16 0.447073 0.000000 0.877723
#
# Coordination Sequence:
#
# PCOD9209191 Si02
#       6
#     8   8   8   8   8   8
#     4  12  24  40  65  94 127 166 211 261 311 372
#     4  10  22  40  61  88 125 168 211 259 317 375
#     4  10  21  38  61  88 125 165 205 258 314 368
#     4  11  22  37  61  91 123 161 210 260 312 375
#     4  11  25  45  67  94 130 167 206 259 317 372
#     4  12  24  39  65  96 126 165 212 258 311 375
#
# _framework density 21.883568
#
# number of rings (size 3 to 8) (size 9 to 14) (size 15 to 20)
#    0.000    1.000    3.333    4.000    0.000    3.667 
#    0.000    0.000    0.000    0.000    0.000    0.000 
#    0.000    0.000    0.000    0.000    0.000    0.000 
#
# Total GULP energy -134321.856407 kJ/mol
# GULP energy per Si atom -5596.744017 kJ/mol
# Density = 2.183376 g / cm^3
# Si number density = 21.883568 Si / 1000 Ang^3
#
#
#
# Elastic Constant Matrix: (Units=GPa)
#
#
# Indices 1 2 3 4 5 6 
#
# 1 84.4580 8.7577 5.4216 0.0001 3.4358 0.0008
# 2 8.7577 45.2428 4.8432 0.0003 -6.1627 0.0017
# 3 5.4216 4.8432 58.9714 -0.0001 6.3288 0.0000
# 4 0.0001 0.0003 -0.0001 21.7224 0.0000 0.0590
# 5 3.4358 -6.1627 6.3288 0.0000 31.2859 0.0001
# 6 0.0008 0.0017 0.0000 0.0590 0.0001 19.3681
#
#
#
# Elastic Compliance Matrix: (Units=1/GPa)
#
#
# Indices 1 2 3 4 5 6 
#
# 1 0.012217 -0.002516 -0.000735 0.000000 -0.001689 0.000000
# 2 -0.002516 0.023567 -0.002282 0.000000 0.005380 -0.000002
# 3 -0.000735 -0.002282 0.017635 0.000000 -0.003936 0.000000
# 4 0.000000 0.000000 0.000000 0.046036 0.000000 -0.000140
# 5 -0.001689 0.005380 -0.003936 0.000000 0.034005 -0.000001
# 6 0.000000 -0.000002 0.000000 -0.000140 -0.000001 0.051632
#
#
# Mechanical properties :
#
#
# Convention : Reuss Voigt Hill
#
# Bulk Modulus (GPa) = 23.61121 25.19081 24.40101
# Shear Modulus (GPa) = 23.77840 25.78525 24.78183
#
# Velocity S-wave (km/s) = 3.29992 3.43635 3.36883
# Velocity P-wave (km/s) = 5.03311 5.22312 5.12899
#
# Compressibility (1/GPa) = 0.04235276
#
# Stress axis : x y z
#
# Youngs Moduli (GPa) = 81.85305 42.43200 56.70617
#
# Poissons Ratio (x) = 0.10677 0.04170
# Poissons Ratio (y) = 0.20596 0.12938
# Poissons Ratio (z) = 0.06019 0.09681
#
# Static dielectric constant tensor:
#      x y z
#    x 1.789920 0.000000 0.003360 
#    y 0.000000 1.747590 0.000000 
#    z 0.003360 0.000000 1.837770 
# 
# From -- ./inp_files/308295.got.cif
#   From: 2010.05.17/outbox.cif.g08.bks.cpg/sg12_155_cif.got.tgz:308295.got - 2010.06.03 13:09:07.
