data_PCOD9209022
_publ_section_title
;
Structure prediction by ZEFSAII (Michael W. Deem and Ramdas Pophale) SiO2 
 PCOD9209022
Probable space group: C 2/M
;
_chemical_formula_sum "Si O2"
_cell_formula_units_Z 64
_cell_length_a 19.594893
_cell_length_b 15.983697
_cell_length_c 20.947214
_cell_angle_alpha 90.000000
_cell_angle_beta 29.139933
_cell_angle_gamma 90.000000
_cell_volume 3194.667360
_symmetry_space_group_name_H-M "C 2/M"
_symmetry_group_IT_number 12
_symmetry_cell_setting 'monoclinic'
loop_
_space_group_symop_operation_xyz
x,y,z
-x,y,-z
-x,-y,-z
x,-y,z
1/2+x,1/2+y,z
1/2-x,1/2+y,-z
1/2-x,1/2-y,-z
1/2+x,1/2-y,z
loop_
_atom_site_type_symbol
_atom_site_label
_atom_site_fract_x
_atom_site_fract_y
_atom_site_fract_z
Si Si1 0.947146 0.596340 0.238510
Si Si2 0.228182 0.694768 0.812792
Si Si3 0.365380 0.091735 0.790758
Si Si4 0.010082 0.735540 0.092829
Si Si5 0.983723 0.301148 0.580356
Si Si6 0.684963 0.298782 0.492964
Si Si7 0.587919 0.596930 0.244233
Si Si8 0.075724 0.902528 0.103595
O O1 0.945995 0.500000 0.215623
O O2 0.033080 0.662427 0.125667
O O3 0.794355 0.636477 0.373376
O O4 0.017824 0.595469 0.250013
O O5 0.114706 0.696736 0.848678
O O6 0.370284 0.727432 0.663716
O O7 0.285443 0.619336 0.810771
O O8 0.141916 0.746430 0.937477
O O9 0.409993 0.151985 0.698459
O O10 0.362136 0.000000 0.764057
O O11 0.219627 0.102394 0.946489
O O12 0.985491 0.824739 0.148621
O O13 0.000000 0.347060 0.500000
O O14 0.131255 0.267532 0.484943
O O15 0.750000 0.250000 0.500000
O O16 0.545184 0.346462 0.629463
O O17 0.552842 0.500000 0.280590
O O18 0.611359 0.611383 0.149281
O O19 0.022800 0.000000 0.140804
#
# Coordination Sequence:
#
# PCOD9209022 Si02
#       8
#     8   8   8   8   8   8   8   8
#     4  11  23  38  61  95 129 163 211 262 315 375
#     4  10  23  39  59  91 125 164 214 253 314 389
#     4  10  21  38  60  90 123 158 204 260 316 374
#     4  11  22  39  64  92 126 169 210 262 321 373
#     4  11  22  39  60  85 119 162 208 252 312 379
#     4  11  21  38  62  90 120 166 208 260 313 373
#     4  10  22  39  62  92 127 166 209 262 318 379
#     4  10  21  39  66  97 126 163 214 264 319 382
#
# _framework density 20.033384999999999
#
# number of rings (size 3 to 8) (size 9 to 14) (size 15 to 20)
#    0.000    1.500    2.500    2.625    1.750    3.250 
#    0.000    3.125    0.000    4.125    0.000    0.000 
#    0.000    0.000    0.000    0.000    0.000    0.000 
#
# Total GULP energy -178225.606079 kJ/mol
# GULP energy per Si atom -5569.550190 kJ/mol
# Density = 1.998779 g / cm^3
# Si number density = 20.033385 Si / 1000 Ang^3
#
#
#
# Elastic Constant Matrix: (Units=GPa)
#
#
# Indices 1 2 3 4 5 6 
#
# 1 99.3380 45.8702 21.8966 0.0003 5.0394 -0.0001
# 2 45.8702 78.7004 19.9995 0.0005 3.0810 -0.0004
# 3 21.8966 19.9995 50.2257 0.0013 2.0511 -0.0006
# 4 0.0003 0.0005 0.0013 24.1124 -0.0002 -5.5080
# 5 5.0394 3.0810 2.0511 -0.0002 32.2833 0.0002
# 6 -0.0001 -0.0004 -0.0006 -5.5080 0.0002 10.9518
#
#
#
# Elastic Compliance Matrix: (Units=1/GPa)
#
#
# Indices 1 2 3 4 5 6 
#
# 1 0.014284 -0.007460 -0.003203 0.000000 -0.001314 0.000000
# 2 -0.007460 0.018065 -0.003928 0.000000 -0.000310 0.000000
# 3 -0.003203 -0.003928 0.022895 -0.000001 -0.000580 0.000001
# 4 0.000000 0.000000 -0.000001 0.046855 0.000000 0.023565
# 5 -0.001314 -0.000310 -0.000580 0.000000 0.031247 0.000000
# 6 0.000000 0.000000 0.000001 0.023565 0.000000 0.103161
#
#
# Mechanical properties :
#
#
# Convention : Reuss Voigt Hill
#
# Bulk Modulus (GPa) = 38.37229 44.86627 41.61928
# Shear Modulus (GPa) = 18.22313 22.83602 20.52958
#
# Velocity S-wave (km/s) = 3.01929 3.37990 3.20467
# Velocity P-wave (km/s) = 5.59916 6.13808 5.87480
#
# Compressibility (1/GPa) = 0.02606047
#
# Stress axis : x y z
#
# Youngs Moduli (GPa) = 70.00804 55.35612 43.67857
#
# Poissons Ratio (x) = 0.41295 0.13991
# Poissons Ratio (y) = 0.52226 0.17159
# Poissons Ratio (z) = 0.22425 0.21746
#
# Static dielectric constant tensor:
#      x y z
#    x 1.724440 0.000000 -0.002590 
#    y 0.000000 1.743390 0.000000 
#    z -0.002590 0.000000 1.711790 
# 
# From -- ./inp_files/271692.got.cif
#   From: 2010.05.17/outbox.cif.g08.bks.cpg/sg12_136_cif.got.tgz:271692.got - 2010.06.03 13:09:07.
