data_PCOD9209722
_publ_section_title
;
Structure prediction by ZEFSAII (Michael W. Deem and Ramdas Pophale) SiO2 
 PCOD9209722
Probable space group: C 2/M
;
_chemical_formula_sum "Si O2"
_cell_formula_units_Z 36
_cell_length_a 11.061387
_cell_length_b 21.749835
_cell_length_c 14.056222
_cell_angle_alpha 90.000000
_cell_angle_beta 146.531318
_cell_angle_gamma 90.000000
_cell_volume 1864.939699
_symmetry_space_group_name_H-M "C 2/M"
_symmetry_group_IT_number 12
_symmetry_cell_setting 'monoclinic'
loop_
_space_group_symop_operation_xyz
x,y,z
-x,y,-z
-x,-y,-z
x,-y,z
1/2+x,1/2+y,z
1/2-x,1/2+y,-z
1/2-x,1/2-y,-z
1/2+x,1/2-y,z
loop_
_atom_site_type_symbol
_atom_site_label
_atom_site_fract_x
_atom_site_fract_y
_atom_site_fract_z
Si Si1 0.500000 0.337461 0.000000
Si Si2 0.572087 0.624509 0.701314
Si Si3 0.651752 0.125767 0.308969
Si Si4 0.319905 0.429978 0.029323
Si Si5 0.883317 0.740880 0.186005
O O1 0.530120 0.381859 0.929596
O O2 0.286559 0.294423 0.856324
O O3 0.339906 0.604525 0.504760
O O4 0.744602 0.625201 0.728093
O O5 0.650157 0.582726 0.839390
O O6 0.554373 0.693735 0.730511
O O7 0.580003 0.194762 0.291066
O O8 0.429764 0.086441 0.162957
O O9 0.371758 0.500000 0.039772
O O10 0.750000 0.750000 0.000000
#
# Coordination Sequence:
#
# PCOD9209722 Si02
#       5
#     4   8   8   8   8
#     4  10  21  38  64  90 119 158 196 246 296 362
#     4  11  22  38  61  91 122 154 198 247 309 350
#     4  10  23  38  59  91 120 156 200 248 299 362
#     4  11  24  42  62  84 121 165 206 244 289 351
#     4  11  19  36  63  89 123 156 189 244 308 359
#
# _framework density 19.303573
#
# number of rings (size 3 to 8) (size 9 to 14) (size 15 to 20)
#    0.000    1.333    4.444    3.000    0.000    2.667 
#    0.000    5.556    0.000    6.667    0.000    0.000 
#    0.000    0.000    0.000    0.000    0.000    0.000 
#
# Total GULP energy -100566.929861 kJ/mol
# GULP energy per Si atom -5587.051659 kJ/mol
# Density = 1.925964 g / cm^3
# Si number density = 19.303573 Si / 1000 Ang^3
#
#
#
# Elastic Constant Matrix: (Units=GPa)
#
#
# Indices 1 2 3 4 5 6 
#
# 1 77.8447 7.8908 34.3469 -0.0001 1.9009 0.0000
# 2 7.8908 67.5354 13.8613 0.0000 -4.9825 -0.0001
# 3 34.3469 13.8613 79.2254 -0.0004 -3.3552 -0.0001
# 4 -0.0001 0.0000 -0.0004 -5.4912 -0.0001 9.2332
# 5 1.9009 -4.9825 -3.3552 -0.0001 22.8324 0.0000
# 6 0.0000 -0.0001 -0.0001 9.2332 0.0000 12.6903
#
#
#
# Elastic Compliance Matrix: (Units=1/GPa)
#
#
# Indices 1 2 3 4 5 6 
#
# 1 0.016036 -0.000632 -0.006947 0.000000 -0.002494 0.000000
# 2 -0.000632 0.015587 -0.002321 0.000000 0.003113 0.000000
# 3 -0.006947 -0.002321 0.016144 0.000000 0.002444 0.000000
# 4 0.000000 0.000000 0.000000 -0.081907 0.000000 0.059593
# 5 -0.002494 0.003113 0.002444 0.000000 0.045044 0.000001
# 6 0.000000 0.000000 0.000000 0.059593 0.000001 0.035442
#
#
# Mechanical properties :
#
#
# Convention : Reuss Voigt Hill
#
# Bulk Modulus (GPa) = 35.75759 37.42261 36.59010
# Shear Modulus (GPa) = 66.25259 17.24007 41.74633
#
# Velocity S-wave (km/s) = 5.86480 2.99172 4.65545
# Velocity P-wave (km/s) = 8.02653 5.60021 6.92053
#
# Compressibility (1/GPa) = 0.02796609
#
# Stress axis : x y z
#
# Youngs Moduli (GPa) = 62.35815 64.15617 61.94326
#
# Poissons Ratio (x) = 0.04053 0.43035
# Poissons Ratio (y) = 0.03940 0.14379
# Poissons Ratio (z) = 0.43323 0.14893
#
# Static dielectric constant tensor:
#      x y z
#    x 1.678410 0.000000 0.002230 
#    y 0.000000 1.659730 0.000000 
#    z 0.002230 0.000000 1.663620 
# 
# From -- ./inp_files/207867.got.cif
#   From: 2010.05.17/outbox.cif.g08.bks.cpg/sg12_104_cif.got.tgz:207867.got - 2010.06.03 13:09:07.
