data_PCOD9209047
_publ_section_title
;
Structure prediction by ZEFSAII (Michael W. Deem and Ramdas Pophale) SiO2 
 PCOD9209047
Probable space group: C 2/M
;
_chemical_formula_sum "Si O2"
_cell_formula_units_Z 50
_cell_length_a 18.985463
_cell_length_b 7.290711
_cell_length_c 16.299540
_cell_angle_alpha 90.000000
_cell_angle_beta 118.750100
_cell_angle_gamma 90.000000
_cell_volume 1978.018134
_symmetry_space_group_name_H-M "C 2/M"
_symmetry_group_IT_number 12
_symmetry_cell_setting 'monoclinic'
loop_
_space_group_symop_operation_xyz
x,y,z
-x,y,-z
-x,-y,-z
x,-y,z
1/2+x,1/2+y,z
1/2-x,1/2+y,-z
1/2-x,1/2-y,-z
1/2+x,1/2-y,z
loop_
_atom_site_type_symbol
_atom_site_label
_atom_site_fract_x
_atom_site_fract_y
_atom_site_fract_z
Si Si1 0.596321 0.722601 0.942004
Si Si2 0.206690 0.782354 0.145400
Si Si3 0.390454 0.716441 0.238764
Si Si4 0.206329 0.216691 0.562556
Si Si5 0.500000 0.000000 0.000000
Si Si6 0.444208 0.275494 0.612841
Si Si7 0.636099 0.705356 0.262777
O O1 0.585014 0.500000 0.939655
O O2 0.601283 0.779943 0.850270
O O3 0.677372 0.770041 0.038598
O O4 0.529972 0.838420 0.951623
O O5 0.299161 0.742304 0.213609
O O6 0.145475 0.702894 0.179278
O O7 0.197662 0.000000 0.146154
O O8 0.403322 0.500000 0.243154
O O9 0.463431 0.784134 0.336239
O O10 0.250000 0.250000 0.500000
O O11 0.116000 0.282619 0.493469
O O12 0.269595 0.305078 0.659174
O O13 0.204541 0.000000 0.580808
O O14 0.438139 0.500000 0.607964
O O15 0.409056 0.216608 0.682846
O O16 0.602096 0.500000 0.234469
#
# Coordination Sequence:
#
# PCOD9209047 Si02
#       7
#     8   8   8   8   2   8   8
#     4  10  24  43  63  90 127 160 193 244 304 349
#     4  10  22  39  59  83 118 159 195 239 294 352
#     4  10  21  38  61  83 113 158 200 240 292 357
#     4   9  16  30  51  78 110 143 182 235 294 352
#     4  12  26  40  68  98 120 152 204 256 284 366
#     4   8  16  32  55  80 108 145 189 237 297 351
#     4   9  18  34  56  79 110 149 191 238 295 349
#
# _framework density 25.277826999999998
#
# number of rings (size 3 to 8) (size 9 to 14) (size 15 to 20)
#    0.000    2.560    0.000    2.160    4.480    0.640 
#    0.000    4.800    0.000    4.800    0.000    0.000 
#    0.000    0.000    0.000    0.000    0.000    0.000 
#
# Total GULP energy -139339.726184 kJ/mol
# GULP energy per Si atom -5573.589047 kJ/mol
# Density = 2.522029 g / cm^3
# Si number density = 25.277827 Si / 1000 Ang^3
#
#
#
# Elastic Constant Matrix: (Units=GPa)
#
#
# Indices 1 2 3 4 5 6 
#
# 1 101.7103 -7.6186 29.2470 0.0000 32.0541 0.0000
# 2 -7.6186 114.1401 -17.3366 0.0000 -2.9692 0.0000
# 3 29.2470 -17.3366 61.9667 0.0000 33.7114 0.0000
# 4 0.0000 0.0000 0.0000 -13.3558 0.0000 8.6184
# 5 32.0541 -2.9692 33.7114 0.0000 58.8235 0.0000
# 6 0.0000 0.0000 0.0000 8.6184 0.0000 13.4265
#
#
#
# Elastic Compliance Matrix: (Units=1/GPa)
#
#
# Indices 1 2 3 4 5 6 
#
# 1 0.012280 0.000228 -0.003048 0.000000 -0.004933 0.000000
# 2 0.000228 0.009241 0.003330 0.000000 -0.001566 0.000000
# 3 -0.003048 0.003330 0.025447 0.000000 -0.012754 0.000000
# 4 0.000000 0.000000 0.000000 -0.052944 0.000000 0.033984
# 5 -0.004933 -0.001566 -0.012754 0.000000 0.026919 0.000000
# 6 0.000000 0.000000 0.000000 0.033984 0.000000 0.052665
#
#
# Mechanical properties :
#
#
# Convention : Reuss Voigt Hill
#
# Bulk Modulus (GPa) = 20.83858 31.82230 26.33044
# Shear Modulus (GPa) = 56.44352 30.01387 43.22869
#
# Velocity S-wave (km/s) = 4.73051 3.44955 4.13987
# Velocity P-wave (km/s) = 6.17241 5.33687 5.76979
#
# Compressibility (1/GPa) = 0.04798790
#
# Stress axis : x y z
#
# Youngs Moduli (GPa) = 81.43188 108.20849 39.29795
#
# Poissons Ratio (x) = -0.02471 0.11979
# Poissons Ratio (y) = -0.01859 -0.13085
# Poissons Ratio (z) = 0.24823 -0.36031
#
# Static dielectric constant tensor:
#      x y z
#    x 1.991730 0.000000 0.050060 
#    y 0.000000 -1.706890 0.000000 
#    z 0.050060 0.000000 2.040030 
# 
# From -- ./inp_files/274513.got.cif
#   From: 2010.05.17/outbox.cif.g08.bks.cpg/sg12_138_cif.got.tgz:274513.got - 2010.06.03 13:09:07.
