data_PCOD9209977
_publ_section_title
;
Structure prediction by ZEFSAII (Michael W. Deem and Ramdas Pophale) SiO2 
 PCOD9209977
Probable space group: C 2/M
;
_chemical_formula_sum "Si O2"
_cell_formula_units_Z 64
_cell_length_a 22.182740
_cell_length_b 22.876029
_cell_length_c 8.024721
_cell_angle_alpha 90.000000
_cell_angle_beta 124.764132
_cell_angle_gamma 90.000000
_cell_volume 3345.312397
_symmetry_space_group_name_H-M "C 2/M"
_symmetry_group_IT_number 12
_symmetry_cell_setting 'monoclinic'
loop_
_space_group_symop_operation_xyz
x,y,z
-x,y,-z
-x,-y,-z
x,-y,z
1/2+x,1/2+y,z
1/2-x,1/2+y,-z
1/2-x,1/2-y,-z
1/2+x,1/2-y,z
loop_
_atom_site_type_symbol
_atom_site_label
_atom_site_fract_x
_atom_site_fract_y
_atom_site_fract_z
Si Si1 0.094405 0.660043 0.479024
Si Si2 0.333904 0.755202 0.895339
Si Si3 0.793485 0.847317 0.289628
Si Si4 0.400617 0.065476 0.265861
Si Si5 0.274082 0.433158 0.953926
Si Si6 0.241843 0.146862 0.388719
Si Si7 0.086562 0.226826 0.654120
Si Si8 0.045816 0.652060 0.926374
O O1 0.071804 0.598465 0.525074
O O2 0.170262 0.653716 0.500440
O O3 0.106508 0.705839 0.645669
O O4 0.021482 0.683104 0.275296
O O5 0.268775 0.798608 0.853440
O O6 0.297237 0.708875 0.712958
O O7 0.374938 0.719106 0.105869
O O8 0.396270 0.799249 0.926463
O O9 0.798910 0.896086 0.154423
O O10 0.774127 0.869405 0.444830
O O11 0.870038 0.812832 0.408332
O O12 0.415762 0.105360 0.130221
O O13 0.427696 0.000000 0.287471
O O14 0.313540 0.063848 0.158356
O O15 0.302199 0.500000 0.993229
O O16 0.284687 0.398602 0.795902
O O17 0.000000 0.217243 0.500000
O O18 0.000000 0.621417 0.000000
#
# Coordination Sequence:
#
# PCOD9209977 Si02
#       8
#     8   8   8   8   8   8   8   8
#     4  11  21  38  55  84 119 159 206 246 304 357
#     4  12  21  38  58  89 128 161 203 253 306 369
#     4  12  23  39  66  93 122 163 205 252 310 372
#     4  10  21  39  58  77 111 164 216 253 291 341
#     4  10  22  42  66  90 120 161 210 259 302 358
#     4  11  24  39  63  95 123 162 206 255 308 369
#     4  12  22  37  60  90 125 161 197 250 317 380
#     4  12  24  34  54  85 125 163 200 251 301 354
#
# _framework density 19.131246999999998
#
# number of rings (size 3 to 8) (size 9 to 14) (size 15 to 20)
#    0.000    0.750    6.250    2.625    1.750    1.750 
#    0.000    0.000    0.000    0.375    0.000    0.875 
#    0.000    0.000    0.000    0.000    0.000    0.000 
#
# Total GULP energy -178553.963521 kJ/mol
# GULP energy per Si atom -5579.811360 kJ/mol
# Density = 1.908770 g / cm^3
# Si number density = 19.131247 Si / 1000 Ang^3
#
#
#
# Elastic Constant Matrix: (Units=GPa)
#
#
# Indices 1 2 3 4 5 6 
#
# 1 113.9501 43.5878 35.4024 0.0000 -7.8890 0.0000
# 2 43.5878 109.4646 39.9093 0.0000 -3.7408 0.0000
# 3 35.4024 39.9093 76.7662 0.0000 -14.2279 0.0000
# 4 0.0000 0.0000 0.0000 13.5489 0.0000 3.2325
# 5 -7.8890 -3.7408 -14.2279 0.0000 24.8633 0.0000
# 6 0.0000 0.0000 0.0000 3.2325 0.0000 14.8545
#
#
#
# Elastic Compliance Matrix: (Units=1/GPa)
#
#
# Indices 1 2 3 4 5 6 
#
# 1 0.011084 -0.003195 -0.003230 0.000000 0.001188 0.000000
# 2 -0.003195 0.012270 -0.005315 0.000000 -0.002209 0.000000
# 3 -0.003230 -0.005315 0.018951 0.000000 0.009020 0.000000
# 4 0.000000 0.000000 0.000000 0.077848 0.000000 -0.016941
# 5 0.001188 -0.002209 0.009020 0.000000 0.045426 0.000000
# 6 0.000000 0.000000 0.000000 -0.016941 0.000000 0.071006
#
#
# Mechanical properties :
#
#
# Convention : Reuss Voigt Hill
#
# Bulk Modulus (GPa) = 53.12292 59.77553 56.44922
# Shear Modulus (GPa) = 18.77296 22.73878 20.75587
#
# Velocity S-wave (km/s) = 3.13592 3.45130 3.29739
# Velocity P-wave (km/s) = 6.39843 6.86985 6.63832
#
# Compressibility (1/GPa) = 0.01882427
#
# Stress axis : x y z
#
# Youngs Moduli (GPa) = 90.22183 81.50053 52.76726
#
# Poissons Ratio (x) = 0.26041 0.17046
# Poissons Ratio (y) = 0.28827 0.28045
# Poissons Ratio (z) = 0.29145 0.43316
#
# Static dielectric constant tensor:
#      x y z
#    x 1.703390 0.000000 -0.054490 
#    y 0.000000 1.678490 0.000000 
#    z -0.054490 0.000000 1.758430 
# 
# From -- ./inp_files/90429.got.cif
#   From: 2010.05.17/outbox.cif.g08.bks.cpg/sg12_46_cif.got.tgz:90429.got - 2010.06.03 13:09:07.
