data_PCOD9209286
_publ_section_title
;
Structure prediction by ZEFSAII (Michael W. Deem and Ramdas Pophale) SiO2 
 PCOD9209286
Probable space group: C 2/M
;
_chemical_formula_sum "Si O2"
_cell_formula_units_Z 56
_cell_length_a 23.784026
_cell_length_b 19.305116
_cell_length_c 7.583821
_cell_angle_alpha 90.000000
_cell_angle_beta 51.320635
_cell_angle_gamma 90.000000
_cell_volume 2718.349570
_symmetry_space_group_name_H-M "C 2/M"
_symmetry_group_IT_number 12
_symmetry_cell_setting 'monoclinic'
loop_
_space_group_symop_operation_xyz
x,y,z
-x,y,-z
-x,-y,-z
x,-y,z
1/2+x,1/2+y,z
1/2-x,1/2+y,-z
1/2-x,1/2-y,-z
1/2+x,1/2-y,z
loop_
_atom_site_type_symbol
_atom_site_label
_atom_site_fract_x
_atom_site_fract_y
_atom_site_fract_z
Si Si1 0.134336 0.270170 0.847681
Si Si2 0.423295 0.819540 0.677510
Si Si3 0.735629 0.372978 0.373133
Si Si4 0.706386 0.077169 0.102122
Si Si5 0.508531 0.576728 0.271086
Si Si6 0.591026 0.705272 0.584328
Si Si7 0.171366 0.887224 0.857909
O O1 0.200277 0.322573 0.688134
O O2 0.091302 0.254334 0.754401
O O3 0.164870 0.196050 0.852556
O O4 0.087123 0.299825 0.098607
O O5 0.500000 0.855304 0.500000
O O6 0.355891 0.866134 0.753148
O O7 0.424182 0.749950 0.558559
O O8 0.671273 0.326324 0.419634
O O9 0.701996 0.410719 0.608217
O O10 0.766211 0.417446 0.153044
O O11 0.773152 0.092775 0.099108
O O12 0.679398 0.000000 0.190706
O O13 0.500000 0.579995 0.500000
O O14 0.483091 0.500000 0.264216
O O15 0.462775 0.640831 0.287686
O O16 0.591863 0.585408 0.056190
#
# Coordination Sequence:
#
# PCOD9209286 Si02
#       7
#     8   8   8   8   8   8   8
#     4  10  21  38  61  92 120 149 201 256 294 348
#     4  11  23  39  63  91 117 152 198 250 305 356
#     4  10  22  38  61  90 118 153 202 252 298 350
#     4  11  24  41  61  86 119 157 198 248 304 359
#     4  11  24  39  57  88 128 166 203 242 290 356
#     4  11  21  39  64  87 120 160 199 244 297 349
#     4  11  21  39  63  86 118 160 201 243 290 350
#
# _framework density 20.600735
#
# number of rings (size 3 to 8) (size 9 to 14) (size 15 to 20)
#    0.000    1.286    0.000    7.714    0.000   10.571 
#    0.000    7.143    0.000    2.571    0.000    6.000 
#    0.000    0.000    0.000    0.000    0.000    0.000 
#
# Total GULP energy -156666.975546 kJ/mol
# GULP energy per Si atom -5595.249127 kJ/mol
# Density = 2.055385 g / cm^3
# Si number density = 20.600735 Si / 1000 Ang^3
#
#
#
# Elastic Constant Matrix: (Units=GPa)
#
#
# Indices 1 2 3 4 5 6 
#
# 1 80.9258 11.6577 54.5814 0.0000 -6.4843 0.0000
# 2 11.6577 49.5131 42.6158 0.0000 -2.2651 0.0000
# 3 54.5814 42.6158 132.1184 0.0000 -12.1896 0.0000
# 4 0.0000 0.0000 0.0000 -27.3786 0.0000 -29.5200
# 5 -6.4843 -2.2651 -12.1896 0.0000 28.4291 0.0000
# 6 0.0000 0.0000 0.0000 -29.5200 0.0000 -37.1937
#
#
#
# Elastic Compliance Matrix: (Units=1/GPa)
#
#
# Indices 1 2 3 4 5 6 
#
# 1 0.017441 0.002865 -0.008060 0.000000 0.000750 0.000000
# 2 0.002865 0.028509 -0.010526 0.000000 -0.001588 0.000000
# 3 -0.008060 -0.010526 0.014626 0.000000 0.003594 0.000000
# 4 0.000000 0.000000 0.000000 -0.253224 0.000000 0.200980
# 5 0.000750 -0.001588 0.003594 0.000000 0.036761 0.000000
# 6 0.000000 0.000000 0.000000 0.200980 0.000000 -0.186401
#
#
# Mechanical properties :
#
#
# Convention : Reuss Voigt Hill
#
# Bulk Modulus (GPa) = 34.32459 53.36300 43.84379
# Shear Modulus (GPa) = -16.60383 3.01819 -6.79282
#
# Velocity S-wave (km/s) = -2.84206 1.21172 -1.81784
# Velocity P-wave (km/s) = 2.43480 5.28369 4.11373
#
# Compressibility (1/GPa) = 0.02913363
#
# Stress axis : x y z
#
# Youngs Moduli (GPa) = 57.33730 35.07635 68.37271
#
# Poissons Ratio (x) = -0.10051 0.55110
# Poissons Ratio (y) = -0.16429 0.71970
# Poissons Ratio (z) = 0.46215 0.36922
#
# Static dielectric constant tensor:
#      x y z
#    x 1.724340 0.000000 0.011280 
#    y 0.000000 1.712840 0.000000 
#    z 0.011280 0.000000 1.747960 
# 
# From -- ./inp_files/105948.got.cif
#   From: 2010.05.17/outbox.cif.g08.bks.cpg/sg12_53_cif.got.tgz:105948.got - 2010.06.03 13:09:07.
