data_PCOD9209470
_publ_section_title
;
Structure prediction by ZEFSAII (Michael W. Deem and Ramdas Pophale) SiO2 
 PCOD9209470
Probable space group: C 2/M
;
_chemical_formula_sum "Si O2"
_cell_formula_units_Z 56
_cell_length_a 22.151692
_cell_length_b 11.275983
_cell_length_c 11.995243
_cell_angle_alpha 90.000000
_cell_angle_beta 108.543076
_cell_angle_gamma 90.000000
_cell_volume 2840.648944
_symmetry_space_group_name_H-M "C 2/M"
_symmetry_group_IT_number 12
_symmetry_cell_setting 'monoclinic'
loop_
_space_group_symop_operation_xyz
x,y,z
-x,y,-z
-x,-y,-z
x,-y,z
1/2+x,1/2+y,z
1/2-x,1/2+y,-z
1/2-x,1/2-y,-z
1/2+x,1/2-y,z
loop_
_atom_site_type_symbol
_atom_site_label
_atom_site_fract_x
_atom_site_fract_y
_atom_site_fract_z
Si Si1 0.416603 0.307042 0.200205
Si Si2 0.901993 0.135812 0.438136
Si Si3 0.156528 0.736794 0.190640
Si Si4 0.440684 0.866603 0.028911
Si Si5 0.440869 0.364946 0.700090
Si Si6 0.792441 0.134382 0.990093
Si Si7 0.755117 0.135752 0.421276
O O1 0.409013 0.295564 0.327383
O O2 0.423221 0.186821 0.136406
O O3 0.485628 0.365955 0.220603
O O4 0.354815 0.366184 0.107162
O O5 0.937229 0.180042 0.569932
O O6 0.827944 0.132861 0.425501
O O7 0.923417 0.000000 0.427104
O O8 0.105553 0.792297 0.246864
O O9 0.184869 0.835818 0.123020
O O10 0.209812 0.668422 0.291390
O O11 0.118646 0.648578 0.087474
O O12 0.459220 0.000000 0.059730
O O13 0.500000 0.805320 0.000000
O O14 0.416671 0.500000 0.682182
O O15 0.764303 0.000000 0.979454
O O16 0.750000 0.250000 0.000000
O O17 0.750000 0.250000 0.500000
O O18 0.740193 0.000000 0.454070
#
# Coordination Sequence:
#
# PCOD9209470 Si02
#       7
#     8   8   8   8   8   8   8
#     4  11  22  39  64  93 123 163 209 261 318 379
#     4  10  21  38  62  91 126 162 201 255 317 380
#     4  11  22  39  63  95 125 164 213 262 318 379
#     4  10  21  39  60  85 121 168 212 255 311 376
#     4  11  21  36  62  93 127 161 202 256 318 377
#     4  11  25  42  65  93 130 169 218 273 325 382
#     4  11  23  41  65  93 126 168 213 263 314 378
#
# _framework density 19.713806000000002
#
# number of rings (size 3 to 8) (size 9 to 14) (size 15 to 20)
#    0.000    1.286    2.857    3.429    0.000    5.714 
#    0.000    2.857    0.000    0.857    0.000    0.000 
#    0.000    0.000    0.000    0.000    0.000    0.000 
#
# Total GULP energy -156119.851418 kJ/mol
# GULP energy per Si atom -5575.708979 kJ/mol
# Density = 1.966894 g / cm^3
# Si number density = 19.713806 Si / 1000 Ang^3
#
#
#
# Elastic Constant Matrix: (Units=GPa)
#
#
# Indices 1 2 3 4 5 6 
#
# 1 74.5873 38.2133 40.8392 0.0000 9.1536 0.0000
# 2 38.2133 92.5392 43.0765 0.0000 -14.1802 0.0000
# 3 40.8392 43.0765 128.9140 0.0000 -7.0456 0.0000
# 4 0.0000 0.0000 0.0000 -13.7128 0.0000 6.5637
# 5 9.1536 -14.1802 -7.0456 0.0000 44.3727 0.0000
# 6 0.0000 0.0000 0.0000 6.5637 0.0000 13.5294
#
#
#
# Elastic Compliance Matrix: (Units=1/GPa)
#
#
# Indices 1 2 3 4 5 6 
#
# 1 0.020610 -0.007596 -0.004394 0.000000 -0.007377 0.000000
# 2 -0.007596 0.016139 -0.002642 0.000000 0.006305 0.000000
# 3 -0.004394 -0.002642 0.010123 0.000000 0.001670 0.000000
# 4 0.000000 0.000000 0.000000 -0.059182 0.000000 0.028712
# 5 -0.007377 0.006305 0.001670 0.000000 0.026338 0.000000
# 6 0.000000 0.000000 0.000000 0.028712 0.000000 0.059984
#
#
# Mechanical properties :
#
#
# Convention : Reuss Voigt Hill
#
# Bulk Modulus (GPa) = 56.79110 60.03317 58.41213
# Shear Modulus (GPa) = 45.81081 20.43196 33.12139
#
# Velocity S-wave (km/s) = 4.82580 3.22285 4.10336
# Velocity P-wave (km/s) = 7.74090 6.66089 7.22112
#
# Compressibility (1/GPa) = 0.01760839
#
# Stress axis : x y z
#
# Youngs Moduli (GPa) = 48.52077 61.96300 98.78301
#
# Poissons Ratio (x) = 0.47064 0.43407
# Poissons Ratio (y) = 0.36854 0.26098
# Poissons Ratio (z) = 0.21321 0.16370
#
# Static dielectric constant tensor:
#      x y z
#    x 1.724200 0.000000 0.009380 
#    y 0.000000 1.718130 0.000000 
#    z 0.009380 0.000000 1.696560 
# 
# From -- ./inp_files/165733.got.cif
#   From: 2010.05.17/outbox.cif.g08.bks.cpg/sg12_83_cif.got.tgz:165733.got - 2010.06.03 13:09:07.
