data_PCOD9209168
_publ_section_title
;
Structure prediction by ZEFSAII (Michael W. Deem and Ramdas Pophale) SiO2 
 PCOD9209168
Probable space group: C 2/M
;
_chemical_formula_sum "Si O2"
_cell_formula_units_Z 56
_cell_length_a 19.425310
_cell_length_b 7.708331
_cell_length_c 18.876600
_cell_angle_alpha 90.000000
_cell_angle_beta 60.710771
_cell_angle_gamma 90.000000
_cell_volume 2465.181368
_symmetry_space_group_name_H-M "C 2/M"
_symmetry_group_IT_number 12
_symmetry_cell_setting 'monoclinic'
loop_
_space_group_symop_operation_xyz
x,y,z
-x,y,-z
-x,-y,-z
x,-y,z
1/2+x,1/2+y,z
1/2-x,1/2+y,-z
1/2-x,1/2-y,-z
1/2+x,1/2-y,z
loop_
_atom_site_type_symbol
_atom_site_label
_atom_site_fract_x
_atom_site_fract_y
_atom_site_fract_z
Si Si1 0.925404 0.211139 0.582019
Si Si2 0.499371 0.710836 0.687539
Si Si3 0.254201 0.294075 0.166513
Si Si4 0.083017 0.710322 0.992323
Si Si5 0.246411 0.202308 0.333644
Si Si6 0.614046 0.796124 0.135306
Si Si7 0.170260 0.192194 0.578896
O O1 0.840111 0.267934 0.599517
O O2 0.000000 0.271543 0.500000
O O3 0.938230 0.260467 0.656878
O O4 0.924884 0.000000 0.579623
O O5 0.502678 0.500000 0.689705
O O6 0.464958 0.775736 0.778461
O O7 0.584598 0.779319 0.619307
O O8 0.241608 0.500000 0.180331
O O9 0.340863 0.260481 0.091774
O O10 0.250141 0.217278 0.247406
O O11 0.187218 0.224619 0.145473
O O12 0.078971 0.500000 0.996744
O O13 0.099327 0.775461 0.064204
O O14 0.000000 0.770247 0.000000
O O15 0.309806 0.303723 0.347560
O O16 0.255096 0.000000 0.348478
O O17 0.631246 0.000000 0.117656
O O18 0.250000 0.250000 0.500000
O O19 0.156447 0.000000 0.557556
#
# Coordination Sequence:
#
# PCOD9209168 Si02
#       7
#     8   8   8   8   8   8   8
#     4   9  17  33  58  86 114 150 201 249 291 347
#     4  10  21  38  61  88 119 160 206 249 296 361
#     4  11  23  40  62  91 126 160 200 251 304 363
#     4  10  23  42  64  92 122 158 204 249 301 367
#     4  11  22  38  63  89 121 164 204 252 307 362
#     4  10  22  40  62  90 125 160 198 251 307 361
#     4  11  24  41  61  89 125 165 209 257 309 366
#
# _framework density 22.716380000000001
#
# number of rings (size 3 to 8) (size 9 to 14) (size 15 to 20)
#    0.000    1.714    1.429    2.571    2.000    4.857 
#    0.000    0.000    0.000    2.143    0.000    0.000 
#    0.000    0.000    0.000    0.000    0.000    0.000 
#
# Total GULP energy -156424.625482 kJ/mol
# GULP energy per Si atom -5586.593767 kJ/mol
# Density = 2.266468 g / cm^3
# Si number density = 22.716380 Si / 1000 Ang^3
#
#
#
# Elastic Constant Matrix: (Units=GPa)
#
#
# Indices 1 2 3 4 5 6 
#
# 1 112.5438 -0.6779 26.4969 -0.0002 -2.8135 -0.0003
# 2 -0.6779 39.8527 -9.8951 -0.0005 4.4054 -0.0006
# 3 26.4969 -9.8951 102.7035 0.0000 -1.3692 -0.0001
# 4 -0.0002 -0.0005 0.0000 25.0377 0.0000 -4.4335
# 5 -2.8135 4.4054 -1.3692 0.0000 42.8743 -0.0002
# 6 -0.0003 -0.0006 -0.0001 -4.4335 -0.0002 13.0136
#
#
#
# Elastic Compliance Matrix: (Units=1/GPa)
#
#
# Indices 1 2 3 4 5 6 
#
# 1 0.009483 -0.000523 -0.002489 0.000000 0.000597 0.000000
# 2 -0.000523 0.026021 0.002607 0.000001 -0.002625 0.000001
# 3 -0.002489 0.002607 0.010629 0.000000 -0.000092 0.000000
# 4 0.000000 0.000001 0.000000 0.042504 0.000000 0.014480
# 5 0.000597 -0.002625 -0.000092 0.000000 0.023630 0.000000
# 6 0.000000 0.000001 0.000000 0.014480 0.000000 0.081776
#
#
# Mechanical properties :
#
#
# Convention : Reuss Voigt Hill
#
# Bulk Modulus (GPa) = 22.06364 31.88308 26.97336
# Shear Modulus (GPa) = 23.81407 32.13020 27.97214
#
# Velocity S-wave (km/s) = 3.24129 3.76494 3.51289
# Velocity P-wave (km/s) = 4.87255 5.74155 5.32481
#
# Compressibility (1/GPa) = 0.04532344
#
# Stress axis : x y z
#
# Youngs Moduli (GPa) = 105.44963 38.43059 94.08347
#
# Poissons Ratio (x) = 0.02008 0.23418
# Poissons Ratio (y) = 0.05511 -0.24526
# Poissons Ratio (z) = 0.26247 -0.10018
#
# Static dielectric constant tensor:
#      x y z
#    x 1.825790 0.000000 0.011700 
#    y 0.000000 1.874920 0.000000 
#    z 0.011700 0.000000 1.833520 
# 
# From -- ./inp_files/275138.got.cif
#   From: 2010.05.17/outbox.cif.g08.bks.cpg/sg12_138_cif.got.tgz:275138.got - 2010.06.03 13:09:07.
