data_PCOD9209317
_publ_section_title
;
Structure prediction by ZEFSAII (Michael W. Deem and Ramdas Pophale) SiO2 
 PCOD9209317
Probable space group: C 2/M
;
_chemical_formula_sum "Si O2"
_cell_formula_units_Z 50
_cell_length_a 20.615945
_cell_length_b 13.535184
_cell_length_c 11.485256
_cell_angle_alpha 90.000000
_cell_angle_beta 47.671807
_cell_angle_gamma 90.000000
_cell_volume 2369.347191
_symmetry_space_group_name_H-M "C 2/M"
_symmetry_group_IT_number 12
_symmetry_cell_setting 'monoclinic'
loop_
_space_group_symop_operation_xyz
x,y,z
-x,y,-z
-x,-y,-z
x,-y,z
1/2+x,1/2+y,z
1/2-x,1/2+y,-z
1/2-x,1/2-y,-z
1/2+x,1/2-y,z
loop_
_atom_site_type_symbol
_atom_site_label
_atom_site_fract_x
_atom_site_fract_y
_atom_site_fract_z
Si Si1 0.378293 0.822850 0.654740
Si Si2 0.856844 0.109971 0.700234
Si Si3 0.000000 0.500000 0.500000
Si Si4 0.803583 0.112502 0.021908
Si Si5 0.909886 0.618260 0.353546
Si Si6 0.191390 0.387524 0.753153
Si Si7 0.553852 0.750004 0.048491
O O1 0.409311 0.711947 0.643445
O O2 0.280555 0.833760 0.823156
O O3 0.379776 0.843947 0.515059
O O4 0.437428 0.911684 0.631444
O O5 0.791909 0.121969 0.668906
O O6 0.897872 0.000000 0.645350
O O7 0.798993 0.110055 0.887849
O O8 0.803250 0.000000 0.065871
O O9 0.894690 0.165094 0.945489
O O10 0.930301 0.500000 0.341928
O O11 0.831944 0.628400 0.353404
O O12 0.989568 0.682714 0.204806
O O13 0.164795 0.500000 0.811621
O O14 0.130107 0.318142 0.903155
O O15 0.500000 0.713445 0.000000
#
# Coordination Sequence:
#
# PCOD9209317 Si02
#       7
#     8   8   2   8   8   8   8
#     4  12  24  43  63  98 132 165 209 266 326 381
#     4  10  23  41  65  95 123 176 218 260 308 384
#     4  12  28  40  66 100 132 160 198 272 336 370
#     4  11  23  42  65  90 126 167 219 262 317 384
#     4  10  21  38  62  96 130 164 208 272 326 369
#     4   9  18  36  62  92 126 162 214 258 309 376
#     4  10  21  38  61  94 124 171 212 262 315 374
#
# _framework density 21.102858999999999
#
# number of rings (size 3 to 8) (size 9 to 14) (size 15 to 20)
#    0.000    1.600    3.200    0.960    2.240    2.880 
#    2.880    1.200    0.000    0.000    0.000    0.000 
#    0.000    0.000    0.000    0.000    0.000    0.000 
#
# Total GULP energy -139344.274950 kJ/mol
# GULP energy per Si atom -5573.770998 kJ/mol
# Density = 2.105483 g / cm^3
# Si number density = 21.102859 Si / 1000 Ang^3
#
#
#
# Elastic Constant Matrix: (Units=GPa)
#
#
# Indices 1 2 3 4 5 6 
#
# 1 60.2234 33.0866 35.2232 0.0000 0.2808 0.0000
# 2 33.0866 167.7298 31.5253 0.0000 -3.9078 0.0000
# 3 35.2232 31.5253 81.1819 0.0000 0.0050 0.0000
# 4 0.0000 0.0000 0.0000 -5.6861 0.0000 -57.1531
# 5 0.2808 -3.9078 0.0050 0.0000 28.5613 0.0000
# 6 0.0000 0.0000 0.0000 -57.1531 0.0000 -70.9595
#
#
#
# Elastic Compliance Matrix: (Units=1/GPa)
#
#
# Indices 1 2 3 4 5 6 
#
# 1 0.023531 -0.002953 -0.009063 0.000000 -0.000634 0.000000
# 2 -0.002953 0.006824 -0.001369 0.000000 0.000963 0.000000
# 3 -0.009063 -0.001369 0.016782 0.000000 -0.000101 0.000000
# 4 0.000000 0.000000 0.000000 0.024785 0.000000 -0.019963
# 5 -0.000634 0.000963 -0.000101 0.000000 0.035150 0.000000
# 6 0.000000 0.000000 0.000000 -0.019963 0.000000 0.001986
#
#
# Mechanical properties :
#
#
# Convention : Reuss Voigt Hill
#
# Bulk Modulus (GPa) = 49.09800 56.53391 52.81595
# Shear Modulus (GPa) = 35.05904 4.33648 19.69776
#
# Velocity S-wave (km/s) = 4.08038 1.43506 3.05850
# Velocity P-wave (km/s) = 6.74654 5.44001 6.12819
#
# Compressibility (1/GPa) = 0.02036743
#
# Stress axis : x y z
#
# Youngs Moduli (GPa) = 42.49755 146.53714 59.58873
#
# Poissons Ratio (x) = 0.43274 0.54004
# Poissons Ratio (y) = 0.12550 0.08157
# Poissons Ratio (z) = 0.38514 0.20058
#
# Static dielectric constant tensor:
#      x y z
#    x 1.912760 0.000000 0.037130 
#    y 0.000000 1.800050 0.000000 
#    z 0.037130 0.000000 1.718360 
# 
# From -- ./inp_files/176418.got.cif
#   From: 2010.05.17/outbox.cif.g08.bks.cpg/sg12_89_cif.got.tgz:176418.got - 2010.06.03 13:09:07.
