data_PCOD9209908
_publ_section_title
;
Structure prediction by ZEFSAII (Michael W. Deem and Ramdas Pophale) SiO2 
 PCOD9209908
Probable space group: C 2/M
;
_chemical_formula_sum "Si O2"
_cell_formula_units_Z 40
_cell_length_a 10.864247
_cell_length_b 15.541585
_cell_length_c 10.002747
_cell_angle_alpha 90.000000
_cell_angle_beta 99.941514
_cell_angle_gamma 90.000000
_cell_volume 1663.579720
_symmetry_space_group_name_H-M "C 2/M"
_symmetry_group_IT_number 12
_symmetry_cell_setting 'monoclinic'
loop_
_space_group_symop_operation_xyz
x,y,z
-x,y,-z
-x,-y,-z
x,-y,z
1/2+x,1/2+y,z
1/2-x,1/2+y,-z
1/2-x,1/2-y,-z
1/2+x,1/2-y,z
loop_
_atom_site_type_symbol
_atom_site_label
_atom_site_fract_x
_atom_site_fract_y
_atom_site_fract_z
Si Si1 0.643985 0.176585 0.998974
Si Si2 0.195780 0.901722 0.744494
Si Si3 0.456598 0.095384 0.278451
Si Si4 0.528545 0.718639 0.347608
Si Si5 0.763984 0.905791 0.563964
O O1 0.694753 0.120890 0.132416
O O2 0.500000 0.207164 0.000000
O O3 0.750000 0.250000 0.000000
O O4 0.630410 0.115425 0.866513
O O5 0.232427 0.895471 0.594648
O O6 0.082641 0.834251 0.742606
O O7 0.154104 0.000000 0.758405
O O8 0.532042 0.183321 0.306691
O O9 0.370751 0.093807 0.394851
O O10 0.514644 0.000000 0.276851
O O11 0.500000 0.714159 0.500000
O O12 0.658146 0.669874 0.353490
O O13 0.822192 0.000000 0.602342
#
# Coordination Sequence:
#
# PCOD9209908 Si02
#       5
#     8   8   8   8   8
#     4  12  28  49  72 103 142 191 242 295 358 430
#     4  10  21  43  72 104 140 185 236 295 358 420
#     4  11  25  43  67 103 144 184 232 290 354 424
#     4  10  21  38  67 103 143 188 236 286 350 422
#     4   9  21  43  71 104 142 184 236 293 354 425
#
# _framework density 24.044536000000001
#
# number of rings (size 3 to 8) (size 9 to 14) (size 15 to 20)
#    0.000    1.600    2.000    1.200    2.800    9.200 
#    0.000    2.000    0.000    6.000    0.000    0.000 
#    0.000    0.000    0.000    0.000    0.000    0.000 
#
# Total GULP energy -111958.700787 kJ/mol
# GULP energy per Si atom -5597.935039 kJ/mol
# Density = 2.398981 g / cm^3
# Si number density = 24.044536 Si / 1000 Ang^3
#
#
#
# Elastic Constant Matrix: (Units=GPa)
#
#
# Indices 1 2 3 4 5 6 
#
# 1 87.4072 82.1414 25.0486 0.0000 17.0282 0.0000
# 2 82.1414 237.0679 50.0607 0.0000 27.8761 0.0000
# 3 25.0486 50.0607 83.1302 0.0000 17.1106 0.0000
# 4 0.0000 0.0000 0.0000 38.6276 0.0000 9.9556
# 5 17.0282 27.8761 17.1106 0.0000 42.6228 0.0000
# 6 0.0000 0.0000 0.0000 9.9556 0.0000 40.2296
#
#
#
# Elastic Compliance Matrix: (Units=1/GPa)
#
#
# Indices 1 2 3 4 5 6 
#
# 1 0.017509 -0.005430 -0.001414 0.000000 -0.002876 0.000000
# 2 -0.005430 0.006708 -0.002122 0.000000 -0.001366 0.000000
# 3 -0.001414 -0.002122 0.014532 0.000000 -0.003881 0.000000
# 4 0.000000 0.000000 0.000000 0.027652 0.000000 -0.006843
# 5 -0.002876 -0.001366 -0.003881 0.000000 0.027062 0.000000
# 6 0.000000 0.000000 0.000000 -0.006843 0.000000 0.026551
#
#
# Mechanical properties :
#
#
# Convention : Reuss Voigt Hill
#
# Bulk Modulus (GPa) = 48.03733 80.23408 64.13570
# Shear Modulus (GPa) = 34.50986 40.98629 37.74808
#
# Velocity S-wave (km/s) = 3.79258 4.13316 3.96652
# Velocity P-wave (km/s) = 6.26099 7.49791 6.90720
#
# Compressibility (1/GPa) = 0.02081715
#
# Stress axis : x y z
#
# Youngs Moduli (GPa) = 57.11356 149.06612 68.81221
#
# Poissons Ratio (x) = 0.80941 0.09729
# Poissons Ratio (y) = 0.31012 0.14605
# Poissons Ratio (z) = 0.08075 0.31639
#
# Static dielectric constant tensor:
#      x y z
#    x 1.932660 0.000000 0.013400 
#    y 0.000000 1.884220 0.000000 
#    z 0.013400 0.000000 1.940880 
# 
# From -- ./inp_files/129803.got.cif
#   From: 2010.05.17/outbox.cif.g08.bks.cpg/sg12_65_cif.got.tgz:129803.got - 2010.06.03 13:09:07.
