data_PCOD9209892
_publ_section_title
;
Structure prediction by ZEFSAII (Michael W. Deem and Ramdas Pophale) SiO2 
 PCOD9209892
Probable space group: C 2/M
;
_chemical_formula_sum "Si O2"
_cell_formula_units_Z 40
_cell_length_a 17.578516
_cell_length_b 14.194061
_cell_length_c 15.916219
_cell_angle_alpha 90.000000
_cell_angle_beta 26.594474
_cell_angle_gamma 90.000000
_cell_volume 1777.827158
_symmetry_space_group_name_H-M "C 2/M"
_symmetry_group_IT_number 12
_symmetry_cell_setting 'monoclinic'
loop_
_space_group_symop_operation_xyz
x,y,z
-x,y,-z
-x,-y,-z
x,-y,z
1/2+x,1/2+y,z
1/2-x,1/2+y,-z
1/2-x,1/2-y,-z
1/2+x,1/2-y,z
loop_
_atom_site_type_symbol
_atom_site_label
_atom_site_fract_x
_atom_site_fract_y
_atom_site_fract_z
Si Si1 0.866209 0.165318 0.461437
Si Si2 0.957195 0.000000 0.264200
Si Si3 0.340469 0.000000 0.917024
Si Si4 0.000000 0.170023 0.500000
Si Si5 0.986320 0.296355 0.810730
Si Si6 0.298212 0.500000 0.122696
Si Si7 0.674717 0.290727 0.874116
O O1 0.984209 0.249054 0.309311
O O2 0.675766 0.201112 0.662378
O O3 0.942541 0.121003 0.470498
O O4 0.859355 0.091032 0.392127
O O5 0.138662 0.000000 0.133510
O O6 0.019753 0.000000 0.106933
O O7 0.419272 0.903014 0.872270
O O8 0.341271 0.000000 0.814480
O O9 0.164096 0.231927 0.314353
O O10 0.867101 0.231327 0.986503
O O11 0.288812 0.400788 0.177291
O O12 0.500000 0.264396 0.000000
#
# Coordination Sequence:
#
# PCOD9209892 Si02
#       7
#     8   4   4   4   8   4   8
#     4  11  23  41  67  98 134 178 229 282 336 408
#     4  10  21  39  64  97 122 180 224 272 329 404
#     4  10  21  38  66  98 120 182 223 283 320 402
#     4  12  26  40  70 100 138 184 222 284 344 396
#     4  11  22  43  67  96 136 178 234 275 336 408
#     4  10  23  41  69  99 136 182 224 280 338 404
#     4  12  24  46  66 103 141 180 225 280 342 403
#
# _framework density 22.499376000000002
#
# number of rings (size 3 to 8) (size 9 to 14) (size 15 to 20)
#    0.600    0.400    4.000    3.300    0.000    3.200 
#    0.000    2.500    0.000    0.000    0.000    0.000 
#    0.000    0.000    0.000    0.000    0.000    0.000 
#
# Total GULP energy -111718.098247 kJ/mol
# GULP energy per Si atom -5585.904912 kJ/mol
# Density = 2.244817 g / cm^3
# Si number density = 22.499376 Si / 1000 Ang^3
#
#
#
# Elastic Constant Matrix: (Units=GPa)
#
#
# Indices 1 2 3 4 5 6 
#
# 1 68.9360 -20.0497 -2.6928 0.0001 -10.9787 0.0001
# 2 -20.0497 82.0266 9.8960 0.0003 -5.5710 0.0004
# 3 -2.6928 9.8960 81.5040 0.0005 -17.9201 0.0002
# 4 0.0001 0.0003 0.0005 25.7880 -0.0004 -6.8884
# 5 -10.9787 -5.5710 -17.9201 -0.0004 27.0157 0.0003
# 6 0.0001 0.0004 0.0002 -6.8884 0.0003 15.7629
#
#
#
# Elastic Compliance Matrix: (Units=1/GPa)
#
#
# Indices 1 2 3 4 5 6 
#
# 1 0.017443 0.004653 0.002085 0.000000 0.009431 -0.000001
# 2 0.004653 0.013690 -0.000553 0.000000 0.004347 -0.000001
# 3 0.002085 -0.000553 0.014712 0.000000 0.010492 -0.000001
# 4 0.000000 0.000000 0.000000 0.043902 0.000000 0.019185
# 5 0.009431 0.004347 0.010492 0.000000 0.048704 -0.000001
# 6 -0.000001 -0.000001 -0.000001 0.019185 -0.000001 0.071824
#
#
# Mechanical properties :
#
#
# Convention : Reuss Voigt Hill
#
# Bulk Modulus (GPa) = 17.17777 22.97482 20.07629
# Shear Modulus (GPa) = 23.00840 30.06752 26.53796
#
# Velocity S-wave (km/s) = 3.20132 3.65961 3.43811
# Velocity P-wave (km/s) = 4.61692 5.30004 4.97023
#
# Compressibility (1/GPa) = 0.05821479
#
# Stress axis : x y z
#
# Youngs Moduli (GPa) = 57.33032 73.04434 67.97066
#
# Poissons Ratio (x) = -0.33984 -0.14171
# Poissons Ratio (y) = -0.26673 0.03757
# Poissons Ratio (z) = -0.11953 0.04037
#
# Static dielectric constant tensor:
#      x y z
#    x 1.900580 0.000000 0.023810 
#    y 0.000000 1.834130 0.000000 
#    z 0.023810 0.000000 1.798840 
# 
# From -- ./inp_files/225601.got.cif
#   From: 2010.05.17/outbox.cif.g08.bks.cpg/sg12_113_cif.got.tgz:225601.got - 2010.06.03 13:09:07.
