data_PCOD9209489
_publ_section_title
;
Structure prediction by ZEFSAII (Michael W. Deem and Ramdas Pophale) SiO2 
 PCOD9209489
Probable space group: C 2/M
;
_chemical_formula_sum "Si O2"
_cell_formula_units_Z 56
_cell_length_a 20.080416
_cell_length_b 8.320795
_cell_length_c 18.248922
_cell_angle_alpha 90.000000
_cell_angle_beta 53.679039
_cell_angle_gamma 90.000000
_cell_volume 2456.712778
_symmetry_space_group_name_H-M "C 2/M"
_symmetry_group_IT_number 12
_symmetry_cell_setting 'monoclinic'
loop_
_space_group_symop_operation_xyz
x,y,z
-x,y,-z
-x,-y,-z
x,-y,z
1/2+x,1/2+y,z
1/2-x,1/2+y,-z
1/2-x,1/2-y,-z
1/2+x,1/2-y,z
loop_
_atom_site_type_symbol
_atom_site_label
_atom_site_fract_x
_atom_site_fract_y
_atom_site_fract_z
Si Si1 0.993959 0.817497 0.616125
Si Si2 0.860504 0.690460 0.803399
Si Si3 0.878526 0.683698 0.568606
Si Si4 0.415123 0.694114 0.215967
Si Si5 0.279016 0.190257 0.401927
Si Si6 0.686336 0.304173 0.860154
Si Si7 0.104879 0.194348 0.066487
O O1 0.944352 0.772539 0.721013
O O2 0.924949 0.793391 0.597326
O O3 0.068974 0.706598 0.540454
O O4 0.023508 0.000000 0.599518
O O5 0.869153 0.500000 0.788768
O O6 0.781441 0.745915 0.807815
O O7 0.845967 0.731974 0.897465
O O8 0.884572 0.500000 0.589848
O O9 0.785262 0.729968 0.613097
O O10 0.413022 0.500000 0.220187
O O11 0.370357 0.758606 0.317611
O O12 0.360859 0.750133 0.181540
O O13 0.509412 0.742177 0.140508
O O14 0.250000 0.250000 0.500000
O O15 0.270991 0.000000 0.404218
O O16 0.686352 0.500000 0.858308
O O17 0.638211 0.256411 0.965445
O O18 0.110082 0.000000 0.067086
#
# Coordination Sequence:
#
# PCOD9209489 Si02
#       7
#     8   8   8   8   8   8   8
#     4  11  22  38  61  90 123 162 207 253 305 370
#     4  11  22  36  58  88 126 166 208 256 313 371
#     4  11  22  40  63  89 121 158 204 256 312 370
#     4  10  21  40  66  92 121 160 210 263 318 375
#     4  12  26  43  63  89 124 164 209 258 312 372
#     4   9  19  38  64  91 120 162 211 259 311 374
#     4  10  21  38  62  92 125 161 207 261 319 376
#
# _framework density 22.794685999999999
#
# number of rings (size 3 to 8) (size 9 to 14) (size 15 to 20)
#    0.000    1.429    0.000    6.857    2.000    3.429 
#    0.000    2.143    0.000    1.714    0.000    0.000 
#    0.000    0.000    0.000    0.000    0.000    0.000 
#
# Total GULP energy -156744.482151 kJ/mol
# GULP energy per Si atom -5598.017220 kJ/mol
# Density = 2.274280 g / cm^3
# Si number density = 22.794686 Si / 1000 Ang^3
#
#
#
# Elastic Constant Matrix: (Units=GPa)
#
#
# Indices 1 2 3 4 5 6 
#
# 1 67.1851 -1.6239 2.8960 0.0001 -4.7757 -0.0001
# 2 -1.6239 48.7139 4.1035 0.0000 -4.9186 -0.0001
# 3 2.8960 4.1035 115.3796 0.0000 -6.2348 -0.0001
# 4 0.0001 0.0000 0.0000 27.1309 0.0000 1.0270
# 5 -4.7757 -4.9186 -6.2348 0.0000 39.6148 0.0000
# 6 -0.0001 -0.0001 -0.0001 1.0270 0.0000 19.3367
#
#
#
# Elastic Compliance Matrix: (Units=1/GPa)
#
#
# Indices 1 2 3 4 5 6 
#
# 1 0.015046 0.000714 -0.000303 0.000000 0.001855 0.000000
# 2 0.000714 0.020865 -0.000621 0.000000 0.002579 0.000000
# 3 -0.000303 -0.000621 0.008765 0.000000 0.001266 0.000000
# 4 0.000000 0.000000 0.000000 0.036933 0.000000 -0.001962
# 5 0.001855 0.002579 0.001266 0.000000 0.025986 0.000000
# 6 0.000000 0.000000 0.000000 -0.001962 0.000000 0.051819
#
#
# Mechanical properties :
#
#
# Convention : Reuss Voigt Hill
#
# Bulk Modulus (GPa) = 22.59484 26.89221 24.74352
# Shear Modulus (GPa) = 28.63936 32.27667 30.45802
#
# Velocity S-wave (km/s) = 3.54843 3.76702 3.65936
# Velocity P-wave (km/s) = 5.16936 5.54471 5.36032
#
# Compressibility (1/GPa) = 0.04425790
#
# Stress axis : x y z
#
# Youngs Moduli (GPa) = 66.46094 47.92825 114.08845
#
# Poissons Ratio (x) = -0.03424 0.03455
# Poissons Ratio (y) = -0.04748 0.07081
# Poissons Ratio (z) = 0.02013 0.02975
#
# Static dielectric constant tensor:
#      x y z
#    x 1.845750 0.000000 0.016680 
#    y 0.000000 1.779390 0.000000 
#    z 0.016680 0.000000 1.860930 
# 
# From -- ./inp_files/281032.got.cif
#   From: 2010.05.17/outbox.cif.g08.bks.cpg/sg12_141_cif.got.tgz:281032.got - 2010.06.03 13:09:07.
