data_PCOD9209422
_publ_section_title
;
Structure prediction by ZEFSAII (Michael W. Deem and Ramdas Pophale) SiO2 
 PCOD9209422
Probable space group: C 2/M
;
_chemical_formula_sum "Si O2"
_cell_formula_units_Z 56
_cell_length_a 27.102641
_cell_length_b 7.757118
_cell_length_c 12.901501
_cell_angle_alpha 90.000000
_cell_angle_beta 67.909092
_cell_angle_gamma 90.000000
_cell_volume 2513.269567
_symmetry_space_group_name_H-M "C 2/M"
_symmetry_group_IT_number 12
_symmetry_cell_setting 'monoclinic'
loop_
_space_group_symop_operation_xyz
x,y,z
-x,y,-z
-x,-y,-z
x,-y,z
1/2+x,1/2+y,z
1/2-x,1/2+y,-z
1/2-x,1/2-y,-z
1/2+x,1/2-y,z
loop_
_atom_site_type_symbol
_atom_site_label
_atom_site_fract_x
_atom_site_fract_y
_atom_site_fract_z
Si Si1 0.438680 0.788592 0.539723
Si Si2 0.953722 0.802125 0.108410
Si Si3 0.864798 0.288715 0.788935
Si Si4 0.130767 0.300265 0.985456
Si Si5 0.716336 0.206775 0.627985
Si Si6 0.753679 0.800224 0.168240
Si Si7 0.898039 0.701881 0.351153
O O1 0.500000 0.735363 0.500000
O O2 0.403021 0.733820 0.665469
O O3 0.414704 0.726968 0.449289
O O4 0.438258 0.000000 0.539553
O O5 0.942616 0.717895 0.227723
O O6 0.967869 0.000000 0.118290
O O7 0.900417 0.793694 0.081191
O O8 0.000000 0.724636 0.000000
O O9 0.864061 0.500000 0.789326
O O10 0.883100 0.234980 0.888909
O O11 0.803941 0.231180 0.818989
O O12 0.115290 0.500000 0.989135
O O13 0.194255 0.288370 0.920061
O O14 0.750000 0.250000 0.500000
O O15 0.740889 0.286400 0.711954
O O16 0.656700 0.273347 0.652671
O O17 0.714890 0.000000 0.645716
O O18 0.756370 0.000000 0.134935
O O19 0.887519 0.500000 0.376802
#
# Coordination Sequence:
#
# PCOD9209422 Si02
#       7
#     8   8   8   8   8   8   8
#     4   9  18  34  58  88 118 150 194 245 297 349
#     4  11  25  42  61  87 121 161 201 245 304 363
#     4   9  20  36  56  87 123 159 197 246 301 356
#     4  11  22  38  62  91 121 154 202 250 297 360
#     4  11  22  36  57  87 121 159 204 249 297 359
#     4  11  21  37  59  85 123 161 196 245 305 361
#     4  10  21  38  62  90 119 153 197 248 296 354
#
# _framework density 22.281732000000002
#
# number of rings (size 3 to 8) (size 9 to 14) (size 15 to 20)
#    0.000    1.714    1.429    3.000    2.000    4.000 
#    0.000    2.143    0.000    2.143    0.000    0.000 
#    0.000    0.000    0.000    0.000    0.000    0.000 
#
# Total GULP energy -156548.106497 kJ/mol
# GULP energy per Si atom -5591.003803 kJ/mol
# Density = 2.223102 g / cm^3
# Si number density = 22.281732 Si / 1000 Ang^3
#
#
#
# Elastic Constant Matrix: (Units=GPa)
#
#
# Indices 1 2 3 4 5 6 
#
# 1 47.4450 -0.5498 23.1374 0.0000 -5.6081 0.0000
# 2 -0.5498 36.2916 -12.5846 0.0000 2.6825 0.0000
# 3 23.1374 -12.5846 152.1282 0.0000 3.3945 0.0000
# 4 0.0000 0.0000 0.0000 11.8331 0.0000 -4.9407
# 5 -5.6081 2.6825 3.3945 0.0000 39.1980 0.0000
# 6 0.0000 0.0000 0.0000 -4.9407 0.0000 -1.0344
#
#
#
# Elastic Compliance Matrix: (Units=1/GPa)
#
#
# Indices 1 2 3 4 5 6 
#
# 1 0.023325 -0.001217 -0.003732 0.000000 0.003744 0.000000
# 2 -0.001217 0.028614 0.002605 0.000000 -0.002358 0.000000
# 3 -0.003732 0.002605 0.007387 0.000000 -0.001352 0.000000
# 4 0.000000 0.000000 0.000000 0.028222 0.000000 -0.134807
# 5 0.003744 -0.002358 -0.001352 0.000000 0.026326 0.000000
# 6 0.000000 0.000000 0.000000 -0.134807 0.000000 -0.322862
#
#
# Mechanical properties :
#
#
# Convention : Reuss Voigt Hill
#
# Bulk Modulus (GPa) = 18.30269 28.43009 23.36639
# Shear Modulus (GPa) = -26.86913 25.05679 -0.90617
#
# Velocity S-wave (km/s) = -3.47635 3.35706 -0.63841
# Velocity P-wave (km/s) = 2.80736 5.27385 3.15692
#
# Compressibility (1/GPa) = 0.05463677
#
# Stress axis : x y z
#
# Youngs Moduli (GPa) = 42.87180 34.94836 135.37981
#
# Poissons Ratio (x) = 0.04255 0.50522
# Poissons Ratio (y) = 0.05219 -0.35264
# Poissons Ratio (z) = 0.15999 -0.09103
#
# Static dielectric constant tensor:
#      x y z
#    x 1.814660 0.000000 -0.008750 
#    y 0.000000 1.828660 0.000000 
#    z -0.008750 0.000000 1.790580 
# 
# From -- ./inp_files/180751.got.cif
#   From: 2010.05.17/outbox.cif.g08.bks.cpg/sg12_91_cif.got.tgz:180751.got - 2010.06.03 13:09:07.
