data_PCOD9209858
_publ_section_title
;
Structure prediction by ZEFSAII (Michael W. Deem and Ramdas Pophale) SiO2 
 PCOD9209858
Probable space group: C 2/M
;
_chemical_formula_sum "Si O2"
_cell_formula_units_Z 58
_cell_length_a 28.874719
_cell_length_b 13.399572
_cell_length_c 21.587981
_cell_angle_alpha 90.000000
_cell_angle_beta 18.305434
_cell_angle_gamma 90.000000
_cell_volume 2623.399662
_symmetry_space_group_name_H-M "C 2/M"
_symmetry_group_IT_number 12
_symmetry_cell_setting 'monoclinic'
loop_
_space_group_symop_operation_xyz
x,y,z
-x,y,-z
-x,-y,-z
x,-y,z
1/2+x,1/2+y,z
1/2-x,1/2+y,-z
1/2-x,1/2-y,-z
1/2+x,1/2-y,z
loop_
_atom_site_type_symbol
_atom_site_label
_atom_site_fract_x
_atom_site_fract_y
_atom_site_fract_z
Si Si1 0.824650 0.613602 0.557596
Si Si2 0.190881 0.113829 0.508269
Si Si3 0.958691 0.618581 0.250607
Si Si4 0.767742 0.820242 0.803656
Si Si5 0.170021 0.692865 0.786429
Si Si6 0.000000 0.000000 0.500000
Si Si7 0.397560 0.196169 0.735877
Si Si8 0.394027 0.382046 0.832056
O O1 0.774004 0.500000 0.626028
O O2 0.905875 0.628198 0.388304
O O3 0.698289 0.695602 0.725191
O O4 0.950094 0.639268 0.448431
O O5 0.325092 0.159052 0.377224
O O6 0.240356 0.122434 0.373983
O O7 0.021202 0.147300 0.720550
O O8 0.183346 0.000000 0.539442
O O9 0.975727 0.500000 0.216050
O O10 0.116012 0.664562 0.034409
O O11 0.727187 0.812616 0.783289
O O12 0.846812 0.723880 0.731883
O O13 0.876362 0.913141 0.671720
O O14 0.000000 0.665106 0.000000
O O15 0.411178 0.303433 0.754310
O O16 0.267192 0.135686 0.935229
O O17 0.413333 0.500000 0.791268
#
# Coordination Sequence:
#
# PCOD9209858 Si02
#       8
#     8   8   8   8   8   2   8   8
#     4  11  25  47  71  94 133 181 235 289 345 403
#     4  10  22  39  65 100 139 172 216 277 345 412
#     4  10  21  42  69 101 130 177 228 275 342 402
#     4  12  26  41  65  99 140 181 229 274 343 416
#     4  12  26  45  66  99 135 185 228 280 349 416
#     4  12  28  40  62 100 146 180 222 276 340 408
#     4  11  23  41  62  97 136 175 226 278 339 410
#     4  10  21  38  65  98 135 173 217 282 347 396
#
# _framework density 22.108716999999999
#
# number of rings (size 3 to 8) (size 9 to 14) (size 15 to 20)
#    0.000    1.103    3.448    2.897    1.931    3.310 
#    0.000    2.069    0.000    0.000    0.000    0.000 
#    0.000    0.000    0.000    0.000    0.000    0.000 
#
# Total GULP energy -161923.792424 kJ/mol
# GULP energy per Si atom -5583.579049 kJ/mol
# Density = 2.205840 g / cm^3
# Si number density = 22.108717 Si / 1000 Ang^3
#
#
#
# Elastic Constant Matrix: (Units=GPa)
#
#
# Indices 1 2 3 4 5 6 
#
# 1 80.3154 -13.9428 -4.6717 0.0017 -12.4809 0.0016
# 2 -13.9428 80.3088 4.6727 0.0015 3.8797 0.0016
# 3 -4.6717 4.6727 73.8327 0.0023 -10.1540 0.0027
# 4 0.0017 0.0015 0.0023 -15.7979 -0.0011 -24.2408
# 5 -12.4809 3.8797 -10.1540 -0.0011 29.1624 -0.0012
# 6 0.0016 0.0016 0.0027 -24.2408 -0.0012 1.1032
#
#
#
# Elastic Compliance Matrix: (Units=1/GPa)
#
#
# Indices 1 2 3 4 5 6 
#
# 1 0.013861 0.002012 0.001606 0.000001 0.006223 0.000000
# 2 0.002012 0.012906 -0.000848 0.000001 -0.001151 0.000000
# 3 0.001606 -0.000848 0.014504 0.000001 0.005850 0.000000
# 4 0.000001 0.000001 0.000001 -0.001823 -0.000001 -0.040065
# 5 0.006223 -0.001151 0.005850 -0.000001 0.039144 0.000000
# 6 0.000000 0.000000 0.000000 -0.040065 0.000000 0.026110
#
#
# Mechanical properties :
#
#
# Convention : Reuss Voigt Hill
#
# Bulk Modulus (GPa) = 21.36241 22.95260 22.15750
# Shear Modulus (GPa) = 43.56708 19.45346 31.51027
#
# Velocity S-wave (km/s) = 4.44394 2.96953 3.77933
# Velocity P-wave (km/s) = 6.00124 4.70762 5.39336
#
# Compressibility (1/GPa) = 0.04681120
#
# Stress axis : x y z
#
# Youngs Moduli (GPa) = 72.14615 77.48188 68.94688
#
# Poissons Ratio (x) = -0.15592 -0.11070
# Poissons Ratio (y) = -0.14518 0.05845
# Poissons Ratio (z) = -0.11583 0.06569
#
# Static dielectric constant tensor:
#      x y z
#    x 1.845950 0.000000 -0.015660 
#    y 0.000000 1.810270 0.000000 
#    z -0.015660 0.000000 1.784470 
# 
# From -- ./inp_files/328395.got.cif
#   From: 2010.05.17/outbox.cif.g08.bks.cpg/sg12_165_cif.got.tgz:328395.got - 2010.06.03 13:09:07.
