data_PCOD9209597
_publ_section_title
;
Structure prediction by ZEFSAII (Michael W. Deem and Ramdas Pophale) SiO2 
 PCOD9209597
Probable space group: C 2/M
;
_chemical_formula_sum "Si O2"
_cell_formula_units_Z 64
_cell_length_a 25.331630
_cell_length_b 8.695241
_cell_length_c 14.702848
_cell_angle_alpha 90.000000
_cell_angle_beta 91.283589
_cell_angle_gamma 90.000000
_cell_volume 3237.704690
_symmetry_space_group_name_H-M "C 2/M"
_symmetry_group_IT_number 12
_symmetry_cell_setting 'monoclinic'
loop_
_space_group_symop_operation_xyz
x,y,z
-x,y,-z
-x,-y,-z
x,-y,z
1/2+x,1/2+y,z
1/2-x,1/2+y,-z
1/2-x,1/2-y,-z
1/2+x,1/2-y,z
loop_
_atom_site_type_symbol
_atom_site_label
_atom_site_fract_x
_atom_site_fract_y
_atom_site_fract_z
Si Si1 0.372417 0.818257 0.928515
Si Si2 0.334263 0.181148 0.492806
Si Si3 0.748239 0.320173 0.646296
Si Si4 0.556159 0.686126 0.545350
Si Si5 0.070528 0.815023 0.754627
Si Si6 0.988238 0.684049 0.895164
Si Si7 0.161724 0.182742 0.887899
Si Si8 0.269159 0.320493 0.839826
O O1 0.426430 0.782214 0.877937
O O2 0.320548 0.773247 0.871417
O O3 0.372980 0.000000 0.948924
O O4 0.370142 0.727199 0.023141
O O5 0.303389 0.271578 0.412245
O O6 0.298192 0.200575 0.581026
O O7 0.393268 0.244347 0.503717
O O8 0.335072 0.000000 0.471491
O O9 0.744323 0.500000 0.671753
O O10 0.755995 0.218352 0.735179
O O11 0.500000 0.730877 0.500000
O O12 0.559562 0.500000 0.542414
O O13 0.560818 0.736485 0.651102
O O14 0.126779 0.767348 0.799823
O O15 0.025705 0.759621 0.822381
O O16 0.070416 0.000000 0.754143
O O17 0.996460 0.500000 0.891239
O O18 0.000000 0.731566 0.000000
O O19 0.217669 0.266653 0.892756
O O20 0.170100 0.000000 0.884122
O O21 0.278815 0.500000 0.854725
#
# Coordination Sequence:
#
# PCOD9209597 Si02
#       8
#     8   8   8   8   8   8   8   8
#     4  11  23  40  60  84 119 158 197 245 302 358
#     4  10  21  38  63  91 118 154 200 248 300 355
#     4  10  21  39  62  89 121 155 195 243 299 360
#     4  10  22  40  60  86 123 164 204 250 304 359
#     4  10  22  38  61  90 118 155 201 249 301 356
#     4  10  21  39  62  87 115 151 197 247 298 352
#     4  11  22  38  60  86 118 156 200 248 302 359
#     4  12  25  39  58  87 121 157 200 244 297 357
#
# _framework density 19.767088999999999
#
# number of rings (size 3 to 8) (size 9 to 14) (size 15 to 20)
#    0.000    1.500    1.250    3.750    0.000    6.000 
#    0.000    2.500    0.000    0.000    0.000    0.000 
#    0.000    0.000    0.000    0.000    0.000    0.000 
#
# Total GULP energy -178907.487466 kJ/mol
# GULP energy per Si atom -5590.858983 kJ/mol
# Density = 1.972210 g / cm^3
# Si number density = 19.767089 Si / 1000 Ang^3
#
#
#
# Elastic Constant Matrix: (Units=GPa)
#
#
# Indices 1 2 3 4 5 6 
#
# 1 127.0965 16.7424 6.5876 0.0000 3.0836 0.0000
# 2 16.7424 19.2514 4.6850 0.0000 -4.2371 0.0000
# 3 6.5876 4.6850 26.7482 0.0000 3.9821 0.0000
# 4 0.0000 0.0000 0.0000 25.2856 0.0000 -3.7754
# 5 3.0836 -4.2371 3.9821 0.0000 23.7971 0.0000
# 6 0.0000 0.0000 0.0000 -3.7754 0.0000 31.5353
#
#
#
# Elastic Compliance Matrix: (Units=1/GPa)
#
#
# Indices 1 2 3 4 5 6 
#
# 1 0.009051 -0.008350 -0.000380 0.000000 -0.002596 0.000000
# 2 -0.008350 0.065236 -0.011548 0.000000 0.014630 0.000000
# 3 -0.000380 -0.011548 0.040818 0.000000 -0.008837 0.000000
# 4 0.000000 0.000000 0.000000 0.040268 0.000000 0.004821
# 5 -0.002596 0.014630 -0.008837 0.000000 0.046442 0.000000
# 6 0.000000 0.000000 0.000000 0.004821 0.000000 0.032288
#
#
# Mechanical properties :
#
#
# Convention : Reuss Voigt Hill
#
# Bulk Modulus (GPa) = 13.41402 25.45844 19.43623
# Shear Modulus (GPa) = 16.69410 25.79567 21.24489
#
# Velocity S-wave (km/s) = 2.90925 3.61637 3.28191
# Velocity P-wave (km/s) = 4.25273 5.50860 4.92090
#
# Compressibility (1/GPa) = 0.07454888
#
# Stress axis : x y z
#
# Youngs Moduli (GPa) = 110.48921 15.32891 24.49929
#
# Poissons Ratio (x) = 0.12800 0.00931
# Poissons Ratio (y) = 0.92258 0.28291
# Poissons Ratio (z) = 0.04199 0.17701
#
# Static dielectric constant tensor:
#      x y z
#    x 1.685440 0.000000 0.007120 
#    y 0.000000 1.664730 0.000000 
#    z 0.007120 0.000000 1.690230 
# 
# From -- ./inp_files/238623.got.cif
#   From: 2010.05.17/outbox.cif.g08.bks.cpg/sg12_120_cif.got.tgz:238623.got - 2010.06.03 13:09:07.
