data_PCOD9209608
_publ_section_title
;
Structure prediction by ZEFSAII (Michael W. Deem and Ramdas Pophale) SiO2 
 PCOD9209608
Probable space group: C 2/M
;
_chemical_formula_sum "Si O2"
_cell_formula_units_Z 64
_cell_length_a 23.222431
_cell_length_b 22.784178
_cell_length_c 6.419375
_cell_angle_alpha 90.000000
_cell_angle_beta 117.855067
_cell_angle_gamma 90.000000
_cell_volume 3002.970463
_symmetry_space_group_name_H-M "C 2/M"
_symmetry_group_IT_number 12
_symmetry_cell_setting 'monoclinic'
loop_
_space_group_symop_operation_xyz
x,y,z
-x,y,-z
-x,-y,-z
x,-y,z
1/2+x,1/2+y,z
1/2-x,1/2+y,-z
1/2-x,1/2-y,-z
1/2+x,1/2-y,z
loop_
_atom_site_type_symbol
_atom_site_label
_atom_site_fract_x
_atom_site_fract_y
_atom_site_fract_z
Si Si1 0.784162 0.804233 0.665948
Si Si2 0.556992 0.839407 0.757129
Si Si3 0.881881 0.569974 0.837652
Si Si4 0.246424 0.564607 0.112636
Si Si5 0.914613 0.209643 0.150478
Si Si6 0.168170 0.621530 0.657159
Si Si7 0.006967 0.905478 0.257793
Si Si8 0.857509 0.143102 0.412965
O O1 0.750000 0.750000 0.500000
O O2 0.727146 0.837932 0.685783
O O3 0.811974 0.841691 0.525480
O O4 0.847832 0.788615 0.907289
O O5 0.500000 0.853646 0.500000
O O6 0.549714 0.771897 0.818532
O O7 0.624317 0.842072 0.742432
O O8 0.568101 0.889526 0.948609
O O9 0.895536 0.500000 0.870801
O O10 0.808304 0.579162 0.805822
O O11 0.876710 0.596069 0.599249
O O12 0.271499 0.500000 0.200326
O O13 0.308544 0.606137 0.186708
O O14 0.202525 0.567938 0.833040
O O15 0.889855 0.197040 0.344043
O O16 0.960643 0.153083 0.179014
O O17 0.082859 0.892527 0.395582
O O18 0.000000 0.928217 0.500000
O O19 0.000000 0.930113 0.000000
#
# Coordination Sequence:
#
# PCOD9209608 Si02
#       8
#     8   8   8   8   8   8   8   8
#     4  12  23  33  59  94 124 162 204 264 325 391
#     4  11  25  43  61  91 125 168 214 263 318 391
#     4  10  22  42  64  89 122 161 208 268 326 386
#     4  10  21  38  63  91 123 161 210 265 323 389
#     4  11  23  40  60  90 132 173 211 256 326 396
#     4  11  22  40  62  91 122 161 212 263 328 384
#     4  10  21  39  63  91 127 180 222 260 318 402
#     4  11  21  38  61  90 126 163 212 261 327 386
#
# _framework density 21.312232000000002
#
# number of rings (size 3 to 8) (size 9 to 14) (size 15 to 20)
#    0.000    1.250    3.750    3.000    1.750    2.250 
#    2.250    0.625    0.000    3.750    0.000    0.000 
#    0.000    0.000    0.000    0.000    0.000    0.000 
#
# Total GULP energy -178194.057942 kJ/mol
# GULP energy per Si atom -5568.564311 kJ/mol
# Density = 2.126372 g / cm^3
# Si number density = 21.312232 Si / 1000 Ang^3
#
#
#
# Elastic Constant Matrix: (Units=GPa)
#
#
# Indices 1 2 3 4 5 6 
#
# 1 63.5947 0.5718 0.3484 0.0000 2.4816 0.0000
# 2 0.5718 46.6342 15.2543 0.0000 4.3443 0.0000
# 3 0.3484 15.2543 117.9002 0.0000 15.7364 0.0000
# 4 0.0000 0.0000 0.0000 4.2706 0.0000 1.5124
# 5 2.4816 4.3443 15.7364 0.0000 33.4381 0.0000
# 6 0.0000 0.0000 0.0000 1.5124 0.0000 4.3408
#
#
#
# Elastic Compliance Matrix: (Units=1/GPa)
#
#
# Indices 1 2 3 4 5 6 
#
# 1 0.015772 -0.000123 0.000132 0.000000 -0.001217 0.000000
# 2 -0.000123 0.022478 -0.002688 0.000000 -0.001646 0.000000
# 3 0.000132 -0.002688 0.009373 0.000000 -0.004071 0.000000
# 4 0.000000 0.000000 0.000000 0.267116 0.000000 -0.093065
# 5 -0.001217 -0.001646 -0.004071 0.000000 0.032126 0.000000
# 6 0.000000 0.000000 0.000000 -0.093065 0.000000 0.262796
#
#
# Mechanical properties :
#
#
# Convention : Reuss Voigt Hill
#
# Bulk Modulus (GPa) = 23.66108 28.94200 26.30154
# Shear Modulus (GPa) = 7.94776 22.54021 15.24399
#
# Velocity S-wave (km/s) = 1.93321 3.25563 2.67735
# Velocity P-wave (km/s) = 4.01364 5.26704 4.68246
#
# Compressibility (1/GPa) = 0.04226350
#
# Stress axis : x y z
#
# Youngs Moduli (GPa) = 63.40174 44.48862 106.69415
#
# Poissons Ratio (x) = 0.00548 -0.01405
# Poissons Ratio (y) = 0.00781 0.28681
# Poissons Ratio (z) = -0.00835 0.11959
#
# Static dielectric constant tensor:
#      x y z
#    x 1.763110 0.000000 -0.156770 
#    y 0.000000 1.794570 0.000000 
#    z -0.156770 0.000000 2.372450 
# 
# From -- ./inp_files/26224.got.cif
#   From: 2010.05.17/outbox.cif.g08.bks.cpg/sg12_14_cif.got.tgz:26224.got - 2010.06.03 13:09:07.
