data_PCOD9209338
_publ_section_title
;
Structure prediction by ZEFSAII (Michael W. Deem and Ramdas Pophale) SiO2 
 PCOD9209338
Probable space group: C 2/M
;
_chemical_formula_sum "Si O2"
_cell_formula_units_Z 36
_cell_length_a 19.065333
_cell_length_b 11.451801
_cell_length_c 7.076269
_cell_angle_alpha 90.000000
_cell_angle_beta 86.770769
_cell_angle_gamma 90.000000
_cell_volume 1542.525604
_symmetry_space_group_name_H-M "C 2/M"
_symmetry_group_IT_number 12
_symmetry_cell_setting 'monoclinic'
loop_
_space_group_symop_operation_xyz
x,y,z
-x,y,-z
-x,-y,-z
x,-y,z
1/2+x,1/2+y,z
1/2-x,1/2+y,-z
1/2-x,1/2-y,-z
1/2+x,1/2-y,z
loop_
_atom_site_type_symbol
_atom_site_label
_atom_site_fract_x
_atom_site_fract_y
_atom_site_fract_z
Si Si1 0.673446 0.704069 0.466401
Si Si2 0.548064 0.500000 0.202921
Si Si3 0.754952 0.628781 0.109667
Si Si4 0.104981 0.000000 0.622516
Si Si5 0.592994 0.133670 0.703362
Si Si6 0.500000 0.288563 0.000000
O O1 0.750000 0.750000 0.500000
O O2 0.691537 0.638120 0.270517
O O3 0.651582 0.613340 0.631445
O O4 0.613904 0.802718 0.501509
O O5 0.577216 0.500000 0.409858
O O6 0.463380 0.500000 0.244943
O O7 0.555504 0.376616 0.093873
O O8 0.748833 0.500000 0.015747
O O9 0.831745 0.629095 0.198511
O O10 0.750000 0.750000 0.000000
O O11 0.569496 0.000000 0.680482
O O12 0.538674 0.208528 0.837253
#
# Coordination Sequence:
#
# PCOD9209338 Si02
#       6
#     8   4   8   4   8   4
#     4  10  21  38  62  84 118 160 200 244 306 367
#     4  10  24  36  66  92 122 158 204 255 302 367
#     4  10  22  39  59  90 120 158 202 258 315 363
#     4  11  20  42  62  90 124 156 200 259 303 352
#     4  10  22  39  59  82 120 160 202 246 304 374
#     4  11  21  40  60  94 113 161 206 242 310 365
#
# _framework density 23.338348
#
# number of rings (size 3 to 8) (size 9 to 14) (size 15 to 20)
#    0.000    1.778    3.333    0.333    4.667    0.889 
#    8.000    0.000    0.000    1.333    0.000    0.000 
#    0.000    0.000    0.000    0.000    0.000    0.000 
#
# Total GULP energy -100336.247711 kJ/mol
# GULP energy per Si atom -5574.235984 kJ/mol
# Density = 2.328523 g / cm^3
# Si number density = 23.338348 Si / 1000 Ang^3
#
#
#
# Elastic Constant Matrix: (Units=GPa)
#
#
# Indices 1 2 3 4 5 6 
#
# 1 67.3345 17.6849 16.4637 0.0000 -17.5865 0.0000
# 2 17.6849 185.4063 36.0766 0.0000 -18.3226 0.0000
# 3 16.4637 36.0766 55.7505 0.0000 -27.9924 0.0000
# 4 0.0000 0.0000 0.0000 27.9372 0.0000 -19.1838
# 5 -17.5865 -18.3226 -27.9924 0.0000 41.4525 0.0000
# 6 0.0000 0.0000 0.0000 -19.1838 0.0000 33.3415
#
#
#
# Elastic Compliance Matrix: (Units=1/GPa)
#
#
# Indices 1 2 3 4 5 6 
#
# 1 0.016948 -0.000728 -0.001642 0.000000 0.005760 0.000000
# 2 -0.000728 0.006202 -0.003899 0.000000 -0.000200 0.000000
# 3 -0.001642 -0.003899 0.029851 0.000000 0.017738 0.000000
# 4 0.000000 0.000000 0.000000 0.059174 0.000000 0.034047
# 5 0.005760 -0.000200 0.017738 0.000000 0.038458 0.000000
# 6 0.000000 0.000000 0.000000 0.034047 0.000000 0.049582
#
#
# Mechanical properties :
#
#
# Convention : Reuss Voigt Hill
#
# Bulk Modulus (GPa) = 24.71333 49.88242 37.29788
# Shear Modulus (GPa) = 22.10032 36.43064 29.26548
#
# Velocity S-wave (km/s) = 3.08060 3.95521 3.54498
# Velocity P-wave (km/s) = 4.82344 6.50217 5.72467
#
# Compressibility (1/GPa) = 0.04046399
#
# Stress axis : x y z
#
# Youngs Moduli (GPa) = 59.00316 161.24232 33.49923
#
# Poissons Ratio (x) = 0.11737 0.05500
# Poissons Ratio (y) = 0.04295 0.13061
# Poissons Ratio (z) = 0.09688 0.62868
#
# Static dielectric constant tensor:
#      x y z
#    x 1.896190 0.000000 0.061570 
#    y 0.000000 2.019210 0.000000 
#    z 0.061570 0.000000 1.935170 
# 
# From -- ./inp_files/92664.got.cif
#   From: 2010.05.17/outbox.cif.g08.bks.cpg/sg12_47_cif.got.tgz:92664.got - 2010.06.03 13:09:07.
