data_PCOD9209765
_publ_section_title
;
Structure prediction by ZEFSAII (Michael W. Deem and Ramdas Pophale) SiO2 
 PCOD9209765
Probable space group: C 2/M
;
_chemical_formula_sum "Si O2"
_cell_formula_units_Z 56
_cell_length_a 9.179535
_cell_length_b 22.081720
_cell_length_c 18.568258
_cell_angle_alpha 90.000000
_cell_angle_beta 133.698300
_cell_angle_gamma 90.000000
_cell_volume 2721.169647
_symmetry_space_group_name_H-M "C 2/M"
_symmetry_group_IT_number 12
_symmetry_cell_setting 'monoclinic'
loop_
_space_group_symop_operation_xyz
x,y,z
-x,y,-z
-x,-y,-z
x,-y,z
1/2+x,1/2+y,z
1/2-x,1/2+y,-z
1/2-x,1/2-y,-z
1/2+x,1/2-y,z
loop_
_atom_site_type_symbol
_atom_site_label
_atom_site_fract_x
_atom_site_fract_y
_atom_site_fract_z
Si Si1 0.345383 0.932445 0.277462
Si Si2 0.849916 0.831937 0.500550
Si Si3 0.094234 0.176626 0.235123
Si Si4 0.821982 0.436642 0.496460
Si Si5 0.017657 0.255657 0.666788
Si Si6 0.744299 0.572383 0.077850
Si Si7 0.691833 0.182273 0.010792
O O1 0.216133 0.885716 0.279824
O O2 0.566607 0.934595 0.387908
O O3 0.332636 0.917463 0.188579
O O4 0.259342 0.000000 0.255716
O O5 0.797068 0.875281 0.547937
O O6 0.977058 0.776232 0.576049
O O7 0.649606 0.808325 0.393449
O O8 0.000000 0.866795 0.500000
O O9 0.034669 0.210804 0.287178
O O10 0.256702 0.220122 0.250834
O O11 0.891547 0.165080 0.122977
O O12 0.708692 0.500000 0.450273
O O13 0.000000 0.436599 0.500000
O O14 0.783269 0.500000 0.071720
O O15 0.500000 0.578522 0.000000
O O16 0.826097 0.627017 0.054187
O O17 0.500000 0.185629 0.000000
O O18 0.750000 0.250000 0.000000
#
# Coordination Sequence:
#
# PCOD9209765 Si02
#       7
#     8   8   8   8   8   8   8
#     4  10  21  39  68  96 123 170 221 260 316 391
#     4  11  22  38  58  90 128 160 209 260 316 382
#     4  12  23  42  63  90 126 168 213 266 320 390
#     4  10  21  38  64  94 126 168 215 264 318 381
#     4  11  24  38  60  92 122 169 208 258 320 387
#     4  10  21  42  70  97 130 174 219 268 333 408
#     4  12  27  43  64  98 134 169 217 279 342 392
#
# _framework density 20.579386
#
# number of rings (size 3 to 8) (size 9 to 14) (size 15 to 20)
#    0.000    1.143    4.286    2.143    2.000    0.571 
#    2.571    0.000    0.000    0.000    0.000    0.000 
#    0.000    0.000    0.000    0.000    0.000    0.000 
#
# Total GULP energy -156071.116117 kJ/mol
# GULP energy per Si atom -5573.968433 kJ/mol
# Density = 2.053255 g / cm^3
# Si number density = 20.579386 Si / 1000 Ang^3
#
#
#
# Elastic Constant Matrix: (Units=GPa)
#
#
# Indices 1 2 3 4 5 6 
#
# 1 105.0708 41.5254 26.9172 0.0000 -3.8910 0.0000
# 2 41.5254 92.3874 32.9263 0.0000 -17.4276 0.0000
# 3 26.9172 32.9263 41.2462 0.0000 -8.0977 0.0000
# 4 0.0000 0.0000 0.0000 82.7300 0.0000 16.9558
# 5 -3.8910 -17.4276 -8.0977 0.0000 31.8748 0.0000
# 6 0.0000 0.0000 0.0000 16.9558 0.0000 10.7333
#
#
#
# Elastic Compliance Matrix: (Units=1/GPa)
#
#
# Indices 1 2 3 4 5 6 
#
# 1 0.012399 -0.004099 -0.005223 0.000000 -0.002055 0.000000
# 2 -0.004099 0.017450 -0.009977 0.000000 0.006505 0.000000
# 3 -0.005223 -0.009977 0.036229 0.000000 0.003111 0.000000
# 4 0.000000 0.000000 0.000000 0.017875 0.000000 -0.028237
# 5 -0.002055 0.006505 0.003111 0.000000 0.035469 0.000000
# 6 0.000000 0.000000 0.000000 -0.028237 0.000000 0.137775
#
#
# Mechanical properties :
#
#
# Convention : Reuss Voigt Hill
#
# Bulk Modulus (GPa) = 36.39187 49.04915 42.72051
# Shear Modulus (GPa) = 16.39584 34.22333 25.30958
#
# Velocity S-wave (km/s) = 2.82567 4.08240 3.51073
# Velocity P-wave (km/s) = 5.32616 6.79023 6.10226
#
# Compressibility (1/GPa) = 0.02747867
#
# Stress axis : x y z
#
# Youngs Moduli (GPa) = 80.64910 57.30809 27.60255
#
# Poissons Ratio (x) = 0.23493 0.14416
# Poissons Ratio (y) = 0.33061 0.27540
# Poissons Ratio (z) = 0.42121 0.57178
#
# Static dielectric constant tensor:
#      x y z
#    x 1.754010 0.000000 -0.017010 
#    y 0.000000 1.802240 0.000000 
#    z -0.017010 0.000000 1.744450 
# 
# From -- ./inp_files/259229.got.cif
#   From: 2010.05.17/outbox.cif.g08.bks.cpg/sg12_130_cif.got.tgz:259229.got - 2010.06.03 13:09:07.
