data_PCOD9209434
_publ_section_title
;
Structure prediction by ZEFSAII (Michael W. Deem and Ramdas Pophale) SiO2 
 PCOD9209434
Probable space group: C 2/M
;
_chemical_formula_sum "Si O2"
_cell_formula_units_Z 60
_cell_length_a 25.621453
_cell_length_b 7.591620
_cell_length_c 19.272812
_cell_angle_alpha 90.000000
_cell_angle_beta 138.246725
_cell_angle_gamma 90.000000
_cell_volume 2496.365490
_symmetry_space_group_name_H-M "C 2/M"
_symmetry_group_IT_number 12
_symmetry_cell_setting 'monoclinic'
loop_
_space_group_symop_operation_xyz
x,y,z
-x,y,-z
-x,-y,-z
x,-y,z
1/2+x,1/2+y,z
1/2-x,1/2+y,-z
1/2-x,1/2-y,-z
1/2+x,1/2-y,z
loop_
_atom_site_type_symbol
_atom_site_label
_atom_site_fract_x
_atom_site_fract_y
_atom_site_fract_z
Si Si1 0.816225 0.700789 0.777214
Si Si2 0.334838 0.289642 0.552904
Si Si3 0.573571 0.797005 0.484875
Si Si4 0.878343 0.000000 0.092309
Si Si5 0.335088 0.297330 0.296571
Si Si6 0.429161 0.298575 0.773564
Si Si7 0.420920 0.203092 0.249122
Si Si8 0.580807 0.698317 0.996380
O O1 0.799599 0.500000 0.737650
O O2 0.738760 0.779414 0.734989
O O3 0.855097 0.797876 0.751076
O O4 0.878363 0.701232 0.901559
O O5 0.342665 0.500000 0.557713
O O6 0.250000 0.250000 0.500000
O O7 0.353185 0.218069 0.495367
O O8 0.399907 0.221313 0.672324
O O9 0.594787 0.707237 0.577976
O O10 0.500016 0.732752 0.366958
O O11 0.557815 0.000000 0.485327
O O12 0.897409 0.843132 0.167985
O O13 0.867033 0.847422 0.018982
O O14 0.316055 0.500000 0.260985
O O15 0.357369 0.203845 0.248009
O O16 0.457571 0.500000 0.786853
O O17 0.501489 0.218297 0.886876
O O18 0.431404 0.000000 0.235157
O O19 0.561786 0.500000 0.005646
#
# Coordination Sequence:
#
# PCOD9209434 Si02
#       8
#     8   8   8   4   8   8   8   8
#     4  11  24  40  62  94 133 167 223 281 335 391
#     4  11  23  38  60  90 132 175 216 264 330 396
#     4  11  24  39  62  99 132 170 220 274 326 402
#     4  10  22  44  70  96 132 170 218 278 336 400
#     4  11  24  42  65  93 132 179 222 272 338 399
#     4  10  21  38  62  90 121 173 219 265 321 407
#     4  11  24  42  70 101 134 171 225 279 337 399
#     4   9  21  40  65  90 121 166 223 264 329 401
#
# _framework density 24.034942000000001
#
# number of rings (size 3 to 8) (size 9 to 14) (size 15 to 20)
#    0.400    1.067    0.667    4.000    3.733    9.600 
#    0.000    0.667    0.000    0.000    0.000    0.000 
#    0.000    0.000    0.000    0.000    0.000    0.000 
#
# Total GULP energy -167209.266222 kJ/mol
# GULP energy per Si atom -5573.642207 kJ/mol
# Density = 2.398024 g / cm^3
# Si number density = 24.034942 Si / 1000 Ang^3
#
#
#
# Elastic Constant Matrix: (Units=GPa)
#
#
# Indices 1 2 3 4 5 6 
#
# 1 78.6690 1.0099 17.7367 0.0000 -18.1078 0.0000
# 2 1.0099 85.5965 -1.7570 -0.0001 -13.4961 0.0000
# 3 17.7367 -1.7570 58.4662 0.0000 -16.3201 0.0000
# 4 0.0000 -0.0001 0.0000 10.6702 0.0000 9.7285
# 5 -18.1078 -13.4961 -16.3201 0.0000 37.7797 0.0000
# 6 0.0000 0.0000 0.0000 9.7285 0.0000 9.4343
#
#
#
# Elastic Compliance Matrix: (Units=1/GPa)
#
#
# Indices 1 2 3 4 5 6 
#
# 1 0.014732 0.000739 -0.002732 0.000000 0.006145 0.000000
# 2 0.000739 0.012591 0.001715 0.000003 0.005593 -0.000003
# 3 -0.002732 0.001715 0.020229 0.000002 0.008042 -0.000002
# 4 0.000000 0.000003 0.000002 1.566837 0.000003 -1.615700
# 5 0.006145 0.005593 0.008042 0.000003 0.034887 -0.000003
# 6 0.000000 -0.000003 -0.000002 -1.615700 -0.000003 1.772083
#
#
# Mechanical properties :
#
#
# Convention : Reuss Voigt Hill
#
# Bulk Modulus (GPa) = 21.27751 28.52342 24.90047
# Shear Modulus (GPa) = 1.45451 25.29298 13.37375
#
# Velocity S-wave (km/s) = 0.77877 3.24750 2.36143
# Velocity P-wave (km/s) = 3.11137 5.09460 4.22111
#
# Compressibility (1/GPa) = 0.04699797
#
# Stress axis : x y z
#
# Youngs Moduli (GPa) = 67.87779 79.42112 49.43400
#
# Poissons Ratio (x) = -0.05869 0.13504
# Poissons Ratio (y) = -0.05016 -0.08480
# Poissons Ratio (z) = 0.18542 -0.13624
#
# Static dielectric constant tensor:
#      x y z
#    x 1.955470 0.000000 0.090170 
#    y 0.000000 1.887920 0.000000 
#    z 0.090170 0.000000 1.956820 
# 
# From -- ./inp_files/327290.got.cif
#   From: 2010.05.17/outbox.cif.g08.bks.cpg/sg12_164_cif.got.tgz:327290.got - 2010.06.03 13:09:07.
