data_PCOD9209780
_publ_section_title
;
Structure prediction by ZEFSAII (Michael W. Deem and Ramdas Pophale) SiO2 
 PCOD9209780
Probable space group: C 2/M
;
_chemical_formula_sum "Si O2"
_cell_formula_units_Z 48
_cell_length_a 14.979761
_cell_length_b 10.437072
_cell_length_c 16.824244
_cell_angle_alpha 90.000000
_cell_angle_beta 126.281488
_cell_angle_gamma 90.000000
_cell_volume 2120.403722
_symmetry_space_group_name_H-M "C 2/M"
_symmetry_group_IT_number 12
_symmetry_cell_setting 'monoclinic'
loop_
_space_group_symop_operation_xyz
x,y,z
-x,y,-z
-x,-y,-z
x,-y,z
1/2+x,1/2+y,z
1/2-x,1/2+y,-z
1/2-x,1/2-y,-z
1/2+x,1/2-y,z
loop_
_atom_site_type_symbol
_atom_site_label
_atom_site_fract_x
_atom_site_fract_y
_atom_site_fract_z
Si Si1 0.695281 0.776757 0.385903
Si Si2 0.440499 0.149178 0.054860
Si Si3 0.605102 0.360151 0.198551
Si Si4 0.727011 0.354772 0.093154
Si Si5 0.446884 0.856484 0.288548
Si Si6 0.395599 0.637210 0.386121
O O1 0.750000 0.750000 0.500000
O O2 0.668517 0.655390 0.315277
O O3 0.576446 0.842053 0.337657
O O4 0.784616 0.851417 0.379599
O O5 0.523891 0.239917 0.147724
O O6 0.332336 0.236729 0.981387
O O7 0.426077 0.000000 0.071287
O O8 0.500000 0.142011 0.000000
O O9 0.549745 0.500000 0.166596
O O10 0.682321 0.353309 0.161076
O O11 0.701279 0.500000 0.049759
O O12 0.859094 0.340201 0.170538
O O13 0.413067 0.751043 0.334543
O O14 0.428083 0.000000 0.309610
O O15 0.500000 0.640247 0.500000
O O16 0.394795 0.500000 0.342903
#
# Coordination Sequence:
#
# PCOD9209780 Si02
#       6
#     8   8   8   8   8   8
#     4  12  25  43  66 100 135 177 225 281 330 390
#     4   9  18  34  61  96 131 168 213 268 334 396
#     4  10  21  38  64  95 130 173 223 274 330 394
#     4   9  18  37  64  94 128 168 217 270 328 393
#     4  11  24  43  67  98 132 176 224 275 331 395
#     4  11  24  44  65  93 131 176 223 279 337 390
#
# _framework density 22.637198000000001
#
# number of rings (size 3 to 8) (size 9 to 14) (size 15 to 20)
#    0.000    1.667    3.333    1.000    0.000    6.333 
#    0.000    0.833    0.000    0.000    0.000    0.000 
#    0.000    0.000    0.000    0.000    0.000    0.000 
#
# Total GULP energy -134063.321435 kJ/mol
# GULP energy per Si atom -5585.971726 kJ/mol
# Density = 2.258568 g / cm^3
# Si number density = 22.637198 Si / 1000 Ang^3
#
#
#
# Elastic Constant Matrix: (Units=GPa)
#
#
# Indices 1 2 3 4 5 6 
#
# 1 148.5011 76.9376 35.9814 0.0000 18.7181 0.0000
# 2 76.9376 211.9436 74.0767 0.0000 13.8408 0.0000
# 3 35.9814 74.0767 118.3171 0.0000 16.5887 0.0000
# 4 0.0000 0.0000 0.0000 16.7725 0.0000 2.2618
# 5 18.7181 13.8408 16.5887 0.0000 42.1269 0.0000
# 6 0.0000 0.0000 0.0000 2.2618 0.0000 24.7513
#
#
#
# Elastic Compliance Matrix: (Units=1/GPa)
#
#
# Indices 1 2 3 4 5 6 
#
# 1 0.008641 -0.002783 -0.000503 0.000000 -0.002727 0.000000
# 2 -0.002783 0.006947 -0.003553 0.000000 0.000353 0.000000
# 3 -0.000503 -0.003553 0.011256 0.000000 -0.003041 0.000000
# 4 0.000000 0.000000 0.000000 0.060365 0.000000 -0.005516
# 5 -0.002727 0.000353 -0.003041 0.000000 0.026031 0.000000
# 6 0.000000 0.000000 0.000000 -0.005516 0.000000 0.040906
#
#
# Mechanical properties :
#
#
# Convention : Reuss Voigt Hill
#
# Bulk Modulus (GPa) = 75.95047 94.75037 85.35042
# Shear Modulus (GPa) = 29.03375 36.18121 32.60748
#
# Velocity S-wave (km/s) = 3.58518 4.00222 3.79943
# Velocity P-wave (km/s) = 7.12475 7.95638 7.55202
#
# Compressibility (1/GPa) = 0.01316648
#
# Stress axis : x y z
#
# Youngs Moduli (GPa) = 115.72106 143.94447 88.84473
#
# Poissons Ratio (x) = 0.40059 0.04471
# Poissons Ratio (y) = 0.32205 0.31564
# Poissons Ratio (z) = 0.05823 0.51139
#
# Static dielectric constant tensor:
#      x y z
#    x 1.889370 0.000000 -0.028880 
#    y 0.000000 1.810620 0.000000 
#    z -0.028880 0.000000 1.863460 
# 
# From -- ./inp_files/213529.got.cif
#   From: 2010.05.17/outbox.cif.g08.bks.cpg/sg12_107_cif.got.tgz:213529.got - 2010.06.03 13:09:07.
