data_PCOD9209339
_publ_section_title
;
Structure prediction by ZEFSAII (Michael W. Deem and Ramdas Pophale) SiO2 
 PCOD9209339
Probable space group: C 2/M
;
_chemical_formula_sum "Si O2"
_cell_formula_units_Z 64
_cell_length_a 27.862732
_cell_length_b 13.150008
_cell_length_c 9.490328
_cell_angle_alpha 90.000000
_cell_angle_beta 60.291605
_cell_angle_gamma 90.000000
_cell_volume 3020.161849
_symmetry_space_group_name_H-M "C 2/M"
_symmetry_group_IT_number 12
_symmetry_cell_setting 'monoclinic'
loop_
_space_group_symop_operation_xyz
x,y,z
-x,y,-z
-x,-y,-z
x,-y,z
1/2+x,1/2+y,z
1/2-x,1/2+y,-z
1/2-x,1/2-y,-z
1/2+x,1/2-y,z
loop_
_atom_site_type_symbol
_atom_site_label
_atom_site_fract_x
_atom_site_fract_y
_atom_site_fract_z
Si Si1 0.209372 0.622971 0.988194
Si Si2 0.513453 0.324804 0.824556
Si Si3 0.144468 0.381444 0.807778
Si Si4 0.124289 0.241533 0.569344
Si Si5 0.827544 0.877401 0.735109
Si Si6 0.607329 0.120638 0.331457
Si Si7 0.948319 0.882378 0.658931
Si Si8 0.464908 0.885701 0.839888
O O1 0.206044 0.500000 0.988122
O O2 0.186611 0.655334 0.868112
O O3 0.273675 0.649819 0.904627
O O4 0.166240 0.648668 0.173765
O O5 0.576046 0.338300 0.682336
O O6 0.467792 0.372154 0.789619
O O7 0.505506 0.202983 0.824703
O O8 0.500000 0.358727 0.000000
O O9 0.156112 0.500000 0.752037
O O10 0.142479 0.306678 0.677814
O O11 0.085901 0.382204 0.975969
O O12 0.170981 0.178434 0.417918
O O13 0.100736 0.319356 0.485593
O O14 0.886200 0.847751 0.720984
O O15 0.826414 0.000000 0.719009
O O16 0.561246 0.136058 0.276560
O O17 0.607331 0.000000 0.359883
O O18 0.000000 0.833632 0.500000
O O19 0.946682 0.000000 0.617986
O O20 0.488129 0.000000 0.806821
#
# Coordination Sequence:
#
# PCOD9209339 Si02
#       8
#     8   8   8   8   8   8   8   8
#     4   8  17  37  61  81 111 151 185 226 277 336
#     4  12  24  37  54  83 116 152 189 231 276 335
#     4   9  18  35  56  81 116 155 185 216 273 337
#     4  12  22  33  55  87 113 149 187 235 278 323
#     4  10  21  38  62  85 107 142 192 237 285 336
#     4   9  19  35  56  83 115 146 185 230 275 325
#     4  10  21  40  63  83 106 142 189 241 292 335
#     4   9  19  35  54  78 113 155 187 220 268 332
#
# _framework density 21.190916999999999
#
# number of rings (size 3 to 8) (size 9 to 14) (size 15 to 20)
#    0.000    2.125    2.500    2.625    0.000    2.500 
#    0.000    1.250    2.750    0.000    0.000    0.000 
#    0.000    0.000    0.000    0.000    0.000    0.000 
#
# Total GULP energy -178700.579640 kJ/mol
# GULP energy per Si atom -5584.393114 kJ/mol
# Density = 2.114269 g / cm^3
# Si number density = 21.190917 Si / 1000 Ang^3
#
#
#
# Elastic Constant Matrix: (Units=GPa)
#
#
# Indices 1 2 3 4 5 6 
#
# 1 72.2481 -1.1743 37.9008 0.0000 -6.6544 0.0000
# 2 -1.1743 37.0802 2.2474 0.0000 -8.6550 0.0000
# 3 37.9008 2.2474 114.4973 0.0000 1.9125 0.0000
# 4 0.0000 0.0000 0.0000 23.5613 0.0000 -2.6423
# 5 -6.6544 -8.6550 1.9125 0.0000 28.9382 0.0000
# 6 0.0000 0.0000 0.0000 -2.6423 0.0000 22.5431
#
#
#
# Elastic Compliance Matrix: (Units=1/GPa)
#
#
# Indices 1 2 3 4 5 6 
#
# 1 0.017429 0.002081 -0.005894 0.000000 0.005020 0.000000
# 2 0.002081 0.029300 -0.001420 0.000000 0.009335 0.000000
# 3 -0.005894 -0.001420 0.010754 0.000000 -0.002491 0.000000
# 4 0.000000 0.000000 0.000000 0.043008 0.000000 0.005041
# 5 0.005020 0.009335 -0.002491 0.000000 0.038667 0.000000
# 6 0.000000 0.000000 0.000000 0.005041 0.000000 0.044950
#
#
# Mechanical properties :
#
#
# Convention : Reuss Voigt Hill
#
# Bulk Modulus (GPa) = 21.26886 33.53037 27.39962
# Shear Modulus (GPa) = 23.78151 27.33198 25.55675
#
# Velocity S-wave (km/s) = 3.35363 3.59527 3.47655
# Velocity P-wave (km/s) = 5.00544 5.75256 5.39196
#
# Compressibility (1/GPa) = 0.04701710
#
# Stress axis : x y z
#
# Youngs Moduli (GPa) = 57.37435 34.13022 92.98542
#
# Poissons Ratio (x) = -0.07102 0.54807
# Poissons Ratio (y) = -0.11939 0.13202
# Poissons Ratio (z) = 0.33817 0.04846
#
# Static dielectric constant tensor:
#      x y z
#    x 1.784330 0.000000 -0.005590 
#    y 0.000000 1.829040 0.000000 
#    z -0.005590 0.000000 1.758930 
# 
# From -- ./inp_files/104535.got.cif
#   From: 2010.05.17/outbox.cif.g08.bks.cpg/sg12_53_cif.got.tgz:104535.got - 2010.06.03 13:09:07.
