data_PCOD9209798
_publ_section_title
;
Structure prediction by ZEFSAII (Michael W. Deem and Ramdas Pophale) SiO2 
 PCOD9209798
Probable space group: C 2/M
;
_chemical_formula_sum "Si O2"
_cell_formula_units_Z 56
_cell_length_a 19.982499
_cell_length_b 16.894591
_cell_length_c 19.258703
_cell_angle_alpha 90.000000
_cell_angle_beta 158.524264
_cell_angle_gamma 90.000000
_cell_volume 2380.305815
_symmetry_space_group_name_H-M "C 2/M"
_symmetry_group_IT_number 12
_symmetry_cell_setting 'monoclinic'
loop_
_space_group_symop_operation_xyz
x,y,z
-x,y,-z
-x,-y,-z
x,-y,z
1/2+x,1/2+y,z
1/2-x,1/2+y,-z
1/2-x,1/2-y,-z
1/2+x,1/2-y,z
loop_
_atom_site_type_symbol
_atom_site_label
_atom_site_fract_x
_atom_site_fract_y
_atom_site_fract_z
Si Si1 0.247181 0.583952 0.348411
Si Si2 0.124581 0.145917 0.740788
Si Si3 0.928681 0.615420 0.128998
Si Si4 0.154852 0.088469 0.988311
Si Si5 0.789013 0.258304 0.774733
Si Si6 0.547825 0.282052 0.287759
Si Si7 0.219157 0.910726 0.206272
O O1 0.198972 0.500000 0.265964
O O2 0.463945 0.586794 0.566074
O O3 0.209173 0.670104 0.278626
O O4 0.130719 0.584942 0.307351
O O5 0.173216 0.204964 0.725985
O O6 0.043306 0.193037 0.727918
O O7 0.305525 0.101885 0.942065
O O8 0.943875 0.708859 0.153806
O O9 0.814842 0.587149 0.085142
O O10 0.995224 0.146181 0.806715
O O11 0.079120 0.000000 0.922501
O O12 0.243670 0.109355 0.148136
O O13 0.723491 0.168238 0.695797
O O14 0.000000 0.249624 0.000000
O O15 0.750000 0.250000 0.500000
O O16 0.289873 0.000000 0.290469
O O17 0.000000 0.916739 0.000000
#
# Coordination Sequence:
#
# PCOD9209798 Si02
#       7
#     8   8   8   8   8   8   8
#     4  12  27  43  64  98 138 183 231 275 328 396
#     4  11  23  42  66  93 130 182 222 277 328 392
#     4  11  22  44  67  96 132 179 222 277 327 395
#     4  10  21  38  64  98 134 172 221 276 339 402
#     4  11  22  41  67  94 133 180 224 277 336 395
#     4  11  22  39  67  96 132 176 224 269 336 400
#     4   9  19  36  66 100 128 166 218 274 341 409
#
# _framework density 23.526388000000001
#
# number of rings (size 3 to 8) (size 9 to 14) (size 15 to 20)
#    0.000    1.286    2.857    4.286    2.000    4.286 
#    0.000    0.000    0.000    2.571    0.000    0.000 
#    0.000    0.000    0.000    0.000    0.000    0.000 
#
# Total GULP energy -156304.978061 kJ/mol
# GULP energy per Si atom -5582.320645 kJ/mol
# Density = 2.347284 g / cm^3
# Si number density = 23.526388 Si / 1000 Ang^3
#
#
#
# Elastic Constant Matrix: (Units=GPa)
#
#
# Indices 1 2 3 4 5 6 
#
# 1 72.3437 38.9767 -5.6495 0.0077 12.1058 0.0051
# 2 38.9767 199.2916 32.2480 0.0173 -5.4850 -0.0088
# 3 -5.6495 32.2480 75.0474 0.0128 17.3082 0.0048
# 4 0.0077 0.0173 0.0128 11.1070 0.0111 -12.4928
# 5 12.1058 -5.4850 17.3082 0.0111 24.3911 0.0076
# 6 0.0051 -0.0088 0.0048 -12.4928 0.0076 21.3133
#
#
#
# Elastic Compliance Matrix: (Units=1/GPa)
#
#
# Indices 1 2 3 4 5 6 
#
# 1 0.020384 -0.005738 0.007929 -0.000002 -0.017034 -0.000004
# 2 -0.005738 0.007257 -0.005481 -0.000019 0.008369 -0.000009
# 3 0.007929 -0.005481 0.020887 -0.000008 -0.019989 -0.000007
# 4 -0.000002 -0.000019 -0.000008 0.264248 -0.000167 0.154889
# 5 -0.017034 0.008369 -0.019989 -0.000167 0.065520 -0.000109
# 6 -0.000004 -0.000009 -0.000007 0.154889 -0.000109 0.137708
#
#
# Mechanical properties :
#
#
# Convention : Reuss Voigt Hill
#
# Bulk Modulus (GPa) = 23.83901 53.09255 38.46578
# Shear Modulus (GPa) = 9.31851 30.10279 19.71065
#
# Velocity S-wave (km/s) = 1.99235 3.58094 2.89764
# Velocity P-wave (km/s) = 3.93033 6.30188 5.25172
#
# Compressibility (1/GPa) = 0.04194805
#
# Stress axis : x y z
#
# Youngs Moduli (GPa) = 49.05748 137.79278 47.87664
#
# Poissons Ratio (x) = 0.79072 -0.37961
# Poissons Ratio (y) = 0.28152 0.26240
# Poissons Ratio (z) = -0.38897 0.75520
#
# Static dielectric constant tensor:
#      x y z
#    x 1.908280 0.000000 -0.014950 
#    y 0.000000 1.905280 0.000000 
#    z -0.014950 0.000000 1.947710 
# 
# From -- ./inp_files/322727.got.cif
#   From: 2010.05.17/outbox.cif.g08.bks.cpg/sg12_162_cif.got.tgz:322727.got - 2010.06.03 13:09:07.
