data_PCOD9209068
_publ_section_title
;
Structure prediction by ZEFSAII (Michael W. Deem and Ramdas Pophale) SiO2 
 PCOD9209068
Probable space group: C 2/M
;
_chemical_formula_sum "Si O2"
_cell_formula_units_Z 36
_cell_length_a 14.522624
_cell_length_b 18.297023
_cell_length_c 18.221868
_cell_angle_alpha 90.000000
_cell_angle_beta 22.048126
_cell_angle_gamma 90.000000
_cell_volume 1817.588785
_symmetry_space_group_name_H-M "C 2/M"
_symmetry_group_IT_number 12
_symmetry_cell_setting 'monoclinic'
loop_
_space_group_symop_operation_xyz
x,y,z
-x,y,-z
-x,-y,-z
x,-y,z
1/2+x,1/2+y,z
1/2-x,1/2+y,-z
1/2-x,1/2-y,-z
1/2+x,1/2-y,z
loop_
_atom_site_type_symbol
_atom_site_label
_atom_site_fract_x
_atom_site_fract_y
_atom_site_fract_z
Si Si1 0.000000 0.684797 0.000000
Si Si2 0.922435 0.084226 0.910709
Si Si3 0.708346 0.189499 0.285652
Si Si4 0.513679 0.651843 0.284319
Si Si5 0.490858 0.180020 0.282902
O O1 0.878854 0.739378 0.149383
O O2 0.774690 0.642441 0.130637
O O3 0.019332 0.094987 0.756439
O O4 0.118883 0.122863 0.818476
O O5 0.886202 0.000000 0.955586
O O6 0.670921 0.130108 0.103159
O O7 0.500000 0.200537 0.500000
O O8 0.585919 0.176099 0.297067
O O9 0.506496 0.733713 0.253603
O O10 0.289845 0.654066 0.507000
#
# Coordination Sequence:
#
# PCOD9209068 Si02
#       5
#     4   8   8   8   8
#     4  10  22  38  64  86 114 148 198 256 282 328
#     4  12  24  37  58  88 126 158 185 232 294 360
#     4  11  20  36  57  92 118 150 190 231 295 349
#     4  10  21  39  61  86 109 157 201 243 285 332
#     4  10  21  38  61  85 119 152 195 243 284 343
#
# _framework density 19.806460000000001
#
# number of rings (size 3 to 8) (size 9 to 14) (size 15 to 20)
#    0.000    1.333    6.667    0.667    0.000    3.111 
#    0.000    0.556    0.000    1.333    0.000    0.000 
#    0.000    0.000    0.000    0.000    0.000    0.000 
#
# Total GULP energy -100595.330646 kJ/mol
# GULP energy per Si atom -5588.629480 kJ/mol
# Density = 1.976138 g / cm^3
# Si number density = 19.806460 Si / 1000 Ang^3
#
#
#
# Elastic Constant Matrix: (Units=GPa)
#
#
# Indices 1 2 3 4 5 6 
#
# 1 45.0604 1.4663 -2.8313 0.0082 -18.3642 -0.0582
# 2 1.4663 54.9375 9.5405 -0.0329 2.3462 -0.0871
# 3 -2.8313 9.5405 103.5225 -0.1285 -8.4660 0.0589
# 4 0.0082 -0.0329 -0.1285 6.7850 -0.0083 0.2156
# 5 -18.3642 2.3462 -8.4660 -0.0083 37.3659 0.0227
# 6 -0.0582 -0.0871 0.0589 0.2156 0.0227 6.8625
#
#
#
# Elastic Compliance Matrix: (Units=1/GPa)
#
#
# Indices 1 2 3 4 5 6 
#
# 1 0.028289 -0.001742 0.002119 0.000011 0.014493 0.000151
# 2 -0.001742 0.018698 -0.001973 0.000045 -0.002477 0.000246
# 3 0.002119 -0.001973 0.010184 0.000189 0.003473 -0.000112
# 4 0.000011 0.000045 0.000189 0.147534 0.000081 -0.004635
# 5 0.014493 -0.002477 0.003473 0.000081 0.034828 -0.000056
# 6 0.000151 0.000246 -0.000112 -0.004635 -0.000056 0.145871
#
#
# Mechanical properties :
#
#
# Convention : Reuss Voigt Hill
#
# Bulk Modulus (GPa) = 18.52577 24.43015 21.47796
# Shear Modulus (GPa) = 12.29745 23.22569 17.76157
#
# Velocity S-wave (km/s) = 2.49445 3.42809 2.99784
# Velocity P-wave (km/s) = 4.20358 5.29436 4.78018
#
# Compressibility (1/GPa) = 0.05397886
#
# Stress axis : x y z
#
# Youngs Moduli (GPa) = 35.34960 53.48190 98.19431
#
# Poissons Ratio (x) = 0.09315 -0.20811
# Poissons Ratio (y) = 0.06157 0.19379
# Poissons Ratio (z) = -0.07492 0.10555
#
# Static dielectric constant tensor:
#      x y z
#    x 1.714810 -0.000020 -0.009210 
#    y -0.000020 1.676140 0.000030 
#    z -0.009210 0.000030 1.735480 
# 
# From -- ./inp_files/272160.got.cif
#   From: 2010.05.17/outbox.cif.g08.bks.cpg/sg12_137_cif.got.tgz:272160.got - 2010.06.03 13:09:07.
