data_PCOD9209896
_publ_section_title
;
Structure prediction by ZEFSAII (Michael W. Deem and Ramdas Pophale) SiO2 
 PCOD9209896
Probable space group: C 2/M
;
_chemical_formula_sum "Si O2"
_cell_formula_units_Z 60
_cell_length_a 16.319510
_cell_length_b 12.648053
_cell_length_c 14.211538
_cell_angle_alpha 90.000000
_cell_angle_beta 80.235405
_cell_angle_gamma 90.000000
_cell_volume 2890.907398
_symmetry_space_group_name_H-M "C 2/M"
_symmetry_group_IT_number 12
_symmetry_cell_setting 'monoclinic'
loop_
_space_group_symop_operation_xyz
x,y,z
-x,y,-z
-x,-y,-z
x,-y,z
1/2+x,1/2+y,z
1/2-x,1/2+y,-z
1/2-x,1/2-y,-z
1/2+x,1/2-y,z
loop_
_atom_site_type_symbol
_atom_site_label
_atom_site_fract_x
_atom_site_fract_y
_atom_site_fract_z
Si Si1 0.538748 0.117301 0.359332
Si Si2 0.866627 0.000000 0.753027
Si Si3 0.208006 0.886973 0.544161
Si Si4 0.574742 0.348078 0.416552
Si Si5 0.768602 0.672411 0.197580
Si Si6 0.171002 0.378794 0.171559
Si Si7 0.096024 0.372550 0.983763
Si Si8 0.345396 0.833012 0.381008
O O1 0.569819 0.221710 0.406791
O O2 0.589095 0.118905 0.252340
O O3 0.440746 0.134436 0.362680
O O4 0.552845 0.000000 0.398459
O O5 0.919647 0.092393 0.683272
O O6 0.806610 0.092953 0.811091
O O7 0.155969 0.881804 0.457667
O O8 0.300032 0.871790 0.484945
O O9 0.170796 0.792818 0.611743
O O10 0.200130 0.000000 0.592604
O O11 0.500000 0.379074 0.500000
O O12 0.732513 0.791303 0.202137
O O13 0.846142 0.666641 0.112000
O O14 0.800702 0.633604 0.293629
O O15 0.203907 0.500000 0.163431
O O16 0.141726 0.346942 0.072928
O O17 0.093208 0.500000 0.977833
O O18 0.000000 0.334810 0.000000
#
# Coordination Sequence:
#
# PCOD9209896 Si02
#       8
#     8   4   8   8   8   8   8   8
#     4  11  23  38  60  87 123 160 201 258 310 359
#     4  12  23  38  65  90 119 161 210 253 303 360
#     4  11  22  39  57  81 115 158 208 252 301 360
#     4  12  22  40  59  88 120 163 207 255 305 357
#     4  12  22  40  65  91 125 160 204 251 305 367
#     4  10  22  41  62  90 126 160 201 246 305 371
#     4  10  21  38  66  99 123 154 198 254 310 360
#     4  11  23  37  56  86 116 156 204 250 307 356
#
# _framework density 20.754729999999999
#
# number of rings (size 3 to 8) (size 9 to 14) (size 15 to 20)
#    0.000    0.933    5.333    1.800    0.933    1.867 
#    0.000    2.000    0.000    0.400    0.000    0.000 
#    0.000    0.000    0.000    0.000    0.000    0.000 
#
# Total GULP energy -167071.720407 kJ/mol
# GULP energy per Si atom -5569.057347 kJ/mol
# Density = 2.070749 g / cm^3
# Si number density = 20.754730 Si / 1000 Ang^3
#
#
#
# Elastic Constant Matrix: (Units=GPa)
#
#
# Indices 1 2 3 4 5 6 
#
# 1 84.1922 24.0086 28.4943 0.0000 -22.1056 0.0000
# 2 24.0086 138.5247 15.3451 0.0000 -6.4479 0.0000
# 3 28.4943 15.3451 67.9798 0.0000 -30.7634 0.0000
# 4 0.0000 0.0000 0.0000 12.2030 0.0000 -42.5153
# 5 -22.1056 -6.4479 -30.7634 0.0000 39.3349 0.0000
# 6 0.0000 0.0000 0.0000 -42.5153 0.0000 -174.4381
#
#
#
# Elastic Compliance Matrix: (Units=1/GPa)
#
#
# Indices 1 2 3 4 5 6 
#
# 1 0.015021 -0.001975 -0.003369 0.000000 0.005483 0.000000
# 2 -0.001975 0.007664 -0.001294 0.000000 -0.000865 0.000000
# 3 -0.003369 -0.001294 0.023932 0.000000 0.016611 0.000000
# 4 0.000000 0.000000 0.000000 0.044316 0.000000 -0.010801
# 5 0.005483 -0.000865 0.016611 0.000000 0.041353 0.000000
# 6 0.000000 0.000000 0.000000 -0.010801 0.000000 -0.003100
#
#
# Mechanical properties :
#
#
# Convention : Reuss Voigt Hill
#
# Bulk Modulus (GPa) = 29.99337 47.37697 38.68517
# Shear Modulus (GPa) = 32.55733 -9.72346 11.41694
#
# Velocity S-wave (km/s) = 3.96494 -2.16682 2.34794
# Velocity P-wave (km/s) = 5.95346 4.07633 5.10197
#
# Compressibility (1/GPa) = 0.03334070
#
# Stress axis : x y z
#
# Youngs Moduli (GPa) = 66.57555 130.47580 41.78561
#
# Poissons Ratio (x) = 0.25768 0.14078
# Poissons Ratio (y) = 0.13148 0.05407
# Poissons Ratio (z) = 0.22430 0.16882
#
# Static dielectric constant tensor:
#      x y z
#    x 1.769710 0.000000 0.003590 
#    y 0.000000 1.781590 0.000000 
#    z 0.003590 0.000000 1.759160 
# 
# From -- ./inp_files/223793.got.cif
#   From: 2010.05.17/outbox.cif.g08.bks.cpg/sg12_112_cif.got.tgz:223793.got - 2010.06.03 13:09:07.
