data_PCOD9209548
_publ_section_title
;
Structure prediction by ZEFSAII (Michael W. Deem and Ramdas Pophale) SiO2 
 PCOD9209548
Probable space group: C 2/M
;
_chemical_formula_sum "Si O2"
_cell_formula_units_Z 56
_cell_length_a 33.027804
_cell_length_b 19.386117
_cell_length_c 9.501974
_cell_angle_alpha 90.000000
_cell_angle_beta 28.887643
_cell_angle_gamma 90.000000
_cell_volume 2939.108469
_symmetry_space_group_name_H-M "C 2/M"
_symmetry_group_IT_number 12
_symmetry_cell_setting 'monoclinic'
loop_
_space_group_symop_operation_xyz
x,y,z
-x,y,-z
-x,-y,-z
x,-y,z
1/2+x,1/2+y,z
1/2-x,1/2+y,-z
1/2-x,1/2-y,-z
1/2+x,1/2-y,z
loop_
_atom_site_type_symbol
_atom_site_label
_atom_site_fract_x
_atom_site_fract_y
_atom_site_fract_z
Si Si1 0.870859 0.816495 0.168484
Si Si2 0.000162 0.079147 0.838801
Si Si3 0.572711 0.828151 0.895122
Si Si4 0.264870 0.158457 0.179495
Si Si5 0.311120 0.579222 0.847025
Si Si6 0.237918 0.813650 0.778119
Si Si7 0.421833 0.917709 0.845062
O O1 0.921538 0.746996 0.048944
O O2 0.814238 0.839248 0.473539
O O3 0.807470 0.805804 0.233606
O O4 0.937534 0.875964 0.937837
O O5 0.093559 0.081137 0.496651
O O6 0.971010 0.000000 0.933082
O O7 0.000000 0.106182 0.000000
O O8 0.664625 0.831961 0.543400
O O9 0.500000 0.831346 0.000000
O O10 0.561200 0.884939 0.052661
O O11 0.244588 0.113253 0.105522
O O12 0.275454 0.239106 0.108934
O O13 0.343354 0.124698 0.020560
O O14 0.287047 0.500000 0.944319
O O15 0.302146 0.625576 0.011225
O O16 0.500000 0.908999 0.500000
O O17 0.404126 0.000000 0.908916
#
# Coordination Sequence:
#
# PCOD9209548 Si02
#       7
#     8   8   8   8   8   8   8
#     4  11  21  42  69  94 125 165 211 257 315 388
#     4  10  21  38  62  95 127 163 207 250 308 383
#     4  11  24  43  67  94 127 164 209 269 321 367
#     4  11  21  44  67  91 125 171 217 258 308 377
#     4  11  25  41  63  98 132 165 208 259 317 380
#     4  11  24  43  65  98 128 160 214 264 316 380
#     4  11  25  43  64  93 128 171 219 261 310 376
#
# _framework density 19.053397
#
# number of rings (size 3 to 8) (size 9 to 14) (size 15 to 20)
#    0.000    1.143    4.286    2.143    4.000    3.714 
#    0.000    1.429    0.000    0.000    0.000    0.000 
#    0.000    0.000    0.000    0.000    0.000    0.000 
#
# Total GULP energy -156428.483223 kJ/mol
# GULP energy per Si atom -5586.731544 kJ/mol
# Density = 1.901003 g / cm^3
# Si number density = 19.053397 Si / 1000 Ang^3
#
#
#
# Elastic Constant Matrix: (Units=GPa)
#
#
# Indices 1 2 3 4 5 6 
#
# 1 69.7413 35.8600 23.4477 0.0000 -0.5951 0.0000
# 2 35.8600 129.2238 52.0349 0.0000 11.1452 0.0000
# 3 23.4477 52.0349 48.4260 0.0000 -1.6430 0.0000
# 4 0.0000 0.0000 0.0000 32.1217 0.0000 6.1403
# 5 -0.5951 11.1452 -1.6430 0.0000 23.2629 0.0000
# 6 0.0000 0.0000 0.0000 6.1403 0.0000 29.0198
#
#
#
# Elastic Compliance Matrix: (Units=1/GPa)
#
#
# Indices 1 2 3 4 5 6 
#
# 1 0.017636 -0.002815 -0.005467 0.000000 0.001413 0.000000
# 2 -0.002815 0.015571 -0.015662 0.000000 -0.008638 0.000000
# 3 -0.005467 -0.015662 0.040473 0.000000 0.010222 0.000000
# 4 0.000000 0.000000 0.000000 0.032444 0.000000 -0.006865
# 5 0.001413 -0.008638 0.010222 0.000000 0.047884 0.000000
# 6 0.000000 0.000000 0.000000 -0.006865 0.000000 0.035912
#
#
# Mechanical properties :
#
#
# Convention : Reuss Voigt Hill
#
# Bulk Modulus (GPa) = 38.76976 52.23069 45.50023
# Shear Modulus (GPa) = 20.29185 25.95079 23.12132
#
# Velocity S-wave (km/s) = 3.26697 3.69454 3.48731
# Velocity P-wave (km/s) = 5.88413 6.75809 6.33619
#
# Compressibility (1/GPa) = 0.02579330
#
# Stress axis : x y z
#
# Youngs Moduli (GPa) = 56.70204 64.22116 24.70779
#
# Poissons Ratio (x) = 0.18075 0.13508
# Poissons Ratio (y) = 0.15959 0.38697
# Poissons Ratio (z) = 0.31000 1.00582
#
# Static dielectric constant tensor:
#      x y z
#    x 1.663600 0.000000 0.007090 
#    y 0.000000 1.661640 0.000000 
#    z 0.007090 0.000000 1.647940 
# 
# From -- ./inp_files/113350.got.cif
#   From: 2010.05.17/outbox.cif.g08.bks.cpg/sg12_57_cif.got.tgz:113350.got - 2010.06.03 13:09:07.
