data_PCOD9209533
_publ_section_title
;
Structure prediction by ZEFSAII (Michael W. Deem and Ramdas Pophale) SiO2 
 PCOD9209533
Probable space group: C 2/M
;
_chemical_formula_sum "Si O2"
_cell_formula_units_Z 48
_cell_length_a 23.058355
_cell_length_b 13.803976
_cell_length_c 15.314958
_cell_angle_alpha 90.000000
_cell_angle_beta 153.188647
_cell_angle_gamma 90.000000
_cell_volume 2198.757055
_symmetry_space_group_name_H-M "C 2/M"
_symmetry_group_IT_number 12
_symmetry_cell_setting 'monoclinic'
loop_
_space_group_symop_operation_xyz
x,y,z
-x,y,-z
-x,-y,-z
x,-y,z
1/2+x,1/2+y,z
1/2-x,1/2+y,-z
1/2-x,1/2-y,-z
1/2+x,1/2-y,z
loop_
_atom_site_type_symbol
_atom_site_label
_atom_site_fract_x
_atom_site_fract_y
_atom_site_fract_z
Si Si1 0.151731 0.210555 0.682569
Si Si2 0.744822 0.606183 0.514244
Si Si3 0.829746 0.000000 0.328765
Si Si4 0.131995 0.721830 0.469675
Si Si5 0.908108 0.000000 0.231031
Si Si6 0.146647 0.196716 0.941924
Si Si7 0.030626 0.891195 0.948470
O O1 0.150866 0.283627 0.598850
O O2 0.220377 0.246048 0.864363
O O3 0.000000 0.190052 0.500000
O O4 0.219303 0.111312 0.737813
O O5 0.781768 0.500000 0.598477
O O6 0.833898 0.636485 0.552059
O O7 0.724576 0.691635 0.556985
O O8 0.602687 0.599910 0.281985
O O9 0.936815 0.000000 0.550326
O O10 0.871443 0.000000 0.282579
O O11 0.981207 0.746154 0.256706
O O12 0.857328 0.905285 0.113829
O O13 0.119875 0.169340 0.006914
O O14 0.082721 0.000000 0.033581
O O15 0.000000 0.845406 0.000000
#
# Coordination Sequence:
#
# PCOD9209533 Si02
#       7
#     8   8   4   8   4   8   8
#     4  12  24  41  64  96 126 167 213 268 317 376
#     4   9  19  35  60  89 124 168 204 266 319 369
#     4  11  22  42  66  86 116 166 222 259 302 375
#     4  10  21  38  62  94 127 164 217 257 318 386
#     4  11  20  42  64  90 115 163 222 257 306 381
#     4  11  22  37  66  90 125 164 210 266 313 373
#     4   9  16  29  54  87 116 157 201 244 306 374
#
# _framework density 21.830514999999998
#
# number of rings (size 3 to 8) (size 9 to 14) (size 15 to 20)
#    0.000    1.667    4.167    1.000    2.333    2.667 
#    3.000    0.417    0.000    1.000    0.000    0.000 
#    0.000    0.000    0.000    0.000    0.000    0.000 
#
# Total GULP energy -133705.064413 kJ/mol
# GULP energy per Si atom -5571.044351 kJ/mol
# Density = 2.178083 g / cm^3
# Si number density = 21.830515 Si / 1000 Ang^3
#
#
#
# Elastic Constant Matrix: (Units=GPa)
#
#
# Indices 1 2 3 4 5 6 
#
# 1 53.4588 -3.6793 8.3920 0.0000 -3.0725 0.0000
# 2 -3.6793 59.7278 34.6938 0.0000 9.2469 0.0000
# 3 8.3920 34.6938 124.8648 0.0000 -8.6289 0.0000
# 4 0.0000 0.0000 0.0000 4.7556 0.0000 10.5931
# 5 -3.0725 9.2469 -8.6289 0.0000 33.6061 0.0000
# 6 0.0000 0.0000 0.0000 10.5931 0.0000 -48.7367
#
#
#
# Elastic Compliance Matrix: (Units=1/GPa)
#
#
# Indices 1 2 3 4 5 6 
#
# 1 0.019181 0.002141 -0.001836 0.000000 0.000693 0.000000
# 2 0.002141 0.021987 -0.006778 0.000000 -0.007595 0.000000
# 3 -0.001836 -0.006778 0.010316 0.000000 0.004346 0.000000
# 4 0.000000 0.000000 0.000000 0.141683 0.000000 0.030795
# 5 0.000693 -0.007595 0.004346 0.000000 0.033025 0.000000
# 6 0.000000 0.000000 0.000000 0.030795 0.000000 -0.013825
#
#
# Mechanical properties :
#
#
# Convention : Reuss Voigt Hill
#
# Bulk Modulus (GPa) = 25.94844 35.20715 30.57780
# Shear Modulus (GPa) = 20.99428 11.16798 16.08113
#
# Velocity S-wave (km/s) = 3.10448 2.26426 2.71705
# Velocity P-wave (km/s) = 4.97620 4.79566 4.88676
#
# Compressibility (1/GPa) = 0.03853796
#
# Stress axis : x y z
#
# Youngs Moduli (GPa) = 52.13386 45.48080 96.94027
#
# Poissons Ratio (x) = -0.09736 0.17799
# Poissons Ratio (y) = -0.11161 0.65705
# Poissons Ratio (z) = 0.09572 0.30826
#
# Static dielectric constant tensor:
#      x y z
#    x 1.911200 0.000000 0.008720 
#    y 0.000000 1.900500 0.000000 
#    z 0.008720 0.000000 1.803370 
# 
# From -- ./inp_files/240265.got.cif
#   From: 2010.05.17/outbox.cif.g08.bks.cpg/sg12_121_cif.got.tgz:240265.got - 2010.06.03 13:09:07.
