data_PCOD9209082
_publ_section_title
;
Structure prediction by ZEFSAII (Michael W. Deem and Ramdas Pophale) SiO2 
 PCOD9209082
Probable space group: C 2/M
;
_chemical_formula_sum "Si O2"
_cell_formula_units_Z 48
_cell_length_a 9.350628
_cell_length_b 18.205544
_cell_length_c 31.154547
_cell_angle_alpha 90.000000
_cell_angle_beta 152.688011
_cell_angle_gamma 90.000000
_cell_volume 2433.452531
_symmetry_space_group_name_H-M "C 2/M"
_symmetry_group_IT_number 12
_symmetry_cell_setting 'monoclinic'
loop_
_space_group_symop_operation_xyz
x,y,z
-x,y,-z
-x,-y,-z
x,-y,z
1/2+x,1/2+y,z
1/2-x,1/2+y,-z
1/2-x,1/2-y,-z
1/2+x,1/2-y,z
loop_
_atom_site_type_symbol
_atom_site_label
_atom_site_fract_x
_atom_site_fract_y
_atom_site_fract_z
Si Si1 0.764568 0.660025 0.275421
Si Si2 0.372822 0.412036 0.600647
Si Si3 0.637407 0.585233 0.579988
Si Si4 0.638178 0.916665 0.084187
Si Si5 0.201022 0.688253 0.950188
Si Si6 0.565484 0.695518 0.726509
O O1 0.431088 0.638016 0.166529
O O2 0.689679 0.680944 0.304576
O O3 0.940049 0.727440 0.299610
O O4 0.994634 0.592517 0.328646
O O5 0.423195 0.500000 0.619109
O O6 0.519309 0.386341 0.594328
O O7 0.527895 0.368217 0.681211
O O8 0.000000 0.399456 0.500000
O O9 0.500000 0.620727 0.500000
O O10 0.538318 0.500000 0.554124
O O11 0.371315 0.887413 0.044619
O O12 0.731642 0.000000 0.119710
O O13 0.500000 0.914337 0.000000
O O14 0.896971 0.698826 0.839448
O O15 0.500000 0.686967 0.000000
O O16 0.250000 0.750000 0.000000
#
# Coordination Sequence:
#
# PCOD9209082 Si02
#       6
#     8   8   8   8   8   8
#     4  11  22  38  58  85 119 152 196 251 301 356
#     4  10  22  41  63  90 126 162 201 253 310 367
#     4  10  21  38  61  86 115 157 201 242 299 367
#     4  10  22  39  60  86 118 157 199 246 302 364
#     4  11  22  39  62  88 123 164 205 253 307 368
#     4  11  23  37  61  89 118 159 205 250 305 369
#
# _framework density 19.725061
#
# number of rings (size 3 to 8) (size 9 to 14) (size 15 to 20)
#    0.000    1.500    0.000    6.000    0.000    7.000 
#    0.000    5.000    0.000    0.000    0.000    0.000 
#    0.000    0.000    0.000    0.000    0.000    0.000 
#
# Total GULP energy -133915.959719 kJ/mol
# GULP energy per Si atom -5579.831655 kJ/mol
# Density = 1.968017 g / cm^3
# Si number density = 19.725061 Si / 1000 Ang^3
#
#
#
# Elastic Constant Matrix: (Units=GPa)
#
#
# Indices 1 2 3 4 5 6 
#
# 1 166.8974 37.5011 48.0361 -0.0043 -1.4418 -0.0022
# 2 37.5011 73.8018 17.7677 -0.0040 -13.4767 -0.0021
# 3 48.0361 17.7677 80.4242 -0.0086 -9.0202 -0.0028
# 4 -0.0043 -0.0040 -0.0086 23.8241 -0.0021 -0.9841
# 5 -1.4418 -13.4767 -9.0202 -0.0021 36.7248 -0.0014
# 6 -0.0022 -0.0021 -0.0028 -0.9841 -0.0014 31.1089
#
#
#
# Elastic Compliance Matrix: (Units=1/GPa)
#
#
# Indices 1 2 3 4 5 6 
#
# 1 0.007950 -0.003382 -0.004222 -0.000001 -0.001966 0.000000
# 2 -0.003382 0.016548 -0.000997 0.000002 0.005695 0.000001
# 3 -0.004222 -0.000997 0.015544 0.000005 0.003286 0.000001
# 4 -0.000001 0.000002 0.000005 0.042029 0.000005 0.001330
# 5 -0.001966 0.005695 0.003286 0.000005 0.030049 0.000002
# 6 0.000000 0.000001 0.000001 0.001330 0.000002 0.032187
#
#
# Mechanical properties :
#
#
# Convention : Reuss Voigt Hill
#
# Bulk Modulus (GPa) = 43.78108 58.63699 51.20904
# Shear Modulus (GPa) = 29.56422 32.85282 31.20852
#
# Velocity S-wave (km/s) = 3.87565 4.08553 3.98197
# Velocity P-wave (km/s) = 6.50165 7.21436 6.86726
#
# Compressibility (1/GPa) = 0.02284092
#
# Stress axis : x y z
#
# Youngs Moduli (GPa) = 125.79080 60.42884 64.33193
#
# Poissons Ratio (x) = 0.20438 0.27158
# Poissons Ratio (y) = 0.42545 0.06415
# Poissons Ratio (z) = 0.53103 0.06025
#
# Static dielectric constant tensor:
#      x y z
#    x 1.691930 0.000000 -0.025670 
#    y 0.000000 1.739000 0.000000 
#    z -0.025670 0.000000 1.768440 
# 
# From -- ./inp_files/256442.got.cif
#   From: 2010.05.17/outbox.cif.g08.bks.cpg/sg12_129_cif.got.tgz:256442.got - 2010.06.03 13:09:07.
