data_PCOD9209455
_publ_section_title
;
Structure prediction by ZEFSAII (Michael W. Deem and Ramdas Pophale) SiO2 
 PCOD9209455
Probable space group: C 2/M
;
_chemical_formula_sum "Si O2"
_cell_formula_units_Z 32
_cell_length_a 18.576028
_cell_length_b 8.794763
_cell_length_c 11.400181
_cell_angle_alpha 90.000000
_cell_angle_beta 66.163774
_cell_angle_gamma 90.000000
_cell_volume 1703.607264
_symmetry_space_group_name_H-M "C 2/M"
_symmetry_group_IT_number 12
_symmetry_cell_setting 'monoclinic'
loop_
_space_group_symop_operation_xyz
x,y,z
-x,y,-z
-x,-y,-z
x,-y,z
1/2+x,1/2+y,z
1/2-x,1/2+y,-z
1/2-x,1/2-y,-z
1/2+x,1/2-y,z
loop_
_atom_site_type_symbol
_atom_site_label
_atom_site_fract_x
_atom_site_fract_y
_atom_site_fract_z
Si Si1 0.800479 0.681269 0.639643
Si Si2 0.823291 0.818461 0.880667
Si Si3 0.369642 0.681330 0.361397
Si Si4 0.516246 0.181582 0.126024
O O1 0.811672 0.500000 0.640901
O O2 0.818782 0.759571 0.750411
O O3 0.709675 0.709714 0.662064
O O4 0.853003 0.748334 0.500007
O O5 0.903699 0.760324 0.885686
O O6 0.819649 0.000000 0.886103
O O7 0.750000 0.750000 0.000000
O O8 0.380214 0.500000 0.363642
O O9 0.443808 0.756588 0.250041
O O10 0.523215 0.000000 0.135812
O O11 0.500000 0.214004 0.000000
#
# Coordination Sequence:
#
# PCOD9209455 Si02
#       4
#     8   8   8   8
#     4  10  21  39  63  90 122 158 197 242 293 350
#     4  12  25  41  62  88 120 156 198 245 295 352
#     4  10  21  38  62  91 122 157 197 242 294 351
#     4  11  24  41  62  88 119 156 199 246 296 351
#
# _framework density 18.783673
#
# number of rings (size 3 to 8) (size 9 to 14) (size 15 to 20)
#    0.000    1.250    0.000    6.000    0.000   10.000 
#    0.000    5.000    0.000    0.000    0.000    0.000 
#    0.000    0.000    0.000    0.000    0.000    0.000 
#
# Total GULP energy -89529.231526 kJ/mol
# GULP energy per Si atom -5595.576970 kJ/mol
# Density = 1.874092 g / cm^3
# Si number density = 18.783673 Si / 1000 Ang^3
#
#
#
# Elastic Constant Matrix: (Units=GPa)
#
#
# Indices 1 2 3 4 5 6 
#
# 1 129.3323 105.1431 123.3981 0.0000 6.0713 0.0000
# 2 105.1431 147.4828 111.1559 0.0000 11.8802 0.0000
# 3 123.3981 111.1559 186.4993 0.0000 -0.7825 0.0000
# 4 0.0000 0.0000 0.0000 38.5026 0.0000 -3.3445
# 5 6.0713 11.8802 -0.7825 0.0000 35.7928 0.0000
# 6 0.0000 0.0000 0.0000 -3.3445 0.0000 33.5655
#
#
#
# Elastic Compliance Matrix: (Units=1/GPa)
#
#
# Indices 1 2 3 4 5 6 
#
# 1 0.028327 -0.010791 -0.012317 0.000000 -0.001492 0.000000
# 2 -0.010791 0.017103 -0.003070 0.000000 -0.003913 0.000000
# 3 -0.012317 -0.003070 0.015356 0.000000 0.003444 0.000000
# 4 0.000000 0.000000 0.000000 0.026199 0.000000 0.002611
# 5 -0.001492 -0.003913 0.003444 0.000000 0.029566 0.000000
# 6 0.000000 0.000000 0.000000 0.002611 0.000000 0.030053
#
#
# Mechanical properties :
#
#
# Convention : Reuss Voigt Hill
#
# Bulk Modulus (GPa) = 118.63862 126.96762 122.80312
# Shear Modulus (GPa) = 24.78076 29.81335 27.29706
#
# Velocity S-wave (km/s) = 3.63612 3.98828 3.81627
# Velocity P-wave (km/s) = 8.99589 9.43133 9.21618
#
# Compressibility (1/GPa) = 0.00842896
#
# Stress axis : x y z
#
# Youngs Moduli (GPa) = 35.30161 58.47083 65.12219
#
# Poissons Ratio (x) = 0.63098 0.80213
# Poissons Ratio (y) = 0.38095 0.19990
# Poissons Ratio (z) = 0.43482 0.17948
#
# Static dielectric constant tensor:
#      x y z
#    x 1.622540 0.000000 0.004960 
#    y 0.000000 1.622450 0.000000 
#    z 0.004960 0.000000 1.610080 
# 
# From -- ./inp_files/138642.got.cif
#   From: 2010.05.17/outbox.cif.g08.bks.cpg/sg12_70_cif.got.tgz:138642.got - 2010.06.03 13:09:07.
