data_PCOD9209937
_publ_section_title
;
Structure prediction by ZEFSAII (Michael W. Deem and Ramdas Pophale) SiO2 
 PCOD9209937
Probable space group: C 2/M
;
_chemical_formula_sum "Si O2"
_cell_formula_units_Z 64
_cell_length_a 12.438979
_cell_length_b 17.685778
_cell_length_c 14.619946
_cell_angle_alpha 90.000000
_cell_angle_beta 97.848239
_cell_angle_gamma 90.000000
_cell_volume 3186.159866
_symmetry_space_group_name_H-M "C 2/M"
_symmetry_group_IT_number 12
_symmetry_cell_setting 'monoclinic'
loop_
_space_group_symop_operation_xyz
x,y,z
-x,y,-z
-x,-y,-z
x,-y,z
1/2+x,1/2+y,z
1/2-x,1/2+y,-z
1/2-x,1/2-y,-z
1/2+x,1/2-y,z
loop_
_atom_site_type_symbol
_atom_site_label
_atom_site_fract_x
_atom_site_fract_y
_atom_site_fract_z
Si Si1 0.750543 0.088462 0.879232
Si Si2 0.147520 0.086489 0.774313
Si Si3 0.140122 0.670156 0.258671
Si Si4 0.392181 0.670678 0.042818
Si Si5 0.014057 0.857468 0.396934
Si Si6 0.458496 0.838925 0.089052
Si Si7 0.723960 0.337656 0.309427
Si Si8 0.528667 0.176837 0.606703
O O1 0.622712 0.107083 0.866667
O O2 0.795284 0.118897 0.788063
O O3 0.772301 0.000000 0.892614
O O4 0.798453 0.135882 0.969373
O O5 0.266713 0.111305 0.755342
O O6 0.113877 0.137389 0.856573
O O7 0.064147 0.099794 0.682011
O O8 0.146758 0.000000 0.803548
O O9 0.198960 0.749194 0.288822
O O10 0.060354 0.682400 0.163687
O O11 0.061946 0.647591 0.333304
O O12 0.397618 0.761085 0.054648
O O13 0.500000 0.648526 0.000000
O O14 0.137371 0.863497 0.375329
O O15 0.000000 0.881966 0.500000
O O16 0.980625 0.768549 0.388195
O O17 0.500000 0.874980 0.000000
O O18 0.848930 0.345778 0.353519
O O19 0.500000 0.155109 0.500000
#
# Coordination Sequence:
#
# PCOD9209937 Si02
#       8
#     8   8   8   8   8   8   8   8
#     4  12  25  40  62  93 131 169 207 254 316 383
#     4  12  25  41  62  92 135 174 212 261 318 383
#     4  11  22  40  66  93 128 164 214 267 316 376
#     4  11  23  42  65  93 123 167 217 264 309 372
#     4  10  23  39  65  97 127 165 212 270 324 374
#     4  11  22  40  65  94 123 165 213 263 309 371
#     4  11  21  41  67  93 128 162 213 268 315 377
#     4  10  21  38  68  98 120 162 215 274 325 369
#
# _framework density 20.086876
#
# number of rings (size 3 to 8) (size 9 to 14) (size 15 to 20)
#    0.000    1.000    2.500    6.000    1.750    5.000 
#    0.000    0.000    0.000    0.750    0.000    0.000 
#    0.000    0.000    0.000    0.000    0.000    0.000 
#
# Total GULP energy -178936.214026 kJ/mol
# GULP energy per Si atom -5591.756688 kJ/mol
# Density = 2.004116 g / cm^3
# Si number density = 20.086876 Si / 1000 Ang^3
#
#
#
# Elastic Constant Matrix: (Units=GPa)
#
#
# Indices 1 2 3 4 5 6 
#
# 1 106.3740 19.2596 44.9154 0.0000 -9.3691 0.0000
# 2 19.2596 18.5146 1.8975 0.0000 -4.3475 0.0000
# 3 44.9154 1.8975 129.3520 0.0000 -15.4972 0.0000
# 4 0.0000 0.0000 0.0000 -3.9113 0.0000 5.2174
# 5 -9.3691 -4.3475 -15.4972 0.0000 42.3897 0.0000
# 6 0.0000 0.0000 0.0000 5.2174 0.0000 -5.1294
#
#
#
# Elastic Compliance Matrix: (Units=1/GPa)
#
#
# Indices 1 2 3 4 5 6 
#
# 1 0.013877 -0.013975 -0.004620 0.000000 -0.000055 0.000000
# 2 -0.013975 0.069420 0.004515 0.000000 0.005682 0.000000
# 3 -0.004620 0.004515 0.009624 0.000000 0.002960 0.000000
# 4 0.000000 0.000000 0.000000 0.716489 0.000000 0.728785
# 5 -0.000055 0.005682 0.002960 0.000000 0.025243 0.000000
# 6 0.000000 0.000000 0.000000 0.728785 0.000000 0.546338
#
#
# Mechanical properties :
#
#
# Convention : Reuss Voigt Hill
#
# Bulk Modulus (GPa) = 15.44158 42.93172 29.18665
# Shear Modulus (GPa) = 3.49470 19.21435 11.35453
#
# Velocity S-wave (km/s) = 1.32044 3.09619 2.38012
# Velocity P-wave (km/s) = 3.16684 5.84819 4.70267
#
# Compressibility (1/GPa) = 0.06476019
#
# Stress axis : x y z
#
# Youngs Moduli (GPa) = 72.06194 14.40511 103.91190
#
# Poissons Ratio (x) = 0.20131 0.48009
# Poissons Ratio (y) = 1.00705 -0.46915
# Poissons Ratio (z) = 0.33294 -0.06504
#
# Static dielectric constant tensor:
#      x y z
#    x 1.743160 0.000000 -0.001170 
#    y 0.000000 1.673080 0.000000 
#    z -0.001170 0.000000 1.689440 
# 
# From -- ./inp_files/206711.got.cif
#   From: 2010.05.17/outbox.cif.g08.bks.cpg/sg12_104_cif.got.tgz:206711.got - 2010.06.03 13:09:07.
