data_PCOD9209179
_publ_section_title
;
Structure prediction by ZEFSAII (Michael W. Deem and Ramdas Pophale) SiO2 
 PCOD9209179
Probable space group: C 2/M
;
_chemical_formula_sum "Si O2"
_cell_formula_units_Z 64
_cell_length_a 15.020342
_cell_length_b 17.769043
_cell_length_c 11.703826
_cell_angle_alpha 90.000000
_cell_angle_beta 94.867912
_cell_angle_gamma 90.000000
_cell_volume 3112.449932
_symmetry_space_group_name_H-M "C 2/M"
_symmetry_group_IT_number 12
_symmetry_cell_setting 'monoclinic'
loop_
_space_group_symop_operation_xyz
x,y,z
-x,y,-z
-x,-y,-z
x,-y,z
1/2+x,1/2+y,z
1/2-x,1/2+y,-z
1/2-x,1/2-y,-z
1/2+x,1/2-y,z
loop_
_atom_site_type_symbol
_atom_site_label
_atom_site_fract_x
_atom_site_fract_y
_atom_site_fract_z
Si Si1 0.215297 0.918050 0.948437
Si Si2 0.545361 0.200384 0.831961
Si Si3 0.594843 0.631196 0.573560
Si Si4 0.251901 0.587200 0.577108
Si Si5 0.908748 0.690916 0.418535
Si Si6 0.164912 0.130756 0.174489
Si Si7 0.462823 0.619159 0.184795
Si Si8 0.140212 0.302122 0.084862
O O1 0.110214 0.906989 0.913214
O O2 0.272637 0.853297 0.894569
O O3 0.244379 0.000000 0.912066
O O4 0.222550 0.911296 0.085550
O O5 0.577795 0.170279 0.713875
O O6 0.534178 0.290158 0.815953
O O7 0.447009 0.170798 0.855083
O O8 0.609775 0.193614 0.948598
O O9 0.500000 0.624901 0.500000
O O10 0.672888 0.592569 0.511742
O O11 0.616965 0.720607 0.581847
O O12 0.576757 0.598178 0.696615
O O13 0.229465 0.500000 0.595469
O O14 0.166491 0.637534 0.537761
O O15 0.293042 0.623812 0.696456
O O16 0.000000 0.684009 0.500000
O O17 0.159258 0.216902 0.127629
O O18 0.064680 0.097086 0.173675
#
# Coordination Sequence:
#
# PCOD9209179 Si02
#       8
#     8   8   8   8   8   8   8   8
#     4  12  25  37  56  94 131 160 198 252 316 373
#     4   9  19  40  65  92 116 157 216 258 302 354
#     4  10  21  43  65  88 120 163 211 253 302 366
#     4  12  26  41  63  96 130 166 204 255 319 374
#     4  10  23  41  67  94 122 162 215 264 303 363
#     4  11  22  40  64  89 121 166 210 252 301 371
#     4  10  21  38  61  88 121 160 204 252 306 364
#     4  10  21  38  66  90 120 164 207 258 302 367
#
# _framework density 20.562580000000001
#
# number of rings (size 3 to 8) (size 9 to 14) (size 15 to 20)
#    0.000    1.500    2.500    2.250    5.250    3.500 
#    0.000    1.875    0.000    0.000    0.000    0.000 
#    0.000    0.000    0.000    0.000    0.000    0.000 
#
# Total GULP energy -178810.344469 kJ/mol
# GULP energy per Si atom -5587.823265 kJ/mol
# Density = 2.051578 g / cm^3
# Si number density = 20.562580 Si / 1000 Ang^3
#
#
#
# Elastic Constant Matrix: (Units=GPa)
#
#
# Indices 1 2 3 4 5 6 
#
# 1 66.7291 41.1426 4.8142 0.0000 -4.0091 0.0000
# 2 41.1426 75.1557 9.6322 0.0000 -6.7376 0.0000
# 3 4.8142 9.6322 74.6016 0.0000 -11.8865 0.0000
# 4 0.0000 0.0000 0.0000 -12.6140 0.0000 -1.0932
# 5 -4.0091 -6.7376 -11.8865 0.0000 25.2505 0.0000
# 6 0.0000 0.0000 0.0000 -1.0932 0.0000 -20.5368
#
#
#
# Elastic Compliance Matrix: (Units=1/GPa)
#
#
# Indices 1 2 3 4 5 6 
#
# 1 0.022626 -0.012377 0.000199 0.000000 0.000383 0.000000
# 2 -0.012377 0.020516 -0.001396 0.000000 0.002852 0.000000
# 3 0.000199 -0.001396 0.014614 0.000000 0.006538 0.000000
# 4 0.000000 0.000000 0.000000 -0.079645 0.000000 0.004239
# 5 0.000383 0.002852 0.006538 0.000000 0.043503 0.000000
# 6 0.000000 0.000000 0.000000 0.004239 0.000000 -0.048919
#
#
# Mechanical properties :
#
#
# Convention : Reuss Voigt Hill
#
# Bulk Modulus (GPa) = 32.67149 36.40717 34.53933
# Shear Modulus (GPa) = 497.70350 9.14643 253.42497
#
# Velocity S-wave (km/s) = 15.57462 2.11134 11.11365
# Velocity P-wave (km/s) = 18.42141 4.86700 13.47286
#
# Compressibility (1/GPa) = 0.03060772
#
# Stress axis : x y z
#
# Youngs Moduli (GPa) = 44.19687 48.74239 68.42901
#
# Poissons Ratio (x) = 0.60330 -0.01362
# Poissons Ratio (y) = 0.54704 0.09551
# Poissons Ratio (z) = -0.00880 0.06803
#
# Static dielectric constant tensor:
#      x y z
#    x 1.740780 0.000000 0.018020 
#    y 0.000000 1.724850 0.000000 
#    z 0.018020 0.000000 1.765840 
# 
# From -- ./inp_files/146174.got.cif
#   From: 2010.05.17/outbox.cif.g08.bks.cpg/sg12_74_cif.got.tgz:146174.got - 2010.06.03 13:09:07.
