data_PCOD9209813
_publ_section_title
;
Structure prediction by ZEFSAII (Michael W. Deem and Ramdas Pophale) SiO2 
 PCOD9209813
Probable space group: C 2/M
;
_chemical_formula_sum "Si O2"
_cell_formula_units_Z 42
_cell_length_a 10.202572
_cell_length_b 11.123029
_cell_length_c 22.354382
_cell_angle_alpha 90.000000
_cell_angle_beta 40.428157
_cell_angle_gamma 90.000000
_cell_volume 1645.134512
_symmetry_space_group_name_H-M "C 2/M"
_symmetry_group_IT_number 12
_symmetry_cell_setting 'monoclinic'
loop_
_space_group_symop_operation_xyz
x,y,z
-x,y,-z
-x,-y,-z
x,-y,z
1/2+x,1/2+y,z
1/2-x,1/2+y,-z
1/2-x,1/2-y,-z
1/2+x,1/2-y,z
loop_
_atom_site_type_symbol
_atom_site_label
_atom_site_fract_x
_atom_site_fract_y
_atom_site_fract_z
Si Si1 0.703147 0.250735 0.586151
Si Si2 0.291486 0.500000 0.353395
Si Si3 0.775498 0.500000 0.362012
Si Si4 0.257590 0.000000 0.769828
Si Si5 0.500000 0.500000 0.000000
Si Si6 0.784526 0.758524 0.058091
Si Si7 0.752594 0.500000 0.232193
Si Si8 0.271227 0.745407 0.795020
O O1 0.750000 0.250000 0.500000
O O2 0.774496 0.375575 0.591838
O O3 0.781691 0.125625 0.586990
O O4 0.462406 0.248178 0.684135
O O5 0.228074 0.500000 0.306458
O O6 0.536085 0.500000 0.273516
O O7 0.704895 0.500000 0.318783
O O8 0.020477 0.500000 0.278211
O O9 0.159516 0.874325 0.825605
O O10 0.670273 0.397033 0.948473
O O11 0.653580 0.727400 0.162741
O O12 0.750000 0.750000 0.000000
O O13 0.000000 0.694767 0.000000
O O14 0.851249 0.627033 0.181324
#
# Coordination Sequence:
#
# PCOD9209813 Si02
#       8
#     8   4   4   4   2   8   4   8
#     4  10  21  40  64  95 132 173 223 276 336 404
#     4  10  21  39  59  90 123 173 213 268 324 397
#     4  10  21  39  59  88 127 171 215 273 325 389
#     4  10  21  38  65  89 123 169 220 266 329 398
#     4   8  22  46  68 104 140 182 232 298 366 420
#     4  10  23  43  70 100 138 180 236 289 357 426
#     4  10  22  39  62  92 131 163 220 269 336 396
#     4  10  22  42  64  99 130 179 221 282 338 412
#
# _framework density 25.529824999999999
#
# number of rings (size 3 to 8) (size 9 to 14) (size 15 to 20)
#    0.571    1.524    0.000    2.286    0.000    6.857 
#    0.000   24.762    0.000    0.000    0.000    0.000 
#    0.000    0.000    0.000    0.000    0.000    0.000 
#
# Total GULP energy -117059.018663 kJ/mol
# GULP energy per Si atom -5574.238984 kJ/mol
# Density = 2.547172 g / cm^3
# Si number density = 25.529825 Si / 1000 Ang^3
#
#
#
# Elastic Constant Matrix: (Units=GPa)
#
#
# Indices 1 2 3 4 5 6 
#
# 1 83.9408 26.7536 57.5854 0.0001 33.9921 0.0000
# 2 26.7536 269.7868 58.3667 0.0001 43.6838 0.0000
# 3 57.5854 58.3667 181.8097 0.0003 54.9873 -0.0001
# 4 0.0001 0.0001 0.0003 9.3764 -0.0002 16.2718
# 5 33.9921 43.6838 54.9873 -0.0002 66.1569 0.0001
# 6 0.0000 0.0000 -0.0001 16.2718 0.0001 99.5374
#
#
#
# Elastic Compliance Matrix: (Units=1/GPa)
#
#
# Indices 1 2 3 4 5 6 
#
# 1 0.016624 0.000031 -0.003588 0.000000 -0.005580 0.000000
# 2 0.000031 0.004213 -0.000690 0.000000 -0.002225 0.000000
# 3 -0.003588 -0.000690 0.008232 -0.000001 -0.004544 0.000000
# 4 0.000000 0.000000 -0.000001 0.148889 0.000001 -0.024339
# 5 -0.005580 -0.002225 -0.004544 0.000001 0.023228 0.000000
# 6 0.000000 0.000000 0.000000 -0.024339 0.000000 0.014025
#
#
# Mechanical properties :
#
#
# Convention : Reuss Voigt Hill
#
# Bulk Modulus (GPa) = 48.59744 91.21651 69.90697
# Shear Modulus (GPa) = 21.68604 61.20292 41.44448
#
# Velocity S-wave (km/s) = 2.91768 4.90155 4.03348
# Velocity P-wave (km/s) = 5.51610 8.23653 7.00956
#
# Compressibility (1/GPa) = 0.02057722
#
# Stress axis : x y z
#
# Youngs Moduli (GPa) = 60.15305 237.36385 121.47491
#
# Poissons Ratio (x) = -0.00740 0.43582
# Poissons Ratio (y) = -0.00188 0.08376
# Poissons Ratio (z) = 0.21582 0.16366
#
# Static dielectric constant tensor:
#      x y z
#    x 2.155850 0.000000 -0.075110 
#    y 0.000000 2.069350 0.000000 
#    z -0.075110 0.000000 2.044280 
# 
# From -- ./inp_files/304061.got.cif
#   From: 2010.05.17/outbox.cif.g08.bks.cpg/sg12_153_cif.got.tgz:304061.got - 2010.06.03 13:09:07.
