data_PCOD9209247
_publ_section_title
;
Structure prediction by ZEFSAII (Michael W. Deem and Ramdas Pophale) SiO2 
 PCOD9209247
Probable space group: C 2/M
;
_chemical_formula_sum "Si O2"
_cell_formula_units_Z 56
_cell_length_a 27.815686
_cell_length_b 8.810932
_cell_length_c 13.883556
_cell_angle_alpha 90.000000
_cell_angle_beta 60.065527
_cell_angle_gamma 90.000000
_cell_volume 2948.691623
_symmetry_space_group_name_H-M "C 2/M"
_symmetry_group_IT_number 12
_symmetry_cell_setting 'monoclinic'
loop_
_space_group_symop_operation_xyz
x,y,z
-x,y,-z
-x,-y,-z
x,-y,z
1/2+x,1/2+y,z
1/2-x,1/2+y,-z
1/2-x,1/2-y,-z
1/2+x,1/2-y,z
loop_
_atom_site_type_symbol
_atom_site_label
_atom_site_fract_x
_atom_site_fract_y
_atom_site_fract_z
Si Si1 0.596331 0.817676 0.269287
Si Si2 0.167172 0.817472 0.837850
Si Si3 0.764095 0.317726 0.589944
Si Si4 0.973538 0.318625 0.314661
Si Si5 0.046829 0.817401 0.874481
Si Si6 0.692227 0.818319 0.021251
Si Si7 0.879963 0.180891 0.546004
O O1 0.535473 0.781856 0.289214
O O2 0.643186 0.776739 0.144504
O O3 0.607278 0.735227 0.358694
O O4 0.599108 0.000000 0.282362
O O5 0.215447 0.777946 0.714005
O O6 0.107296 0.775148 0.854719
O O7 0.167776 0.000000 0.849808
O O8 0.178124 0.741805 0.929408
O O9 0.767127 0.500000 0.580768
O O10 0.750000 0.250000 0.500000
O O11 0.822113 0.252653 0.569340
O O12 0.966438 0.500000 0.327059
O O13 0.965280 0.262620 0.214164
O O14 0.928550 0.239862 0.427850
O O15 0.046197 0.000000 0.860459
O O16 0.000000 0.780077 0.000000
O O17 0.696343 0.000000 0.015322
O O18 0.750000 0.750000 0.000000
O O19 0.876508 0.000000 0.544715
#
# Coordination Sequence:
#
# PCOD9209247 Si02
#       7
#     8   8   8   8   8   8   8
#     4  10  23  42  61  86 120 156 196 244 298 354
#     4  10  22  39  59  86 120 156 195 240 290 345
#     4  11  23  40  62  88 121 160 201 247 296 350
#     4  11  23  40  63  88 118 157 199 246 299 357
#     4  10  21  38  61  90 124 158 194 242 296 350
#     4  11  23  39  61  88 119 155 196 242 291 348
#     4  12  25  40  61  89 119 154 199 248 300 359
#
# _framework density 18.991472999999999
#
# number of rings (size 3 to 8) (size 9 to 14) (size 15 to 20)
#    0.000    1.286    0.000    5.571    0.000   10.571 
#    0.000    0.000    0.000    0.000    0.000    0.000 
#    0.000    0.000    0.000    0.000    0.000    0.000 
#
# Total GULP energy -156674.573247 kJ/mol
# GULP energy per Si atom -5595.520473 kJ/mol
# Density = 1.894825 g / cm^3
# Si number density = 18.991473 Si / 1000 Ang^3
#
#
#
# Elastic Constant Matrix: (Units=GPa)
#
#
# Indices 1 2 3 4 5 6 
#
# 1 208.1212 81.5762 126.8472 0.0000 -3.3614 0.0000
# 2 81.5762 66.9628 87.0735 0.0000 -0.2136 0.0000
# 3 126.8472 87.0735 208.6905 0.0000 0.5128 0.0000
# 4 0.0000 0.0000 0.0000 36.3451 0.0000 10.7477
# 5 -3.3614 -0.2136 0.5128 0.0000 45.1425 0.0000
# 6 0.0000 0.0000 0.0000 10.7477 0.0000 31.2395
#
#
#
# Elastic Compliance Matrix: (Units=1/GPa)
#
#
# Indices 1 2 3 4 5 6 
#
# 1 0.009617 -0.008985 -0.002098 0.000000 0.000697 0.000000
# 2 -0.008985 0.041044 -0.011663 0.000000 -0.000342 0.000000
# 3 -0.002098 -0.011663 0.010934 0.000000 -0.000336 0.000000
# 4 0.000000 0.000000 0.000000 0.030630 0.000000 -0.010538
# 5 0.000697 -0.000342 -0.000336 0.000000 0.022206 0.000000
# 6 0.000000 0.000000 0.000000 -0.010538 0.000000 0.035636
#
#
# Mechanical properties :
#
#
# Convention : Reuss Voigt Hill
#
# Bulk Modulus (GPa) = 62.10116 119.41869 90.75992
# Shear Modulus (GPa) = 24.88462 35.09726 29.99094
#
# Velocity S-wave (km/s) = 3.62374 4.30356 3.97820
# Velocity P-wave (km/s) = 7.09078 9.36541 8.30632
#
# Compressibility (1/GPa) = 0.01610276
#
# Stress axis : x y z
#
# Youngs Moduli (GPa) = 103.98569 24.36411 91.45629
#
# Poissons Ratio (x) = 0.21891 0.19189
# Poissons Ratio (y) = 0.93430 1.06666
# Poissons Ratio (z) = 0.21818 0.28416
#
# Static dielectric constant tensor:
#      x y z
#    x 1.623770 0.000000 -0.014420 
#    y 0.000000 1.638560 0.000000 
#    z -0.014420 0.000000 1.618490 
# 
# From -- ./inp_files/180844.got.cif
#   From: 2010.05.17/outbox.cif.g08.bks.cpg/sg12_91_cif.got.tgz:180844.got - 2010.06.03 13:09:07.
