data_PCOD9209746
_publ_section_title
;
Structure prediction by ZEFSAII (Michael W. Deem and Ramdas Pophale) SiO2 
 PCOD9209746
Probable space group: C 2/M
;
_chemical_formula_sum "Si O2"
_cell_formula_units_Z 28
_cell_length_a 8.193484
_cell_length_b 31.975396
_cell_length_c 5.580168
_cell_angle_alpha 90.000000
_cell_angle_beta 119.358079
_cell_angle_gamma 90.000000
_cell_volume 1274.193721
_symmetry_space_group_name_H-M "C 2/M"
_symmetry_group_IT_number 12
_symmetry_cell_setting 'monoclinic'
loop_
_space_group_symop_operation_xyz
x,y,z
-x,y,-z
-x,-y,-z
x,-y,z
1/2+x,1/2+y,z
1/2-x,1/2+y,-z
1/2-x,1/2-y,-z
1/2+x,1/2-y,z
loop_
_atom_site_type_symbol
_atom_site_label
_atom_site_fract_x
_atom_site_fract_y
_atom_site_fract_z
Si Si1 0.321604 0.623207 0.047802
Si Si2 0.500000 0.905915 0.500000
Si Si3 0.604705 0.714571 0.820174
Si Si4 0.293201 0.953093 0.730223
O O1 0.324610 0.667502 0.185801
O O2 0.321360 0.582252 0.214105
O O3 0.500000 0.620748 0.000000
O O4 0.121696 0.621555 0.767930
O O5 0.344003 0.935676 0.506295
O O6 0.500000 0.728188 0.500000
O O7 0.500000 0.708994 0.000000
O O8 0.750000 0.750000 0.000000
O O9 0.217622 0.000000 0.678774
O O10 0.500000 0.954519 0.000000
#
# Coordination Sequence:
#
# PCOD9209746 Si02
#       4
#     8   4   8   8
#     4  10  24  40  65  95 137 171 227 281 345 403
#     4  10  21  38  64  92 128 186 220 282 339 402
#     4  11  26  46  73 103 140 178 228 286 347 419
#     4   9  19  37  61  93 130 175 228 277 334 405
#
# _framework density 21.974681
#
# number of rings (size 3 to 8) (size 9 to 14) (size 15 to 20)
#    0.000    2.000    0.000    1.286   10.000    5.143 
#    0.000    1.429    0.000    0.000    0.000    0.000 
#    0.000    0.000    0.000    0.000    0.000    0.000 
#
# Total GULP energy -78092.036757 kJ/mol
# GULP energy per Si atom -5578.002626 kJ/mol
# Density = 2.192467 g / cm^3
# Si number density = 21.974681 Si / 1000 Ang^3
#
#
#
# Elastic Constant Matrix: (Units=GPa)
#
#
# Indices 1 2 3 4 5 6 
#
# 1 80.4901 65.9663 19.7293 0.0000 -6.7404 0.0000
# 2 65.9663 185.5333 52.8916 0.0000 5.7809 0.0000
# 3 19.7293 52.8916 143.0406 0.0000 12.5661 0.0000
# 4 0.0000 0.0000 0.0000 -1.4660 0.0000 88.7687
# 5 -6.7404 5.7809 12.5661 0.0000 32.8888 0.0000
# 6 0.0000 0.0000 0.0000 88.7687 0.0000 -804.4157
#
#
#
# Elastic Compliance Matrix: (Units=1/GPa)
#
#
# Indices 1 2 3 4 5 6 
#
# 1 0.018332 -0.006515 -0.000569 0.000000 0.005120 0.000000
# 2 -0.006515 0.008342 -0.002007 0.000000 -0.002035 0.000000
# 3 -0.000569 -0.002007 0.008062 0.000000 -0.002844 0.000000
# 4 0.000000 0.000000 0.000000 0.120051 0.000000 0.013248
# 5 0.005120 -0.002035 -0.002844 0.000000 0.032899 0.000000
# 6 0.000000 0.000000 0.000000 0.013248 0.000000 0.000219
#
#
# Mechanical properties :
#
#
# Convention : Reuss Voigt Hill
#
# Bulk Modulus (GPa) = 60.41484 76.24872 68.33178
# Shear Modulus (GPa) = 23.62898 -136.56680 -56.46891
#
# Velocity S-wave (km/s) = 3.28271 -7.89191 -5.07475
# Velocity P-wave (km/s) = 6.47463 6.94761 1.78163
#
# Compressibility (1/GPa) = 0.01655223
#
# Stress axis : x y z
#
# Youngs Moduli (GPa) = 54.55068 119.87679 124.04535
#
# Poissons Ratio (x) = 0.78100 0.07060
# Poissons Ratio (y) = 0.35540 0.24898
# Poissons Ratio (z) = 0.03105 0.24062
#
# Static dielectric constant tensor:
#      x y z
#    x 1.748590 0.000000 0.053520 
#    y 0.000000 1.808830 0.000000 
#    z 0.053520 0.000000 2.045870 
# 
# From -- ./inp_files/3411.got.cif
#   From: 2010.05.17/outbox.cif.g08.bks.cpg/sg12_2_cif.got.tgz:3411.got - 2010.06.03 13:09:07.
