data_PCOD9209942
_publ_section_title
;
Structure prediction by ZEFSAII (Michael W. Deem and Ramdas Pophale) SiO2 
 PCOD9209942
Probable space group: C 2/M
;
_chemical_formula_sum "Si O2"
_cell_formula_units_Z 36
_cell_length_a 15.498011
_cell_length_b 19.543741
_cell_length_c 7.309731
_cell_angle_alpha 90.000000
_cell_angle_beta 142.857758
_cell_angle_gamma 90.000000
_cell_volume 1336.826924
_symmetry_space_group_name_H-M "C 2/M"
_symmetry_group_IT_number 12
_symmetry_cell_setting 'monoclinic'
loop_
_space_group_symop_operation_xyz
x,y,z
-x,y,-z
-x,-y,-z
x,-y,z
1/2+x,1/2+y,z
1/2-x,1/2+y,-z
1/2-x,1/2-y,-z
1/2+x,1/2-y,z
loop_
_atom_site_type_symbol
_atom_site_label
_atom_site_fract_x
_atom_site_fract_y
_atom_site_fract_z
Si Si1 0.440415 0.167550 0.083002
Si Si2 0.220721 0.581070 0.633201
Si Si3 0.336090 0.000000 0.148478
Si Si4 0.000000 0.760354 0.500000
Si Si5 0.097684 0.000000 0.488519
Si Si6 0.366633 0.641218 0.579490
O O1 0.562061 0.111222 0.329351
O O2 0.410852 0.209912 0.216976
O O3 0.500000 0.207201 0.000000
O O4 0.294857 0.136383 0.767998
O O5 0.233293 0.500000 0.586789
O O6 0.229541 0.567282 0.863522
O O7 0.328526 0.638439 0.732829
O O8 0.500000 0.000000 0.500000
O O9 0.264604 0.000000 0.831467
O O10 0.930326 0.804836 0.544882
O O11 0.060212 0.931398 0.322234
O O12 0.000000 0.000000 0.500000
#
# Coordination Sequence:
#
# PCOD9209942 Si02
#       6
#     8   8   4   4   4   8
#     4  10  24  41  67  99 131 179 233 294 339 402
#     4   9  21  40  66 103 128 166 225 300 343 390
#     4  10  21  38  69 109 130 169 226 292 352 402
#     4  12  26  45  63  92 140 190 236 256 350 424
#     4  12  23  40  67 102 139 178 222 283 358 407
#     4  11  23  44  66  94 138 180 226 283 346 415
#
# _framework density 26.929438999999999
#
# number of rings (size 3 to 8) (size 9 to 14) (size 15 to 20)
#    0.667    0.889    2.222    2.000    6.222    4.889 
#    4.000    2.222    0.000    0.000    0.000    0.000 
#    0.000    0.000    0.000    0.000    0.000    0.000 
#
# Total GULP energy -100274.691889 kJ/mol
# GULP energy per Si atom -5570.816216 kJ/mol
# Density = 2.686815 g / cm^3
# Si number density = 26.929439 Si / 1000 Ang^3
#
#
#
# Elastic Constant Matrix: (Units=GPa)
#
#
# Indices 1 2 3 4 5 6 
#
# 1 101.4603 50.4146 16.9505 0.0000 -16.0743 0.0000
# 2 50.4146 90.5087 14.6726 0.0000 -5.6706 0.0000
# 3 16.9505 14.6726 80.9610 0.0000 -15.6599 0.0000
# 4 0.0000 0.0000 0.0000 35.6069 0.0000 58.0014
# 5 -16.0743 -5.6706 -15.6599 0.0000 48.3960 0.0000
# 6 0.0000 0.0000 0.0000 58.0014 0.0000 233.5320
#
#
#
# Elastic Compliance Matrix: (Units=1/GPa)
#
#
# Indices 1 2 3 4 5 6 
#
# 1 0.014369 -0.007628 -0.000934 0.000000 0.003577 0.000000
# 2 -0.007628 0.015456 -0.001433 0.000000 -0.001187 0.000000
# 3 -0.000934 -0.001433 0.013563 0.000000 0.003911 0.000000
# 4 0.000000 0.000000 0.000000 0.047167 0.000000 -0.011715
# 5 0.003577 -0.001187 0.003911 0.000000 0.022977 0.000000
# 6 0.000000 0.000000 0.000000 -0.011715 0.000000 0.007192
#
#
# Mechanical properties :
#
#
# Convention : Reuss Voigt Hill
#
# Bulk Modulus (GPa) = 42.74139 48.55614 45.64876
# Shear Modulus (GPa) = 33.66670 76.23313 54.94991
#
# Velocity S-wave (km/s) = 3.53963 5.32634 4.52211
# Velocity P-wave (km/s) = 5.71064 7.47640 6.65237
#
# Compressibility (1/GPa) = 0.02339653
#
# Stress axis : x y z
#
# Youngs Moduli (GPa) = 69.59324 64.70062 73.72784
#
# Poissons Ratio (x) = 0.49356 0.06887
# Poissons Ratio (y) = 0.53088 0.10569
# Poissons Ratio (z) = 0.06501 0.09274
#
# Static dielectric constant tensor:
#      x y z
#    x 2.262540 0.000000 0.030400 
#    y 0.000000 2.124270 0.000000 
#    z 0.030400 0.000000 2.144170 
# 
# From -- ./inp_files/78172.got.cif
#   From: 2010.05.17/outbox.cif.g08.bks.cpg/sg12_40_cif.got.tgz:78172.got - 2010.06.03 13:09:07.
