data_PCOD9209850
_publ_section_title
;
Structure prediction by ZEFSAII (Michael W. Deem and Ramdas Pophale) SiO2 
 PCOD9209850
Probable space group: C 2/M
;
_chemical_formula_sum "Si O2"
_cell_formula_units_Z 64
_cell_length_a 14.671059
_cell_length_b 8.536969
_cell_length_c 22.285863
_cell_angle_alpha 90.000000
_cell_angle_beta 101.263822
_cell_angle_gamma 90.000000
_cell_volume 2737.459551
_symmetry_space_group_name_H-M "C 2/M"
_symmetry_group_IT_number 12
_symmetry_cell_setting 'monoclinic'
loop_
_space_group_symop_operation_xyz
x,y,z
-x,y,-z
-x,-y,-z
x,-y,z
1/2+x,1/2+y,z
1/2-x,1/2+y,-z
1/2-x,1/2-y,-z
1/2+x,1/2-y,z
loop_
_atom_site_type_symbol
_atom_site_label
_atom_site_fract_x
_atom_site_fract_y
_atom_site_fract_z
Si Si1 0.194071 0.318164 0.549037
Si Si2 0.534736 0.317444 0.602696
Si Si3 0.341185 0.815335 0.765784
Si Si4 0.857650 0.680987 0.634481
Si Si5 0.197709 0.185443 0.051492
Si Si6 0.134046 0.185163 0.857791
Si Si7 0.964735 0.314206 0.898301
Si Si8 0.636554 0.183971 0.731331
O O1 0.175078 0.500000 0.538463
O O2 0.250000 0.250000 0.500000
O O3 0.099886 0.232047 0.555887
O O4 0.269100 0.289483 0.611452
O O5 0.512645 0.500000 0.596630
O O6 0.439928 0.221895 0.599543
O O7 0.593693 0.278945 0.670415
O O8 0.390073 0.798102 0.707268
O O9 0.404693 0.776562 0.830544
O O10 0.246569 0.718001 0.749859
O O11 0.315947 0.000000 0.768362
O O12 0.828682 0.500000 0.623282
O O13 0.269215 0.232837 0.113374
O O14 0.099447 0.263745 0.054623
O O15 0.187039 0.000000 0.046234
O O16 0.250000 0.250000 0.000000
O O17 0.099236 0.256832 0.790689
O O18 0.060528 0.224019 0.900482
O O19 0.147486 0.000000 0.854298
O O20 0.982342 0.500000 0.902340
O O21 0.617592 0.000000 0.720296
#
# Coordination Sequence:
#
# PCOD9209850 Si02
#       8
#     8   8   8   8   8   8   8   8
#     4  12  26  46  69  96 129 171 221 272 327 386
#     4  12  25  43  67  98 135 174 217 267 324 387
#     4  10  21  38  65  96 134 172 211 260 325 390
#     4  11  23  42  68 100 135 172 215 267 326 388
#     4  12  26  46  69  96 129 171 221 272 327 386
#     4  12  25  43  67  98 135 174 217 267 324 387
#     4  11  23  42  68 100 135 172 215 267 326 388
#     4  12  23  38  65  98 134 174 217 264 323 388
#
# _framework density 23.379339999999999
#
# number of rings (size 3 to 8) (size 9 to 14) (size 15 to 20)
#    0.000    0.500    2.500    7.125    0.000    3.000 
#    0.000    5.000    0.000    0.000    0.000    0.000 
#    0.000    0.000    0.000    0.000    0.000    0.000 
#
# Total GULP energy -179345.081559 kJ/mol
# GULP energy per Si atom -5604.533799 kJ/mol
# Density = 2.332613 g / cm^3
# Si number density = 23.379340 Si / 1000 Ang^3
#
#
#
# Elastic Constant Matrix: (Units=GPa)
#
#
# Indices 1 2 3 4 5 6 
#
# 1 85.3641 -5.8970 7.0065 0.0000 -30.2830 0.0000
# 2 -5.8970 75.0796 -0.3131 0.0000 -4.9617 0.0000
# 3 7.0065 -0.3131 79.2389 0.0000 -24.6591 0.0000
# 4 0.0000 0.0000 0.0000 29.2439 0.0000 -6.0057
# 5 -30.2830 -4.9617 -24.6591 0.0000 44.3293 0.0000
# 6 0.0000 0.0000 0.0000 -6.0057 0.0000 38.1715
#
#
#
# Elastic Compliance Matrix: (Units=1/GPa)
#
#
# Indices 1 2 3 4 5 6 
#
# 1 0.016149 0.002116 0.002524 0.000000 0.012673 0.000000
# 2 0.002116 0.013722 0.000961 0.000000 0.003516 0.000000
# 3 0.002524 0.000961 0.015686 0.000000 0.010558 0.000000
# 4 0.000000 0.000000 0.000000 0.035337 0.000000 0.005560
# 5 0.012673 0.003516 0.010558 0.000000 0.037483 0.000000
# 6 0.000000 0.000000 0.000000 0.005560 0.000000 0.027072
#
#
# Mechanical properties :
#
#
# Convention : Reuss Voigt Hill
#
# Bulk Modulus (GPa) = 17.61744 26.80839 22.21291
# Shear Modulus (GPa) = 32.64439 38.27469 35.45954
#
# Velocity S-wave (km/s) = 3.74075 4.05052 3.89871
# Velocity P-wave (km/s) = 5.11952 5.77643 5.45787
#
# Compressibility (1/GPa) = 0.05676195
#
# Stress axis : x y z
#
# Youngs Moduli (GPa) = 61.92169 72.87663 63.74998
#
# Poissons Ratio (x) = -0.15424 -0.16093
# Poissons Ratio (y) = -0.13106 -0.06129
# Poissons Ratio (z) = -0.15631 -0.07006
#
# Static dielectric constant tensor:
#      x y z
#    x 1.821950 0.000000 -0.052210 
#    y 0.000000 1.773410 0.000000 
#    z -0.052210 0.000000 1.899230 
# 
# From -- ./inp_files/338837.got.cif
#   From: 2010.05.17/outbox.cif.g08.bks.cpg/sg12_170_cif.got.tgz:338837.got - 2010.06.03 13:09:07.
