data_PCOD9209891
_publ_section_title
;
Structure prediction by ZEFSAII (Michael W. Deem and Ramdas Pophale) SiO2 
 PCOD9209891
Probable space group: C 2/M
;
_chemical_formula_sum "Si O2"
_cell_formula_units_Z 52
_cell_length_a 14.436442
_cell_length_b 26.566978
_cell_length_c 7.097527
_cell_angle_alpha 90.000000
_cell_angle_beta 126.970544
_cell_angle_gamma 90.000000
_cell_volume 2174.834203
_symmetry_space_group_name_H-M "C 2/M"
_symmetry_group_IT_number 12
_symmetry_cell_setting 'monoclinic'
loop_
_space_group_symop_operation_xyz
x,y,z
-x,y,-z
-x,-y,-z
x,-y,z
1/2+x,1/2+y,z
1/2-x,1/2+y,-z
1/2-x,1/2-y,-z
1/2+x,1/2-y,z
loop_
_atom_site_type_symbol
_atom_site_label
_atom_site_fract_x
_atom_site_fract_y
_atom_site_fract_z
Si Si1 0.133351 0.661882 0.135713
Si Si2 0.282702 0.445521 0.923794
Si Si3 0.500000 0.680766 0.000000
Si Si4 0.632769 0.854000 0.689232
Si Si5 0.970466 0.908169 0.683699
Si Si6 0.277394 0.055203 0.702199
Si Si7 0.764948 0.239477 0.796049
O O1 0.153709 0.607025 0.251915
O O2 0.224144 0.706607 0.293275
O O3 0.149100 0.654582 0.931586
O O4 0.000000 0.677336 0.000000
O O5 0.251769 0.500000 0.807832
O O6 0.219044 0.399305 0.747099
O O7 0.420200 0.437255 0.095426
O O8 0.244087 0.445195 0.096979
O O9 0.534732 0.644370 0.214507
O O10 0.611376 0.712900 0.080205
O O11 0.500000 0.867795 0.500000
O O12 0.666440 0.801734 0.628996
O O13 0.850166 0.937809 0.542505
O O14 0.000000 0.899620 0.500000
O O15 0.327544 0.000000 0.716020
O O16 0.750000 0.250000 0.000000
#
# Coordination Sequence:
#
# PCOD9209891 Si02
#       7
#     8   8   4   8   8   8   8
#     4  10  21  40  62  87 123 167 222 271 330 406
#     4   9  17  35  62  88 125 178 221 273 339 399
#     4  12  22  42  71  96 137 180 220 280 346 398
#     4  10  21  39  60  87 131 169 216 280 338 401
#     4  10  21  38  66  97 134 171 226 280 339 406
#     4   9  19  37  62  91 125 169 219 275 338 399
#     4  10  22  42  65  92 133 178 220 285 335 401
#
# _framework density 23.909867999999999
#
# number of rings (size 3 to 8) (size 9 to 14) (size 15 to 20)
#    0.000    2.154    2.308    0.462    2.154    3.692 
#    5.538    3.077    0.000    0.000    0.000    0.000 
#    0.000    0.000    0.000    0.000    0.000    0.000 
#
# Total GULP energy -145425.518676 kJ/mol
# GULP energy per Si atom -5593.289180 kJ/mol
# Density = 2.385545 g / cm^3
# Si number density = 23.909868 Si / 1000 Ang^3
#
#
#
# Elastic Constant Matrix: (Units=GPa)
#
#
# Indices 1 2 3 4 5 6 
#
# 1 80.1320 29.0004 10.0356 0.0000 -5.1811 0.0000
# 2 29.0004 180.9096 34.6268 0.0000 16.1437 0.0000
# 3 10.0356 34.6268 69.1209 0.0000 0.2346 0.0000
# 4 0.0000 0.0000 0.0000 -22.5424 0.0000 12.6036
# 5 -5.1811 16.1437 0.2346 0.0000 42.8207 0.0000
# 6 0.0000 0.0000 0.0000 12.6036 0.0000 23.9519
#
#
#
# Elastic Compliance Matrix: (Units=1/GPa)
#
#
# Indices 1 2 3 4 5 6 
#
# 1 0.013555 -0.002230 -0.000859 0.000000 0.002486 0.000000
# 2 -0.002230 0.006714 -0.003030 0.000000 -0.002784 0.000000
# 3 -0.000859 -0.003030 0.016107 0.000000 0.000950 0.000000
# 4 0.000000 0.000000 0.000000 -0.034277 0.000000 0.018037
# 5 0.002486 -0.002784 0.000950 0.000000 0.024698 0.000000
# 6 0.000000 0.000000 0.000000 0.018037 0.000000 0.032259
#
#
# Mechanical properties :
#
#
# Convention : Reuss Voigt Hill
#
# Bulk Modulus (GPa) = 41.43113 53.05424 47.24269
# Shear Modulus (GPa) = 63.01927 25.94603 44.48265
#
# Velocity S-wave (km/s) = 5.13948 3.29775 4.31795
# Velocity P-wave (km/s) = 7.25153 6.06116 6.68290
#
# Compressibility (1/GPa) = 0.02413644
#
# Stress axis : x y z
#
# Youngs Moduli (GPa) = 73.77424 148.95261 62.08550
#
# Poissons Ratio (x) = 0.33220 0.05334
# Poissons Ratio (y) = 0.16453 0.18812
# Poissons Ratio (z) = 0.06339 0.45132
#
# Static dielectric constant tensor:
#      x y z
#    x 1.978880 0.000000 -0.019400 
#    y 0.000000 1.939300 0.000000 
#    z -0.019400 0.000000 1.898300 
# 
# From -- ./inp_files/67133.got.cif
#   From: 2010.05.17/outbox.cif.g08.bks.cpg/sg12_34_cif.got.tgz:67133.got - 2010.06.03 13:09:07.
