data_PCOD9209797
_publ_section_title
;
Structure prediction by ZEFSAII (Michael W. Deem and Ramdas Pophale) SiO2 
 PCOD9209797
Probable space group: C 2/M
;
_chemical_formula_sum "Si O2"
_cell_formula_units_Z 56
_cell_length_a 10.706760
_cell_length_b 16.923611
_cell_length_c 14.879923
_cell_angle_alpha 90.000000
_cell_angle_beta 115.715453
_cell_angle_gamma 90.000000
_cell_volume 2429.166646
_symmetry_space_group_name_H-M "C 2/M"
_symmetry_group_IT_number 12
_symmetry_cell_setting 'monoclinic'
loop_
_space_group_symop_operation_xyz
x,y,z
-x,y,-z
-x,-y,-z
x,-y,z
1/2+x,1/2+y,z
1/2-x,1/2+y,-z
1/2-x,1/2-y,-z
1/2+x,1/2-y,z
loop_
_atom_site_type_symbol
_atom_site_label
_atom_site_fract_x
_atom_site_fract_y
_atom_site_fract_z
Si Si1 0.381015 0.088598 0.753377
Si Si2 0.588703 0.406632 0.294645
Si Si3 0.888160 0.145552 0.386016
Si Si4 0.666347 0.800921 0.556458
Si Si5 0.604698 0.665121 0.115395
Si Si6 0.331973 0.908906 0.097050
Si Si7 0.660237 0.160362 0.080484
O O1 0.263485 0.109423 0.646013
O O2 0.528689 0.129494 0.816880
O O3 0.311742 0.100782 0.829784
O O4 0.420721 0.000000 0.746388
O O5 0.600077 0.500000 0.279239
O O6 0.467400 0.392685 0.328570
O O7 0.729898 0.370204 0.382098
O O8 0.548757 0.352449 0.196448
O O9 0.848640 0.237393 0.367576
O O10 0.000000 0.138870 0.500000
O O11 0.500000 0.824627 0.500000
O O12 0.750000 0.750000 0.500000
O O13 0.719303 0.597855 0.138339
O O14 0.672056 0.751686 0.122401
O O15 0.500000 0.657836 0.000000
O O16 0.354058 0.000000 0.074455
O O17 0.272075 0.860694 0.993082
O O18 0.500000 0.148661 0.000000
#
# Coordination Sequence:
#
# PCOD9209797 Si02
#       7
#     8   8   8   8   8   8   8
#     4  10  21  38  64  98 132 174 227 296 364 421
#     4  12  27  47  74 112 150 192 247 311 375 447
#     4  11  24  47  75 104 141 185 244 297 369 444
#     4  11  23  50  79 111 146 196 244 308 381 447
#     4  11  25  44  66  97 146 193 239 290 363 441
#     4  10  21  39  64  96 136 181 237 298 360 429
#     4   9  19  39  63  94 127 176 234 287 345 422
#
# _framework density 23.053173999999999
#
# number of rings (size 3 to 8) (size 9 to 14) (size 15 to 20)
#    0.000    1.429    2.857    2.571    2.000    5.429 
#   10.286    0.000    0.000    0.000    0.000    0.000 
#    0.000    0.000    0.000    0.000    0.000    0.000 
#
# Total GULP energy -155901.090277 kJ/mol
# GULP energy per Si atom -5567.896081 kJ/mol
# Density = 2.300070 g / cm^3
# Si number density = 23.053174 Si / 1000 Ang^3
#
#
#
# Elastic Constant Matrix: (Units=GPa)
#
#
# Indices 1 2 3 4 5 6 
#
# 1 71.0905 1.3889 23.7503 0.0000 12.6067 0.0000
# 2 1.3889 74.4195 17.9991 0.0000 -0.6347 0.0000
# 3 23.7503 17.9991 80.3723 0.0000 16.5318 0.0000
# 4 0.0000 0.0000 0.0000 30.9875 0.0000 1.0561
# 5 12.6067 -0.6347 16.5318 0.0000 33.9914 0.0000
# 6 0.0000 0.0000 0.0000 1.0561 0.0000 26.8860
#
#
#
# Elastic Compliance Matrix: (Units=1/GPa)
#
#
# Indices 1 2 3 4 5 6 
#
# 1 0.016127 0.000655 -0.004094 0.000000 -0.003978 0.000000
# 2 0.000655 0.014359 -0.003794 0.000000 0.001870 0.000000
# 3 -0.004094 -0.003794 0.015783 0.000000 -0.006228 0.000000
# 4 0.000000 0.000000 0.000000 0.032314 0.000000 -0.001269
# 5 -0.003978 0.001870 -0.006228 0.000000 0.033959 0.000000
# 6 0.000000 0.000000 0.000000 -0.001269 0.000000 0.037244
#
#
# Mechanical properties :
#
#
# Convention : Reuss Voigt Hill
#
# Bulk Modulus (GPa) = 31.44382 34.68434 33.06408
# Shear Modulus (GPa) = 28.59569 30.55591 29.57580
#
# Velocity S-wave (km/s) = 3.52578 3.64463 3.58570
# Velocity P-wave (km/s) = 5.49947 5.72618 5.61397
#
# Compressibility (1/GPa) = 0.03180275
#
# Stress axis : x y z
#
# Youngs Moduli (GPa) = 62.00801 69.64444 63.36060
#
# Poissons Ratio (x) = -0.04564 0.25941
# Poissons Ratio (y) = -0.04063 0.24038
# Poissons Ratio (z) = 0.25387 0.26422
#
# Static dielectric constant tensor:
#      x y z
#    x 1.963030 0.000000 -0.002500 
#    y 0.000000 1.885010 0.000000 
#    z -0.002500 0.000000 1.959810 
# 
# From -- ./inp_files/206781.got.cif
#   From: 2010.05.17/outbox.cif.g08.bks.cpg/sg12_104_cif.got.tgz:206781.got - 2010.06.03 13:09:07.
