data_PCOD9209122
_publ_section_title
;
Structure prediction by ZEFSAII (Michael W. Deem and Ramdas Pophale) SiO2 
 PCOD9209122
Probable space group: C 2/M
;
_chemical_formula_sum "Si O2"
_cell_formula_units_Z 64
_cell_length_a 19.076171
_cell_length_b 8.068183
_cell_length_c 29.711876
_cell_angle_alpha 90.000000
_cell_angle_beta 136.786255
_cell_angle_gamma 90.000000
_cell_volume 3131.203394
_symmetry_space_group_name_H-M "C 2/M"
_symmetry_group_IT_number 12
_symmetry_cell_setting 'monoclinic'
loop_
_space_group_symop_operation_xyz
x,y,z
-x,y,-z
-x,-y,-z
x,-y,z
1/2+x,1/2+y,z
1/2-x,1/2+y,-z
1/2-x,1/2-y,-z
1/2+x,1/2-y,z
loop_
_atom_site_type_symbol
_atom_site_label
_atom_site_fract_x
_atom_site_fract_y
_atom_site_fract_z
Si Si1 0.226995 0.694125 0.539459
Si Si2 0.490430 0.689658 0.544001
Si Si3 0.065758 0.701359 0.317681
Si Si4 0.115955 0.700109 0.064182
Si Si5 0.599409 0.804154 0.685316
Si Si6 0.009590 0.702691 0.189971
Si Si7 0.278029 0.198047 0.063614
Si Si8 0.670548 0.802012 0.189808
O O1 0.199424 0.500000 0.527987
O O2 0.250000 0.750000 0.500000
O O3 0.130486 0.804443 0.506462
O O4 0.326320 0.727752 0.615738
O O5 0.500000 0.774170 0.500000
O O6 0.528484 0.500000 0.559364
O O7 0.546596 0.770002 0.612626
O O8 0.070651 0.500000 0.322326
O O9 0.976760 0.756953 0.310730
O O10 0.042904 0.750211 0.255810
O O11 0.113191 0.500000 0.064393
O O12 0.195563 0.745394 0.062128
O O13 0.150614 0.761765 0.129779
O O14 0.000000 0.757830 0.000000
O O15 0.712759 0.730758 0.741509
O O16 0.609768 0.000000 0.696300
O O17 0.009674 0.500000 0.188808
O O18 0.893236 0.759143 0.127550
O O19 0.088668 0.760664 0.188436
O O20 0.280437 0.000000 0.066645
O O21 0.250000 0.250000 0.000000
O O22 0.656171 0.000000 0.181348
#
# Coordination Sequence:
#
# PCOD9209122 Si02
#       8
#     8   8   8   8   8   8   8   8
#     4  12  24  40  63  91 122 158 202 253 307 367
#     4  11  25  43  64  88 118 159 205 253 308 371
#     4  10  21  39  62  86 116 158 203 248 301 364
#     4  10  21  39  63  91 126 166 209 252 301 359
#     4  11  23  39  60  87 122 160 199 252 308 363
#     4   9  20  39  62  87 118 160 205 247 302 364
#     4  11  22  39  64  93 125 162 206 255 308 363
#     4  10  21  38  61  87 119 161 205 251 302 364
#
# _framework density 20.439427999999999
#
# number of rings (size 3 to 8) (size 9 to 14) (size 15 to 20)
#    0.000    1.500    1.250    3.750    1.750    5.250 
#    0.000    3.750    0.000    0.000    0.000    0.000 
#    0.000    0.000    0.000    0.000    0.000    0.000 
#
# Total GULP energy -178767.800230 kJ/mol
# GULP energy per Si atom -5586.493757 kJ/mol
# Density = 2.039291 g / cm^3
# Si number density = 20.439428 Si / 1000 Ang^3
#
#
#
# Elastic Constant Matrix: (Units=GPa)
#
#
# Indices 1 2 3 4 5 6 
#
# 1 177.3488 -3.1943 101.9584 0.0000 -14.7035 0.0000
# 2 -3.1943 28.9153 4.9516 0.0000 -5.3086 -0.0002
# 3 101.9584 4.9516 186.3567 0.0000 -6.7397 0.0000
# 4 0.0000 0.0000 0.0000 16.5221 0.0000 -1.3664
# 5 -14.7035 -5.3086 -6.7397 0.0000 38.8697 0.0000
# 6 0.0000 -0.0002 0.0000 -1.3664 0.0000 23.3052
#
#
#
# Elastic Compliance Matrix: (Units=1/GPa)
#
#
# Indices 1 2 3 4 5 6 
#
# 1 0.008584 0.002250 -0.004657 0.000000 0.002747 0.000000
# 2 0.002250 0.036174 -0.001995 0.000000 0.005446 0.000000
# 3 -0.004657 -0.001995 0.007943 0.000000 -0.000657 0.000000
# 4 0.000000 0.000000 0.000000 0.060820 0.000000 0.003566
# 5 0.002747 0.005446 -0.000657 0.000000 0.027396 0.000000
# 6 0.000000 0.000000 0.000000 0.003566 0.000000 0.043118
#
#
# Mechanical properties :
#
#
# Convention : Reuss Voigt Hill
#
# Bulk Modulus (GPa) = 22.78062 66.67246 44.72654
# Shear Modulus (GPa) = 24.09967 34.99973 29.54970
#
# Velocity S-wave (km/s) = 3.43749 4.14256 3.80639
# Velocity P-wave (km/s) = 5.18891 7.45462 6.42247
#
# Compressibility (1/GPa) = 0.04389696
#
# Stress axis : x y z
#
# Youngs Moduli (GPa) = 116.49321 27.64430 125.89371
#
# Poissons Ratio (x) = -0.06220 0.58628
# Poissons Ratio (y) = -0.26213 0.25120
# Poissons Ratio (z) = 0.54251 0.05516
#
# Static dielectric constant tensor:
#      x y z
#    x 1.732810 0.000000 -0.031690 
#    y 0.000000 1.729480 0.000000 
#    z -0.031690 0.000000 1.697830 
# 
# From -- ./inp_files/378506.got.cif
#   From: 2010.05.17/outbox.cif.g08.bks.cpg/sg12_190_cif.got.tgz:378506.got - 2010.06.03 13:09:07.
