data_PCOD9209882
_publ_section_title
;
Structure prediction by ZEFSAII (Michael W. Deem and Ramdas Pophale) SiO2 
 PCOD9209882
Probable space group: C 2/M
;
_chemical_formula_sum "Si O2"
_cell_formula_units_Z 60
_cell_length_a 22.451890
_cell_length_b 14.949003
_cell_length_c 26.188326
_cell_angle_alpha 90.000000
_cell_angle_beta 22.558161
_cell_angle_gamma 90.000000
_cell_volume 3371.904929
_symmetry_space_group_name_H-M "C 2/M"
_symmetry_group_IT_number 12
_symmetry_cell_setting 'monoclinic'
loop_
_space_group_symop_operation_xyz
x,y,z
-x,y,-z
-x,-y,-z
x,-y,z
1/2+x,1/2+y,z
1/2-x,1/2+y,-z
1/2-x,1/2-y,-z
1/2+x,1/2-y,z
loop_
_atom_site_type_symbol
_atom_site_label
_atom_site_fract_x
_atom_site_fract_y
_atom_site_fract_z
Si Si1 0.343171 0.316465 0.152136
Si Si2 0.268069 0.146047 0.909405
Si Si3 0.440569 0.764506 0.687031
Si Si4 0.070217 0.786603 0.800083
Si Si5 0.845525 0.899781 0.461438
Si Si6 0.723012 0.105812 0.444759
Si Si7 0.203123 0.000000 0.870232
Si Si8 0.462830 0.099421 0.226415
O O1 0.194404 0.265789 0.247786
O O2 0.364513 0.302961 0.195087
O O3 0.324403 0.420469 0.150902
O O4 0.500000 0.284622 0.000000
O O5 0.361132 0.223338 0.805335
O O6 0.381588 0.109956 0.863143
O O7 0.231381 0.077004 0.892585
O O8 0.105388 0.176471 0.061441
O O9 0.543908 0.676490 0.605118
O O10 0.554972 0.848548 0.585632
O O11 0.179042 0.840547 0.674664
O O12 0.059477 0.682437 0.793631
O O13 0.810859 0.885408 0.429190
O O14 0.680435 0.895410 0.620558
O O15 0.908491 0.000000 0.418608
O O16 0.706585 0.000000 0.446123
O O17 0.460986 0.000000 0.204361
#
# Coordination Sequence:
#
# PCOD9209882 Si02
#       8
#     8   8   8   8   8   8   4   8
#     4  11  24  39  64  87 127 167 214 246 307 383
#     4  11  22  37  68  92 127 161 212 253 323 382
#     4  11  21  41  63  87 120 165 209 253 306 383
#     4  12  25  41  58  98 130 166 209 262 315 366
#     4  10  21  40  65  90 120 165 211 259 317 379
#     4  11  24  37  61  95 132 160 200 262 325 373
#     4  10  21  38  66  95 117 180 208 239 304 408
#     4  11  22  40  66  92 125 165 213 262 315 376
#
# _framework density 17.794096
#
# number of rings (size 3 to 8) (size 9 to 14) (size 15 to 20)
#    0.000    1.067    6.000    1.800    5.600    0.533 
#    0.000    3.333    0.000    2.400    0.000    0.000 
#    0.000    0.000    0.000    0.000    0.000    0.000 
#
# Total GULP energy -167031.866867 kJ/mol
# GULP energy per Si atom -5567.728896 kJ/mol
# Density = 1.775360 g / cm^3
# Si number density = 17.794096 Si / 1000 Ang^3
#
#
#
# Elastic Constant Matrix: (Units=GPa)
#
#
# Indices 1 2 3 4 5 6 
#
# 1 87.6948 69.4911 26.3113 0.0063 -2.7520 0.0023
# 2 69.4911 112.4737 30.4730 -0.0024 -6.8177 0.0040
# 3 26.3113 30.4730 85.3470 -0.0202 -9.3886 -0.0021
# 4 0.0063 -0.0024 -0.0202 -5.5249 0.0055 14.3474
# 5 -2.7520 -6.8177 -9.3886 0.0055 27.8870 0.0020
# 6 0.0023 0.0040 -0.0021 14.3474 0.0020 14.8746
#
#
#
# Elastic Compliance Matrix: (Units=1/GPa)
#
#
# Indices 1 2 3 4 5 6 
#
# 1 0.022803 -0.013553 -0.002397 0.000011 -0.001870 -0.000011
# 2 -0.013553 0.017942 -0.001965 -0.000006 0.002387 0.000003
# 3 -0.002397 -0.001965 0.013582 -0.000012 0.003855 0.000014
# 4 0.000011 -0.000006 -0.000012 -0.051642 0.000002 0.049812
# 5 -0.001870 0.002387 0.003855 0.000002 0.037556 -0.000007
# 6 -0.000011 0.000003 0.000014 0.049812 -0.000007 0.019182
#
#
# Mechanical properties :
#
#
# Convention : Reuss Voigt Hill
#
# Bulk Modulus (GPa) = 54.06294 59.78514 56.92404
# Shear Modulus (GPa) = 49.30176 18.06333 33.68255
#
# Velocity S-wave (km/s) = 5.26944 3.18957 4.35547
# Velocity P-wave (km/s) = 8.21408 6.87282 7.57320
#
# Compressibility (1/GPa) = 0.01849696
#
# Stress axis : x y z
#
# Youngs Moduli (GPa) = 43.85394 55.73651 73.62941
#
# Poissons Ratio (x) = 0.75538 0.17646
# Poissons Ratio (y) = 0.59434 0.14470
# Poissons Ratio (z) = 0.10510 0.10954
#
# Static dielectric constant tensor:
#      x y z
#    x 1.584450 0.000000 -0.016080 
#    y 0.000000 1.620260 0.000010 
#    z -0.016080 0.000010 1.619500 
# 
# From -- ./inp_files/368134.got.cif
#   From: 2010.05.17/outbox.cif.g08.bks.cpg/sg12_185_cif.got.tgz:368134.got - 2010.06.03 13:09:07.
