data_PCOD9209529
_publ_section_title
;
Structure prediction by ZEFSAII (Michael W. Deem and Ramdas Pophale) SiO2 
 PCOD9209529
Probable space group: C 2/M
;
_chemical_formula_sum "Si O2"
_cell_formula_units_Z 52
_cell_length_a 19.627023
_cell_length_b 12.386973
_cell_length_c 10.025675
_cell_angle_alpha 90.000000
_cell_angle_beta 101.790489
_cell_angle_gamma 90.000000
_cell_volume 2386.009449
_symmetry_space_group_name_H-M "C 2/M"
_symmetry_group_IT_number 12
_symmetry_cell_setting 'monoclinic'
loop_
_space_group_symop_operation_xyz
x,y,z
-x,y,-z
-x,-y,-z
x,-y,z
1/2+x,1/2+y,z
1/2-x,1/2+y,-z
1/2-x,1/2-y,-z
1/2+x,1/2-y,z
loop_
_atom_site_type_symbol
_atom_site_label
_atom_site_fract_x
_atom_site_fract_y
_atom_site_fract_z
Si Si1 0.881873 0.379441 0.376333
Si Si2 0.613912 0.500000 0.808148
Si Si3 0.877643 0.298673 0.670647
Si Si4 0.220161 0.878878 0.282404
Si Si5 0.016788 0.184774 0.656483
Si Si6 0.322478 0.310673 0.018672
Si Si7 0.583699 0.120867 0.029588
O O1 0.905714 0.500000 0.351606
O O2 0.878559 0.366569 0.535610
O O3 0.802749 0.364198 0.294944
O O4 0.934532 0.289527 0.345965
O O5 0.556120 0.593757 0.751905
O O6 0.668865 0.403264 0.869618
O O7 0.811590 0.218751 0.645526
O O8 0.884607 0.366504 0.808694
O O9 0.945506 0.222339 0.694505
O O10 0.210241 0.000000 0.334921
O O11 0.179409 0.869503 0.126182
O O12 0.000000 0.144543 0.500000
O O13 0.250000 0.250000 0.000000
O O14 0.381794 0.218702 0.037614
O O15 0.599798 0.000000 0.985137
O O16 0.500000 0.131943 0.000000
#
# Coordination Sequence:
#
# PCOD9209529 Si02
#       7
#     8   4   8   8   8   8   8
#     4  10  21  40  66  92 128 164 211 261 316 373
#     4  12  23  42  63  88 127 166 207 262 317 376
#     4  10  21  38  62  94 124 167 209 253 319 381
#     4  10  21  39  59  90 126 163 204 262 310 373
#     4  10  23  40  63  97 127 166 211 263 315 379
#     4  11  24  41  64  91 121 167 216 259 316 376
#     4  10  22  40  61  91 127 160 208 262 314 375
#
# _framework density 21.793711999999999
#
# number of rings (size 3 to 8) (size 9 to 14) (size 15 to 20)
#    0.000    1.692    0.769    3.000    2.154    3.385 
#    1.385    5.769   11.846    0.000    0.000    0.000 
#    0.000    0.000    0.000    0.000    0.000    0.000 
#
# Total GULP energy -144839.560766 kJ/mol
# GULP energy per Si atom -5570.752337 kJ/mol
# Density = 2.174411 g / cm^3
# Si number density = 21.793712 Si / 1000 Ang^3
#
#
#
# Elastic Constant Matrix: (Units=GPa)
#
#
# Indices 1 2 3 4 5 6 
#
# 1 63.9829 49.0471 -9.9879 0.0000 15.3063 0.0000
# 2 49.0471 151.5206 -1.2685 0.0000 14.7497 0.0000
# 3 -9.9879 -1.2685 36.7913 0.0000 5.8992 0.0000
# 4 0.0000 0.0000 0.0000 16.6717 0.0000 13.3502
# 5 15.3063 14.7497 5.8992 0.0000 30.4052 0.0000
# 6 0.0000 0.0000 0.0000 13.3502 0.0000 3.9503
#
#
#
# Elastic Compliance Matrix: (Units=1/GPa)
#
#
# Indices 1 2 3 4 5 6 
#
# 1 0.024764 -0.006905 0.008202 0.000000 -0.010708 0.000000
# 2 -0.006905 0.008875 -0.001482 0.000000 -0.000542 0.000000
# 3 0.008202 -0.001482 0.030863 0.000000 -0.009398 0.000000
# 4 0.000000 0.000000 0.000000 -0.035155 0.000000 0.118806
# 5 -0.010708 -0.000542 -0.009398 0.000000 0.040366 0.000000
# 6 0.000000 0.000000 0.000000 0.118806 0.000000 -0.148364
#
#
# Mechanical properties :
#
#
# Convention : Reuss Voigt Hill
#
# Bulk Modulus (GPa) = 15.59274 36.43069 26.01171
# Shear Modulus (GPa) = -87.86875 24.50571 -31.68152
#
# Velocity S-wave (km/s) = -6.35657 3.35690 -3.81688
# Velocity P-wave (km/s) = 6.83406 5.63715 2.73192
#
# Compressibility (1/GPa) = 0.06413241
#
# Stress axis : x y z
#
# Youngs Moduli (GPa) = 40.38040 112.67211 32.40155
#
# Poissons Ratio (x) = 0.77802 -0.26575
# Poissons Ratio (y) = 0.27883 0.04801
# Poissons Ratio (z) = -0.33119 0.16695
#
# Static dielectric constant tensor:
#      x y z
#    x 1.757820 0.000000 -0.015430 
#    y 0.000000 1.750180 0.000000 
#    z -0.015430 0.000000 1.874450 
# 
# From -- ./inp_files/165112.got.cif
#   From: 2010.05.17/outbox.cif.g08.bks.cpg/sg12_83_cif.got.tgz:165112.got - 2010.06.03 13:09:07.
