data_PCOD9209825
_publ_section_title
;
Structure prediction by ZEFSAII (Michael W. Deem and Ramdas Pophale) SiO2 
 PCOD9209825
Probable space group: C 2/M
;
_chemical_formula_sum "Si O2"
_cell_formula_units_Z 56
_cell_length_a 4.832429
_cell_length_b 30.055189
_cell_length_c 15.731000
_cell_angle_alpha 90.000000
_cell_angle_beta 87.167547
_cell_angle_gamma 90.000000
_cell_volume 2281.972350
_symmetry_space_group_name_H-M "C 2/M"
_symmetry_group_IT_number 12
_symmetry_cell_setting 'monoclinic'
loop_
_space_group_symop_operation_xyz
x,y,z
-x,y,-z
-x,-y,-z
x,-y,z
1/2+x,1/2+y,z
1/2-x,1/2+y,-z
1/2-x,1/2-y,-z
1/2+x,1/2-y,z
loop_
_atom_site_type_symbol
_atom_site_label
_atom_site_fract_x
_atom_site_fract_y
_atom_site_fract_z
Si Si1 0.665154 0.953016 0.583433
Si Si2 0.233746 0.647925 0.944626
Si Si3 0.409155 0.222591 0.853254
Si Si4 0.997804 0.450246 0.236553
Si Si5 0.877144 0.145323 0.593597
Si Si6 0.986801 0.109391 0.227964
Si Si7 0.030722 0.719457 0.347697
O O1 0.500000 0.954118 0.500000
O O2 0.446393 0.951734 0.663629
O O3 0.820877 0.906787 0.581882
O O4 0.823152 0.000000 0.590855
O O5 0.034921 0.687297 0.914161
O O6 0.368847 0.631135 0.855060
O O7 0.500000 0.655968 0.000000
O O8 0.000000 0.619099 0.000000
O O9 0.086928 0.232744 0.867331
O O10 0.467921 0.211730 0.753917
O O11 0.035369 0.500000 0.200297
O O12 0.680104 0.434115 0.239872
O O13 0.190848 0.409939 0.204489
O O14 0.016186 0.141374 0.687649
O O15 0.604075 0.175926 0.609568
O O16 0.000000 0.159952 0.500000
O O17 0.830123 0.762046 0.368649
#
# Coordination Sequence:
#
# PCOD9209825 Si02
#       7
#     8   8   8   8   8   8   8
#     4   9  19  36  59  96 136 169 213 273 330 391
#     4  12  25  41  65  95 126 166 208 259 329 388
#     4  10  21  40  63  91 125 162 206 262 323 380
#     4  10  21  38  65  91 123 171 212 256 323 384
#     4  11  23  39  65  97 130 179 223 262 325 390
#     4  11  23  42  63  94 132 162 210 271 315 383
#     4  10  23  42  64  90 130 174 220 271 316 366
#
# _framework density 24.540178000000001
#
# number of rings (size 3 to 8) (size 9 to 14) (size 15 to 20)
#    0.000    1.571    1.429    3.000    0.000    6.571 
#    0.000    0.000    0.000    8.571    0.000    0.000 
#    0.000    0.000    0.000    0.000    0.000    0.000 
#
# Total GULP energy -156384.593431 kJ/mol
# GULP energy per Si atom -5585.164051 kJ/mol
# Density = 2.448432 g / cm^3
# Si number density = 24.540178 Si / 1000 Ang^3
#
#
#
# Elastic Constant Matrix: (Units=GPa)
#
#
# Indices 1 2 3 4 5 6 
#
# 1 95.3099 6.2834 20.3966 0.0000 -3.4059 0.0000
# 2 6.2834 77.5883 32.6480 0.0000 -0.2393 0.0000
# 3 20.3966 32.6480 125.6914 0.0000 -9.7604 0.0000
# 4 0.0000 0.0000 0.0000 13.6024 0.0000 -1.1535
# 5 -3.4059 -0.2393 -9.7604 0.0000 33.8337 0.0000
# 6 0.0000 0.0000 0.0000 -1.1535 0.0000 33.1314
#
#
#
# Elastic Compliance Matrix: (Units=1/GPa)
#
#
# Indices 1 2 3 4 5 6 
#
# 1 0.010884 -0.000176 -0.001673 0.000000 0.000612 0.000000
# 2 -0.000176 0.014506 -0.003818 0.000000 -0.001017 0.000000
# 3 -0.001673 -0.003818 0.009415 0.000000 0.002521 0.000000
# 4 0.000000 0.000000 0.000000 0.073734 0.000000 0.002567
# 5 0.000612 -0.001017 0.002521 0.000000 0.030338 0.000000
# 6 0.000000 0.000000 0.000000 0.002567 0.000000 0.030272
#
#
# Mechanical properties :
#
#
# Convention : Reuss Voigt Hill
#
# Bulk Modulus (GPa) = 42.60583 46.36062 44.48322
# Shear Modulus (GPa) = 26.55238 32.06427 29.30833
#
# Velocity S-wave (km/s) = 3.29294 3.61862 3.45961
# Velocity P-wave (km/s) = 5.64423 6.03257 5.84163
#
# Compressibility (1/GPa) = 0.02347097
#
# Stress axis : x y z
#
# Youngs Moduli (GPa) = 91.88178 68.93525 106.21286
#
# Poissons Ratio (x) = 0.01210 0.17770
# Poissons Ratio (y) = 0.01613 0.40557
# Poissons Ratio (z) = 0.15372 0.26323
#
# Static dielectric constant tensor:
#      x y z
#    x 2.024200 0.000000 -0.055380 
#    y 0.000000 2.018840 0.000000 
#    z -0.055380 0.000000 2.033460 
# 
# From -- ./inp_files/192599.got.cif
#   From: 2010.05.17/outbox.cif.g08.bks.cpg/sg12_97_cif.got.tgz:192599.got - 2010.06.03 13:09:07.
