data_PCOD9209494
_publ_section_title
;
Structure prediction by ZEFSAII (Michael W. Deem and Ramdas Pophale) SiO2 
 PCOD9209494
Probable space group: C 2/M
;
_chemical_formula_sum "Si O2"
_cell_formula_units_Z 44
_cell_length_a 21.707264
_cell_length_b 21.535955
_cell_length_c 7.872097
_cell_angle_alpha 90.000000
_cell_angle_beta 36.680576
_cell_angle_gamma 90.000000
_cell_volume 2198.320084
_symmetry_space_group_name_H-M "C 2/M"
_symmetry_group_IT_number 12
_symmetry_cell_setting 'monoclinic'
loop_
_space_group_symop_operation_xyz
x,y,z
-x,y,-z
-x,-y,-z
x,-y,z
1/2+x,1/2+y,z
1/2-x,1/2+y,-z
1/2-x,1/2-y,-z
1/2+x,1/2-y,z
loop_
_atom_site_type_symbol
_atom_site_label
_atom_site_fract_x
_atom_site_fract_y
_atom_site_fract_z
Si Si1 0.783040 0.819164 0.858359
Si Si2 0.079842 0.237133 0.971156
Si Si3 0.753678 0.835439 0.535265
Si Si4 0.881911 0.571846 0.698836
Si Si5 0.610252 0.930137 0.724572
Si Si6 0.000000 0.207091 0.500000
O O1 0.796903 0.819555 0.624504
O O2 0.896135 0.830619 0.686858
O O3 0.750000 0.750000 0.000000
O O4 0.696674 0.872586 0.077413
O O5 0.162283 0.181003 0.791854
O O6 0.152411 0.292610 0.748702
O O7 0.027636 0.246142 0.269261
O O8 0.000000 0.224223 0.000000
O O9 0.706770 0.902031 0.608245
O O10 0.857101 0.500000 0.809825
O O11 0.876781 0.571306 0.505857
O O12 0.000000 0.584104 0.500000
O O13 0.600439 0.000000 0.809841
O O14 0.500000 0.898059 0.000000
#
# Coordination Sequence:
#
# PCOD9209494 Si02
#       6
#     8   8   8   8   8   4
#     4  12  25  39  65  97 132 176 222 278 341 403
#     4  11  23  39  60  89 128 166 211 260 331 388
#     4  11  23  39  62  91 125 168 214 270 322 394
#     4  10  23  43  68  97 133 176 227 281 339 403
#     4  10  21  38  62  92 126 167 214 269 330 393
#     4  12  24  42  59  94 135 172 218 272 332 410
#
# _framework density 20.015283
#
# number of rings (size 3 to 8) (size 9 to 14) (size 15 to 20)
#    0.000    1.091    3.636    2.727    3.818    3.636 
#    0.000    0.455    0.000    1.636    0.000    0.000 
#    0.000    0.000    0.000    0.000    0.000    0.000 
#
# Total GULP energy -122691.639246 kJ/mol
# GULP energy per Si atom -5576.892693 kJ/mol
# Density = 1.996973 g / cm^3
# Si number density = 20.015283 Si / 1000 Ang^3
#
#
#
# Elastic Constant Matrix: (Units=GPa)
#
#
# Indices 1 2 3 4 5 6 
#
# 1 83.6355 48.1186 50.6315 0.0000 -13.2346 0.0000
# 2 48.1186 80.1465 38.4711 0.0000 -23.6661 0.0000
# 3 50.6315 38.4711 112.3475 0.0000 -5.2361 0.0000
# 4 0.0000 0.0000 0.0000 26.2914 0.0000 -9.7824
# 5 -13.2346 -23.6661 -5.2361 0.0000 46.0424 0.0000
# 6 0.0000 0.0000 0.0000 -9.7824 0.0000 25.7635
#
#
#
# Elastic Compliance Matrix: (Units=1/GPa)
#
#
# Indices 1 2 3 4 5 6 
#
# 1 0.021435 -0.009703 -0.006316 0.000000 0.000456 0.000000
# 2 -0.009703 0.022083 -0.002805 0.000000 0.008243 0.000000
# 3 -0.006316 -0.002805 0.012623 0.000000 -0.001822 0.000000
# 4 0.000000 0.000000 0.000000 0.044293 0.000000 0.016818
# 5 0.000456 0.008243 -0.001822 0.000000 0.025880 0.000000
# 6 0.000000 0.000000 0.000000 0.016818 0.000000 0.045200
#
#
# Mechanical properties :
#
#
# Convention : Reuss Voigt Hill
#
# Bulk Modulus (GPa) = 54.07464 61.17466 57.62465
# Shear Modulus (GPa) = 23.22062 28.88002 26.05032
#
# Velocity S-wave (km/s) = 3.40978 3.80267 3.61157
# Velocity P-wave (km/s) = 6.52514 7.06475 6.80030
#
# Compressibility (1/GPa) = 0.01849296
#
# Stress axis : x y z
#
# Youngs Moduli (GPa) = 46.65305 45.28411 79.21978
#
# Poissons Ratio (x) = 0.43937 0.50038
# Poissons Ratio (y) = 0.45266 0.22221
# Poissons Ratio (z) = 0.29467 0.12702
#
# Static dielectric constant tensor:
#      x y z
#    x 1.762810 0.000000 -0.069590 
#    y 0.000000 1.755730 0.000000 
#    z -0.069590 0.000000 1.897810 
# 
# From -- ./inp_files/99589.got.cif
#   From: 2010.05.17/outbox.cif.g08.bks.cpg/sg12_50_cif.got.tgz:99589.got - 2010.06.03 13:09:07.
