data_PCOD9209112
_publ_section_title
;
Structure prediction by ZEFSAII (Michael W. Deem and Ramdas Pophale) SiO2 
 PCOD9209112
Probable space group: C 2/M
;
_chemical_formula_sum "Si O2"
_cell_formula_units_Z 32
_cell_length_a 18.833201
_cell_length_b 10.921985
_cell_length_c 23.345229
_cell_angle_alpha 90.000000
_cell_angle_beta 15.963682
_cell_angle_gamma 90.000000
_cell_volume 1320.689562
_symmetry_space_group_name_H-M "C 2/M"
_symmetry_group_IT_number 12
_symmetry_cell_setting 'monoclinic'
loop_
_space_group_symop_operation_xyz
x,y,z
-x,y,-z
-x,-y,-z
x,-y,z
1/2+x,1/2+y,z
1/2-x,1/2+y,-z
1/2-x,1/2-y,-z
1/2+x,1/2-y,z
loop_
_atom_site_type_symbol
_atom_site_label
_atom_site_fract_x
_atom_site_fract_y
_atom_site_fract_z
Si Si1 0.978146 0.823659 0.281726
Si Si2 0.375050 0.362694 0.188391
Si Si3 0.479554 0.865224 0.189476
Si Si4 0.402859 0.820162 0.713124
O O1 0.691420 0.872413 0.495826
O O2 0.962627 0.685944 0.266711
O O3 0.062232 0.811911 0.282580
O O4 0.217564 0.875987 0.061359
O O5 0.321878 0.500000 0.252680
O O6 0.378142 0.248153 0.229460
O O7 0.178669 0.330361 0.289376
O O8 0.656127 0.369179 0.939589
O O9 0.362344 0.000000 0.272509
#
# Coordination Sequence:
#
# PCOD9209112 Si02
#       4
#     8   8   8   8
#     4   9  20  37  59  86 115 149 194 243 288 338
#     4  10  21  38  61  87 118 153 191 239 289 344
#     4  10  22  39  59  85 120 157 191 235 290 346
#     4   9  18  37  61  86 113 149 195 242 288 337
#
# _framework density 24.229766999999999
#
# number of rings (size 3 to 8) (size 9 to 14) (size 15 to 20)
#    0.000    2.500    0.000    1.500    0.000   13.000 
#    0.000   23.750    0.000    0.000    0.000    0.000 
#    0.000    0.000    0.000    0.000    0.000    0.000 
#
# Total GULP energy -89150.457868 kJ/mol
# GULP energy per Si atom -5571.903617 kJ/mol
# Density = 2.417462 g / cm^3
# Si number density = 24.229767 Si / 1000 Ang^3
#
#
#
# Elastic Constant Matrix: (Units=GPa)
#
#
# Indices 1 2 3 4 5 6 
#
# 1 117.1038 76.6801 12.2373 0.0040 -32.3485 0.0037
# 2 76.6801 181.4862 24.8501 0.0138 -12.1318 -0.0339
# 3 12.2373 24.8501 127.6638 -0.0442 -12.5975 -0.0485
# 4 0.0040 0.0138 -0.0442 -10.3020 -0.0250 -2.5459
# 5 -32.3485 -12.1318 -12.5975 -0.0250 42.5801 0.0079
# 6 0.0037 -0.0339 -0.0485 -2.5459 0.0079 -12.3644
#
#
#
# Elastic Compliance Matrix: (Units=1/GPa)
#
#
# Indices 1 2 3 4 5 6 
#
# 1 0.014987 -0.005759 0.000665 -0.000037 0.009942 0.000032
# 2 -0.005759 0.007947 -0.001239 0.000026 -0.002477 -0.000026
# 3 0.000665 -0.001239 0.008267 -0.000038 0.002598 -0.000019
# 4 -0.000037 0.000026 -0.000038 -0.102273 -0.000096 0.021059
# 5 0.009942 -0.002477 0.002598 -0.000096 0.031101 0.000039
# 6 0.000032 -0.000026 -0.000019 0.021059 0.000039 -0.085214
#
#
# Mechanical properties :
#
#
# Convention : Reuss Voigt Hill
#
# Bulk Modulus (GPa) = 53.94972 72.64318 63.29645
# Shear Modulus (GPa) = -47.01887 24.81519 -11.10184
#
# Velocity S-wave (km/s) = -4.40994 3.20372 -2.14286
# Velocity P-wave (km/s) = 1.90154 6.61296 4.47858
#
# Compressibility (1/GPa) = 0.01853578
#
# Stress axis : x y z
#
# Youngs Moduli (GPa) = 66.72421 125.82906 120.96428
#
# Poissons Ratio (x) = 0.72462 -0.08049
# Poissons Ratio (y) = 0.38425 0.14992
# Poissons Ratio (z) = -0.04440 0.15595
#
# Static dielectric constant tensor:
#      x y z
#    x 1.946010 0.000000 -0.012780 
#    y 0.000000 1.974370 0.000100 
#    z -0.012780 0.000100 1.948140 
# 
# From -- ./inp_files/343239.got.cif
#   From: 2010.05.17/outbox.cif.g08.bks.cpg/sg12_172_cif.got.tgz:343239.got - 2010.06.03 13:09:07.
