data_PCOD9209146
_publ_section_title
;
Structure prediction by ZEFSAII (Michael W. Deem and Ramdas Pophale) SiO2 
 PCOD9209146
Probable space group: C 2/M
;
_chemical_formula_sum "Si O2"
_cell_formula_units_Z 48
_cell_length_a 19.040459
_cell_length_b 9.446006
_cell_length_c 25.003460
_cell_angle_alpha 90.000000
_cell_angle_beta 29.617826
_cell_angle_gamma 90.000000
_cell_volume 2222.487597
_symmetry_space_group_name_H-M "C 2/M"
_symmetry_group_IT_number 12
_symmetry_cell_setting 'monoclinic'
loop_
_space_group_symop_operation_xyz
x,y,z
-x,y,-z
-x,-y,-z
x,-y,z
1/2+x,1/2+y,z
1/2-x,1/2+y,-z
1/2-x,1/2-y,-z
1/2+x,1/2-y,z
loop_
_atom_site_type_symbol
_atom_site_label
_atom_site_fract_x
_atom_site_fract_y
_atom_site_fract_z
Si Si1 0.589071 0.662163 0.660522
Si Si2 0.805854 0.164806 0.014474
Si Si3 0.430832 0.162342 0.430441
Si Si4 0.605516 0.663061 0.767420
Si Si5 0.332706 0.834411 0.101268
Si Si6 0.665581 0.334419 0.324105
O O1 0.547161 0.500000 0.674851
O O2 0.543565 0.766971 0.644288
O O3 0.761119 0.666510 0.550240
O O4 0.541558 0.698456 0.751587
O O5 0.977337 0.169087 0.894073
O O6 0.761342 0.000000 0.042337
O O7 0.750000 0.250000 0.000000
O O8 0.774487 0.239511 0.091517
O O9 0.517522 0.253242 0.415701
O O10 0.477868 0.000000 0.400794
O O11 0.656111 0.500000 0.730609
O O12 0.732088 0.764596 0.700139
O O13 0.248050 0.816048 0.212661
O O14 0.321792 0.000000 0.092800
O O15 0.500000 0.804371 0.000000
O O16 0.644710 0.500000 0.347444
#
# Coordination Sequence:
#
# PCOD9209146 Si02
#       6
#     8   8   8   8   8   8
#     4   9  20  40  62  84 116 154 190 234 288 343
#     4  11  24  39  59  87 119 153 192 238 285 340
#     4  10  21  38  61  88 116 149 192 238 285 344
#     4  10  22  40  60  84 115 152 192 235 286 341
#     4  10  21  40  61  82 114 155 194 234 284 339
#     4  11  23  38  60  86 116 153 192 238 288 341
#
# _framework density 21.597421000000001
#
# number of rings (size 3 to 8) (size 9 to 14) (size 15 to 20)
#    0.000    1.833    1.667    1.500    2.333    4.333 
#    0.000    3.333    0.000    0.000    0.000    0.000 
#    0.000    0.000    0.000    0.000    0.000    0.000 
#
# Total GULP energy -134239.720956 kJ/mol
# GULP energy per Si atom -5593.321706 kJ/mol
# Density = 2.154826 g / cm^3
# Si number density = 21.597421 Si / 1000 Ang^3
#
#
#
# Elastic Constant Matrix: (Units=GPa)
#
#
# Indices 1 2 3 4 5 6 
#
# 1 76.7150 67.8580 2.3510 0.0000 -7.7684 0.0000
# 2 67.8580 112.3021 6.1224 0.0000 -5.1808 0.0000
# 3 2.3510 6.1224 42.0118 -0.0005 1.0642 0.0000
# 4 0.0000 0.0000 -0.0005 20.4221 0.0000 0.5564
# 5 -7.7684 -5.1808 1.0642 0.0000 38.7588 0.0000
# 6 0.0000 0.0000 0.0000 0.5564 0.0000 44.2753
#
#
#
# Elastic Compliance Matrix: (Units=1/GPa)
#
#
# Indices 1 2 3 4 5 6 
#
# 1 0.028474 -0.017093 0.000811 0.000000 0.003400 0.000000
# 2 -0.017093 0.019296 -0.001835 0.000000 -0.000796 0.000000
# 3 0.000811 -0.001835 0.024044 0.000001 -0.000743 0.000000
# 4 0.000000 0.000000 0.000001 0.048983 0.000000 -0.000616
# 5 0.003400 -0.000796 -0.000743 0.000000 0.026396 0.000000
# 6 0.000000 0.000000 0.000000 -0.000616 0.000000 0.022594
#
#
# Mechanical properties :
#
#
# Convention : Reuss Voigt Hill
#
# Bulk Modulus (GPa) = 28.10528 42.63239 35.36883
# Shear Modulus (GPa) = 22.94841 31.00441 26.97641
#
# Velocity S-wave (km/s) = 3.26322 3.79299 3.53803
# Velocity P-wave (km/s) = 5.21916 6.24218 5.75345
#
# Compressibility (1/GPa) = 0.03558051
#
# Stress axis : x y z
#
# Youngs Moduli (GPa) = 35.11987 51.82420 41.59092
#
# Poissons Ratio (x) = 0.88581 -0.03375
# Poissons Ratio (y) = 0.60029 0.07633
# Poissons Ratio (z) = -0.02850 0.09511
#
# Static dielectric constant tensor:
#      x y z
#    x 1.756200 0.000000 -0.008710 
#    y 0.000000 1.738830 0.000000 
#    z -0.008710 0.000000 1.834760 
# 
# From -- ./inp_files/365358.got.cif
#   From: 2010.05.17/outbox.cif.g08.bks.cpg/sg12_183_cif.got.tgz:365358.got - 2010.06.03 13:09:07.
