data_PCOD9209701
_publ_section_title
;
Structure prediction by ZEFSAII (Michael W. Deem and Ramdas Pophale) SiO2 
 PCOD9209701
Probable space group: C 2/M
;
_chemical_formula_sum "Si O2"
_cell_formula_units_Z 48
_cell_length_a 13.482245
_cell_length_b 18.747820
_cell_length_c 12.242208
_cell_angle_alpha 90.000000
_cell_angle_beta 133.412038
_cell_angle_gamma 90.000000
_cell_volume 2247.846714
_symmetry_space_group_name_H-M "C 2/M"
_symmetry_group_IT_number 12
_symmetry_cell_setting 'monoclinic'
loop_
_space_group_symop_operation_xyz
x,y,z
-x,y,-z
-x,-y,-z
x,-y,z
1/2+x,1/2+y,z
1/2-x,1/2+y,-z
1/2-x,1/2-y,-z
1/2+x,1/2-y,z
loop_
_atom_site_type_symbol
_atom_site_label
_atom_site_fract_x
_atom_site_fract_y
_atom_site_fract_z
Si Si1 0.147980 0.891344 0.594156
Si Si2 0.457844 0.919442 0.852473
Si Si3 0.852788 0.081951 0.831343
Si Si4 0.853585 0.203090 0.201036
Si Si5 0.341219 0.314665 0.619459
Si Si6 0.684549 0.140416 0.890229
O O1 0.295079 0.923677 0.729670
O O2 0.139933 0.823048 0.669715
O O3 0.158277 0.872619 0.475837
O O4 0.000000 0.926264 0.500000
O O5 0.530270 0.877044 0.809530
O O6 0.514634 0.000000 0.891149
O O7 0.500000 0.885626 0.000000
O O8 0.815472 0.141764 0.711963
O O9 0.743662 0.086689 0.846674
O O10 0.857586 0.000000 0.791705
O O11 0.000000 0.097086 0.000000
O O12 0.791896 0.281336 0.143257
O O13 0.002265 0.210568 0.259952
O O14 0.771285 0.144929 0.067910
O O15 0.250000 0.250000 0.500000
#
# Coordination Sequence:
#
# PCOD9209701 Si02
#       6
#     8   8   8   8   8   8
#     4  10  22  41  63  94 134 167 222 279 346 404
#     4  11  23  40  63  93 130 174 221 275 338 409
#     4  11  24  43  67  98 141 187 233 286 353 429
#     4  10  21  38  63  99 129 171 224 287 347 395
#     4  11  22  41  66  98 134 182 231 286 345 415
#     4  11  21  39  65  96 132 169 229 289 337 406
#
# _framework density 21.353770999999998
#
# number of rings (size 3 to 8) (size 9 to 14) (size 15 to 20)
#    0.000    1.333    3.333    2.500    0.000    1.000 
#    0.000    5.000    0.000    5.000    0.000    0.000 
#    0.000    0.000    0.000    0.000    0.000    0.000 
#
# Total GULP energy -133743.360296 kJ/mol
# GULP energy per Si atom -5572.640012 kJ/mol
# Density = 2.130517 g / cm^3
# Si number density = 21.353771 Si / 1000 Ang^3
#
#
#
# Elastic Constant Matrix: (Units=GPa)
#
#
# Indices 1 2 3 4 5 6 
#
# 1 128.9570 31.8985 46.1865 0.0000 0.1746 0.0000
# 2 31.8985 75.0168 29.5272 0.0000 -11.3651 0.0000
# 3 46.1865 29.5272 95.6456 0.0000 3.2314 0.0000
# 4 0.0000 0.0000 0.0000 80.2216 0.0000 6.6547
# 5 0.1746 -11.3651 3.2314 0.0000 45.7217 0.0000
# 6 0.0000 0.0000 0.0000 6.6547 0.0000 16.8847
#
#
#
# Elastic Compliance Matrix: (Units=1/GPa)
#
#
# Indices 1 2 3 4 5 6 
#
# 1 0.009819 -0.002710 -0.003890 0.000000 -0.000436 0.000000
# 2 -0.002710 0.016735 -0.004008 0.000000 0.004453 0.000000
# 3 -0.003890 -0.004008 0.013637 0.000000 -0.001945 0.000000
# 4 0.000000 0.000000 0.000000 0.012887 0.000000 -0.005079
# 5 -0.000436 0.004453 -0.001945 0.000000 0.023118 0.000000
# 6 0.000000 0.000000 0.000000 -0.005079 0.000000 0.061227
#
#
# Mechanical properties :
#
#
# Convention : Reuss Voigt Hill
#
# Bulk Modulus (GPa) = 52.70325 57.20486 54.95406
# Shear Modulus (GPa) = 30.30983 41.36609 35.83796
#
# Velocity S-wave (km/s) = 3.77160 4.40612 4.10115
# Velocity P-wave (km/s) = 6.61069 7.26171 6.94383
#
# Compressibility (1/GPa) = 0.01897416
#
# Stress axis : x y z
#
# Youngs Moduli (GPa) = 101.84671 59.75485 73.33095
#
# Poissons Ratio (x) = 0.16194 0.28526
# Poissons Ratio (y) = 0.27601 0.29392
# Poissons Ratio (z) = 0.39618 0.23951
#
# Static dielectric constant tensor:
#      x y z
#    x 1.767480 0.000000 0.040360 
#    y 0.000000 1.799320 0.000000 
#    z 0.040360 0.000000 1.851080 
# 
# From -- ./inp_files/134075.got.cif
#   From: 2010.05.17/outbox.cif.g08.bks.cpg/sg12_68_cif.got.tgz:134075.got - 2010.06.03 13:09:07.
