data_PCOD9209481
_publ_section_title
;
Structure prediction by ZEFSAII (Michael W. Deem and Ramdas Pophale) SiO2 
 PCOD9209481
Probable space group: C 2/M
;
_chemical_formula_sum "Si O2"
_cell_formula_units_Z 48
_cell_length_a 30.230149
_cell_length_b 8.798824
_cell_length_c 15.426520
_cell_angle_alpha 90.000000
_cell_angle_beta 39.833512
_cell_angle_gamma 90.000000
_cell_volume 2628.403229
_symmetry_space_group_name_H-M "C 2/M"
_symmetry_group_IT_number 12
_symmetry_cell_setting 'monoclinic'
loop_
_space_group_symop_operation_xyz
x,y,z
-x,y,-z
-x,-y,-z
x,-y,z
1/2+x,1/2+y,z
1/2-x,1/2+y,-z
1/2-x,1/2-y,-z
1/2+x,1/2-y,z
loop_
_atom_site_type_symbol
_atom_site_label
_atom_site_fract_x
_atom_site_fract_y
_atom_site_fract_z
Si Si1 0.074578 0.318363 0.636303
Si Si2 0.676581 0.817738 0.640065
Si Si3 0.319461 0.317799 0.179723
Si Si4 0.823453 0.816940 0.861183
Si Si5 0.828006 0.182451 0.654726
Si Si6 0.577187 0.317012 0.132913
O O1 0.075702 0.500000 0.625627
O O2 0.119661 0.278663 0.653498
O O3 0.112514 0.244461 0.496994
O O4 0.996956 0.259607 0.761458
O O5 0.750000 0.750000 0.500000
O O6 0.659317 0.750144 0.759825
O O7 0.682191 0.000000 0.636862
O O8 0.313707 0.500000 0.194555
O O9 0.244955 0.250732 0.266442
O O10 0.374165 0.280208 0.022230
O O11 0.839088 0.774502 0.738533
O O12 0.881793 0.769808 0.841972
O O13 0.818549 0.000000 0.872684
O O14 0.750000 0.750000 0.000000
O O15 0.825044 0.000000 0.653164
O O16 0.568644 0.500000 0.147965
#
# Coordination Sequence:
#
# PCOD9209481 Si02
#       6
#     8   8   8   8   8   8
#     4  11  25  42  61  88 124 161 202 254 306 358
#     4  11  23  39  62  90 121 159 204 254 304 360
#     4  11  22  38  63  92 122 158 203 251 300 361
#     4  10  21  38  62  92 122 159 203 248 299 360
#     4  11  22  37  63  92 121 160 203 249 302 360
#     4  10  23  42  62  88 126 163 199 249 306 362
#
# _framework density 18.262039000000001
#
# number of rings (size 3 to 8) (size 9 to 14) (size 15 to 20)
#    0.000    1.333    3.333    2.000    0.000    6.000 
#    0.000    6.667    0.000    0.000    0.000    0.000 
#    0.000    0.000    0.000    0.000    0.000    0.000 
#
# Total GULP energy -134167.149117 kJ/mol
# GULP energy per Si atom -5590.297880 kJ/mol
# Density = 1.822047 g / cm^3
# Si number density = 18.262039 Si / 1000 Ang^3
#
#
#
# Elastic Constant Matrix: (Units=GPa)
#
#
# Indices 1 2 3 4 5 6 
#
# 1 146.5037 44.3349 67.8600 -0.0001 9.8765 0.0000
# 2 44.3349 38.3839 41.1430 -0.0003 4.2247 0.0001
# 3 67.8600 41.1430 115.0686 -0.0003 3.9192 0.0001
# 4 -0.0001 -0.0003 -0.0003 35.0609 0.0000 -3.3982
# 5 9.8765 4.2247 3.9192 0.0000 41.8124 0.0000
# 6 0.0000 0.0001 0.0001 -3.3982 0.0000 31.4915
#
#
#
# Elastic Compliance Matrix: (Units=1/GPa)
#
#
# Indices 1 2 3 4 5 6 
#
# 1 0.011259 -0.009378 -0.003239 0.000000 -0.001408 0.000000
# 2 -0.009378 0.050397 -0.012431 0.000000 -0.001712 0.000000
# 3 -0.003239 -0.012431 0.015024 0.000000 0.000613 0.000000
# 4 0.000000 0.000000 0.000000 0.028823 0.000000 0.003110
# 5 -0.001408 -0.001712 0.000613 0.000000 0.024365 0.000000
# 6 0.000000 0.000000 0.000000 0.003110 0.000000 0.032090
#
#
# Mechanical properties :
#
#
# Convention : Reuss Voigt Hill
#
# Bulk Modulus (GPa) = 37.61452 67.40356 52.50904
# Shear Modulus (GPa) = 22.63315 31.44752 27.04033
#
# Velocity S-wave (km/s) = 3.52427 4.15422 3.85214
# Velocity P-wave (km/s) = 6.09938 7.74592 6.97143
#
# Compressibility (1/GPa) = 0.02658548
#
# Stress axis : x y z
#
# Youngs Moduli (GPa) = 88.81964 19.84234 66.55913
#
# Poissons Ratio (x) = 0.18608 0.21556
# Poissons Ratio (y) = 0.83294 0.82739
# Poissons Ratio (z) = 0.28766 0.24666
#
# Static dielectric constant tensor:
#      x y z
#    x 1.617560 0.000000 0.020580 
#    y 0.000000 1.614500 0.000000 
#    z 0.020580 0.000000 1.588260 
# 
# From -- ./inp_files/244655.got.cif
#   From: 2010.05.17/outbox.cif.g08.bks.cpg/sg12_123_cif.got.tgz:244655.got - 2010.06.03 13:09:07.
