data_PCOD9209046
_publ_section_title
;
Structure prediction by ZEFSAII (Michael W. Deem and Ramdas Pophale) SiO2 
 PCOD9209046
Probable space group: C 2/M
;
_chemical_formula_sum "Si O2"
_cell_formula_units_Z 60
_cell_length_a 10.018192
_cell_length_b 14.718344
_cell_length_c 22.476902
_cell_angle_alpha 90.000000
_cell_angle_beta 66.671501
_cell_angle_gamma 90.000000
_cell_volume 3043.304886
_symmetry_space_group_name_H-M "C 2/M"
_symmetry_group_IT_number 12
_symmetry_cell_setting 'monoclinic'
loop_
_space_group_symop_operation_xyz
x,y,z
-x,y,-z
-x,-y,-z
x,-y,z
1/2+x,1/2+y,z
1/2-x,1/2+y,-z
1/2-x,1/2-y,-z
1/2+x,1/2-y,z
loop_
_atom_site_type_symbol
_atom_site_label
_atom_site_fract_x
_atom_site_fract_y
_atom_site_fract_z
Si Si1 0.511333 0.157465 0.371199
Si Si2 0.851037 0.893456 0.988332
Si Si3 0.812467 0.272743 0.191343
Si Si4 0.500000 0.751288 0.500000
Si Si5 0.818261 0.096925 0.273118
Si Si6 0.075418 0.146674 0.311480
Si Si7 0.864155 0.273074 0.896146
Si Si8 0.192423 0.098575 0.419368
O O1 0.498561 0.187410 0.441958
O O2 0.661704 0.106726 0.332267
O O3 0.521724 0.250318 0.331972
O O4 0.364315 0.107561 0.379700
O O5 0.724171 0.847448 0.050245
O O6 0.823906 0.000000 0.978369
O O7 0.867545 0.823595 0.930435
O O8 0.000000 0.889676 0.000000
O O9 0.835800 0.182973 0.227381
O O10 0.720270 0.344428 0.246243
O O11 0.717560 0.244357 0.151309
O O12 0.971232 0.304527 0.143740
O O13 0.635421 0.681879 0.469305
O O14 0.946221 0.099912 0.298894
O O15 0.824251 0.000000 0.239722
O O16 0.113750 0.107941 0.369433
O O17 0.161422 0.000000 0.451560
#
# Coordination Sequence:
#
# PCOD9209046 Si02
#       8
#     8   8   8   4   8   8   8   8
#     4  10  21  39  60  83 113 155 197 238 296 361
#     4  10  22  41  66  93 125 166 207 249 302 359
#     4  11  22  39  63  89 122 162 203 239 299 358
#     4  10  21  38  61  80 112 158 198 234 293 374
#     4  11  23  39  60  88 120 154 196 247 300 358
#     4  10  21  39  60  83 118 157 192 235 301 361
#     4  11  22  41  65  94 126 163 202 255 299 352
#     4  11  22  37  58  87 116 146 193 252 298 340
#
# _framework density 19.715409000000001
#
# number of rings (size 3 to 8) (size 9 to 14) (size 15 to 20)
#    0.000    1.467    2.667    3.800    1.867    2.133 
#    0.000    6.667    0.000    0.000    0.000    0.000 
#    0.000    0.000    0.000    0.000    0.000    0.000 
#
# Total GULP energy -167565.647500 kJ/mol
# GULP energy per Si atom -5585.521583 kJ/mol
# Density = 1.967054 g / cm^3
# Si number density = 19.715409 Si / 1000 Ang^3
#
#
#
# Elastic Constant Matrix: (Units=GPa)
#
#
# Indices 1 2 3 4 5 6 
#
# 1 94.9246 24.3575 17.5561 0.0000 -17.5026 0.0000
# 2 24.3575 89.8425 3.6306 0.0000 -0.8476 0.0000
# 3 17.5561 3.6306 61.2710 0.0000 -10.5456 0.0000
# 4 0.0000 0.0000 0.0000 5.3378 0.0000 -19.1665
# 5 -17.5026 -0.8476 -10.5456 0.0000 37.5917 0.0000
# 6 0.0000 0.0000 0.0000 -19.1665 0.0000 90.2073
#
#
#
# Elastic Compliance Matrix: (Units=1/GPa)
#
#
# Indices 1 2 3 4 5 6 
#
# 1 0.012818 -0.003322 -0.002587 0.000000 0.005168 0.000000
# 2 -0.003322 0.012018 0.000021 0.000000 -0.001270 0.000000
# 3 -0.002587 0.000021 0.017709 0.000000 0.003764 0.000000
# 4 0.000000 0.000000 0.000000 0.790235 0.000000 0.167903
# 5 0.005168 -0.001270 0.003764 0.000000 0.030035 0.000000
# 6 0.000000 0.000000 0.000000 0.167903 0.000000 0.046760
#
#
# Mechanical properties :
#
#
# Convention : Reuss Voigt Hill
#
# Bulk Modulus (GPa) = 32.49857 37.45850 34.97854
# Shear Modulus (GPa) = 5.36707 39.99362 22.68034
#
# Velocity S-wave (km/s) = 1.65172 4.50882 3.39541
# Velocity P-wave (km/s) = 4.48968 6.79315 5.75778
#
# Compressibility (1/GPa) = 0.03077058
#
# Stress axis : x y z
#
# Youngs Moduli (GPa) = 78.01349 83.20590 56.46957
#
# Poissons Ratio (x) = 0.27640 0.14606
# Poissons Ratio (y) = 0.25916 -0.00119
# Poissons Ratio (z) = 0.20179 -0.00176
#
# Static dielectric constant tensor:
#      x y z
#    x 1.678330 0.000000 -0.019460 
#    y 0.000000 1.707390 0.000000 
#    z -0.019460 0.000000 1.692050 
# 
# From -- ./inp_files/332910.got.cif
#   From: 2010.05.17/outbox.cif.g08.bks.cpg/sg12_167_cif.got.tgz:332910.got - 2010.06.03 13:09:07.
