data_PCOD9209996
_publ_section_title
;
Structure prediction by ZEFSAII (Michael W. Deem and Ramdas Pophale) SiO2 
 PCOD9209996
Probable space group: C 2/M
;
_chemical_formula_sum "Si O2"
_cell_formula_units_Z 44
_cell_length_a 25.000876
_cell_length_b 16.039130
_cell_length_c 17.006994
_cell_angle_alpha 90.000000
_cell_angle_beta 17.725516
_cell_angle_gamma 90.000000
_cell_volume 2076.299338
_symmetry_space_group_name_H-M "C 2/M"
_symmetry_group_IT_number 12
_symmetry_cell_setting 'monoclinic'
loop_
_space_group_symop_operation_xyz
x,y,z
-x,y,-z
-x,-y,-z
x,-y,z
1/2+x,1/2+y,z
1/2-x,1/2+y,-z
1/2-x,1/2-y,-z
1/2+x,1/2-y,z
loop_
_atom_site_type_symbol
_atom_site_label
_atom_site_fract_x
_atom_site_fract_y
_atom_site_fract_z
Si Si1 0.659134 0.500000 0.844208
Si Si2 0.559573 0.782829 0.172187
Si Si3 0.096463 0.682591 0.282904
Si Si4 0.497511 0.337005 0.126058
Si Si5 0.876285 0.400864 0.320932
Si Si6 0.946259 0.500000 0.667635
Si Si7 0.000000 0.301835 0.000000
O O1 0.871313 0.500000 0.535855
O O2 0.500000 0.500000 0.000000
O O3 0.619031 0.417084 0.949857
O O4 0.482112 0.793098 0.367249
O O5 0.483407 0.706320 0.229804
O O6 0.531271 0.863521 0.157922
O O7 0.758347 0.753535 0.907690
O O8 0.000000 0.677092 0.500000
O O9 0.154723 0.587587 0.179513
O O10 0.298589 0.367362 0.389799
O O11 0.568035 0.266201 0.968524
O O12 0.872642 0.500000 0.322403
O O13 0.892983 0.361571 0.209824
O O14 0.000000 0.500000 0.500000
#
# Coordination Sequence:
#
# PCOD9209996 Si02
#       7
#     4   8   8   8   8   4   4
#     4  12  24  36  66 105 133 166 213 278 338 392
#     4  10  23  38  61  92 120 169 215 261 318 392
#     4  10  22  41  63  90 120 162 214 267 324 382
#     4  11  22  39  62  95 135 167 213 265 328 389
#     4  11  24  40  63  93 133 174 212 264 326 390
#     4  10  22  38  64  92 127 165 209 272 337 378
#     4  10  21  39  58  88 130 178 214 251 317 394
#
# _framework density 21.191549999999999
#
# number of rings (size 3 to 8) (size 9 to 14) (size 15 to 20)
#    0.000    1.455    1.818    4.636    3.818    7.273 
#    0.000    0.000    0.000    0.545    0.000    0.000 
#    0.000    0.000    0.000    0.000    0.000    0.000 
#
# Total GULP energy -122523.295811 kJ/mol
# GULP energy per Si atom -5569.240719 kJ/mol
# Density = 2.114332 g / cm^3
# Si number density = 21.191550 Si / 1000 Ang^3
#
#
#
# Elastic Constant Matrix: (Units=GPa)
#
#
# Indices 1 2 3 4 5 6 
#
# 1 122.6130 52.3643 27.4505 -0.0001 17.0001 0.0003
# 2 52.3643 138.8457 26.7672 -0.0043 10.8274 0.0009
# 3 27.4505 26.7672 56.9668 -0.0043 7.6659 0.0013
# 4 -0.0001 -0.0043 -0.0043 22.7053 0.0015 1.3106
# 5 17.0001 10.8274 7.6659 0.0015 24.2310 -0.0003
# 6 0.0003 0.0009 0.0013 1.3106 -0.0003 18.0385
#
#
#
# Elastic Compliance Matrix: (Units=1/GPa)
#
#
# Indices 1 2 3 4 5 6 
#
# 1 0.010906 -0.003106 -0.003084 -0.000001 -0.005288 0.000000
# 2 -0.003106 0.008948 -0.002572 0.000001 -0.001005 0.000000
# 3 -0.003084 -0.002572 0.020684 0.000004 -0.003230 -0.000002
# 4 -0.000001 0.000001 0.000004 0.044228 -0.000004 -0.003213
# 5 -0.005288 -0.001005 -0.003230 -0.000004 0.046450 0.000001
# 6 0.000000 0.000000 -0.000002 -0.003213 0.000001 0.055670
#
#
# Mechanical properties :
#
#
# Convention : Reuss Voigt Hill
#
# Bulk Modulus (GPa) = 43.45530 59.06552 51.26041
# Shear Modulus (GPa) = 23.57574 27.11787 25.34681
#
# Velocity S-wave (km/s) = 3.33904 3.58111 3.46219
# Velocity P-wave (km/s) = 5.95114 6.71057 6.34224
#
# Compressibility (1/GPa) = 0.02301215
#
# Stress axis : x y z
#
# Youngs Moduli (GPa) = 91.69360 111.75679 48.34731
#
# Poissons Ratio (x) = 0.34713 0.14911
# Poissons Ratio (y) = 0.28481 0.12437
# Poissons Ratio (z) = 0.28280 0.28748
#
# Static dielectric constant tensor:
#      x y z
#    x 1.896550 0.000000 -0.019180 
#    y 0.000000 1.784720 0.000000 
#    z -0.019180 0.000000 1.819040 
# 
# From -- ./inp_files/293593.got.cif
#   From: 2010.05.17/outbox.cif.g08.bks.cpg/sg12_147_cif.got.tgz:293593.got - 2010.06.03 13:09:07.
