data_PCOD9209363
_publ_section_title
;
Structure prediction by ZEFSAII (Michael W. Deem and Ramdas Pophale) SiO2 
 PCOD9209363
Probable space group: C 2/M
;
_chemical_formula_sum "Si O2"
_cell_formula_units_Z 28
_cell_length_a 5.272404
_cell_length_b 28.088394
_cell_length_c 10.317580
_cell_angle_alpha 90.000000
_cell_angle_beta 89.276260
_cell_angle_gamma 90.000000
_cell_volume 1527.843200
_symmetry_space_group_name_H-M "C 2/M"
_symmetry_group_IT_number 12
_symmetry_cell_setting 'monoclinic'
loop_
_space_group_symop_operation_xyz
x,y,z
-x,y,-z
-x,-y,-z
x,-y,z
1/2+x,1/2+y,z
1/2-x,1/2+y,-z
1/2-x,1/2-y,-z
1/2+x,1/2-y,z
loop_
_atom_site_type_symbol
_atom_site_label
_atom_site_fract_x
_atom_site_fract_y
_atom_site_fract_z
Si Si1 0.000000 0.282210 0.000000
Si Si2 0.680858 0.554597 0.877245
Si Si3 0.478426 0.609324 0.650470
Si Si4 0.535383 0.859367 0.223258
O O1 0.998819 0.316208 0.874474
O O2 0.750000 0.250000 0.000000
O O3 0.762283 0.500000 0.886411
O O4 0.523087 0.564422 0.745864
O O5 0.906652 0.592428 0.859591
O O6 0.500000 0.566155 0.000000
O O7 0.500000 0.597426 0.500000
O O8 0.709993 0.643953 0.691840
O O9 0.210642 0.632160 0.688578
#
# Coordination Sequence:
#
# PCOD9209363 Si02
#       4
#     4   8   8   8
#     4  12  24  40  69  94 119 154 204 260 310 364
#     4   9  20  36  60  91 126 163 203 250 298 354
#     4  10  21  38  62  87 127 171 198 242 298 363
#     4  10  22  39  61  90 124 154 206 251 300 361
#
# _framework density 18.326488000000001
#
# number of rings (size 3 to 8) (size 9 to 14) (size 15 to 20)
#    1.714    0.286    0.000    4.286    2.000    1.714 
#    0.000    5.000    0.000   17.143    0.000    0.000 
#    0.000    0.000    0.000    0.000    0.000    0.000 
#
# Total GULP energy -77998.696741 kJ/mol
# GULP energy per Si atom -5571.335481 kJ/mol
# Density = 1.828478 g / cm^3
# Si number density = 18.326488 Si / 1000 Ang^3
#
#
#
# Elastic Constant Matrix: (Units=GPa)
#
#
# Indices 1 2 3 4 5 6 
#
# 1 146.9633 50.8559 52.1894 0.0000 -19.6028 0.0000
# 2 50.8559 83.9527 44.3176 0.0000 -14.6418 0.0000
# 3 52.1894 44.3176 162.4710 0.0000 -14.4764 0.0000
# 4 0.0000 0.0000 0.0000 -4.1033 0.0000 21.3199
# 5 -19.6028 -14.6418 -14.4764 0.0000 26.2452 0.0000
# 6 0.0000 0.0000 0.0000 21.3199 0.0000 2.0492
#
#
#
# Elastic Compliance Matrix: (Units=1/GPa)
#
#
# Indices 1 2 3 4 5 6 
#
# 1 0.009287 -0.004171 -0.001509 0.000000 0.003778 0.000000
# 2 -0.004171 0.016736 -0.002809 0.000000 0.004672 0.000000
# 3 -0.001509 -0.002809 0.007536 0.000000 0.001463 0.000000
# 4 0.000000 0.000000 0.000000 -0.004426 0.000000 0.046053
# 5 0.003778 0.004672 0.001463 0.000000 0.044337 0.000000
# 6 0.000000 0.000000 0.000000 0.046053 0.000000 0.008863
#
#
# Mechanical properties :
#
#
# Convention : Reuss Voigt Hill
#
# Bulk Modulus (GPa) = 60.30691 76.45698 68.38195
# Shear Modulus (GPa) = 47.69273 21.23984 34.46629
#
# Velocity S-wave (km/s) = 5.10690 3.40806 4.34139
# Velocity P-wave (km/s) = 8.23118 7.56944 7.90724
#
# Compressibility (1/GPa) = 0.01658185
#
# Stress axis : x y z
#
# Youngs Moduli (GPa) = 107.67250 59.75314 132.69190
#
# Poissons Ratio (x) = 0.24920 0.20025
# Poissons Ratio (y) = 0.44905 0.37274
# Poissons Ratio (z) = 0.16249 0.16785
#
# Static dielectric constant tensor:
#      x y z
#    x 1.649950 0.000000 0.039560 
#    y 0.000000 1.605410 0.000000 
#    z 0.039560 0.000000 1.623130 
# 
# From -- ./inp_files/34152.got.cif
#   From: 2010.05.17/outbox.cif.g08.bks.cpg/sg12_18_cif.got.tgz:34152.got - 2010.06.03 13:09:07.
