data_PCOD9209562
_publ_section_title
;
Structure prediction by ZEFSAII (Michael W. Deem and Ramdas Pophale) SiO2 
 PCOD9209562
Probable space group: C 2/M
;
_chemical_formula_sum "Si O2"
_cell_formula_units_Z 56
_cell_length_a 17.108105
_cell_length_b 18.527980
_cell_length_c 8.719356
_cell_angle_alpha 90.000000
_cell_angle_beta 102.673545
_cell_angle_gamma 90.000000
_cell_volume 2696.510925
_symmetry_space_group_name_H-M "C 2/M"
_symmetry_group_IT_number 12
_symmetry_cell_setting 'monoclinic'
loop_
_space_group_symop_operation_xyz
x,y,z
-x,y,-z
-x,-y,-z
x,-y,z
1/2+x,1/2+y,z
1/2-x,1/2+y,-z
1/2-x,1/2-y,-z
1/2+x,1/2-y,z
loop_
_atom_site_type_symbol
_atom_site_label
_atom_site_fract_x
_atom_site_fract_y
_atom_site_fract_z
Si Si1 0.181937 0.329074 0.191223
Si Si2 0.925640 0.419379 0.082116
Si Si3 0.356302 0.322989 0.143686
Si Si4 0.515515 0.584127 0.686205
Si Si5 0.377761 0.327586 0.793374
Si Si6 0.932553 0.310192 0.344992
Si Si7 0.272930 0.832853 0.467731
O O1 0.266549 0.304064 0.156287
O O2 0.126725 0.260383 0.215544
O O3 0.205086 0.368421 0.360105
O O4 0.140427 0.375560 0.042254
O O5 0.897859 0.500000 0.108536
O O6 0.953400 0.376319 0.243744
O O7 0.000000 0.423582 0.000000
O O8 0.393395 0.392348 0.243030
O O9 0.411005 0.256925 0.226257
O O10 0.363674 0.338608 0.967360
O O11 0.500000 0.596743 0.500000
O O12 0.501816 0.500000 0.715147
O O13 0.457030 0.634352 0.763311
O O14 0.304125 0.358306 0.660292
O O15 0.851160 0.330788 0.397699
O O16 0.000000 0.293155 0.500000
O O17 0.250000 0.750000 0.500000
#
# Coordination Sequence:
#
# PCOD9209562 Si02
#       7
#     8   8   8   8   8   8   8
#     4  11  22  42  70 100 133 175 224 280 338 395
#     4  11  26  46  67  96 136 178 225 282 346 409
#     4  12  23  39  70 102 139 170 227 283 331 400
#     4  11  27  46  65  98 143 184 222 271 341 415
#     4  11  22  40  67  97 133 177 224 280 324 392
#     4  12  24  40  69 104 132 179 228 279 342 401
#     4  10  21  38  63 101 133 165 223 285 323 388
#
# _framework density 20.767578
#
# number of rings (size 3 to 8) (size 9 to 14) (size 15 to 20)
#    0.000    0.857    4.286    3.857    8.000    2.000 
#    0.000    3.571    0.000    0.000    0.000    0.000 
#    0.000    0.000    0.000    0.000    0.000    0.000 
#
# Total GULP energy -156457.315859 kJ/mol
# GULP energy per Si atom -5587.761281 kJ/mol
# Density = 2.072031 g / cm^3
# Si number density = 20.767578 Si / 1000 Ang^3
#
#
#
# Elastic Constant Matrix: (Units=GPa)
#
#
# Indices 1 2 3 4 5 6 
#
# 1 68.0750 32.9977 -0.5260 0.0000 -6.3711 0.0000
# 2 32.9977 89.6956 34.4198 0.0000 -1.9071 0.0000
# 3 -0.5260 34.4198 113.7514 0.0000 2.7749 0.0000
# 4 0.0000 0.0000 0.0000 16.8482 0.0000 1.5848
# 5 -6.3711 -1.9071 2.7749 0.0000 43.0245 0.0000
# 6 0.0000 0.0000 0.0000 1.5848 0.0000 14.4268
#
#
#
# Elastic Compliance Matrix: (Units=1/GPa)
#
#
# Indices 1 2 3 4 5 6 
#
# 1 0.018666 -0.007728 0.002369 0.000000 0.002269 0.000000
# 2 -0.007728 0.015841 -0.004826 0.000000 -0.000131 0.000000
# 3 0.002369 -0.004826 0.010275 0.000000 -0.000526 0.000000
# 4 0.000000 0.000000 0.000000 0.059973 0.000000 -0.006588
# 5 0.002269 -0.000131 -0.000526 0.000000 0.023607 0.000000
# 6 0.000000 0.000000 0.000000 -0.006588 0.000000 0.070039
#
#
# Mechanical properties :
#
#
# Convention : Reuss Voigt Hill
#
# Bulk Modulus (GPa) = 40.96109 45.03386 42.99748
# Shear Modulus (GPa) = 22.03533 28.50193 25.26863
#
# Velocity S-wave (km/s) = 3.26090 3.70864 3.49196
# Velocity P-wave (km/s) = 5.82618 6.33013 6.08337
#
# Compressibility (1/GPa) = 0.02441341
#
# Stress axis : x y z
#
# Youngs Moduli (GPa) = 53.57245 63.12764 97.32244
#
# Poissons Ratio (x) = 0.48785 -0.23060
# Poissons Ratio (y) = 0.41401 0.46966
# Poissons Ratio (z) = -0.12693 0.30464
#
# Static dielectric constant tensor:
#      x y z
#    x 1.732970 0.000000 0.028440 
#    y 0.000000 1.761540 0.000000 
#    z 0.028440 0.000000 1.703350 
# 
# From -- ./inp_files/75981.got.cif
#   From: 2010.05.17/outbox.cif.g08.bks.cpg/sg12_38_cif.got.tgz:75981.got - 2010.06.03 13:09:07.
