data_PCOD9209091
_publ_section_title
;
Structure prediction by ZEFSAII (Michael W. Deem and Ramdas Pophale) SiO2 
 PCOD9209091
Probable space group: C 2/M
;
_chemical_formula_sum "Si O2"
_cell_formula_units_Z 64
_cell_length_a 19.982211
_cell_length_b 7.737493
_cell_length_c 32.029599
_cell_angle_alpha 90.000000
_cell_angle_beta 141.804535
_cell_angle_gamma 90.000000
_cell_volume 3062.153815
_symmetry_space_group_name_H-M "C 2/M"
_symmetry_group_IT_number 12
_symmetry_cell_setting 'monoclinic'
loop_
_space_group_symop_operation_xyz
x,y,z
-x,y,-z
-x,-y,-z
x,-y,z
1/2+x,1/2+y,z
1/2-x,1/2+y,-z
1/2-x,1/2-y,-z
1/2+x,1/2-y,z
loop_
_atom_site_type_symbol
_atom_site_label
_atom_site_fract_x
_atom_site_fract_y
_atom_site_fract_z
Si Si1 0.259395 0.792729 0.456196
Si Si2 0.494246 0.698876 0.543253
Si Si3 0.030238 0.794106 0.310848
Si Si4 0.003415 0.800486 0.955713
Si Si5 0.627460 0.797755 0.690289
Si Si6 0.969228 0.788492 0.188951
Si Si7 0.237076 0.293571 0.041929
Si Si8 0.624585 0.287643 0.188686
O O1 0.250000 0.750000 0.500000
O O2 0.368847 0.708997 0.493774
O O3 0.149069 0.727947 0.381136
O O4 0.268450 0.000000 0.455139
O O5 0.500000 0.780656 0.500000
O O6 0.530015 0.500000 0.557383
O O7 0.564809 0.774053 0.615729
O O8 0.945613 0.768125 0.307094
O O9 0.996322 0.727551 0.248828
O O10 0.041311 0.000000 0.312013
O O11 0.932920 0.729017 0.882587
O O12 0.966701 0.000000 0.942133
O O13 0.128253 0.794291 0.004043
O O14 0.000000 0.717992 0.000000
O O15 0.750477 0.728652 0.748434
O O16 0.638297 0.000000 0.703269
O O17 0.847332 0.736122 0.118075
O O18 0.053476 0.733704 0.194096
O O19 0.970786 0.000000 0.189347
O O20 0.225567 0.500000 0.041755
O O21 0.250000 0.250000 0.000000
O O22 0.622628 0.500000 0.188103
#
# Coordination Sequence:
#
# PCOD9209091 Si02
#       8
#     8   8   8   8   8   8   8   8
#     4  11  22  38  64  90 117 152 197 247 297 355
#     4  11  25  43  62  86 121 160 198 245 299 349
#     4  10  22  39  61  86 117 156 193 239 298 354
#     4  10  21  38  61  86 119 160 199 244 299 354
#     4  11  23  38  62  89 118 155 197 245 293 353
#     4   9  19  37  60  84 114 154 196 241 295 351
#     4  11  21  37  62  87 117 155 200 251 299 351
#     4   9  19  37  58  84 117 154 196 241 293 351
#
# _framework density 20.900321000000002
#
# number of rings (size 3 to 8) (size 9 to 14) (size 15 to 20)
#    0.000    1.750    2.500    1.500    3.500    1.750 
#    0.000    1.875    0.000    0.000    0.000    0.000 
#    0.000    0.000    0.000    0.000    0.000    0.000 
#
# Total GULP energy -178680.495215 kJ/mol
# GULP energy per Si atom -5583.765475 kJ/mol
# Density = 2.085275 g / cm^3
# Si number density = 20.900321 Si / 1000 Ang^3
#
#
#
# Elastic Constant Matrix: (Units=GPa)
#
#
# Indices 1 2 3 4 5 6 
#
# 1 144.6723 -20.1150 94.6226 -0.0002 -12.2501 0.0005
# 2 -20.1150 32.9776 -6.0390 -0.0004 -1.8425 0.0014
# 3 94.6226 -6.0390 216.2251 0.0000 -7.3155 0.0001
# 4 -0.0002 -0.0004 0.0000 10.1283 0.0001 15.0471
# 5 -12.2501 -1.8425 -7.3155 0.0001 43.9201 -0.0002
# 6 0.0005 0.0014 0.0001 15.0471 -0.0002 0.2914
#
#
#
# Elastic Compliance Matrix: (Units=1/GPa)
#
#
# Indices 1 2 3 4 5 6 
#
# 1 0.010917 0.005972 -0.004525 -0.000001 0.002542 0.000001
# 2 0.005972 0.033836 -0.001573 -0.000003 0.002823 0.000003
# 3 -0.004525 -0.001573 0.006553 0.000000 -0.000237 0.000000
# 4 -0.000001 -0.000003 0.000000 -0.001304 0.000000 0.067336
# 5 0.002542 0.002823 -0.000237 0.000000 0.023557 0.000000
# 6 0.000001 0.000003 0.000000 0.067336 0.000000 -0.045324
#
#
# Mechanical properties :
#
#
# Convention : Reuss Voigt Hill
#
# Bulk Modulus (GPa) = 19.58643 58.97912 39.28277
# Shear Modulus (GPa) = 109.88037 32.56172 71.22105
#
# Velocity S-wave (km/s) = 7.25863 3.95137 5.84384
# Velocity P-wave (km/s) = 8.92423 7.00702 8.02310
#
# Compressibility (1/GPa) = 0.05105577
#
# Stress axis : x y z
#
# Youngs Moduli (GPa) = 91.59892 29.55410 152.60374
#
# Poissons Ratio (x) = -0.17651 0.69048
# Poissons Ratio (y) = -0.54707 0.24006
# Poissons Ratio (z) = 0.41445 0.04649
#
# Static dielectric constant tensor:
#      x y z
#    x 1.709420 0.000000 -0.027700 
#    y 0.000000 1.777950 0.000000 
#    z -0.027700 0.000000 1.732610 
# 
# From -- ./inp_files/378510.got.cif
#   From: 2010.05.17/outbox.cif.g08.bks.cpg/sg12_190_cif.got.tgz:378510.got - 2010.06.03 13:09:07.
