data_PCOD9209867
_publ_section_title
;
Structure prediction by ZEFSAII (Michael W. Deem and Ramdas Pophale) SiO2 
 PCOD9209867
Probable space group: C 2/M
;
_chemical_formula_sum "Si O2"
_cell_formula_units_Z 32
_cell_length_a 15.452699
_cell_length_b 14.302494
_cell_length_c 20.594571
_cell_angle_alpha 90.000000
_cell_angle_beta 163.868939
_cell_angle_gamma 90.000000
_cell_volume 1264.609831
_symmetry_space_group_name_H-M "C 2/M"
_symmetry_group_IT_number 12
_symmetry_cell_setting 'monoclinic'
loop_
_space_group_symop_operation_xyz
x,y,z
-x,y,-z
-x,-y,-z
x,-y,z
1/2+x,1/2+y,z
1/2-x,1/2+y,-z
1/2-x,1/2-y,-z
1/2+x,1/2-y,z
loop_
_atom_site_type_symbol
_atom_site_label
_atom_site_fract_x
_atom_site_fract_y
_atom_site_fract_z
Si Si1 0.763382 0.898308 0.633859
Si Si2 0.697137 0.107764 0.817350
Si Si3 0.598429 0.190506 0.269312
Si Si4 0.220261 0.389455 0.220499
O O1 0.500000 0.898756 0.500000
O O2 0.584256 0.893197 0.436365
O O3 0.938434 0.801073 0.766965
O O4 0.925204 0.000000 0.753398
O O5 0.594303 0.156703 0.808225
O O6 0.775500 0.000000 0.889666
O O7 0.000000 0.148745 0.000000
O O8 0.561067 0.136764 0.174172
O O9 0.960899 0.169488 0.550404
O O10 0.300605 0.500000 0.278332
O O11 0.000000 0.372294 0.000000
#
# Coordination Sequence:
#
# PCOD9209867 Si02
#       4
#     8   8   8   8
#     4  10  21  41  65  96 138 184 234 290 347 407
#     4  10  22  41  67 100 139 184 235 288 346 417
#     4  11  20  42  71 100 139 186 234 289 350 416
#     4  10  21  38  66 105 144 181 230 291 359 424
#
# _framework density 25.304247
#
# number of rings (size 3 to 8) (size 9 to 14) (size 15 to 20)
#    0.000    1.750    2.500    3.750    0.000    1.000 
#    4.500    1.250    0.000    1.500    0.000    0.000 
#    0.000    0.000    0.000    0.250    0.000    0.000 
#
# Total GULP energy -89766.271604 kJ/mol
# GULP energy per Si atom -5610.391975 kJ/mol
# Density = 2.524665 g / cm^3
# Si number density = 25.304247 Si / 1000 Ang^3
#
#
#
# Elastic Constant Matrix: (Units=GPa)
#
#
# Indices 1 2 3 4 5 6 
#
# 1 226.7322 72.1832 72.7017 0.0518 -4.0326 0.0405
# 2 72.1832 185.5194 21.8015 0.2410 7.6097 0.0984
# 3 72.7017 21.8015 80.4999 0.0804 -22.6976 0.1842
# 4 0.0518 0.2410 0.0804 37.4386 0.1201 9.7438
# 5 -4.0326 7.6097 -22.6976 0.1201 64.8217 0.1386
# 6 0.0405 0.0984 0.1842 9.7438 0.1386 6.7774
#
#
#
# Elastic Compliance Matrix: (Units=1/GPa)
#
#
# Indices 1 2 3 4 5 6 
#
# 1 0.006992 -0.001927 -0.006221 -0.000044 -0.001518 0.000250
# 2 -0.001927 0.006201 -0.000197 -0.000032 -0.000917 -0.000009
# 3 -0.006221 -0.000197 0.019965 0.000179 0.006629 -0.000895
# 4 -0.000044 -0.000032 0.000179 0.042682 0.000116 -0.061371
# 5 -0.001518 -0.000917 0.006629 0.000116 0.017762 -0.000687
# 6 0.000250 -0.000009 -0.000895 -0.061371 -0.000687 0.235819
#
#
# Mechanical properties :
#
#
# Convention : Reuss Voigt Hill
#
# Bulk Modulus (GPa) = 60.72852 91.79160 76.26006
# Shear Modulus (GPa) = 14.22066 43.54522 28.88294
#
# Velocity S-wave (km/s) = 2.37320 4.15283 3.38217
# Velocity P-wave (km/s) = 5.61791 7.70381 6.74201
#
# Compressibility (1/GPa) = 0.01646673
#
# Stress axis : x y z
#
# Youngs Moduli (GPa) = 143.02601 161.26542 50.08782
#
# Poissons Ratio (x) = 0.31079 0.31159
# Poissons Ratio (y) = 0.27563 0.00989
# Poissons Ratio (z) = 0.88975 0.03183
#
# Static dielectric constant tensor:
#      x y z
#    x 1.895650 0.000030 -0.002200 
#    y 0.000030 1.965860 -0.000250 
#    z -0.002200 -0.000250 2.112810 
# 
# From -- ./inp_files/311072.got.cif
#   From: 2010.05.17/outbox.cif.g08.bks.cpg/sg12_156_cif.got.tgz:311072.got - 2010.06.03 13:09:07.
