data_PCOD9209130
_publ_section_title
;
Structure prediction by ZEFSAII (Michael W. Deem and Ramdas Pophale) SiO2 
 PCOD9209130
Probable space group: C 2/M
;
_chemical_formula_sum "Si O2"
_cell_formula_units_Z 32
_cell_length_a 23.006448
_cell_length_b 13.662806
_cell_length_c 9.459735
_cell_angle_alpha 90.000000
_cell_angle_beta 28.155065
_cell_angle_gamma 90.000000
_cell_volume 1403.075682
_symmetry_space_group_name_H-M "C 2/M"
_symmetry_group_IT_number 12
_symmetry_cell_setting 'monoclinic'
loop_
_space_group_symop_operation_xyz
x,y,z
-x,y,-z
-x,-y,-z
x,-y,z
1/2+x,1/2+y,z
1/2-x,1/2+y,-z
1/2-x,1/2-y,-z
1/2+x,1/2-y,z
loop_
_atom_site_type_symbol
_atom_site_label
_atom_site_fract_x
_atom_site_fract_y
_atom_site_fract_z
Si Si1 0.139731 0.867547 0.667501
Si Si2 0.874034 0.635330 0.340914
Si Si3 0.846666 0.110929 0.687495
Si Si4 0.104109 0.667663 0.381801
O O1 0.131727 0.750477 0.682053
O O2 0.243986 0.898778 0.555122
O O3 0.180556 0.894223 0.421426
O O4 0.000000 0.899958 0.000000
O O5 0.887444 0.624231 0.479780
O O6 0.000000 0.599854 0.000000
O O7 0.920850 0.214319 0.543169
O O8 0.890895 0.000000 0.630291
O O9 0.729679 0.138775 0.033612
O O10 0.000000 0.630049 0.500000
#
# Coordination Sequence:
#
# PCOD9209130 Si02
#       4
#     8   8   8   8
#     4   9  18  33  56  84 116 153 196 248 304 359
#     4   9  17  33  58  84 112 153 202 247 297 360
#     4  10  22  38  58  87 122 159 203 253 305 364
#     4  10  21  38  61  87 120 163 205 248 304 367
#
# _framework density 22.807037000000001
#
# number of rings (size 3 to 8) (size 9 to 14) (size 15 to 20)
#    0.000    2.500    0.000    1.500    0.000   13.500 
#    0.000    1.250    0.000    3.000    0.000    0.000 
#    0.000    0.000    0.000    0.000    0.000    0.000 
#
# Total GULP energy -89145.144170 kJ/mol
# GULP energy per Si atom -5571.571511 kJ/mol
# Density = 2.275513 g / cm^3
# Si number density = 22.807037 Si / 1000 Ang^3
#
#
#
# Elastic Constant Matrix: (Units=GPa)
#
#
# Indices 1 2 3 4 5 6 
#
# 1 242.6992 16.0958 109.0110 0.0000 8.4332 0.0000
# 2 16.0958 169.8874 10.7969 0.0000 4.2199 0.0000
# 3 109.0110 10.7969 139.7203 0.0000 20.4682 0.0000
# 4 0.0000 0.0000 0.0000 -10.9480 0.0000 37.6881
# 5 8.4332 4.2199 20.4682 0.0000 34.6231 0.0000
# 6 0.0000 0.0000 0.0000 37.6881 0.0000 -21.0022
#
#
#
# Elastic Compliance Matrix: (Units=1/GPa)
#
#
# Indices 1 2 3 4 5 6 
#
# 1 0.006433 -0.000316 -0.005223 0.000000 0.001559 0.000000
# 2 -0.000316 0.005939 -0.000129 0.000000 -0.000571 0.000000
# 3 -0.005223 -0.000129 0.012102 0.000000 -0.005866 0.000000
# 4 0.000000 0.000000 0.000000 0.017642 0.000000 0.031658
# 5 0.001559 -0.000571 -0.005866 0.000000 0.032040 0.000000
# 6 0.000000 0.000000 0.000000 0.031658 0.000000 0.009196
#
#
# Mechanical properties :
#
#
# Convention : Reuss Voigt Hill
#
# Bulk Modulus (GPa) = 76.11887 91.56826 83.84356
# Shear Modulus (GPa) = 50.47072 28.29479 39.38276
#
# Velocity S-wave (km/s) = 4.70930 3.52606 4.15996
# Velocity P-wave (km/s) = 7.93836 7.53749 7.74052
#
# Compressibility (1/GPa) = 0.01313735
#
# Stress axis : x y z
#
# Youngs Moduli (GPa) = 155.44383 168.39087 82.63316
#
# Poissons Ratio (x) = 0.05326 0.43161
# Poissons Ratio (y) = 0.04917 0.01062
# Poissons Ratio (z) = 0.81192 0.02164
#
# Static dielectric constant tensor:
#      x y z
#    x 1.795480 0.000000 -0.027400 
#    y 0.000000 1.916950 0.000000 
#    z -0.027400 0.000000 1.790400 
# 
# From -- ./inp_files/96709.got.cif
#   From: 2010.05.17/outbox.cif.g08.bks.cpg/sg12_49_cif.got.tgz:96709.got - 2010.06.03 13:09:07.
