data_PCOD9209274
_publ_section_title
;
Structure prediction by ZEFSAII (Michael W. Deem and Ramdas Pophale) SiO2 
 PCOD9209274
Probable space group: C 2/M
;
_chemical_formula_sum "Si O2"
_cell_formula_units_Z 32
_cell_length_a 23.723501
_cell_length_b 11.010259
_cell_length_c 9.219732
_cell_angle_alpha 90.000000
_cell_angle_beta 143.766321
_cell_angle_gamma 90.000000
_cell_volume 1423.445380
_symmetry_space_group_name_H-M "C 2/M"
_symmetry_group_IT_number 12
_symmetry_cell_setting 'monoclinic'
loop_
_space_group_symop_operation_xyz
x,y,z
-x,y,-z
-x,-y,-z
x,-y,z
1/2+x,1/2+y,z
1/2-x,1/2+y,-z
1/2-x,1/2-y,-z
1/2+x,1/2-y,z
loop_
_atom_site_type_symbol
_atom_site_label
_atom_site_fract_x
_atom_site_fract_y
_atom_site_fract_z
Si Si1 0.016348 0.864492 0.841997
Si Si2 0.330996 0.868475 0.323209
Si Si3 0.120135 0.862365 0.769224
Si Si4 0.141771 0.252652 0.329841
O O1 0.036022 0.851772 0.712951
O O2 0.908326 0.852868 0.675895
O O3 0.051967 0.000000 0.952612
O O4 0.075774 0.760599 0.050312
O O5 0.367319 0.755007 0.305213
O O6 0.360642 0.856928 0.553105
O O7 0.362517 0.000000 0.331484
O O8 0.216653 0.861983 0.069199
O O9 0.120099 0.000000 0.704232
O O10 0.250000 0.250000 0.500000
#
# Coordination Sequence:
#
# PCOD9209274 Si02
#       4
#     8   8   8   8
#     4  10  22  41  65  93 123 163 220 268 304 376
#     4  10  21  38  61  91 128 166 204 260 324 377
#     4   9  19  39  64  91 121 162 217 263 305 375
#     4  11  21  36  61  91 125 164 205 257 321 371
#
# _framework density 22.480665999999999
#
# number of rings (size 3 to 8) (size 9 to 14) (size 15 to 20)
#    0.000    2.000    2.500    1.500    0.000    4.000 
#    0.000    8.750    0.000    0.000    0.000    0.000 
#    0.000    0.000    0.000    0.000    0.000    0.000 
#
# Total GULP energy -89069.576943 kJ/mol
# GULP energy per Si atom -5566.848559 kJ/mol
# Density = 2.242950 g / cm^3
# Si number density = 22.480666 Si / 1000 Ang^3
#
#
#
# Elastic Constant Matrix: (Units=GPa)
#
#
# Indices 1 2 3 4 5 6 
#
# 1 155.3939 67.5566 28.3928 0.0000 0.5215 0.0000
# 2 67.5566 151.8009 51.5565 0.0000 -3.7154 0.0000
# 3 28.3928 51.5565 79.9783 0.0000 7.5822 0.0000
# 4 0.0000 0.0000 0.0000 36.1251 0.0000 -6.7310
# 5 0.5215 -3.7154 7.5822 0.0000 56.4961 0.0000
# 6 0.0000 0.0000 0.0000 -6.7310 0.0000 27.8498
#
#
#
# Elastic Compliance Matrix: (Units=1/GPa)
#
#
# Indices 1 2 3 4 5 6 
#
# 1 0.008012 -0.003343 -0.000670 0.000000 -0.000204 0.000000
# 2 -0.003343 0.009924 -0.005344 0.000000 0.001401 0.000000
# 3 -0.000670 -0.005344 0.016428 0.000000 -0.002550 0.000000
# 4 0.000000 0.000000 0.000000 0.028987 0.000000 0.007006
# 5 -0.000204 0.001401 -0.002550 0.000000 0.018137 0.000000
# 6 0.000000 0.000000 0.000000 0.007006 0.000000 0.037600
#
#
# Mechanical properties :
#
#
# Convention : Reuss Voigt Hill
#
# Bulk Modulus (GPa) = 63.89448 75.79831 69.84640
# Shear Modulus (GPa) = 34.96081 40.07203 37.51642
#
# Velocity S-wave (km/s) = 3.94782 4.22656 4.08956
# Velocity P-wave (km/s) = 7.01883 7.59004 7.31002
#
# Compressibility (1/GPa) = 0.01565080
#
# Stress axis : x y z
#
# Youngs Moduli (GPa) = 124.81803 100.76124 60.87301
#
# Poissons Ratio (x) = 0.33684 0.04078
# Poissons Ratio (y) = 0.41726 0.32528
# Poissons Ratio (z) = 0.08362 0.53843
#
# Static dielectric constant tensor:
#      x y z
#    x 1.837540 0.000000 -0.030360 
#    y 0.000000 1.789880 0.000000 
#    z -0.030360 0.000000 2.028430 
# 
# From -- ./inp_files/188151.got.cif
#   From: 2010.05.17/outbox.cif.g08.bks.cpg/sg12_95_cif.got.tgz:188151.got - 2010.06.03 13:09:07.
