data_PCOD9209163
_publ_section_title
;
Structure prediction by ZEFSAII (Michael W. Deem and Ramdas Pophale) SiO2 
 PCOD9209163
Probable space group: C 2/M
;
_chemical_formula_sum "Si O2"
_cell_formula_units_Z 64
_cell_length_a 28.281878
_cell_length_b 11.194013
_cell_length_c 15.356055
_cell_angle_alpha 90.000000
_cell_angle_beta 38.445428
_cell_angle_gamma 90.000000
_cell_volume 3022.753559
_symmetry_space_group_name_H-M "C 2/M"
_symmetry_group_IT_number 12
_symmetry_cell_setting 'monoclinic'
loop_
_space_group_symop_operation_xyz
x,y,z
-x,y,-z
-x,-y,-z
x,-y,z
1/2+x,1/2+y,z
1/2-x,1/2+y,-z
1/2-x,1/2-y,-z
1/2+x,1/2-y,z
loop_
_atom_site_type_symbol
_atom_site_label
_atom_site_fract_x
_atom_site_fract_y
_atom_site_fract_z
Si Si1 0.002438 0.280293 0.396087
Si Si2 0.746163 0.288361 0.865202
Si Si3 0.537420 0.865391 0.731801
Si Si4 0.072350 0.360580 0.960382
Si Si5 0.342995 0.134938 0.881713
Si Si6 0.696711 0.239529 0.493835
Si Si7 0.176636 0.869792 0.797198
Si Si8 0.142194 0.866176 0.408341
O O1 0.090684 0.274604 0.243323
O O2 0.000000 0.324238 0.500000
O O3 0.970605 0.358126 0.361145
O O4 0.947459 0.165600 0.467657
O O5 0.779421 0.359316 0.898588
O O6 0.697649 0.364774 0.868443
O O7 0.815747 0.229659 0.712525
O O8 0.695595 0.180634 0.975309
O O9 0.463045 0.828635 0.893327
O O10 0.613062 0.795243 0.646123
O O11 0.550623 0.000000 0.740433
O O12 0.101559 0.500000 0.919212
O O13 0.129381 0.253597 0.850796
O O14 0.000000 0.359119 0.000000
O O15 0.372912 0.000000 0.845945
O O16 0.750000 0.250000 0.500000
O O17 0.743175 0.143964 0.368902
O O18 0.678462 0.346217 0.452042
O O19 0.142056 0.000000 0.824966
O O20 0.155832 0.000000 0.359103
#
# Coordination Sequence:
#
# PCOD9209163 Si02
#       8
#     8   8   8   8   8   8   8   8
#     4  11  22  39  55  89 119 159 204 255 309 372
#     4  10  22  41  58  88 120 156 206 255 310 370
#     4  10  21  38  61  88 119 156 207 261 311 374
#     4  10  22  42  67  92 122 164 213 265 320 383
#     4  11  22  38  62  86 117 159 208 258 310 373
#     4  10  22  40  62  91 124 160 206 259 315 383
#     4  11  23  39  63  94 130 164 202 258 325 382
#     4  10  22  41  62  86 120 164 208 256 313 378
#
# _framework density 21.172749
#
# number of rings (size 3 to 8) (size 9 to 14) (size 15 to 20)
#    0.000    1.625    1.250    3.000    0.000    6.000 
#    0.000    6.250    0.000    0.000    0.000    0.000 
#    0.000    0.000    0.000    0.000    0.000    0.000 
#
# Total GULP energy -178350.766586 kJ/mol
# GULP energy per Si atom -5573.461456 kJ/mol
# Density = 2.112456 g / cm^3
# Si number density = 21.172749 Si / 1000 Ang^3
#
#
#
# Elastic Constant Matrix: (Units=GPa)
#
#
# Indices 1 2 3 4 5 6 
#
# 1 103.3780 9.1476 11.0063 0.0000 2.7277 0.0000
# 2 9.1476 100.1120 19.1826 0.0001 -8.7635 0.0000
# 3 11.0063 19.1826 56.1784 0.0000 1.1609 0.0000
# 4 0.0000 0.0001 0.0000 17.8736 0.0000 -4.9057
# 5 2.7277 -8.7635 1.1609 0.0000 35.6591 0.0000
# 6 0.0000 0.0000 0.0000 -4.9057 0.0000 9.5644
#
#
#
# Elastic Compliance Matrix: (Units=1/GPa)
#
#
# Indices 1 2 3 4 5 6 
#
# 1 0.009936 -0.000657 -0.001704 0.000000 -0.000866 0.000000
# 2 -0.000657 0.011007 -0.003689 0.000000 0.002876 0.000000
# 3 -0.001704 -0.003689 0.019423 0.000000 -0.001409 0.000000
# 4 0.000000 0.000000 0.000000 0.065115 0.000000 0.033398
# 5 -0.000866 0.002876 -0.001409 0.000000 0.028862 0.000000
# 6 0.000000 0.000000 0.000000 0.033398 0.000000 0.121684
#
#
# Mechanical properties :
#
#
# Convention : Reuss Voigt Hill
#
# Bulk Modulus (GPa) = 35.37947 37.59348 36.48648
# Shear Modulus (GPa) = 18.01476 27.30823 22.66149
#
# Velocity S-wave (km/s) = 2.92009 3.59525 3.27511
# Velocity P-wave (km/s) = 5.30240 5.91849 5.61890
#
# Compressibility (1/GPa) = 0.02826498
#
# Stress axis : x y z
#
# Youngs Moduli (GPa) = 100.64732 90.84725 51.48486
#
# Poissons Ratio (x) = 0.05970 0.08775
# Poissons Ratio (y) = 0.06614 0.18994
# Poissons Ratio (z) = 0.17153 0.33516
#
# Static dielectric constant tensor:
#      x y z
#    x 1.812650 0.000000 0.016180 
#    y 0.000000 1.763890 0.000000 
#    z 0.016180 0.000000 1.802480 
# 
# From -- ./inp_files/245928.got.cif
#   From: 2010.05.17/outbox.cif.g08.bks.cpg/sg12_123_cif.got.tgz:245928.got - 2010.06.03 13:09:07.
