data_PCOD9209513
_publ_section_title
;
Structure prediction by ZEFSAII (Michael W. Deem and Ramdas Pophale) SiO2 
 PCOD9209513
Probable space group: C 2/M
;
_chemical_formula_sum "Si O2"
_cell_formula_units_Z 64
_cell_length_a 16.127247
_cell_length_b 16.705416
_cell_length_c 24.800390
_cell_angle_alpha 90.000000
_cell_angle_beta 29.069846
_cell_angle_gamma 90.000000
_cell_volume 3246.392350
_symmetry_space_group_name_H-M "C 2/M"
_symmetry_group_IT_number 12
_symmetry_cell_setting 'monoclinic'
loop_
_space_group_symop_operation_xyz
x,y,z
-x,y,-z
-x,-y,-z
x,-y,z
1/2+x,1/2+y,z
1/2-x,1/2+y,-z
1/2-x,1/2-y,-z
1/2+x,1/2-y,z
loop_
_atom_site_type_symbol
_atom_site_label
_atom_site_fract_x
_atom_site_fract_y
_atom_site_fract_z
Si Si1 0.190965 0.410784 0.912281
Si Si2 0.143493 0.252714 0.376408
Si Si3 0.437709 0.773542 0.288734
Si Si4 0.707176 0.739013 0.962815
Si Si5 0.092942 0.588501 0.345603
Si Si6 0.464386 0.410617 0.083581
Si Si7 0.946401 0.841375 0.680604
Si Si8 0.279464 0.912118 0.441250
O O1 0.237882 0.500000 0.908459
O O2 0.188056 0.329388 0.949862
O O3 0.313680 0.390893 0.792047
O O4 0.000000 0.417090 0.000000
O O5 0.325831 0.260607 0.302822
O O6 0.087628 0.341212 0.391062
O O7 0.139288 0.203208 0.322295
O O8 0.000000 0.221561 0.500000
O O9 0.627008 0.795332 0.162094
O O10 0.464879 0.718708 0.326352
O O11 0.328218 0.848411 0.369254
O O12 0.750000 0.750000 0.000000
O O13 0.559119 0.672178 0.044897
O O14 0.098925 0.500000 0.366765
O O15 0.265278 0.597913 0.212085
O O16 0.927507 0.593557 0.401977
O O17 0.517680 0.500000 0.075551
O O18 0.500000 0.415510 0.000000
O O19 0.098455 0.893962 0.570434
O O20 0.282209 0.000000 0.415981
#
# Coordination Sequence:
#
# PCOD9209513 Si02
#       8
#     8   8   8   8   8   8   8   8
#     4  10  24  44  67  94 126 175 227 268 319 391
#     4  12  23  39  66  93 131 169 215 269 327 396
#     4  11  23  40  62  98 125 167 220 265 321 395
#     4  11  24  39  64  94 131 172 216 267 332 389
#     4  10  22  38  62  96 129 164 209 266 329 394
#     4  10  21  38  62  93 126 164 212 264 324 388
#     4  11  23  43  66  92 130 172 219 266 330 393
#     4  11  21  39  64  92 127 165 210 266 327 384
#
# _framework density 19.714192000000001
#
# number of rings (size 3 to 8) (size 9 to 14) (size 15 to 20)
#    0.000    1.250    2.500    3.375    5.250    2.250 
#    0.000    6.250    0.000    0.000    0.000    0.000 
#    0.000    0.000    0.000    0.000    0.000    0.000 
#
# Total GULP energy -178430.942652 kJ/mol
# GULP energy per Si atom -5575.966958 kJ/mol
# Density = 1.966932 g / cm^3
# Si number density = 19.714192 Si / 1000 Ang^3
#
#
#
# Elastic Constant Matrix: (Units=GPa)
#
#
# Indices 1 2 3 4 5 6 
#
# 1 71.0123 34.5636 5.1129 -0.0002 4.5127 -0.0012
# 2 34.5636 123.9335 37.3199 -0.0010 2.0741 0.0004
# 3 5.1129 37.3199 67.4581 -0.0071 -7.0247 -0.0031
# 4 -0.0002 -0.0010 -0.0071 41.2262 0.0015 -1.7592
# 5 4.5127 2.0741 -7.0247 0.0015 21.2903 0.0014
# 6 -0.0012 0.0004 -0.0031 -1.7592 0.0014 23.4659
#
#
#
# Elastic Compliance Matrix: (Units=1/GPa)
#
#
# Indices 1 2 3 4 5 6 
#
# 1 0.016566 -0.004938 0.001202 0.000000 -0.002634 0.000001
# 2 -0.004938 0.011318 -0.006103 -0.000001 -0.002070 -0.000001
# 3 0.001202 -0.006103 0.018790 0.000003 0.006540 0.000003
# 4 0.000000 -0.000001 0.000003 0.024334 -0.000001 0.001824
# 5 -0.002634 -0.002070 0.006540 -0.000001 0.049887 -0.000002
# 6 0.000001 -0.000001 0.000003 0.001824 -0.000002 0.042752
#
#
# Mechanical properties :
#
#
# Convention : Reuss Voigt Hill
#
# Bulk Modulus (GPa) = 37.04111 46.26631 41.65371
# Shear Modulus (GPa) = 25.99761 29.55699 27.77730
#
# Velocity S-wave (km/s) = 3.63537 3.87625 3.75774
# Velocity P-wave (km/s) = 6.03747 6.59949 6.32472
#
# Compressibility (1/GPa) = 0.02699703
#
# Stress axis : x y z
#
# Youngs Moduli (GPa) = 60.36327 88.35168 53.21909
#
# Poissons Ratio (x) = 0.43628 -0.06397
# Poissons Ratio (y) = 0.29808 0.32479
# Poissons Ratio (z) = -0.07256 0.53920
#
# Static dielectric constant tensor:
#      x y z
#    x 1.689660 0.000000 -0.027230 
#    y 0.000000 1.721400 0.000010 
#    z -0.027230 0.000010 1.659420 
# 
# From -- ./inp_files/340803.got.cif
#   From: 2010.05.17/outbox.cif.g08.bks.cpg/sg12_171_cif.got.tgz:340803.got - 2010.06.03 13:09:07.
