data_PCOD9209582
_publ_section_title
;
Structure prediction by ZEFSAII (Michael W. Deem and Ramdas Pophale) SiO2 
 PCOD9209582
Probable space group: C 2/M
;
_chemical_formula_sum "Si O2"
_cell_formula_units_Z 60
_cell_length_a 15.071513
_cell_length_b 17.489477
_cell_length_c 12.201961
_cell_angle_alpha 90.000000
_cell_angle_beta 66.180631
_cell_angle_gamma 90.000000
_cell_volume 2942.391624
_symmetry_space_group_name_H-M "C 2/M"
_symmetry_group_IT_number 12
_symmetry_cell_setting 'monoclinic'
loop_
_space_group_symop_operation_xyz
x,y,z
-x,y,-z
-x,-y,-z
x,-y,z
1/2+x,1/2+y,z
1/2-x,1/2+y,-z
1/2-x,1/2-y,-z
1/2+x,1/2-y,z
loop_
_atom_site_type_symbol
_atom_site_label
_atom_site_fract_x
_atom_site_fract_y
_atom_site_fract_z
Si Si1 0.221161 0.258572 0.760081
Si Si2 0.363358 0.757639 0.411788
Si Si3 0.349809 0.147988 0.809561
Si Si4 0.000000 0.155108 0.500000
Si Si5 0.322710 0.585333 0.711768
Si Si6 0.533551 0.083345 0.609069
Si Si7 0.909734 0.245615 0.973784
Si Si8 0.663589 0.414673 0.031688
O O1 0.138814 0.233827 0.715462
O O2 0.305629 0.195386 0.728606
O O3 0.257960 0.342324 0.709228
O O4 0.181982 0.263250 0.902997
O O5 0.250000 0.750000 0.500000
O O6 0.433668 0.707295 0.452835
O O7 0.398558 0.844618 0.402836
O O8 0.435774 0.093926 0.728234
O O9 0.396152 0.210570 0.867765
O O10 0.263294 0.105242 0.917123
O O11 0.071845 0.104426 0.390226
O O12 0.292025 0.500000 0.692368
O O13 0.322269 0.586454 0.844262
O O14 0.500000 0.086222 0.500000
O O15 0.577776 0.000000 0.608874
O O16 0.908662 0.154681 0.958092
O O17 0.000000 0.272306 0.000000
O O18 0.631620 0.500000 0.016442
#
# Coordination Sequence:
#
# PCOD9209582 Si02
#       8
#     8   8   8   4   8   8   8   8
#     4  11  21  39  64  94 121 164 218 266 315 378
#     4  12  24  42  69  94 123 169 220 257 315 384
#     4  11  20  42  66  90 127 169 211 263 316 387
#     4  12  25  44  67  92 126 170 214 270 313 388
#     4  11  22  40  64  92 127 165 211 266 325 378
#     4  11  24  41  64  95 131 166 209 268 323 375
#     4  11  22  36  62  92 125 163 214 263 314 385
#     4  10  21  38  63  89 121 167 209 260 324 380
#
# _framework density 20.391576000000001
#
# number of rings (size 3 to 8) (size 9 to 14) (size 15 to 20)
#    0.000    0.933    4.667    3.800    1.867    0.800 
#    0.000    0.000    0.000    3.600    0.000    0.000 
#    0.000    0.000    0.000    0.000    0.000    0.000 
#
# Total GULP energy -167571.851294 kJ/mol
# GULP energy per Si atom -5585.728376 kJ/mol
# Density = 2.034516 g / cm^3
# Si number density = 20.391576 Si / 1000 Ang^3
#
#
#
# Elastic Constant Matrix: (Units=GPa)
#
#
# Indices 1 2 3 4 5 6 
#
# 1 69.2909 22.2164 14.6284 0.0000 20.5241 0.0000
# 2 22.2164 117.9925 26.4112 0.0000 10.6251 0.0000
# 3 14.6284 26.4112 84.8247 0.0000 4.5414 0.0000
# 4 0.0000 0.0000 0.0000 -36.5942 0.0000 31.0324
# 5 20.5241 10.6251 4.5414 0.0000 33.2614 0.0000
# 6 0.0000 0.0000 0.0000 31.0324 0.0000 -4.7316
#
#
#
# Elastic Compliance Matrix: (Units=1/GPa)
#
#
# Indices 1 2 3 4 5 6 
#
# 1 0.018661 -0.002116 -0.001994 0.000000 -0.010567 0.000000
# 2 -0.002116 0.009568 -0.002539 0.000000 -0.001404 0.000000
# 3 -0.001994 -0.002539 0.012908 0.000000 0.000279 0.000000
# 4 0.000000 0.000000 0.000000 0.005990 0.000000 0.039288
# 5 -0.010567 -0.001404 0.000279 0.000000 0.036996 0.000000
# 6 0.000000 0.000000 0.000000 0.039288 0.000000 0.046330
#
#
# Mechanical properties :
#
#
# Convention : Reuss Voigt Hill
#
# Bulk Modulus (GPa) = 35.91872 44.29111 40.10492
# Shear Modulus (GPa) = 32.67305 12.31060 22.49183
#
# Velocity S-wave (km/s) = 4.00719 2.45972 3.32474
# Velocity P-wave (km/s) = 6.25003 5.46209 5.86930
#
# Compressibility (1/GPa) = 0.02784063
#
# Stress axis : x y z
#
# Youngs Moduli (GPa) = 53.58732 104.51170 77.46836
#
# Poissons Ratio (x) = 0.22113 0.15445
# Poissons Ratio (y) = 0.11338 0.19670
# Poissons Ratio (z) = 0.10684 0.26537
#
# Static dielectric constant tensor:
#      x y z
#    x 1.732240 0.000000 -0.023740 
#    y 0.000000 1.714150 0.000000 
#    z -0.023740 0.000000 1.782040 
# 
# From -- ./inp_files/146105.got.cif
#   From: 2010.05.17/outbox.cif.g08.bks.cpg/sg12_74_cif.got.tgz:146105.got - 2010.06.03 13:09:07.
