data_PCOD9209463
_publ_section_title
;
Structure prediction by ZEFSAII (Michael W. Deem and Ramdas Pophale) SiO2 
 PCOD9209463
Probable space group: C 2/M
;
_chemical_formula_sum "Si O2"
_cell_formula_units_Z 48
_cell_length_a 19.337238
_cell_length_b 8.981128
_cell_length_c 27.957606
_cell_angle_alpha 90.000000
_cell_angle_beta 29.704120
_cell_angle_gamma 90.000000
_cell_volume 2405.954919
_symmetry_space_group_name_H-M "C 2/M"
_symmetry_group_IT_number 12
_symmetry_cell_setting 'monoclinic'
loop_
_space_group_symop_operation_xyz
x,y,z
-x,y,-z
-x,-y,-z
x,-y,z
1/2+x,1/2+y,z
1/2-x,1/2+y,-z
1/2-x,1/2-y,-z
1/2+x,1/2-y,z
loop_
_atom_site_type_symbol
_atom_site_label
_atom_site_fract_x
_atom_site_fract_y
_atom_site_fract_z
Si Si1 0.647437 0.174462 0.200089
Si Si2 0.079874 0.322091 0.401984
Si Si3 0.149181 0.176366 0.099713
Si Si4 0.616486 0.825849 0.781423
Si Si5 0.900453 0.678850 0.416519
Si Si6 0.619143 0.830052 0.888967
O O1 0.686218 0.268488 0.130410
O O2 0.499127 0.215452 0.312145
O O3 0.760958 0.212218 0.172208
O O4 0.648256 0.000000 0.187944
O O5 0.106528 0.500000 0.381007
O O6 0.226535 0.236151 0.314527
O O7 0.000000 0.298255 0.500000
O O8 0.981914 0.275588 0.416154
O O9 0.991944 0.232900 0.184582
O O10 0.159198 0.000000 0.090085
O O11 0.250000 0.250000 0.000000
O O12 0.566801 0.813454 0.866461
O O13 0.612964 0.000000 0.769951
O O14 0.886879 0.500000 0.426706
O O15 0.750000 0.750000 0.500000
O O16 0.674726 0.000000 0.859569
O O17 0.500000 0.812223 0.000000
#
# Coordination Sequence:
#
# PCOD9209463 Si02
#       6
#     8   8   8   8   8   8
#     4  11  23  41  64  93 128 165 210 261 314 378
#     4  10  22  42  65  92 126 168 215 262 318 378
#     4  12  26  44  66  93 129 170 214 262 316 377
#     4  11  23  40  64  95 130 166 209 261 318 379
#     4  10  23  41  63  93 128 165 210 262 317 378
#     4  10  21  38  62  91 123 162 205 253 310 375
#
# _framework density 19.950498
#
# number of rings (size 3 to 8) (size 9 to 14) (size 15 to 20)
#    0.000    1.333    1.667    3.500    2.333    4.667 
#    0.000    0.000    0.000    0.000    0.000    0.000 
#    0.000    0.000    0.000    0.000    0.000    0.000 
#
# Total GULP energy -134195.120496 kJ/mol
# GULP energy per Si atom -5591.463354 kJ/mol
# Density = 1.990509 g / cm^3
# Si number density = 19.950498 Si / 1000 Ang^3
#
#
#
# Elastic Constant Matrix: (Units=GPa)
#
#
# Indices 1 2 3 4 5 6 
#
# 1 62.1491 25.3381 8.4813 0.0000 0.8344 0.0000
# 2 25.3381 79.0002 33.4260 0.0000 4.6363 -0.0001
# 3 8.4813 33.4260 66.5912 -0.0001 -1.0590 -0.0001
# 4 0.0000 0.0000 -0.0001 32.9029 0.0000 -6.2994
# 5 0.8344 4.6363 -1.0590 0.0000 33.2221 0.0000
# 6 0.0000 -0.0001 -0.0001 -6.2994 0.0000 34.1129
#
#
#
# Elastic Compliance Matrix: (Units=1/GPa)
#
#
# Indices 1 2 3 4 5 6 
#
# 1 0.018550 -0.006322 0.000818 0.000000 0.000442 0.000000
# 2 -0.006322 0.018436 -0.008492 0.000000 -0.002685 0.000000
# 3 0.000818 -0.008492 0.019204 0.000000 0.001777 0.000000
# 4 0.000000 0.000000 0.000000 0.031506 0.000000 0.005818
# 5 0.000442 -0.002685 0.001777 0.000000 0.030521 0.000000
# 6 0.000000 0.000000 0.000000 0.005818 0.000000 0.030389
#
#
# Mechanical properties :
#
#
# Convention : Reuss Voigt Hill
#
# Bulk Modulus (GPa) = 35.46289 38.02572 36.74430
# Shear Modulus (GPa) = 26.88215 29.41391 28.14803
#
# Velocity S-wave (km/s) = 3.67473 3.84389 3.76026
# Velocity P-wave (km/s) = 5.98489 6.22913 6.10823
#
# Compressibility (1/GPa) = 0.02819849
#
# Stress axis : x y z
#
# Youngs Moduli (GPa) = 53.90805 54.24080 52.07338
#
# Poissons Ratio (x) = 0.34289 -0.04257
# Poissons Ratio (y) = 0.34078 0.44220
# Poissons Ratio (z) = -0.04407 0.46060
#
# Static dielectric constant tensor:
#      x y z
#    x 1.699700 0.000000 0.007360 
#    y 0.000000 1.672780 0.000000 
#    z 0.007360 0.000000 1.686330 
# 
# From -- ./inp_files/244885.got.cif
#   From: 2010.05.17/outbox.cif.g08.bks.cpg/sg12_123_cif.got.tgz:244885.got - 2010.06.03 13:09:07.
