data_PCOD9209032
_publ_section_title
;
Structure prediction by ZEFSAII (Michael W. Deem and Ramdas Pophale) SiO2 
 PCOD9209032
Probable space group: C 2/M
;
_chemical_formula_sum "Si O2"
_cell_formula_units_Z 40
_cell_length_a 11.344410
_cell_length_b 22.668516
_cell_length_c 12.271332
_cell_angle_alpha 90.000000
_cell_angle_beta 36.649399
_cell_angle_gamma 90.000000
_cell_volume 1883.694755
_symmetry_space_group_name_H-M "C 2/M"
_symmetry_group_IT_number 12
_symmetry_cell_setting 'monoclinic'
loop_
_space_group_symop_operation_xyz
x,y,z
-x,y,-z
-x,-y,-z
x,-y,z
1/2+x,1/2+y,z
1/2-x,1/2+y,-z
1/2-x,1/2-y,-z
1/2+x,1/2-y,z
loop_
_atom_site_type_symbol
_atom_site_label
_atom_site_fract_x
_atom_site_fract_y
_atom_site_fract_z
Si Si1 0.928768 0.261250 0.676982
Si Si2 0.708632 0.627750 0.886172
Si Si3 0.938160 0.868388 0.767228
Si Si4 0.368707 0.127631 0.407579
Si Si5 0.311437 0.931214 0.218228
O O1 0.736816 0.304001 0.826393
O O2 0.909837 0.197931 0.744446
O O3 0.000000 0.255813 0.500000
O O4 0.084311 0.302515 0.626186
O O5 0.925465 0.601324 0.698103
O O6 0.500000 0.603614 0.000000
O O7 0.691598 0.624725 0.029163
O O8 0.871143 0.911037 0.720075
O O9 0.167929 0.880529 0.622739
O O10 0.331375 0.105400 0.313766
O O11 0.299954 0.000000 0.254165
O O12 0.500000 0.921541 0.000000
#
# Coordination Sequence:
#
# PCOD9209032 Si02
#       5
#     8   8   8   8   8
#     4  10  21  38  60  91 130 167 208 259 314 376
#     4  10  23  38  58  89 125 168 206 256 314 371
#     4  12  22  39  64  92 128 167 214 258 321 375
#     4  10  23  38  62  90 124 167 208 261 312 377
#     4  11  23  43  67  95 129 164 212 267 319 375
#
# _framework density 21.234863000000001
#
# number of rings (size 3 to 8) (size 9 to 14) (size 15 to 20)
#    1.200    0.200    2.000    4.200    0.000    4.000 
#    0.000    0.000    0.000    3.000    0.000    0.000 
#    0.000    0.000    0.000    0.000    0.000    0.000 
#
# Total GULP energy -111543.925596 kJ/mol
# GULP energy per Si atom -5577.196280 kJ/mol
# Density = 2.118653 g / cm^3
# Si number density = 21.234863 Si / 1000 Ang^3
#
#
#
# Elastic Constant Matrix: (Units=GPa)
#
#
# Indices 1 2 3 4 5 6 
#
# 1 71.9534 4.7531 17.6973 0.0002 -14.6147 0.0001
# 2 4.7531 19.3258 7.7051 0.0001 12.9088 0.0000
# 3 17.6973 7.7051 64.0698 0.0000 -19.3810 0.0001
# 4 0.0002 0.0001 0.0000 -17.5424 -0.0002 -19.1012
# 5 -14.6147 12.9088 -19.3810 -0.0002 50.5510 -0.0001
# 6 0.0001 0.0000 0.0001 -19.1012 -0.0001 8.1635
#
#
#
# Elastic Compliance Matrix: (Units=1/GPa)
#
#
# Indices 1 2 3 4 5 6 
#
# 1 0.015971 -0.006996 -0.001847 0.000000 0.005696 0.000000
# 2 -0.006996 0.078809 -0.016114 0.000000 -0.028325 0.000000
# 3 -0.001847 -0.016114 0.021650 0.000000 0.011881 0.000000
# 4 0.000000 0.000000 0.000000 -0.016068 0.000000 -0.037596
# 5 0.005696 -0.028325 0.011881 0.000000 0.033217 0.000000
# 6 0.000000 0.000000 0.000000 -0.037596 0.000000 0.034528
#
#
# Mechanical properties :
#
#
# Convention : Reuss Voigt Hill
#
# Bulk Modulus (GPa) = 15.03374 23.96220 19.49797
# Shear Modulus (GPa) = 20.81649 16.58065 18.69857
#
# Velocity S-wave (km/s) = 3.13437 2.79735 2.97064
# Velocity P-wave (km/s) = 4.49379 4.66288 4.57911
#
# Compressibility (1/GPa) = 0.06651706
#
# Stress axis : x y z
#
# Youngs Moduli (GPa) = 62.61249 12.68883 46.18914
#
# Poissons Ratio (x) = 0.08877 0.08532
# Poissons Ratio (y) = 0.43804 0.74427
# Poissons Ratio (z) = 0.11566 0.20446
#
# Static dielectric constant tensor:
#      x y z
#    x 1.798090 0.000000 -0.064560 
#    y 0.000000 1.723180 0.000000 
#    z -0.064560 0.000000 1.774780 
# 
# From -- ./inp_files/136469.got.cif
#   From: 2010.05.17/outbox.cif.g08.bks.cpg/sg12_69_cif.got.tgz:136469.got - 2010.06.03 13:09:07.
