data_PCOD9209320
_publ_section_title
;
Structure prediction by ZEFSAII (Michael W. Deem and Ramdas Pophale) SiO2 
 PCOD9209320
Probable space group: C 2/M
;
_chemical_formula_sum "Si O2"
_cell_formula_units_Z 48
_cell_length_a 13.786728
_cell_length_b 18.917452
_cell_length_c 17.722955
_cell_angle_alpha 90.000000
_cell_angle_beta 148.315775
_cell_angle_gamma 90.000000
_cell_volume 2427.815110
_symmetry_space_group_name_H-M "C 2/M"
_symmetry_group_IT_number 12
_symmetry_cell_setting 'monoclinic'
loop_
_space_group_symop_operation_xyz
x,y,z
-x,y,-z
-x,-y,-z
x,-y,z
1/2+x,1/2+y,z
1/2-x,1/2+y,-z
1/2-x,1/2-y,-z
1/2+x,1/2-y,z
loop_
_atom_site_type_symbol
_atom_site_label
_atom_site_fract_x
_atom_site_fract_y
_atom_site_fract_z
Si Si1 0.910959 0.916379 0.114047
Si Si2 0.846735 0.137505 0.587932
Si Si3 0.977451 0.715470 0.343943
Si Si4 0.050004 0.673740 0.848644
Si Si5 0.200342 0.919637 0.602754
Si Si6 0.422913 0.299673 0.866673
O O1 0.031084 0.898561 0.267537
O O2 0.021966 0.879008 0.119431
O O3 0.885372 0.000000 0.088275
O O4 0.716998 0.874467 0.988246
O O5 0.653301 0.170505 0.488951
O O6 0.803825 0.085844 0.490499
O O7 0.954696 0.204504 0.623677
O O8 0.930142 0.687291 0.227975
O O9 0.796860 0.710291 0.275461
O O10 0.860306 0.631652 0.735833
O O11 0.022594 0.747870 0.873049
O O12 0.000000 0.898281 0.500000
O O13 0.235320 0.000000 0.650124
O O14 0.500000 0.281739 0.000000
#
# Coordination Sequence:
#
# PCOD9209320 Si02
#       6
#     8   8   8   8   8   8
#     4  12  25  42  63  93 132 171 209 258 320 381
#     4  10  21  40  63  93 127 168 205 267 318 368
#     4  10  21  40  65  94 121 161 220 262 310 369
#     4  11  22  42  65  91 123 169 213 260 318 370
#     4  10  21  38  61  94 129 165 210 259 320 385
#     4  12  23  40  67  94 125 164 218 268 310 372
#
# _framework density 19.770862999999999
#
# number of rings (size 3 to 8) (size 9 to 14) (size 15 to 20)
#    0.000    1.167    3.333    3.500    0.000    1.000 
#    0.000    2.500    0.000    5.000    0.000    0.000 
#    0.000    0.000    0.000    0.000    0.000    0.000 
#
# Total GULP energy -134164.518232 kJ/mol
# GULP energy per Si atom -5590.188260 kJ/mol
# Density = 1.972586 g / cm^3
# Si number density = 19.770863 Si / 1000 Ang^3
#
#
#
# Elastic Constant Matrix: (Units=GPa)
#
#
# Indices 1 2 3 4 5 6 
#
# 1 67.9353 38.6075 17.9511 0.0027 24.3740 0.0014
# 2 38.6075 119.2346 54.2623 -0.0076 21.5717 -0.0021
# 3 17.9511 54.2623 72.5772 -0.0054 8.1638 -0.0019
# 4 0.0027 -0.0076 -0.0054 21.3362 -0.0032 -0.4672
# 5 24.3740 21.5717 8.1638 -0.0032 37.4935 -0.0011
# 6 0.0014 -0.0021 -0.0019 -0.4672 -0.0011 10.7680
#
#
#
# Elastic Compliance Matrix: (Units=1/GPa)
#
#
# Indices 1 2 3 4 5 6 
#
# 1 0.021552 -0.004701 -0.000558 -0.000006 -0.011184 -0.000005
# 2 -0.004701 0.014890 -0.009585 0.000003 -0.003424 0.000002
# 3 -0.000558 -0.009585 0.020934 0.000002 0.001319 0.000002
# 4 -0.000006 0.000003 0.000002 0.046913 0.000006 0.002035
# 5 -0.011184 -0.003424 0.001319 0.000006 0.035625 0.000005
# 6 -0.000005 0.000002 0.000002 0.002035 0.000005 0.092956
#
#
# Mechanical properties :
#
#
# Convention : Reuss Voigt Hill
#
# Bulk Modulus (GPa) = 36.11575 53.48765 44.80170
# Shear Modulus (GPa) = 18.39673 23.84796 21.12235
#
# Velocity S-wave (km/s) = 3.05371 3.47683 3.27212
# Velocity P-wave (km/s) = 5.54440 6.57498 6.08156
#
# Compressibility (1/GPa) = 0.02768875
#
# Stress axis : x y z
#
# Youngs Moduli (GPa) = 46.40044 67.15709 47.76869
#
# Poissons Ratio (x) = 0.31571 0.02664
# Poissons Ratio (y) = 0.21813 0.45786
# Poissons Ratio (z) = 0.02588 0.64370
#
# Static dielectric constant tensor:
#      x y z
#    x 1.694330 0.000000 0.000340 
#    y 0.000000 1.673220 0.000000 
#    z 0.000340 0.000000 1.711030 
# 
# From -- ./inp_files/271778.got.cif
#   From: 2010.05.17/outbox.cif.g08.bks.cpg/sg12_136_cif.got.tgz:271778.got - 2010.06.03 13:09:07.
