data_PCOD9209404
_publ_section_title
;
Structure prediction by ZEFSAII (Michael W. Deem and Ramdas Pophale) SiO2 
 PCOD9209404
Probable space group: C 2/M
;
_chemical_formula_sum "Si O2"
_cell_formula_units_Z 56
_cell_length_a 24.207407
_cell_length_b 10.600009
_cell_length_c 12.443192
_cell_angle_alpha 90.000000
_cell_angle_beta 66.347415
_cell_angle_gamma 90.000000
_cell_volume 2924.686828
_symmetry_space_group_name_H-M "C 2/M"
_symmetry_group_IT_number 12
_symmetry_cell_setting 'monoclinic'
loop_
_space_group_symop_operation_xyz
x,y,z
-x,y,-z
-x,-y,-z
x,-y,z
1/2+x,1/2+y,z
1/2-x,1/2+y,-z
1/2-x,1/2-y,-z
1/2+x,1/2-y,z
loop_
_atom_site_type_symbol
_atom_site_label
_atom_site_fract_x
_atom_site_fract_y
_atom_site_fract_z
Si Si1 0.045115 0.859809 0.063395
Si Si2 0.582114 0.139878 0.543081
Si Si3 0.868793 0.721756 0.716569
Si Si4 0.242152 0.647312 0.792094
Si Si5 0.861277 0.643996 0.966580
Si Si6 0.489621 0.358631 0.668120
Si Si7 0.296751 0.851912 0.415480
O O1 0.009246 0.852357 0.203460
O O2 0.074226 0.000000 0.038551
O O3 0.092143 0.746760 0.026444
O O4 0.000000 0.850558 0.000000
O O5 0.608396 0.142139 0.402203
O O6 0.532871 0.249391 0.591417
O O7 0.638002 0.164377 0.580336
O O8 0.556839 0.000000 0.585928
O O9 0.803541 0.775882 0.739508
O O10 0.920434 0.828303 0.691476
O O11 0.862776 0.654578 0.836461
O O12 0.258373 0.500000 0.783412
O O13 0.202534 0.674868 0.928241
O O14 0.203885 0.666700 0.712806
O O15 0.876294 0.500000 0.986053
O O16 0.506967 0.500000 0.620887
O O17 0.250000 0.750000 0.500000
O O18 0.279073 0.000000 0.449069
#
# Coordination Sequence:
#
# PCOD9209404 Si02
#       7
#     8   8   8   8   8   8   8
#     4   9  20  40  61  84 118 158 199 244 292 348
#     4  11  24  39  60  88 122 157 194 243 297 351
#     4  11  21  39  62  84 122 159 198 238 294 348
#     4  10  21  38  62  89 121 155 196 247 295 348
#     4  10  22  38  60  91 120 152 196 243 296 353
#     4  10  23  39  60  89 117 154 203 244 288 349
#     4  10  21  40  61  87 117 154 198 243 296 350
#
# _framework density 19.147348999999998
#
# number of rings (size 3 to 8) (size 9 to 14) (size 15 to 20)
#    0.000    1.857    1.429    1.714    2.000    6.571 
#    0.000    2.143    0.000    0.000    0.000    0.000 
#    0.000    0.000    0.000    0.000    0.000    0.000 
#
# Total GULP energy -156263.907338 kJ/mol
# GULP energy per Si atom -5580.853834 kJ/mol
# Density = 1.910377 g / cm^3
# Si number density = 19.147349 Si / 1000 Ang^3
#
#
#
# Elastic Constant Matrix: (Units=GPa)
#
#
# Indices 1 2 3 4 5 6 
#
# 1 80.9908 59.1603 44.3559 0.0000 6.8567 0.0000
# 2 59.1603 127.1078 46.4943 0.0000 -16.1165 0.0000
# 3 44.3559 46.4943 74.1597 0.0000 1.5050 0.0000
# 4 0.0000 0.0000 0.0000 81.0925 0.0000 -46.5952
# 5 6.8567 -16.1165 1.5050 0.0000 31.7855 0.0000
# 6 0.0000 0.0000 0.0000 -46.5952 0.0000 8.1433
#
#
#
# Elastic Compliance Matrix: (Units=1/GPa)
#
#
# Indices 1 2 3 4 5 6 
#
# 1 0.025063 -0.009753 -0.008675 0.000000 -0.009941 0.000000
# 2 -0.009753 0.015057 -0.003808 0.000000 0.009919 0.000000
# 3 -0.008675 -0.003808 0.021082 0.000000 -0.001058 0.000000
# 4 0.000000 0.000000 0.000000 -0.005390 0.000000 -0.030842
# 5 -0.009941 0.009919 -0.001058 0.000000 0.038685 0.000000
# 6 0.000000 0.000000 0.000000 -0.030842 0.000000 -0.053677
#
#
# Mechanical properties :
#
#
# Convention : Reuss Voigt Hill
#
# Bulk Modulus (GPa) = 59.76754 64.69770 62.23262
# Shear Modulus (GPa) = 55.02507 33.02078 44.02292
#
# Velocity S-wave (km/s) = 5.36657 4.15729 4.80016
# Velocity P-wave (km/s) = 8.34760 7.54366 7.95579
#
# Compressibility (1/GPa) = 0.01673149
#
# Stress axis : x y z
#
# Youngs Moduli (GPa) = 39.89878 66.41343 47.43449
#
# Poissons Ratio (x) = 0.64772 0.41147
# Poissons Ratio (y) = 0.38912 0.18063
# Poissons Ratio (z) = 0.34610 0.25291
#
# Static dielectric constant tensor:
#      x y z
#    x 1.633650 0.000000 0.014480 
#    y 0.000000 1.666620 0.000000 
#    z 0.014480 0.000000 1.681180 
# 
# From -- ./inp_files/180702.got.cif
#   From: 2010.05.17/outbox.cif.g08.bks.cpg/sg12_91_cif.got.tgz:180702.got - 2010.06.03 13:09:07.
