data_PCOD9209675
_publ_section_title
;
Structure prediction by ZEFSAII (Michael W. Deem and Ramdas Pophale) SiO2 
 PCOD9209675
Probable space group: C 2/M
;
_chemical_formula_sum "Si O2"
_cell_formula_units_Z 46
_cell_length_a 12.597415
_cell_length_b 31.028439
_cell_length_c 8.371545
_cell_angle_alpha 90.000000
_cell_angle_beta 38.320322
_cell_angle_gamma 90.000000
_cell_volume 2028.984990
_symmetry_space_group_name_H-M "C 2/M"
_symmetry_group_IT_number 12
_symmetry_cell_setting 'monoclinic'
loop_
_space_group_symop_operation_xyz
x,y,z
-x,y,-z
-x,-y,-z
x,-y,z
1/2+x,1/2+y,z
1/2-x,1/2+y,-z
1/2-x,1/2-y,-z
1/2+x,1/2-y,z
loop_
_atom_site_type_symbol
_atom_site_label
_atom_site_fract_x
_atom_site_fract_y
_atom_site_fract_z
Si Si1 0.749320 0.047647 0.197529
Si Si2 0.965611 0.215738 0.858098
Si Si3 0.163711 0.151926 0.418575
Si Si4 0.127978 0.937679 0.607160
Si Si5 0.500000 0.500000 0.500000
Si Si6 0.500000 0.124502 0.500000
Si Si7 0.890617 0.313741 0.881808
O O1 0.757505 0.046398 0.380507
O O2 0.646988 0.090682 0.278356
O O3 0.690433 0.000000 0.209680
O O4 0.936747 0.054531 0.902247
O O5 0.963446 0.267001 0.837213
O O6 0.109927 0.194510 0.577568
O O7 0.782233 0.196504 0.017828
O O8 0.000000 0.204629 0.000000
O O9 0.176873 0.111358 0.517984
O O10 0.000000 0.141976 0.500000
O O11 0.322964 0.161758 0.117714
O O12 0.117377 0.962970 0.453625
O O13 0.483544 0.156728 0.370049
#
# Coordination Sequence:
#
# PCOD9209675 Si02
#       7
#     8   8   8   8   2   4   8
#     4  11  23  44  64  98 130 171 219 265 321 398
#     4  10  23  41  68  92 124 170 222 274 317 383
#     4  10  21  38  63  95 127 165 217 273 312 381
#     4  11  22  39  72  99 125 165 225 271 315 381
#     4  12  20  38  70  98 128 156 214 284 330 342
#     4  12  27  42  67  88 138 181 208 265 340 390
#     4  10  25  43  61  94 131 171 216 267 331 389
#
# _framework density 22.671434000000001
#
# number of rings (size 3 to 8) (size 9 to 14) (size 15 to 20)
#    0.000    1.391    2.609    2.870   10.957    2.087 
#    0.000    0.000    0.000    2.087    0.000    0.000 
#    0.000    0.000    0.000    0.000    0.000    0.000 
#
# Total GULP energy -128311.446158 kJ/mol
# GULP energy per Si atom -5578.758529 kJ/mol
# Density = 2.261983 g / cm^3
# Si number density = 22.671434 Si / 1000 Ang^3
#
#
#
# Elastic Constant Matrix: (Units=GPa)
#
#
# Indices 1 2 3 4 5 6 
#
# 1 48.3675 1.3702 -4.7713 0.0000 8.3240 0.0000
# 2 1.3702 136.2768 41.7163 0.0000 2.3081 0.0000
# 3 -4.7713 41.7163 73.6985 0.0000 13.1166 0.0000
# 4 0.0000 0.0000 0.0000 38.8719 0.0000 4.6167
# 5 8.3240 2.3081 13.1166 0.0000 22.9116 0.0000
# 6 0.0000 0.0000 0.0000 4.6167 0.0000 29.1972
#
#
#
# Elastic Compliance Matrix: (Units=1/GPa)
#
#
# Indices 1 2 3 4 5 6 
#
# 1 0.022932 -0.001308 0.004102 0.000000 -0.010548 0.000000
# 2 -0.001308 0.009052 -0.005713 0.000000 0.002834 0.000000
# 3 0.004102 -0.005713 0.019186 0.000000 -0.011898 0.000000
# 4 0.000000 0.000000 0.000000 0.026218 0.000000 -0.004146
# 5 -0.010548 0.002834 -0.011898 0.000000 0.054004 0.000000
# 6 0.000000 0.000000 0.000000 -0.004146 0.000000 0.034905
#
#
# Mechanical properties :
#
#
# Convention : Reuss Voigt Hill
#
# Bulk Modulus (GPa) = 22.05886 37.21921 29.63904
# Shear Modulus (GPa) = 26.70300 32.86466 29.78383
#
# Velocity S-wave (km/s) = 3.43567 3.81150 3.62845
# Velocity P-wave (km/s) = 5.04870 5.98519 5.53678
#
# Compressibility (1/GPa) = 0.04533325
#
# Stress axis : x y z
#
# Youngs Moduli (GPa) = 43.60698 110.47400 52.12230
#
# Poissons Ratio (x) = 0.14446 -0.21381
# Poissons Ratio (y) = 0.05702 0.29776
# Poissons Ratio (z) = -0.17888 0.63111
#
# Static dielectric constant tensor:
#      x y z
#    x 1.917210 0.000000 0.021730 
#    y 0.000000 1.485210 0.000000 
#    z 0.021730 0.000000 1.859670 
# 
# From -- ./inp_files/67363.got.cif
#   From: 2010.05.17/outbox.cif.g08.bks.cpg/sg12_34_cif.got.tgz:67363.got - 2010.06.03 13:09:07.
