data_PCOD9209990
_publ_section_title
;
Structure prediction by ZEFSAII (Michael W. Deem and Ramdas Pophale) SiO2 
 PCOD9209990
Probable space group: C 2/M
;
_chemical_formula_sum "Si O2"
_cell_formula_units_Z 56
_cell_length_a 25.983590
_cell_length_b 20.737228
_cell_length_c 5.215585
_cell_angle_alpha 90.000000
_cell_angle_beta 75.641766
_cell_angle_gamma 90.000000
_cell_volume 2722.519260
_symmetry_space_group_name_H-M "C 2/M"
_symmetry_group_IT_number 12
_symmetry_cell_setting 'monoclinic'
loop_
_space_group_symop_operation_xyz
x,y,z
-x,y,-z
-x,-y,-z
x,-y,z
1/2+x,1/2+y,z
1/2-x,1/2+y,-z
1/2-x,1/2-y,-z
1/2+x,1/2-y,z
loop_
_atom_site_type_symbol
_atom_site_label
_atom_site_fract_x
_atom_site_fract_y
_atom_site_fract_z
Si Si1 0.940345 0.202714 0.038949
Si Si2 0.799557 0.743145 0.665300
Si Si3 0.557089 0.570625 0.284670
Si Si4 0.138152 0.865268 0.522266
Si Si5 0.202671 0.574599 0.883411
Si Si6 0.644740 0.195535 0.910312
Si Si7 0.234815 0.877774 0.695212
O O1 0.941770 0.135312 0.884100
O O2 0.906345 0.261306 0.966153
O O3 0.910254 0.180733 0.333638
O O4 0.000000 0.224388 0.000000
O O5 0.817975 0.818214 0.663767
O O6 0.812300 0.718482 0.934663
O O7 0.746769 0.699870 0.667751
O O8 0.838153 0.712605 0.400365
O O9 0.500000 0.571705 0.500000
O O10 0.559864 0.500000 0.150744
O O11 0.608829 0.579396 0.402332
O O12 0.172187 0.888158 0.726725
O O13 0.190031 0.500000 0.912898
O O14 0.234956 0.590406 0.583454
O O15 0.149888 0.619054 0.938469
O O16 0.239673 0.593408 0.080388
#
# Coordination Sequence:
#
# PCOD9209990 Si02
#       7
#     8   8   8   8   8   8   8
#     4  11  22  39  60  82 112 146 195 249 290 338
#     4   9  18  35  57  83 117 143 188 236 287 338
#     4  11  24  40  56  77 109 151 197 242 293 340
#     4  11  22  37  56  81 112 150 193 243 288 335
#     4  10  21  39  58  84 124 156 187 229 285 348
#     4   9  19  35  60  88 109 150 192 233 285 343
#     4  10  22  35  57  88 116 155 191 232 281 343
#
# _framework density 20.569182999999999
#
# number of rings (size 3 to 8) (size 9 to 14) (size 15 to 20)
#    0.000    1.857    2.857    0.857    2.000    2.000 
#    0.000    5.714    0.000    0.429    0.000    0.000 
#    0.000   10.286    0.000    0.000    0.000    1.571 
#
# Total GULP energy -156057.367204 kJ/mol
# GULP energy per Si atom -5573.477400 kJ/mol
# Density = 2.052237 g / cm^3
# Si number density = 20.569183 Si / 1000 Ang^3
#
#
#
# Elastic Constant Matrix: (Units=GPa)
#
#
# Indices 1 2 3 4 5 6 
#
# 1 66.1256 27.9062 -8.8850 0.0000 -6.9022 0.0000
# 2 27.9062 154.1615 17.3583 0.0000 -6.4747 0.0000
# 3 -8.8850 17.3583 64.6798 0.0000 7.3720 0.0000
# 4 0.0000 0.0000 0.0000 21.5820 0.0000 3.9874
# 5 -6.9022 -6.4747 7.3720 0.0000 22.7898 0.0000
# 6 0.0000 0.0000 0.0000 3.9874 0.0000 16.6913
#
#
#
# Elastic Compliance Matrix: (Units=1/GPa)
#
#
# Indices 1 2 3 4 5 6 
#
# 1 0.017255 -0.003306 0.002875 0.000000 0.003357 0.000000
# 2 -0.003306 0.007471 -0.002686 0.000000 0.001990 0.000000
# 3 0.002875 -0.002686 0.017198 0.000000 -0.005456 0.000000
# 4 0.000000 0.000000 0.000000 0.048474 0.000000 -0.011580
# 5 0.003357 0.001990 -0.005456 0.000000 0.047226 0.000000
# 6 0.000000 0.000000 0.000000 -0.011580 0.000000 0.062678
#
#
# Mechanical properties :
#
#
# Convention : Reuss Voigt Hill
#
# Bulk Modulus (GPa) = 28.01926 39.74734 33.88330
# Shear Modulus (GPa) = 22.89024 28.78511 25.83767
#
# Velocity S-wave (km/s) = 3.33955 3.74495 3.54804
# Velocity P-wave (km/s) = 5.34056 6.16970 5.77005
#
# Compressibility (1/GPa) = 0.03568973
#
# Stress axis : x y z
#
# Youngs Moduli (GPa) = 57.95539 133.84695 58.14494
#
# Poissons Ratio (x) = 0.44252 -0.16717
# Poissons Ratio (y) = 0.19161 0.15618
# Poissons Ratio (z) = -0.16662 0.35952
#
# Static dielectric constant tensor:
#      x y z
#    x 1.774480 0.000000 0.048240 
#    y 0.000000 1.757350 0.000000 
#    z 0.048240 0.000000 1.828170 
# 
# From -- ./inp_files/25376.got.cif
#   From: 2010.05.17/outbox.cif.g08.bks.cpg/sg12_13_cif.got.tgz:25376.got - 2010.06.03 13:09:07.
