data_PCOD9209198
_publ_section_title
;
Structure prediction by ZEFSAII (Michael W. Deem and Ramdas Pophale) SiO2 
 PCOD9209198
Probable space group: C 2/M
;
_chemical_formula_sum "Si O2"
_cell_formula_units_Z 32
_cell_length_a 8.884464
_cell_length_b 35.069993
_cell_length_c 5.015677
_cell_angle_alpha 90.000000
_cell_angle_beta 59.628953
_cell_angle_gamma 90.000000
_cell_volume 1348.314300
_symmetry_space_group_name_H-M "C 2/M"
_symmetry_group_IT_number 12
_symmetry_cell_setting 'monoclinic'
loop_
_space_group_symop_operation_xyz
x,y,z
-x,y,-z
-x,-y,-z
x,-y,z
1/2+x,1/2+y,z
1/2-x,1/2+y,-z
1/2-x,1/2-y,-z
1/2+x,1/2-y,z
loop_
_atom_site_type_symbol
_atom_site_label
_atom_site_fract_x
_atom_site_fract_y
_atom_site_fract_z
Si Si1 0.709723 0.172359 0.348662
Si Si2 0.208786 0.286667 0.856511
Si Si3 0.197247 0.543329 0.927228
Si Si4 0.815668 0.912605 0.315793
O O1 0.500000 0.175635 0.500000
O O2 0.776803 0.204245 0.498981
O O3 0.754133 0.130668 0.410710
O O4 0.775333 0.179634 0.991233
O O5 0.250000 0.250000 0.000000
O O6 0.000000 0.287325 0.000000
O O7 0.261372 0.500000 0.907310
O O8 0.305120 0.565229 0.602897
O O9 0.198565 0.565564 0.203644
O O10 0.000000 0.542125 0.000000
O O11 0.000000 0.912232 0.000000
#
# Coordination Sequence:
#
# PCOD9209198 Si02
#       4
#     8   8   8   8
#     4  10  21  39  62  87 121 165 209 253 308 379
#     4  10  21  38  61  89 119 157 205 258 312 368
#     4  11  24  43  67  93 126 172 218 259 315 389
#     4  12  25  41  64  97 131 166 212 270 326 371
#
# _framework density 23.733338
#
# number of rings (size 3 to 8) (size 9 to 14) (size 15 to 20)
#    0.000    1.250    0.000    6.000    0.000    8.000 
#    0.000    2.500    0.000    0.000    0.000    0.000 
#    0.000    0.000    0.000    0.000    0.000    0.000 
#
# Total GULP energy -89461.829100 kJ/mol
# GULP energy per Si atom -5591.364319 kJ/mol
# Density = 2.367932 g / cm^3
# Si number density = 23.733338 Si / 1000 Ang^3
#
#
#
# Elastic Constant Matrix: (Units=GPa)
#
#
# Indices 1 2 3 4 5 6 
#
# 1 60.6557 30.1715 34.7037 0.0000 18.5883 0.0000
# 2 30.1715 143.0670 33.3103 0.0000 28.3235 0.0000
# 3 34.7037 33.3103 127.0705 0.0000 29.2660 0.0000
# 4 0.0000 0.0000 0.0000 40.7071 0.0000 12.2740
# 5 18.5883 28.3235 29.2660 0.0000 28.2383 0.0000
# 6 0.0000 0.0000 0.0000 12.2740 0.0000 9.4742
#
#
#
# Elastic Compliance Matrix: (Units=1/GPa)
#
#
# Indices 1 2 3 4 5 6 
#
# 1 0.022262 -0.002119 -0.003466 0.000000 -0.008937 0.000000
# 2 -0.002119 0.008936 -0.000027 0.000000 -0.007540 0.000000
# 3 -0.003466 -0.000027 0.010891 0.000000 -0.008979 0.000000
# 4 0.000000 0.000000 0.000000 0.040313 0.000000 -0.052226
# 5 -0.008937 -0.007540 -0.008979 0.000000 0.058164 0.000000
# 6 0.000000 0.000000 0.000000 -0.052226 0.000000 0.173210
#
#
# Mechanical properties :
#
#
# Convention : Reuss Voigt Hill
#
# Bulk Modulus (GPa) = 32.39914 58.57379 45.48646
# Shear Modulus (GPa) = 14.91254 31.19110 23.05182
#
# Velocity S-wave (km/s) = 2.50939 3.62917 3.11992
# Velocity P-wave (km/s) = 4.69861 6.50344 5.67325
#
# Compressibility (1/GPa) = 0.03086502
#
# Stress axis : x y z
#
# Youngs Moduli (GPa) = 44.91880 111.91300 91.81598
#
# Poissons Ratio (x) = 0.23709 0.31826
# Poissons Ratio (y) = 0.09516 0.00251
# Poissons Ratio (z) = 0.15570 0.00306
#
# Static dielectric constant tensor:
#      x y z
#    x 1.960280 0.000000 0.009970 
#    y 0.000000 1.908050 0.000000 
#    z 0.009970 0.000000 1.914510 
# 
# From -- ./inp_files/3753.got.cif
#   From: 2010.05.17/outbox.cif.g08.bks.cpg/sg12_2_cif.got.tgz:3753.got - 2010.06.03 13:09:07.
