data_PCOD9209848
_publ_section_title
;
Structure prediction by ZEFSAII (Michael W. Deem and Ramdas Pophale) SiO2 
 PCOD9209848
Probable space group: C 2/M
;
_chemical_formula_sum "Si O2"
_cell_formula_units_Z 24
_cell_length_a 8.901793
_cell_length_b 17.990054
_cell_length_c 8.842432
_cell_angle_alpha 90.000000
_cell_angle_beta 45.855347
_cell_angle_gamma 90.000000
_cell_volume 1016.141684
_symmetry_space_group_name_H-M "C 2/M"
_symmetry_group_IT_number 12
_symmetry_cell_setting 'monoclinic'
loop_
_space_group_symop_operation_xyz
x,y,z
-x,y,-z
-x,-y,-z
x,-y,z
1/2+x,1/2+y,z
1/2-x,1/2+y,-z
1/2-x,1/2-y,-z
1/2+x,1/2-y,z
loop_
_atom_site_type_symbol
_atom_site_label
_atom_site_fract_x
_atom_site_fract_y
_atom_site_fract_z
Si Si1 0.181050 0.357011 0.249643
Si Si2 0.965588 0.788189 0.293825
Si Si3 0.234599 0.583070 0.895229
O O1 0.377400 0.331061 0.210533
O O2 0.000000 0.377093 0.500000
O O3 0.110233 0.284193 0.204379
O O4 0.220619 0.414685 0.088353
O O5 0.750000 0.750000 0.500000
O O6 0.105579 0.853150 0.271453
O O7 0.295890 0.500000 0.803282
O O8 0.000000 0.598299 0.000000
#
# Coordination Sequence:
#
# PCOD9209848 Si02
#       3
#     8   8   8
#     4  10  21  38  65  96 131 174 223 277 329 396
#     4  10  21  39  65  96 130 173 224 274 325 392
#     4  11  24  42  65  97 138 178 219 274 339 403
#
# _framework density 23.618752000000001
#
# number of rings (size 3 to 8) (size 9 to 14) (size 15 to 20)
#    0.000    1.667    0.000    4.000    0.000    6.000 
#    0.000    5.000    0.000   25.000    0.000    0.000 
#    0.000    0.000    0.000    0.000    0.000    0.000 
#
# Total GULP energy -66865.408842 kJ/mol
# GULP energy per Si atom -5572.117404 kJ/mol
# Density = 2.356499 g / cm^3
# Si number density = 23.618752 Si / 1000 Ang^3
#
#
#
# Elastic Constant Matrix: (Units=GPa)
#
#
# Indices 1 2 3 4 5 6 
#
# 1 121.6246 38.1339 3.6531 0.0000 -12.5653 0.0000
# 2 38.1339 154.6066 34.3827 0.0000 -34.7306 0.0000
# 3 3.6531 34.3827 118.4253 0.0000 3.0615 0.0000
# 4 0.0000 0.0000 0.0000 14.8310 0.0000 -11.8040
# 5 -12.5653 -34.7306 3.0615 0.0000 35.6383 0.0000
# 6 0.0000 0.0000 0.0000 -11.8040 0.0000 10.5736
#
#
#
# Elastic Compliance Matrix: (Units=1/GPa)
#
#
# Indices 1 2 3 4 5 6 
#
# 1 0.008965 -0.002007 0.000276 0.000000 0.001181 0.000000
# 2 -0.002007 0.009628 -0.002964 0.000000 0.008930 0.000000
# 3 0.000276 -0.002964 0.009389 0.000000 -0.003598 0.000000
# 4 0.000000 0.000000 0.000000 0.604783 0.000000 0.675158
# 5 0.001181 0.008930 -0.003598 0.000000 0.037488 0.000000
# 6 0.000000 0.000000 0.000000 0.675158 0.000000 0.848296
#
#
# Mechanical properties :
#
#
# Convention : Reuss Voigt Hill
#
# Bulk Modulus (GPa) = 53.78960 60.77732 57.28346
# Shear Modulus (GPa) = 3.25916 33.44106 18.35011
#
# Velocity S-wave (km/s) = 1.17597 3.76689 2.79037
# Velocity P-wave (km/s) = 4.96663 6.68639 5.88962
#
# Compressibility (1/GPa) = 0.01859095
#
# Stress axis : x y z
#
# Youngs Moduli (GPa) = 111.54350 103.85932 106.50406
#
# Poissons Ratio (x) = 0.20847 -0.02936
# Poissons Ratio (y) = 0.22390 0.31572
# Poissons Ratio (z) = -0.03075 0.30788
#
# Static dielectric constant tensor:
#      x y z
#    x 1.919990 0.000000 0.002720 
#    y 0.000000 1.884970 0.000000 
#    z 0.002720 0.000000 2.086310 
# 
# From -- ./inp_files/37435.got.cif
#   From: 2010.05.17/outbox.cif.g08.bks.cpg/sg12_19_cif.got.tgz:37435.got - 2010.06.03 13:09:07.
