data_PCOD9209617
_publ_section_title
;
Structure prediction by ZEFSAII (Michael W. Deem and Ramdas Pophale) SiO2 
 PCOD9209617
Probable space group: C 2/M
;
_chemical_formula_sum "Si O2"
_cell_formula_units_Z 56
_cell_length_a 8.956551
_cell_length_b 28.871055
_cell_length_c 20.406170
_cell_angle_alpha 90.000000
_cell_angle_beta 33.341882
_cell_angle_gamma 90.000000
_cell_volume 2900.268824
_symmetry_space_group_name_H-M "C 2/M"
_symmetry_group_IT_number 12
_symmetry_cell_setting 'monoclinic'
loop_
_space_group_symop_operation_xyz
x,y,z
-x,y,-z
-x,-y,-z
x,-y,z
1/2+x,1/2+y,z
1/2-x,1/2+y,-z
1/2-x,1/2-y,-z
1/2+x,1/2-y,z
loop_
_atom_site_type_symbol
_atom_site_label
_atom_site_fract_x
_atom_site_fract_y
_atom_site_fract_z
Si Si1 0.271996 0.635552 0.858072
Si Si2 0.691917 0.220177 0.636558
Si Si3 0.885002 0.194518 0.695464
Si Si4 0.227477 0.553066 0.142264
Si Si5 0.373852 0.606418 0.472213
Si Si6 0.331383 0.867593 0.726422
Si Si7 0.184013 0.947893 0.256064
O O1 0.246495 0.673912 0.810488
O O2 0.541899 0.644210 0.801608
O O3 0.324063 0.587731 0.800417
O O4 0.000000 0.633144 0.000000
O O5 0.693562 0.220826 0.714482
O O6 0.607756 0.268592 0.636021
O O7 0.489232 0.178867 0.691061
O O8 0.000000 0.210921 0.500000
O O9 0.007966 0.151272 0.609575
O O10 0.222023 0.500000 0.171671
O O11 0.206008 0.594008 0.203066
O O12 0.973349 0.557234 0.186463
O O13 0.500000 0.557948 0.000000
O O14 0.500000 0.603320 0.500000
O O15 0.469613 0.564605 0.391486
O O16 0.050753 0.610594 0.596022
O O17 0.151125 0.000000 0.244918
#
# Coordination Sequence:
#
# PCOD9209617 Si02
#       7
#     8   8   8   8   8   8   8
#     4  11  26  44  62  87 127 171 216 260 305 367
#     4  12  23  39  66 101 128 157 202 256 316 385
#     4  11  23  40  63  93 130 160 204 253 313 372
#     4  10  21  38  63  92 122 167 220 258 302 370
#     4  11  20  39  62  97 131 156 203 257 319 379
#     4  12  22  39  63  93 125 168 206 262 315 366
#     4  10  22  40  64  91 129 168 205 263 320 368
#
# _framework density 19.308554999999998
#
# number of rings (size 3 to 8) (size 9 to 14) (size 15 to 20)
#    0.000    1.000    4.286    3.000    2.000    3.429 
#    0.000    4.286    0.000    0.000    0.000    0.000 
#    0.000    0.000    0.000    0.000    0.000    0.000 
#
# Total GULP energy -156372.200240 kJ/mol
# GULP energy per Si atom -5584.721437 kJ/mol
# Density = 1.926461 g / cm^3
# Si number density = 19.308555 Si / 1000 Ang^3
#
#
#
# Elastic Constant Matrix: (Units=GPa)
#
#
# Indices 1 2 3 4 5 6 
#
# 1 94.5256 39.9059 37.0478 0.0004 -1.0263 0.0007
# 2 39.9059 70.4670 16.2350 -0.0001 12.2996 0.0004
# 3 37.0478 16.2350 104.1134 -0.0004 -2.2586 0.0048
# 4 0.0004 -0.0001 -0.0004 12.7561 0.0002 -12.3285
# 5 -1.0263 12.2996 -2.2586 0.0002 26.4901 -0.0012
# 6 0.0007 0.0004 0.0048 -12.3285 -0.0012 -3.2987
#
#
#
# Elastic Compliance Matrix: (Units=1/GPa)
#
#
# Indices 1 2 3 4 5 6 
#
# 1 0.016026 -0.008866 -0.004225 -0.000001 0.004377 -0.000001
# 2 -0.008866 0.021065 -0.000350 0.000001 -0.010154 0.000000
# 3 -0.004225 -0.000350 0.011184 0.000003 0.000952 0.000003
# 4 -0.000001 0.000001 0.000003 0.016998 -0.000003 -0.063526
# 5 0.004377 -0.010154 0.000952 -0.000003 0.042715 -0.000003
# 6 -0.000001 0.000000 0.000003 -0.063526 -0.000003 -0.065730
#
#
# Mechanical properties :
#
#
# Convention : Reuss Voigt Hill
#
# Bulk Modulus (GPa) = 46.74720 50.60927 48.67823
# Shear Modulus (GPa) = 65.55637 18.91732 42.23685
#
# Velocity S-wave (km/s) = 5.83315 3.13347 4.68211
# Velocity P-wave (km/s) = 8.34450 6.27369 7.38207
#
# Compressibility (1/GPa) = 0.02139166
#
# Stress axis : x y z
#
# Youngs Moduli (GPa) = 62.40031 47.47236 89.41642
#
# Poissons Ratio (x) = 0.42089 0.37779
# Poissons Ratio (y) = 0.55324 0.03131
# Poissons Ratio (z) = 0.26365 0.01662
#
# Static dielectric constant tensor:
#      x y z
#    x 1.694790 0.000000 0.007260 
#    y 0.000000 1.688710 0.000000 
#    z 0.007260 0.000000 1.649040 
# 
# From -- ./inp_files/302973.got.cif
#   From: 2010.05.17/outbox.cif.g08.bks.cpg/sg12_152_cif.got.tgz:302973.got - 2010.06.03 13:09:07.
