data_PCOD9209784
_publ_section_title
;
Structure prediction by ZEFSAII (Michael W. Deem and Ramdas Pophale) SiO2 
 PCOD9209784
Probable space group: C 2/M
;
_chemical_formula_sum "Si O2"
_cell_formula_units_Z 56
_cell_length_a 9.210204
_cell_length_b 23.175041
_cell_length_c 12.797381
_cell_angle_alpha 90.000000
_cell_angle_beta 71.038573
_cell_angle_gamma 90.000000
_cell_volume 2583.339532
_symmetry_space_group_name_H-M "C 2/M"
_symmetry_group_IT_number 12
_symmetry_cell_setting 'monoclinic'
loop_
_space_group_symop_operation_xyz
x,y,z
-x,y,-z
-x,-y,-z
x,-y,z
1/2+x,1/2+y,z
1/2-x,1/2+y,-z
1/2-x,1/2-y,-z
1/2+x,1/2-y,z
loop_
_atom_site_type_symbol
_atom_site_label
_atom_site_fract_x
_atom_site_fract_y
_atom_site_fract_z
Si Si1 0.651767 0.332381 0.395019
Si Si2 0.287609 0.380092 0.834626
Si Si3 0.514267 0.933058 0.164072
Si Si4 0.812933 0.287199 0.738520
Si Si5 0.468440 0.723230 0.886032
Si Si6 0.341469 0.435268 0.014538
Si Si7 0.031793 0.385662 0.606817
O O1 0.500000 0.332456 0.500000
O O2 0.636778 0.372786 0.295831
O O3 0.678691 0.269538 0.337343
O O4 0.802705 0.354140 0.420946
O O5 0.107857 0.389761 0.858231
O O6 0.340151 0.325994 0.892951
O O7 0.333359 0.434809 0.891923
O O8 0.684672 0.911675 0.097300
O O9 0.482519 0.930067 0.294610
O O10 0.499594 0.000000 0.131106
O O11 0.633914 0.297268 0.803706
O O12 0.900893 0.338198 0.660597
O O13 0.905413 0.273459 0.824399
O O14 0.500000 0.737494 0.000000
O O15 0.350239 0.500000 0.056119
O O16 0.500000 0.403678 0.000000
O O17 0.000000 0.409911 0.500000
#
# Coordination Sequence:
#
# PCOD9209784 Si02
#       7
#     8   8   8   8   8   8   8
#     4  10  23  42  61  90 128 170 216 264 314 376
#     4  10  22  38  63  93 122 172 211 256 317 383
#     4  10  23  45  67  93 130 169 215 269 331 393
#     4  11  23  42  62  92 134 175 218 255 318 384
#     4  11  24  41  62  96 137 176 208 261 316 383
#     4  10  21  38  64  96 126 160 209 266 323 387
#     4  11  25  39  65  97 122 169 220 273 320 381
#
# _framework density 21.677367
#
# number of rings (size 3 to 8) (size 9 to 14) (size 15 to 20)
#    0.000    1.571    1.429    2.143    8.000    2.571 
#    0.000    0.000    0.000   10.714    0.000    0.000 
#    0.000    0.000    0.000    0.000    0.000    0.000 
#
# Total GULP energy -156367.881592 kJ/mol
# GULP energy per Si atom -5584.567200 kJ/mol
# Density = 2.162803 g / cm^3
# Si number density = 21.677367 Si / 1000 Ang^3
#
#
#
# Elastic Constant Matrix: (Units=GPa)
#
#
# Indices 1 2 3 4 5 6 
#
# 1 149.1509 24.1104 62.5467 0.0000 -14.6035 0.0000
# 2 24.1104 43.3180 15.7977 0.0000 -10.0511 0.0000
# 3 62.5467 15.7977 101.9161 0.0000 -4.5778 0.0000
# 4 0.0000 0.0000 0.0000 22.5265 0.0000 -5.1368
# 5 -14.6035 -10.0511 -4.5778 0.0000 52.2453 0.0000
# 6 0.0000 0.0000 0.0000 -5.1368 0.0000 15.3526
#
#
#
# Elastic Compliance Matrix: (Units=1/GPa)
#
#
# Indices 1 2 3 4 5 6 
#
# 1 0.009594 -0.003010 -0.005348 0.000000 0.001634 0.000000
# 2 -0.003010 0.026460 -0.002071 0.000000 0.004067 0.000000
# 3 -0.005348 -0.002071 0.013383 0.000000 -0.000721 0.000000
# 4 0.000000 0.000000 0.000000 0.048059 0.000000 0.016080
# 5 0.001634 0.004067 -0.000721 0.000000 0.020317 0.000000
# 6 0.000000 0.000000 0.000000 0.016080 0.000000 0.070515
#
#
# Mechanical properties :
#
#
# Convention : Reuss Voigt Hill
#
# Bulk Modulus (GPa) = 34.99267 55.47717 45.23492
# Shear Modulus (GPa) = 22.86112 30.82022 26.84067
#
# Velocity S-wave (km/s) = 3.25100 3.77473 3.52261
# Velocity P-wave (km/s) = 5.50177 6.68176 6.12027
#
# Compressibility (1/GPa) = 0.02857741
#
# Stress axis : x y z
#
# Youngs Moduli (GPa) = 104.23360 37.79316 74.72361
#
# Poissons Ratio (x) = 0.11377 0.39961
# Poissons Ratio (y) = 0.31379 0.15477
# Poissons Ratio (z) = 0.55742 0.07828
#
# Static dielectric constant tensor:
#      x y z
#    x 1.821610 0.000000 0.034980 
#    y 0.000000 1.827410 0.000000 
#    z 0.034980 0.000000 1.783240 
# 
# From -- ./inp_files/125188.got.cif
#   From: 2010.05.17/outbox.cif.g08.bks.cpg/sg12_63_cif.got.tgz:125188.got - 2010.06.03 13:09:07.
