data_PCOD9209204
_publ_section_title
;
Structure prediction by ZEFSAII (Michael W. Deem and Ramdas Pophale) SiO2 
 PCOD9209204
Probable space group: C 2/M
;
_chemical_formula_sum "Si O2"
_cell_formula_units_Z 64
_cell_length_a 29.228635
_cell_length_b 8.880885
_cell_length_c 19.146898
_cell_angle_alpha 90.000000
_cell_angle_beta 41.040669
_cell_angle_gamma 90.000000
_cell_volume 3263.326186
_symmetry_space_group_name_H-M "C 2/M"
_symmetry_group_IT_number 12
_symmetry_cell_setting 'monoclinic'
loop_
_space_group_symop_operation_xyz
x,y,z
-x,y,-z
-x,-y,-z
x,-y,z
1/2+x,1/2+y,z
1/2-x,1/2+y,-z
1/2-x,1/2-y,-z
1/2+x,1/2-y,z
loop_
_atom_site_type_symbol
_atom_site_label
_atom_site_fract_x
_atom_site_fract_y
_atom_site_fract_z
Si Si1 0.035025 0.818920 0.386466
Si Si2 0.946926 0.180146 0.349909
Si Si3 0.160232 0.323910 0.168321
Si Si4 0.674566 0.675559 0.004163
Si Si5 0.335178 0.322093 0.251628
Si Si6 0.042163 0.678251 0.806232
Si Si7 0.783485 0.179809 0.531273
Si Si8 0.398428 0.177245 0.041997
O O1 0.108234 0.739853 0.286160
O O2 0.000000 0.774676 0.500000
O O3 0.984936 0.782693 0.378494
O O4 0.044856 0.000000 0.376358
O O5 0.978194 0.265696 0.247274
O O6 0.864763 0.218306 0.446210
O O7 0.953324 0.000000 0.331604
O O8 0.146148 0.500000 0.171475
O O9 0.241512 0.309917 0.094688
O O10 0.150693 0.230499 0.107919
O O11 0.656116 0.500000 0.015426
O O12 0.641515 0.776579 0.982252
O O13 0.326610 0.500000 0.264887
O O14 0.390123 0.267524 0.246751
O O15 0.262520 0.241476 0.352071
O O16 0.367459 0.270813 0.141277
O O17 0.056376 0.500000 0.789109
O O18 0.979510 0.706888 0.932294
O O19 0.750000 0.250000 0.500000
O O20 0.777675 0.000000 0.533755
O O21 0.390750 0.000000 0.065830
#
# Coordination Sequence:
#
# PCOD9209204 Si02
#       8
#     8   8   8   8   8   8   8   8
#     4  10  22  40  61  88 122 160 201 248 304 366
#     4  10  22  39  62  90 119 156 202 248 302 364
#     4  10  21  38  61  89 120 156 200 248 299 356
#     4  10  21  38  61  89 120 157 199 245 298 361
#     4  12  25  40  60  87 120 161 201 247 302 359
#     4  11  23  39  61  87 118 155 199 250 302 359
#     4  11  22  39  62  88 119 157 203 253 300 355
#     4  11  24  40  59  88 123 158 199 248 303 362
#
# _framework density 19.611892000000001
#
# number of rings (size 3 to 8) (size 9 to 14) (size 15 to 20)
#    0.000    1.375    1.250    4.125    0.000    9.250 
#    0.000    1.250    0.000    0.000    0.000    0.000 
#    0.000    0.000    0.000    0.000    0.000    0.000 
#
# Total GULP energy -178981.334827 kJ/mol
# GULP energy per Si atom -5593.166713 kJ/mol
# Density = 1.956725 g / cm^3
# Si number density = 19.611892 Si / 1000 Ang^3
#
#
#
# Elastic Constant Matrix: (Units=GPa)
#
#
# Indices 1 2 3 4 5 6 
#
# 1 23.1387 3.9713 8.2044 0.0015 3.1388 -0.0026
# 2 3.9713 45.6596 38.2641 0.0042 -9.8067 -0.0062
# 3 8.2044 38.2641 123.8773 0.0034 4.2940 -0.0076
# 4 0.0015 0.0042 0.0034 35.5619 0.0002 4.6645
# 5 3.1388 -9.8067 4.2940 0.0002 24.4886 0.0002
# 6 -0.0026 -0.0062 -0.0076 4.6645 0.0002 22.2783
#
#
#
# Elastic Compliance Matrix: (Units=1/GPa)
#
#
# Indices 1 2 3 4 5 6 
#
# 1 0.045457 -0.004337 -0.001418 -0.000002 -0.007314 0.000004
# 2 -0.004337 0.035199 -0.011161 -0.000004 0.016609 0.000006
# 3 -0.001418 -0.011161 0.011834 0.000000 -0.006363 0.000001
# 4 -0.000002 -0.000004 0.000000 0.028914 -0.000002 -0.006054
# 5 -0.007314 0.016609 -0.006363 -0.000002 0.049540 0.000001
# 6 0.000004 0.000006 0.000001 -0.006054 0.000001 0.046154
#
#
# Mechanical properties :
#
#
# Convention : Reuss Voigt Hill
#
# Bulk Modulus (GPa) = 17.04749 32.61725 24.83237
# Shear Modulus (GPa) = 18.48556 25.94816 22.21686
#
# Velocity S-wave (km/s) = 3.07346 3.64137 3.36940
# Velocity P-wave (km/s) = 4.61586 5.86062 5.27508
#
# Compressibility (1/GPa) = 0.05865968
#
# Stress axis : x y z
#
# Youngs Moduli (GPa) = 21.99888 28.41012 84.49932
#
# Poissons Ratio (x) = 0.12321 0.11978
# Poissons Ratio (y) = 0.09540 0.94309
# Poissons Ratio (z) = 0.03118 0.31708
#
# Static dielectric constant tensor:
#      x y z
#    x 1.681570 0.000000 -0.006130 
#    y 0.000000 1.652960 0.000000 
#    z -0.006130 0.000000 1.688370 
# 
# From -- ./inp_files/295668.got.cif
#   From: 2010.05.17/outbox.cif.g08.bks.cpg/sg12_148_cif.got.tgz:295668.got - 2010.06.03 13:09:07.
