data_PCOD9209507
_publ_section_title
;
Structure prediction by ZEFSAII (Michael W. Deem and Ramdas Pophale) SiO2 
 PCOD9209507
Probable space group: C 2/M
;
_chemical_formula_sum "Si O2"
_cell_formula_units_Z 64
_cell_length_a 17.441808
_cell_length_b 15.269176
_cell_length_c 23.896846
_cell_angle_alpha 90.000000
_cell_angle_beta 30.063459
_cell_angle_gamma 90.000000
_cell_volume 3188.230872
_symmetry_space_group_name_H-M "C 2/M"
_symmetry_group_IT_number 12
_symmetry_cell_setting 'monoclinic'
loop_
_space_group_symop_operation_xyz
x,y,z
-x,y,-z
-x,-y,-z
x,-y,z
1/2+x,1/2+y,z
1/2-x,1/2+y,-z
1/2-x,1/2-y,-z
1/2+x,1/2-y,z
loop_
_atom_site_type_symbol
_atom_site_label
_atom_site_fract_x
_atom_site_fract_y
_atom_site_fract_z
Si Si1 0.911042 0.805866 0.683815
Si Si2 0.777661 0.737888 0.303943
Si Si3 0.571907 0.137231 0.616093
Si Si4 0.723820 0.902694 0.125166
Si Si5 0.374780 0.172878 0.926536
Si Si6 0.841396 0.704391 0.068765
Si Si7 0.842915 0.596240 0.564315
Si Si8 0.839280 0.901369 0.535550
O O1 0.808185 0.757188 0.701469
O O2 0.797885 0.828159 0.805242
O O3 0.038543 0.739909 0.627670
O O4 0.001719 0.882707 0.596188
O O5 0.766745 0.827982 0.344749
O O6 0.687201 0.667311 0.398367
O O7 0.952500 0.708532 0.187521
O O8 0.414482 0.101710 0.742507
O O9 0.615791 0.103102 0.527079
O O10 0.704519 0.115401 0.575862
O O11 0.655535 0.892574 0.105464
O O12 0.815352 0.810506 0.075717
O O13 0.797263 0.000000 0.083787
O O14 0.250000 0.250000 0.000000
O O15 0.351333 0.148489 0.005749
O O16 0.000000 0.695215 0.000000
O O17 0.780062 0.500000 0.615830
O O18 0.000000 0.607073 0.500000
O O19 0.830407 0.000000 0.562079
#
# Coordination Sequence:
#
# PCOD9209507 Si02
#       8
#     8   8   8   8   8   8   8   8
#     4  11  23  40  65  92 127 170 205 262 320 382
#     4  12  22  41  64  90 131 168 211 260 321 377
#     4  11  21  39  59  91 128 164 203 253 315 381
#     4  10  21  38  62  93 123 160 210 261 311 373
#     4  10  22  40  63  89 121 165 213 255 307 375
#     4  10  21  40  65  91 119 165 212 256 320 380
#     4  11  22  36  57  91 133 170 204 249 316 389
#     4  12  25  40  65  98 128 165 215 267 318 377
#
# _framework density 20.073829
#
# number of rings (size 3 to 8) (size 9 to 14) (size 15 to 20)
#    0.000    1.125    5.000    1.875    0.000    1.250 
#    0.000    3.125    0.000    0.750    0.000    0.000 
#    0.000    0.000    0.000    0.000    0.000    0.000 
#
# Total GULP energy -178654.241228 kJ/mol
# GULP energy per Si atom -5582.945038 kJ/mol
# Density = 2.002814 g / cm^3
# Si number density = 20.073829 Si / 1000 Ang^3
#
#
#
# Elastic Constant Matrix: (Units=GPa)
#
#
# Indices 1 2 3 4 5 6 
#
# 1 64.6322 -12.2653 13.0739 0.0207 18.9780 -0.0356
# 2 -12.2653 56.6310 23.0330 0.0705 9.9129 -0.1238
# 3 13.0739 23.0330 93.9579 0.0229 19.0265 -0.0384
# 4 0.0207 0.0705 0.0229 588.1358 0.0022-1059.3439
# 5 18.9780 9.9129 19.0265 0.0022 39.0367 -0.0048
# 6 -0.0356 -0.1238 -0.0384-1059.3439 -0.0048 1869.2459
#
#
#
# Elastic Compliance Matrix: (Units=1/GPa)
#
#
# Indices 1 2 3 4 5 6 
#
# 1 0.020472 0.007302 -0.002494 0.000001 -0.010592 0.000002
# 2 0.007302 0.022524 -0.005171 0.000001 -0.006749 0.000002
# 3 -0.002494 -0.005171 0.013033 0.000001 -0.003827 0.000000
# 4 0.000001 0.000001 0.000001 -0.081844 -0.000002 -0.046383
# 5 -0.010592 -0.006749 -0.003827 -0.000002 0.034345 -0.000002
# 6 0.000002 0.000002 0.000000 -0.046383 -0.000002 -0.025751
#
#
# Mechanical properties :
#
#
# Convention : Reuss Voigt Hill
#
# Bulk Modulus (GPa) = 18.08188 29.21161 23.64674
# Shear Modulus (GPa) = 2578.10311 512.04231 1545.07271
#
# Velocity S-wave (km/s) = 35.87616 15.98854 27.77348
# Velocity P-wave (km/s) = 41.53503 18.85280 32.25358
#
# Compressibility (1/GPa) = 0.05530399
#
# Stress axis : x y z
#
# Youngs Moduli (GPa) = 48.84626 44.39648 76.73073
#
# Poissons Ratio (x) = -0.32420 0.19136
# Poissons Ratio (y) = -0.35669 0.39677
# Poissons Ratio (z) = 0.12182 0.22957
#
# Static dielectric constant tensor:
#      x y z
#    x 1.644360 0.000000 -0.039190 
#    y 0.000000 1.724650 0.000000 
#    z -0.039190 0.000000 1.654240 
# 
# From -- ./inp_files/344027.got.cif
#   From: 2010.05.17/outbox.cif.g08.bks.cpg/sg12_173_cif.got.tgz:344027.got - 2010.06.03 13:09:07.
