data_PCOD9209811
_publ_section_title
;
Structure prediction by ZEFSAII (Michael W. Deem and Ramdas Pophale) SiO2 
 PCOD9209811
Probable space group: C 2/M
;
_chemical_formula_sum "Si O2"
_cell_formula_units_Z 44
_cell_length_a 21.833762
_cell_length_b 9.846151
_cell_length_c 16.108157
_cell_angle_alpha 90.000000
_cell_angle_beta 46.416289
_cell_angle_gamma 90.000000
_cell_volume 2508.419148
_symmetry_space_group_name_H-M "C 2/M"
_symmetry_group_IT_number 12
_symmetry_cell_setting 'monoclinic'
loop_
_space_group_symop_operation_xyz
x,y,z
-x,y,-z
-x,-y,-z
x,-y,z
1/2+x,1/2+y,z
1/2-x,1/2+y,-z
1/2-x,1/2-y,-z
1/2+x,1/2-y,z
loop_
_atom_site_type_symbol
_atom_site_label
_atom_site_fract_x
_atom_site_fract_y
_atom_site_fract_z
Si Si1 0.220052 0.275316 0.399377
Si Si2 0.933767 0.767368 0.823075
Si Si3 0.123829 0.342550 0.657165
Si Si4 0.273814 0.000000 0.745317
Si Si5 0.167773 0.500000 0.129057
Si Si6 0.629162 0.500000 0.433730
Si Si7 0.560458 0.500000 0.317538
Si Si8 0.144742 0.000000 0.003947
O O1 0.167511 0.336431 0.525568
O O2 0.315114 0.246540 0.341594
O O3 0.216276 0.371305 0.323298
O O4 0.178354 0.132057 0.417216
O O5 0.875371 0.635114 0.866166
O O6 0.030069 0.717837 0.740901
O O7 0.925620 0.866825 0.751320
O O8 0.905922 0.864663 0.924875
O O9 0.121310 0.500000 0.686240
O O10 0.337472 0.000000 0.764737
O O11 0.182731 0.000000 0.876174
O O12 0.268911 0.500000 0.020902
O O13 0.617654 0.500000 0.345579
O O14 0.536390 0.500000 0.561209
#
# Coordination Sequence:
#
# PCOD9209811 Si02
#       8
#     8   8   8   4   4   4   4   4
#     4  11  22  39  60  86 126 156 202 235 300 363
#     4  11  20  40  61  91 118 152 208 246 290 360
#     4  11  22  37  63  89 118 160 192 254 295 351
#     4  10  23  40  60  90 116 162 196 246 299 355
#     4  10  21  38  65  87 116 155 199 252 302 340
#     4  11  20  36  53  85 128 159 189 233 297 358
#     4  10  22  32  55  90 123 157 189 240 295 347
#     4   9  24  40  63  89 116 162 203 241 307 343
#
# _framework density 17.540928000000001
#
# number of rings (size 3 to 8) (size 9 to 14) (size 15 to 20)
#    0.545    0.909    4.545    1.636    0.000    1.455 
#    0.000    2.727    0.000    1.091    0.000    0.000 
#    0.000    0.000    0.000    0.000    0.000    0.000 
#
# Total GULP energy -122738.286167 kJ/mol
# GULP energy per Si atom -5579.013008 kJ/mol
# Density = 1.750100 g / cm^3
# Si number density = 17.540928 Si / 1000 Ang^3
#
#
#
# Elastic Constant Matrix: (Units=GPa)
#
#
# Indices 1 2 3 4 5 6 
#
# 1 41.5733 10.6091 4.4326 0.0000 -12.9181 0.0000
# 2 10.6091 116.3101 19.2245 0.0001 -5.2748 0.0000
# 3 4.4326 19.2245 46.3339 0.0000 -10.6085 0.0000
# 4 0.0000 0.0001 0.0000 5.0821 0.0000 14.8331
# 5 -12.9181 -5.2748 -10.6085 0.0000 33.0752 0.0000
# 6 0.0000 0.0000 0.0000 14.8331 0.0000 2.2151
#
#
#
# Elastic Compliance Matrix: (Units=1/GPa)
#
#
# Indices 1 2 3 4 5 6 
#
# 1 0.027879 -0.002170 0.000698 0.000000 0.010766 0.000000
# 2 -0.002170 0.009402 -0.003825 0.000000 -0.000575 0.000000
# 3 0.000698 -0.003825 0.024850 0.000000 0.007633 0.000000
# 4 0.000000 0.000000 0.000000 -0.010611 0.000000 0.071052
# 5 0.010766 -0.000575 0.007633 0.000000 0.036796 0.000000
# 6 0.000000 0.000000 0.000000 0.071052 0.000000 -0.024344
#
#
# Mechanical properties :
#
#
# Convention : Reuss Voigt Hill
#
# Bulk Modulus (GPa) = 19.40331 30.30550 24.85440
# Shear Modulus (GPa) = 54.49894 19.40454 36.95174
#
# Velocity S-wave (km/s) = 5.58006 3.32963 4.59475
# Velocity P-wave (km/s) = 7.25271 5.66537 6.50762
#
# Compressibility (1/GPa) = 0.05153761
#
# Stress axis : x y z
#
# Youngs Moduli (GPa) = 35.86967 106.36275 40.24085
#
# Poissons Ratio (x) = 0.23082 -0.02811
# Poissons Ratio (y) = 0.07784 0.15392
# Poissons Ratio (z) = -0.02505 0.40683
#
# Static dielectric constant tensor:
#      x y z
#    x 1.576680 0.000000 0.001270 
#    y 0.000000 1.574100 0.000000 
#    z 0.001270 0.000000 1.584620 
# 
# From -- ./inp_files/288138.got.cif
#   From: 2010.05.17/outbox.cif.g08.bks.cpg/sg12_145_cif.got.tgz:288138.got - 2010.06.03 13:09:07.
