data_PCOD9209881
_publ_section_title
;
Structure prediction by ZEFSAII (Michael W. Deem and Ramdas Pophale) SiO2 
 PCOD9209881
Probable space group: C 2/M
;
_chemical_formula_sum "Si O2"
_cell_formula_units_Z 60
_cell_length_a 14.254648
_cell_length_b 21.533535
_cell_length_c 9.359576
_cell_angle_alpha 90.000000
_cell_angle_beta 80.909414
_cell_angle_gamma 90.000000
_cell_volume 2836.864693
_symmetry_space_group_name_H-M "C 2/M"
_symmetry_group_IT_number 12
_symmetry_cell_setting 'monoclinic'
loop_
_space_group_symop_operation_xyz
x,y,z
-x,y,-z
-x,-y,-z
x,-y,z
1/2+x,1/2+y,z
1/2-x,1/2+y,-z
1/2-x,1/2-y,-z
1/2+x,1/2-y,z
loop_
_atom_site_type_symbol
_atom_site_label
_atom_site_fract_x
_atom_site_fract_y
_atom_site_fract_z
Si Si1 0.508539 0.214701 0.242640
Si Si2 0.004788 0.140539 0.167207
Si Si3 0.500000 0.882798 0.000000
Si Si4 0.668040 0.572648 0.624677
Si Si5 0.807876 0.895759 0.707164
Si Si6 0.798218 0.433557 0.001322
Si Si7 0.280408 0.163637 0.769586
Si Si8 0.193057 0.725909 0.649156
O O1 0.512511 0.284780 0.182677
O O2 0.475572 0.164421 0.133321
O O3 0.613356 0.191976 0.262354
O O4 0.416615 0.216356 0.367090
O O5 0.917366 0.108982 0.274394
O O6 0.098261 0.115522 0.223039
O O7 0.000000 0.125185 0.000000
O O8 0.410823 0.923839 0.979166
O O9 0.668400 0.500000 0.661990
O O10 0.663737 0.578047 0.454232
O O11 0.760437 0.611311 0.654773
O O12 0.747928 0.833747 0.691354
O O13 0.740797 0.933550 0.829388
O O14 0.773452 0.500000 0.939709
O O15 0.763268 0.373766 0.920680
O O16 0.207342 0.220072 0.763927
O O17 0.250000 0.750000 0.500000
#
# Coordination Sequence:
#
# PCOD9209881 Si02
#       8
#     8   8   4   8   8   8   8   8
#     4  11  22  40  68 106 140 174 233 292 364 419
#     4  12  25  42  72 109 141 181 235 299 361 423
#     4  10  21  38  66  94 137 184 228 294 350 420
#     4  12  27  49  69  99 147 196 240 285 354 435
#     4  12  25  43  71 101 138 189 239 293 357 429
#     4  11  24  42  65  97 137 186 241 289 350 425
#     4  11  24  42  72 104 136 183 228 301 353 415
#     4  12  23  42  68 104 141 179 232 296 367 424
#
# _framework density 21.150110000000002
#
# number of rings (size 3 to 8) (size 9 to 14) (size 15 to 20)
#    0.000    0.533    6.000    2.200    0.000    2.933 
#    0.000    0.000    0.000    0.800    0.000    0.000 
#    0.000    0.000    0.000    0.000    0.000    0.000 
#
# Total GULP energy -167567.092661 kJ/mol
# GULP energy per Si atom -5585.569755 kJ/mol
# Density = 2.110197 g / cm^3
# Si number density = 21.150110 Si / 1000 Ang^3
#
#
#
# Elastic Constant Matrix: (Units=GPa)
#
#
# Indices 1 2 3 4 5 6 
#
# 1 96.3447 40.1286 35.7852 0.0000 -5.6315 0.0000
# 2 40.1286 154.7025 40.8853 0.0000 -2.5334 0.0000
# 3 35.7852 40.8853 128.5718 0.0000 -4.9344 0.0000
# 4 0.0000 0.0000 0.0000 36.8085 0.0000 -5.7989
# 5 -5.6315 -2.5334 -4.9344 0.0000 33.7171 0.0000
# 6 0.0000 0.0000 0.0000 -5.7989 0.0000 15.7983
#
#
#
# Elastic Compliance Matrix: (Units=1/GPa)
#
#
# Indices 1 2 3 4 5 6 
#
# 1 0.012491 -0.002524 -0.002616 0.000000 0.001514 0.000000
# 2 -0.002524 0.007568 -0.001708 0.000000 -0.000103 0.000000
# 3 -0.002616 -0.001708 0.009078 0.000000 0.000763 0.000000
# 4 0.000000 0.000000 0.000000 0.028835 0.000000 0.010584
# 5 0.001514 -0.000103 0.000763 0.000000 0.030015 0.000000
# 6 0.000000 0.000000 0.000000 0.010584 0.000000 0.067183
#
#
# Mechanical properties :
#
#
# Convention : Reuss Voigt Hill
#
# Bulk Modulus (GPa) = 64.76008 68.13524 66.44766
# Shear Modulus (GPa) = 28.73334 34.78610 31.75972
#
# Velocity S-wave (km/s) = 3.68984 4.05992 3.87930
# Velocity P-wave (km/s) = 6.98849 7.36629 7.17988
#
# Compressibility (1/GPa) = 0.01544161
#
# Stress axis : x y z
#
# Youngs Moduli (GPa) = 80.05953 132.12727 110.15252
#
# Poissons Ratio (x) = 0.33347 0.28814
# Poissons Ratio (y) = 0.20206 0.18816
# Poissons Ratio (z) = 0.20942 0.22570
#
# Static dielectric constant tensor:
#      x y z
#    x 1.804920 0.000000 -0.008300 
#    y 0.000000 1.819200 0.000000 
#    z -0.008300 0.000000 1.799530 
# 
# From -- ./inp_files/65850.got.cif
#   From: 2010.05.17/outbox.cif.g08.bks.cpg/sg12_33_cif.got.tgz:65850.got - 2010.06.03 13:09:07.
