data_PCOD9209795
_publ_section_title
;
Structure prediction by ZEFSAII (Michael W. Deem and Ramdas Pophale) SiO2 
 PCOD9209795
Probable space group: C 2/M
;
_chemical_formula_sum "Si O2"
_cell_formula_units_Z 40
_cell_length_a 14.977193
_cell_length_b 13.899481
_cell_length_c 8.888806
_cell_angle_alpha 90.000000
_cell_angle_beta 91.077090
_cell_angle_gamma 90.000000
_cell_volume 1850.102096
_symmetry_space_group_name_H-M "C 2/M"
_symmetry_group_IT_number 12
_symmetry_cell_setting 'monoclinic'
loop_
_space_group_symop_operation_xyz
x,y,z
-x,y,-z
-x,-y,-z
x,-y,z
1/2+x,1/2+y,z
1/2-x,1/2+y,-z
1/2-x,1/2-y,-z
1/2+x,1/2-y,z
loop_
_atom_site_type_symbol
_atom_site_label
_atom_site_fract_x
_atom_site_fract_y
_atom_site_fract_z
Si Si1 0.855871 0.145320 0.768967
Si Si2 0.243908 0.500000 0.935762
Si Si3 0.442796 0.832668 0.638186
Si Si4 0.961095 0.500000 0.169172
Si Si5 0.262551 0.136983 0.511284
Si Si6 0.501247 0.500000 0.684455
Si Si7 0.697106 0.500000 0.751287
O O1 0.804873 0.096436 0.908042
O O2 0.886690 0.255970 0.740198
O O3 0.786796 0.107144 0.640330
O O4 0.947053 0.091235 0.739189
O O5 0.147226 0.500000 0.852439
O O6 0.232073 0.500000 0.114364
O O7 0.500000 0.787280 0.500000
O O8 0.364899 0.887595 0.543519
O O9 0.501242 0.905807 0.740147
O O10 0.000000 0.500000 0.000000
O O11 0.250000 0.250000 0.500000
O O12 0.211247 0.092567 0.648477
O O13 0.500000 0.500000 0.500000
O O14 0.593158 0.500000 0.777497
#
# Coordination Sequence:
#
# PCOD9209795 Si02
#       7
#     8   4   8   4   8   4   4
#     4  10  22  41  66 103 136 168 222 280 340 398
#     4  11  25  46  68  99 142 186 218 272 346 415
#     4  11  23  41  71  98 132 175 233 281 332 395
#     4  12  26  48  68  96 140 187 229 275 336 410
#     4  10  21  38  64  98 128 170 222 278 331 392
#     4  11  19  37  69  96 125 171 216 279 336 391
#     4  12  23  42  69  93 136 176 223 273 341 407
#
# _framework density 21.620428
#
# number of rings (size 3 to 8) (size 9 to 14) (size 15 to 20)
#    0.000    1.200    2.000    4.500    2.800    1.600 
#    3.600    5.000    0.000    0.000    0.000    0.000 
#    0.000    0.000    0.000    0.000    0.000    0.000 
#
# Total GULP energy -111341.634567 kJ/mol
# GULP energy per Si atom -5567.081728 kJ/mol
# Density = 2.157122 g / cm^3
# Si number density = 21.620428 Si / 1000 Ang^3
#
#
#
# Elastic Constant Matrix: (Units=GPa)
#
#
# Indices 1 2 3 4 5 6 
#
# 1 93.2122 12.3553 0.0125 0.0000 14.6972 0.0000
# 2 12.3553 125.6724 22.7538 0.0000 -0.1195 0.0000
# 3 0.0125 22.7538 66.3528 0.0000 8.5477 0.0000
# 4 0.0000 0.0000 0.0000 30.1266 0.0000 -19.9235
# 5 14.6972 -0.1195 8.5477 0.0000 39.8865 0.0000
# 6 0.0000 0.0000 0.0000 -19.9235 0.0000 51.7097
#
#
#
# Elastic Compliance Matrix: (Units=1/GPa)
#
#
# Indices 1 2 3 4 5 6 
#
# 1 0.011615 -0.001334 0.001036 0.000000 -0.004506 0.000000
# 2 -0.001334 0.008654 -0.003120 0.000000 0.001186 0.000000
# 3 0.001036 -0.003120 0.016651 0.000000 -0.003959 0.000000
# 4 0.000000 0.000000 0.000000 0.044543 0.000000 0.017162
# 5 -0.004506 0.001186 -0.003959 0.000000 0.027584 0.000000
# 6 0.000000 0.000000 0.000000 0.017162 0.000000 0.025951
#
#
# Mechanical properties :
#
#
# Convention : Reuss Voigt Hill
#
# Bulk Modulus (GPa) = 33.24061 39.49787 36.36924
# Shear Modulus (GPa) = 32.92436 41.01892 36.97164
#
# Velocity S-wave (km/s) = 3.90659 4.36045 4.13974
# Velocity P-wave (km/s) = 5.97968 6.60755 6.30144
#
# Compressibility (1/GPa) = 0.03008368
#
# Stress axis : x y z
#
# Youngs Moduli (GPa) = 86.09318 115.54810 60.05712
#
# Poissons Ratio (x) = 0.15411 -0.06220
# Poissons Ratio (y) = 0.11483 0.18740
# Poissons Ratio (z) = -0.08916 0.36055
#
# Static dielectric constant tensor:
#      x y z
#    x 1.855610 0.000000 -0.037550 
#    y 0.000000 1.826980 0.000000 
#    z -0.037550 0.000000 1.820960 
# 
# From -- ./inp_files/59158.got.cif
#   From: 2010.05.17/outbox.cif.g08.bks.cpg/sg12_30_cif.got.tgz:59158.got - 2010.06.03 13:09:07.
