data_PCOD9209369
_publ_section_title
;
Structure prediction by ZEFSAII (Michael W. Deem and Ramdas Pophale) SiO2 
 PCOD9209369
Probable space group: C 2/M
;
_chemical_formula_sum "Si O2"
_cell_formula_units_Z 48
_cell_length_a 14.449927
_cell_length_b 8.787435
_cell_length_c 29.831313
_cell_angle_alpha 90.000000
_cell_angle_beta 32.542670
_cell_angle_gamma 90.000000
_cell_volume 2037.623510
_symmetry_space_group_name_H-M "C 2/M"
_symmetry_group_IT_number 12
_symmetry_cell_setting 'monoclinic'
loop_
_space_group_symop_operation_xyz
x,y,z
-x,y,-z
-x,-y,-z
x,-y,z
1/2+x,1/2+y,z
1/2-x,1/2+y,-z
1/2-x,1/2-y,-z
1/2+x,1/2-y,z
loop_
_atom_site_type_symbol
_atom_site_label
_atom_site_fract_x
_atom_site_fract_y
_atom_site_fract_z
Si Si1 0.293628 0.678836 0.934030
Si Si2 0.214972 0.823934 0.875097
Si Si3 0.884581 0.673584 0.316550
Si Si4 0.551330 0.820777 0.428977
Si Si5 0.972560 0.175030 0.371298
Si Si6 0.373206 0.825986 0.180011
O O1 0.261404 0.500000 0.946134
O O2 0.198095 0.760962 0.932031
O O3 0.497260 0.715396 0.847365
O O4 0.250000 0.750000 0.000000
O O5 0.419910 0.818368 0.780446
O O6 0.131004 0.722527 0.870476
O O7 0.159976 0.000000 0.893744
O O8 0.824663 0.500000 0.335680
O O9 0.753431 0.781609 0.344320
O O10 0.888776 0.724119 0.366720
O O11 0.500000 0.771576 0.500000
O O12 0.453732 0.736030 0.429040
O O13 0.522859 0.000000 0.436299
O O14 0.177782 0.181035 0.276908
O O15 0.916191 0.000000 0.389778
O O16 0.433998 0.000000 0.160648
#
# Coordination Sequence:
#
# PCOD9209369 Si02
#       6
#     8   8   8   8   8   8
#     4  12  25  40  59  85 118 156 193 234 285 339
#     4  10  21  39  62  89 117 148 190 237 285 339
#     4  10  21  38  62  88 115 149 190 237 286 339
#     4  11  24  39  56  82 117 155 194 237 286 341
#     4  10  21  38  62  88 115 149 190 237 286 339
#     4  10  21  39  62  89 117 148 190 237 285 339
#
# _framework density 23.556853
#
# number of rings (size 3 to 8) (size 9 to 14) (size 15 to 20)
#    0.000    1.500    0.000    5.000    0.000   10.667 
#    0.000    3.333    0.000    0.000    0.000    0.000 
#    0.000    0.000    0.000    0.000    0.000    0.000 
#
# Total GULP energy -134471.052929 kJ/mol
# GULP energy per Si atom -5602.960539 kJ/mol
# Density = 2.350324 g / cm^3
# Si number density = 23.556853 Si / 1000 Ang^3
#
#
#
# Elastic Constant Matrix: (Units=GPa)
#
#
# Indices 1 2 3 4 5 6 
#
# 1 84.1746 7.5247 20.1508 -0.0013 23.3348 -0.0038
# 2 7.5247 81.6381 26.1066 -0.0090 19.3868 -0.0155
# 3 20.1508 26.1066 81.2690 0.0011 23.3540 -0.0003
# 4 -0.0013 -0.0090 0.0011 25.7886 0.0001 5.9880
# 5 23.3348 19.3868 23.3540 0.0001 54.4421 -0.0015
# 6 -0.0038 -0.0155 -0.0003 5.9880 -0.0015 31.3328
#
#
#
# Elastic Compliance Matrix: (Units=1/GPa)
#
#
# Indices 1 2 3 4 5 6 
#
# 1 0.013779 0.000650 -0.002123 0.000001 -0.005227 0.000002
# 2 0.000650 0.014257 -0.003652 0.000004 -0.003789 0.000006
# 3 -0.002123 -0.003652 0.015249 -0.000002 -0.004331 -0.000002
# 4 0.000001 0.000004 -0.000002 0.040577 -0.000001 -0.007755
# 5 -0.005227 -0.003789 -0.004331 -0.000001 0.023815 -0.000001
# 6 0.000002 0.000006 -0.000002 -0.007755 -0.000001 0.033397
#
#
# Mechanical properties :
#
#
# Convention : Reuss Voigt Hill
#
# Bulk Modulus (GPa) = 30.27179 39.40511 34.83845
# Shear Modulus (GPa) = 30.79996 35.19935 32.99965
#
# Velocity S-wave (km/s) = 3.61982 3.86972 3.74686
# Velocity P-wave (km/s) = 5.50902 6.06055 5.79135
#
# Compressibility (1/GPa) = 0.03303405
#
# Stress axis : x y z
#
# Youngs Moduli (GPa) = 72.57316 70.14121 65.57773
#
# Poissons Ratio (x) = -0.04560 0.13925
# Poissons Ratio (y) = -0.04719 0.23951
# Poissons Ratio (z) = 0.15411 0.25618
#
# Static dielectric constant tensor:
#      x y z
#    x 1.863920 0.000000 -0.052110 
#    y 0.000000 1.785540 0.000000 
#    z -0.052110 0.000000 1.987610 
# 
# From -- ./inp_files/308605.got.cif
#   From: 2010.05.17/outbox.cif.g08.bks.cpg/sg12_155_cif.got.tgz:308605.got - 2010.06.03 13:09:07.
