data_PCOD9209667
_publ_section_title
;
Structure prediction by ZEFSAII (Michael W. Deem and Ramdas Pophale) SiO2 
 PCOD9209667
Probable space group: C 2/M
;
_chemical_formula_sum "Si O2"
_cell_formula_units_Z 40
_cell_length_a 24.259168
_cell_length_b 8.512947
_cell_length_c 9.780547
_cell_angle_alpha 90.000000
_cell_angle_beta 104.849373
_cell_angle_gamma 90.000000
_cell_volume 1952.392240
_symmetry_space_group_name_H-M "C 2/M"
_symmetry_group_IT_number 12
_symmetry_cell_setting 'monoclinic'
loop_
_space_group_symop_operation_xyz
x,y,z
-x,y,-z
-x,-y,-z
x,-y,z
1/2+x,1/2+y,z
1/2-x,1/2+y,-z
1/2-x,1/2-y,-z
1/2+x,1/2-y,z
loop_
_atom_site_type_symbol
_atom_site_label
_atom_site_fract_x
_atom_site_fract_y
_atom_site_fract_z
Si Si1 0.356950 0.186642 0.222809
Si Si2 0.983440 0.810042 0.337446
Si Si3 0.052569 0.809254 0.127323
Si Si4 0.233007 0.812961 0.638843
Si Si5 0.825783 0.810593 0.912585
O O1 0.422560 0.240856 0.256449
O O2 0.327540 0.253892 0.340825
O O3 0.353026 0.000000 0.221485
O O4 0.324708 0.250955 0.067537
O O5 0.000000 0.763212 0.500000
O O6 0.034074 0.763450 0.267292
O O7 0.977931 0.000000 0.327696
O O8 0.113315 0.756832 0.111024
O O9 0.054149 0.000000 0.122525
O O10 0.000000 0.757228 0.000000
O O11 0.250000 0.750000 0.500000
O O12 0.277883 0.753249 0.780765
O O13 0.232686 0.000000 0.633813
O O14 0.823060 0.000000 0.912375
#
# Coordination Sequence:
#
# PCOD9209667 Si02
#       5
#     8   8   8   8   8
#     4  12  25  43  65  94 130 172 219 269 322 380
#     4  10  21  38  63  94 128 170 214 262 322 387
#     4   9  17  34  61  94 126 162 208 254 310 381
#     4  12  27  47  68  95 128 166 212 267 327 388
#     4  11  22  41  69  97 129 171 217 267 318 383
#
# _framework density 20.487687000000001
#
# number of rings (size 3 to 8) (size 9 to 14) (size 15 to 20)
#    0.000    1.200    2.000    4.800    2.800    0.400 
#    0.000    3.000    0.000    0.000    0.000    0.000 
#    0.000    0.000    0.000    0.000    0.000    0.000 
#
# Total GULP energy -111842.348934 kJ/mol
# GULP energy per Si atom -5592.117447 kJ/mol
# Density = 2.044106 g / cm^3
# Si number density = 20.487687 Si / 1000 Ang^3
#
#
#
# Elastic Constant Matrix: (Units=GPa)
#
#
# Indices 1 2 3 4 5 6 
#
# 1 85.9199 14.9524 21.4208 0.0000 -23.0218 0.0000
# 2 14.9524 91.3077 31.1295 0.0000 -6.8477 0.0000
# 3 21.4208 31.1295 118.2597 0.0000 -24.4695 0.0000
# 4 0.0000 0.0000 0.0000 30.6715 0.0000 3.8305
# 5 -23.0218 -6.8477 -24.4695 0.0000 43.4519 0.0000
# 6 0.0000 0.0000 0.0000 3.8305 0.0000 25.4231
#
#
#
# Elastic Compliance Matrix: (Units=1/GPa)
#
#
# Indices 1 2 3 4 5 6 
#
# 1 0.013882 -0.001523 -0.000726 0.000000 0.006706 0.000000
# 2 -0.001523 0.012199 -0.003061 0.000000 -0.000608 0.000000
# 3 -0.000726 -0.003061 0.010429 0.000000 0.005006 0.000000
# 4 0.000000 0.000000 0.000000 0.033229 0.000000 -0.005007
# 5 0.006706 -0.000608 0.005006 0.000000 0.029290 0.000000
# 6 0.000000 0.000000 0.000000 -0.005007 0.000000 0.040089
#
#
# Mechanical properties :
#
#
# Convention : Reuss Voigt Hill
#
# Bulk Modulus (GPa) = 38.62504 47.83252 43.22878
# Shear Modulus (GPa) = 31.57209 35.10830 33.34020
#
# Velocity S-wave (km/s) = 3.92985 4.14409 4.03839
# Velocity P-wave (km/s) = 6.28374 6.80409 6.54908
#
# Compressibility (1/GPa) = 0.02588994
#
# Stress axis : x y z
#
# Youngs Moduli (GPa) = 72.03786 81.97122 95.88567
#
# Poissons Ratio (x) = 0.12482 0.06962
# Poissons Ratio (y) = 0.10970 0.29353
# Poissons Ratio (z) = 0.05230 0.25094
#
# Static dielectric constant tensor:
#      x y z
#    x 1.730060 0.000000 -0.018730 
#    y 0.000000 1.693190 0.000000 
#    z -0.018730 0.000000 1.717130 
# 
# From -- ./inp_files/93025.got.cif
#   From: 2010.05.17/outbox.cif.g08.bks.cpg/sg12_47_cif.got.tgz:93025.got - 2010.06.03 13:09:07.
