data_PCOD9209995
_publ_section_title
;
Structure prediction by ZEFSAII (Michael W. Deem and Ramdas Pophale) SiO2 
 PCOD9209995
Probable space group: C 2/M
;
_chemical_formula_sum "Si O2"
_cell_formula_units_Z 52
_cell_length_a 17.788335
_cell_length_b 31.582095
_cell_length_c 7.595003
_cell_angle_alpha 90.000000
_cell_angle_beta 32.530571
_cell_angle_gamma 90.000000
_cell_volume 2294.479750
_symmetry_space_group_name_H-M "C 2/M"
_symmetry_group_IT_number 12
_symmetry_cell_setting 'monoclinic'
loop_
_space_group_symop_operation_xyz
x,y,z
-x,y,-z
-x,-y,-z
x,-y,z
1/2+x,1/2+y,z
1/2-x,1/2+y,-z
1/2-x,1/2-y,-z
1/2+x,1/2-y,z
loop_
_atom_site_type_symbol
_atom_site_label
_atom_site_fract_x
_atom_site_fract_y
_atom_site_fract_z
Si Si1 0.774610 0.862920 0.745723
Si Si2 0.199520 0.392471 0.285150
Si Si3 0.840710 0.297634 0.511419
Si Si4 0.849547 0.723112 0.076837
Si Si5 0.508968 0.424840 0.270607
Si Si6 0.694268 0.500000 0.396114
Si Si7 0.072841 0.428516 0.037930
O O1 0.751491 0.813268 0.797883
O O2 0.926953 0.880777 0.399507
O O3 0.736560 0.881790 0.011295
O O4 0.659940 0.884782 0.845632
O O5 0.182178 0.347152 0.412466
O O6 0.057386 0.418484 0.580199
O O7 0.330524 0.419154 0.099234
O O8 0.847257 0.285973 0.291795
O O9 0.714916 0.268888 0.833307
O O10 0.990782 0.284329 0.295062
O O11 0.500000 0.433815 0.500000
O O12 0.425364 0.462714 0.348568
O O13 0.815106 0.463118 0.128286
O O14 0.000000 0.441335 0.000000
#
# Coordination Sequence:
#
# PCOD9209995 Si02
#       7
#     8   8   8   8   8   4   8
#     4  10  21  39  61  87 126 162 205 253 300 359
#     4  11  22  39  63  92 120 163 211 249 303 367
#     4  10  22  37  60  89 125 166 206 248 299 352
#     4  10  21  39  58  88 128 163 208 249 293 358
#     4   9  21  40  61  88 124 158 198 249 309 368
#     4  10  22  42  64  88 121 160 197 254 315 368
#     4  11  22  40  63  90 120 158 200 255 310 370
#
# _framework density 22.663088999999999
#
# number of rings (size 3 to 8) (size 9 to 14) (size 15 to 20)
#    0.000    1.846    1.538    1.846    2.154    1.231 
#    0.000   16.923    0.000    0.000    0.000    0.000 
#    0.000    0.000    0.000    0.000    0.000    0.000 
#
# Total GULP energy -144833.851178 kJ/mol
# GULP energy per Si atom -5570.532738 kJ/mol
# Density = 2.261151 g / cm^3
# Si number density = 22.663089 Si / 1000 Ang^3
#
#
#
# Elastic Constant Matrix: (Units=GPa)
#
#
# Indices 1 2 3 4 5 6 
#
# 1 45.0794 37.3179 36.1733 0.0000 -14.7890 0.0000
# 2 37.3179 112.2028 48.2071 0.0000 -20.6128 0.0000
# 3 36.1733 48.2071 96.6429 0.0000 -38.1969 0.0000
# 4 0.0000 0.0000 0.0000 23.6551 0.0000 -18.1441
# 5 -14.7890 -20.6128 -38.1969 0.0000 31.2770 0.0000
# 6 0.0000 0.0000 0.0000 -18.1441 0.0000 -22.1321
#
#
#
# Elastic Compliance Matrix: (Units=1/GPa)
#
#
# Indices 1 2 3 4 5 6 
#
# 1 0.036597 -0.007995 -0.009575 0.000000 0.000342 0.000000
# 2 -0.007995 0.013110 -0.003143 0.000000 0.001020 0.000000
# 3 -0.009575 -0.003143 0.024919 0.000000 0.023833 0.000000
# 4 0.000000 0.000000 0.000000 0.025954 0.000000 -0.021277
# 5 0.000342 0.001020 0.023833 0.000000 0.061913 0.000000
# 6 0.000000 0.000000 0.000000 -0.021277 0.000000 -0.027740
#
#
# Mechanical properties :
#
#
# Convention : Reuss Voigt Hill
#
# Bulk Modulus (GPa) = 30.12161 55.25797 42.68979
# Shear Modulus (GPa) = 26.70280 15.37512 21.03896
#
# Velocity S-wave (km/s) = 3.43629 2.60748 3.05017
# Velocity P-wave (km/s) = 5.39110 5.78797 5.59306
#
# Compressibility (1/GPa) = 0.03319875
#
# Stress axis : x y z
#
# Youngs Moduli (GPa) = 27.32435 76.27988 40.13006
#
# Poissons Ratio (x) = 0.60989 0.38424
# Poissons Ratio (y) = 0.21847 0.12614
# Poissons Ratio (z) = 0.26163 0.23977
#
# Static dielectric constant tensor:
#      x y z
#    x 1.939540 0.000000 0.040850 
#    y 0.000000 1.805770 0.000000 
#    z 0.040850 0.000000 1.840850 
# 
# From -- ./inp_files/91469.got.cif
#   From: 2010.05.17/outbox.cif.g08.bks.cpg/sg12_46_cif.got.tgz:91469.got - 2010.06.03 13:09:07.
