data_PCOD9209581
_publ_section_title
;
Structure prediction by ZEFSAII (Michael W. Deem and Ramdas Pophale) SiO2 
 PCOD9209581
Probable space group: C 2/M
;
_chemical_formula_sum "Si O2"
_cell_formula_units_Z 40
_cell_length_a 19.514380
_cell_length_b 17.992736
_cell_length_c 6.563507
_cell_angle_alpha 90.000000
_cell_angle_beta 51.031238
_cell_angle_gamma 90.000000
_cell_volume 1791.769528
_symmetry_space_group_name_H-M "C 2/M"
_symmetry_group_IT_number 12
_symmetry_cell_setting 'monoclinic'
loop_
_space_group_symop_operation_xyz
x,y,z
-x,y,-z
-x,-y,-z
x,-y,z
1/2+x,1/2+y,z
1/2-x,1/2+y,-z
1/2-x,1/2-y,-z
1/2+x,1/2-y,z
loop_
_atom_site_type_symbol
_atom_site_label
_atom_site_fract_x
_atom_site_fract_y
_atom_site_fract_z
Si Si1 0.189335 0.186644 0.474467
Si Si2 0.905549 0.873563 0.727690
Si Si3 0.756607 0.583608 0.705420
Si Si4 0.873104 0.267409 0.047920
Si Si5 0.402247 0.915134 0.773480
O O1 0.140855 0.138596 0.400315
O O2 0.240698 0.134640 0.539518
O O3 0.121672 0.237246 0.730487
O O4 0.266238 0.232952 0.219800
O O5 0.000000 0.906962 0.500000
O O6 0.836888 0.914905 0.001251
O O7 0.916089 0.792698 0.817572
O O8 0.778389 0.500000 0.600278
O O9 0.831893 0.605933 0.727662
O O10 0.900902 0.350757 0.945198
O O11 0.500000 0.916418 0.500000
O O12 0.380427 0.000000 0.881472
#
# Coordination Sequence:
#
# PCOD9209581 Si02
#       5
#     8   8   8   8   8
#     4  10  22  38  63  91 123 157 203 246 298 358
#     4  11  23  41  64  90 121 161 201 247 303 357
#     4  10  23  41  62  89 123 160 200 249 299 355
#     4  10  21  38  63  89 121 156 199 247 300 350
#     4  10  21  40  63  88 123 163 201 244 299 360
#
# _framework density 22.324300999999998
#
# number of rings (size 3 to 8) (size 9 to 14) (size 15 to 20)
#    0.000    1.800    2.000    1.200    5.600    5.200 
#    3.600    1.000    0.000    3.600    0.000    0.000 
#    0.000    0.000    0.000    0.000    0.000    0.000 
#
# Total GULP energy -111691.587171 kJ/mol
# GULP energy per Si atom -5584.579359 kJ/mol
# Density = 2.227349 g / cm^3
# Si number density = 22.324301 Si / 1000 Ang^3
#
#
#
# Elastic Constant Matrix: (Units=GPa)
#
#
# Indices 1 2 3 4 5 6 
#
# 1 27.8292 -16.4428 12.4968 0.0000 -11.4605 0.0000
# 2 -16.4428 91.9655 19.6828 0.0000 16.4700 0.0000
# 3 12.4968 19.6828 92.6088 0.0000 -7.4695 0.0000
# 4 0.0000 0.0000 0.0000 21.5079 0.0000 -7.7691
# 5 -11.4605 16.4700 -7.4695 0.0000 33.9366 0.0000
# 6 0.0000 0.0000 0.0000 -7.7691 0.0000 5.3298
#
#
#
# Elastic Compliance Matrix: (Units=1/GPa)
#
#
# Indices 1 2 3 4 5 6 
#
# 1 0.048660 0.008382 -0.007483 0.000000 0.010718 0.000000
# 2 0.008382 0.014264 -0.004574 0.000000 -0.005099 0.000000
# 3 -0.007483 -0.004574 0.012986 0.000000 0.002551 0.000000
# 4 0.000000 0.000000 0.000000 0.098200 0.000000 0.143142
# 5 0.010718 -0.005099 0.002551 0.000000 0.036122 0.000000
# 6 0.000000 0.000000 0.000000 0.143142 0.000000 0.396274
#
#
# Mechanical properties :
#
#
# Convention : Reuss Voigt Hill
#
# Bulk Modulus (GPa) = 14.58572 27.09746 20.84159
# Shear Modulus (GPa) = 7.85285 25.26598 16.55942
#
# Velocity S-wave (km/s) = 1.87757 3.36783 2.72649
# Velocity P-wave (km/s) = 3.35382 5.22374 4.38951
#
# Compressibility (1/GPa) = 0.06856021
#
# Stress axis : x y z
#
# Youngs Moduli (GPa) = 20.55064 70.10430 77.00679
#
# Poissons Ratio (x) = -0.58764 0.57628
# Poissons Ratio (y) = -0.17226 0.35224
# Poissons Ratio (z) = 0.15379 0.32067
#
# Static dielectric constant tensor:
#      x y z
#    x 1.812700 0.000000 -0.014200 
#    y 0.000000 1.878250 0.000000 
#    z -0.014200 0.000000 1.828410 
# 
# From -- ./inp_files/21118.got.cif
#   From: 2010.05.17/outbox.cif.g08.bks.cpg/sg12_11_cif.got.tgz:21118.got - 2010.06.03 13:09:07.
