data_PCOD9209833
_publ_section_title
;
Structure prediction by ZEFSAII (Michael W. Deem and Ramdas Pophale) SiO2 
 PCOD9209833
Probable space group: C 2/M
;
_chemical_formula_sum "Si O2"
_cell_formula_units_Z 40
_cell_length_a 11.480330
_cell_length_b 17.435928
_cell_length_c 10.936207
_cell_angle_alpha 90.000000
_cell_angle_beta 52.142308
_cell_angle_gamma 90.000000
_cell_volume 1728.378696
_symmetry_space_group_name_H-M "C 2/M"
_symmetry_group_IT_number 12
_symmetry_cell_setting 'monoclinic'
loop_
_space_group_symop_operation_xyz
x,y,z
-x,y,-z
-x,-y,-z
x,-y,z
1/2+x,1/2+y,z
1/2-x,1/2+y,-z
1/2-x,1/2-y,-z
1/2+x,1/2-y,z
loop_
_atom_site_type_symbol
_atom_site_label
_atom_site_fract_x
_atom_site_fract_y
_atom_site_fract_z
Si Si1 0.639712 0.646942 0.177402
Si Si2 0.624733 0.500000 0.023347
Si Si3 0.953174 0.282304 0.903798
Si Si4 0.160717 0.500000 0.319168
Si Si5 0.241505 0.334728 0.654479
Si Si6 0.323479 0.840960 0.584551
O O1 0.541890 0.721652 0.209604
O O2 0.652484 0.628697 0.312807
O O3 0.602574 0.574305 0.121449
O O4 0.797088 0.678686 0.026685
O O5 0.790591 0.500000 0.855636
O O6 0.500000 0.500000 0.000000
O O7 0.073310 0.347492 0.804156
O O8 0.000000 0.241323 0.000000
O O9 0.226916 0.417937 0.315488
O O10 0.000000 0.500000 0.500000
O O11 0.269126 0.243476 0.655413
O O12 0.234940 0.352528 0.516385
O O13 0.500000 0.837459 0.500000
#
# Coordination Sequence:
#
# PCOD9209833 Si02
#       6
#     8   4   8   4   8   8
#     4  10  22  37  61  92 129 159 209 275 319 377
#     4  12  28  43  67 100 127 173 216 265 331 396
#     4   9  19  35  61  89 121 164 203 266 321 373
#     4  10  26  43  66  89 133 174 211 265 327 397
#     4  10  21  38  65  93 124 166 223 265 322 378
#     4  10  22  40  63  92 126 176 220 261 319 396
#
# _framework density 23.143075
#
# number of rings (size 3 to 8) (size 9 to 14) (size 15 to 20)
#    0.000    2.000    0.000    1.800   16.800    0.800 
#    0.000    4.500    0.000    1.200    0.000    0.000 
#    0.000    0.000    0.000    0.000    0.000    0.000 
#
# Total GULP energy -111462.852532 kJ/mol
# GULP energy per Si atom -5573.142627 kJ/mol
# Density = 2.309040 g / cm^3
# Si number density = 23.143075 Si / 1000 Ang^3
#
#
#
# Elastic Constant Matrix: (Units=GPa)
#
#
# Indices 1 2 3 4 5 6 
#
# 1 125.6589 30.7598 23.0273 0.0000 26.4894 0.0000
# 2 30.7598 76.2711 -3.7103 0.0000 13.5483 0.0000
# 3 23.0273 -3.7103 59.0582 0.0000 14.1769 0.0000
# 4 0.0000 0.0000 0.0000 12.1436 0.0000 21.7984
# 5 26.4894 13.5483 14.1769 0.0000 46.8453 0.0000
# 6 0.0000 0.0000 0.0000 21.7984 0.0000 14.5578
#
#
#
# Elastic Compliance Matrix: (Units=1/GPa)
#
#
# Indices 1 2 3 4 5 6 
#
# 1 0.010243 -0.003629 -0.003325 0.000000 -0.003736 0.000000
# 2 -0.003629 0.015323 0.003180 0.000000 -0.003342 0.000000
# 3 -0.003325 0.003180 0.019624 0.000000 -0.004978 0.000000
# 4 0.000000 0.000000 0.000000 -0.048789 0.000000 0.073055
# 5 -0.003736 -0.003342 -0.004978 0.000000 0.025933 0.000000
# 6 0.000000 0.000000 0.000000 0.073055 0.000000 -0.040698
#
#
# Mechanical properties :
#
#
# Convention : Reuss Voigt Hill
#
# Bulk Modulus (GPa) = 26.56644 40.12687 33.34665
# Shear Modulus (GPa) = 2887.56172 28.77012 1458.16592
#
# Velocity S-wave (km/s) = 35.36112 3.52965 25.12834
# Velocity P-wave (km/s) = 40.97213 5.82988 29.26349
#
# Compressibility (1/GPa) = 0.03764148
#
# Stress axis : x y z
#
# Youngs Moduli (GPa) = 97.62377 65.26120 50.95875
#
# Poissons Ratio (x) = 0.23684 0.16944
# Poissons Ratio (y) = 0.35429 -0.16204
# Poissons Ratio (z) = 0.32461 -0.20752
#
# Static dielectric constant tensor:
#      x y z
#    x 1.958800 0.000000 -0.012950 
#    y 0.000000 1.816160 0.000000 
#    z -0.012950 0.000000 1.976730 
# 
# From -- ./inp_files/130886.got.cif
#   From: 2010.05.17/outbox.cif.g08.bks.cpg/sg12_66_cif.got.tgz:130886.got - 2010.06.03 13:09:07.
