data_PCOD9209236
_publ_section_title
;
Structure prediction by ZEFSAII (Michael W. Deem and Ramdas Pophale) SiO2 
 PCOD9209236
Probable space group: C 2/M
;
_chemical_formula_sum "Si O2"
_cell_formula_units_Z 56
_cell_length_a 24.763119
_cell_length_b 8.040302
_cell_length_c 15.935770
_cell_angle_alpha 90.000000
_cell_angle_beta 131.511101
_cell_angle_gamma 90.000000
_cell_volume 2375.923442
_symmetry_space_group_name_H-M "C 2/M"
_symmetry_group_IT_number 12
_symmetry_cell_setting 'monoclinic'
loop_
_space_group_symop_operation_xyz
x,y,z
-x,y,-z
-x,-y,-z
x,-y,z
1/2+x,1/2+y,z
1/2-x,1/2+y,-z
1/2-x,1/2-y,-z
1/2+x,1/2-y,z
loop_
_atom_site_type_symbol
_atom_site_label
_atom_site_fract_x
_atom_site_fract_y
_atom_site_fract_z
Si Si1 0.465105 0.681005 0.221228
Si Si2 0.030267 0.315114 0.439861
Si Si3 0.608559 0.194275 0.294123
Si Si4 0.812392 0.697746 0.127156
Si Si5 0.309938 0.808906 0.455906
Si Si6 0.766046 0.205421 0.785579
Si Si7 0.419353 0.691459 0.914825
O O1 0.464853 0.500000 0.180259
O O2 0.499144 0.676821 0.348596
O O3 0.524928 0.792708 0.237387
O O4 0.385252 0.739380 0.158813
O O5 0.006261 0.500000 0.385040
O O6 0.115634 0.314469 0.520079
O O7 0.000000 0.295956 0.500000
O O8 0.662731 0.255879 0.424463
O O9 0.607758 0.298417 0.208859
O O10 0.624590 0.000000 0.295834
O O11 0.817537 0.500000 0.138911
O O12 0.788841 0.756751 0.196732
O O13 0.750000 0.750000 0.000000
O O14 0.256869 0.732638 0.331530
O O15 0.287174 0.000000 0.448275
O O16 0.848800 0.258792 0.890907
O O17 0.765318 0.000000 0.781679
O O18 0.427568 0.500000 0.949394
O O19 0.500000 0.768525 0.000000
#
# Coordination Sequence:
#
# PCOD9209236 Si02
#       7
#     8   8   8   8   8   8   8
#     4  11  22  36  56  84 119 156 196 248 301 356
#     4   9  16  29  52  80 112 153 196 240 294 359
#     4  10  21  38  61  90 119 156 202 251 304 360
#     4  11  23  39  60  87 119 161 208 252 304 362
#     4   8  15  30  54  83 115 150 195 242 290 355
#     4   9  19  37  60  86 118 159 201 243 299 365
#     4  10  22  39  61  88 119 157 201 249 300 363
#
# _framework density 23.569783999999999
#
# number of rings (size 3 to 8) (size 9 to 14) (size 15 to 20)
#    0.000    2.286    0.000    3.857    2.000    3.429 
#    0.000    1.429    0.000    6.000    0.000    0.000 
#    0.000    0.000    0.000    0.000    0.000    0.000 
#
# Total GULP energy -156109.349690 kJ/mol
# GULP energy per Si atom -5575.333918 kJ/mol
# Density = 2.351614 g / cm^3
# Si number density = 23.569784 Si / 1000 Ang^3
#
#
#
# Elastic Constant Matrix: (Units=GPa)
#
#
# Indices 1 2 3 4 5 6 
#
# 1 62.9672 8.6415 40.7384 0.0000 1.0864 0.0000
# 2 8.6415 43.6699 8.7486 0.0000 0.0571 0.0000
# 3 40.7384 8.7486 114.3323 0.0000 13.4334 0.0000
# 4 0.0000 0.0000 0.0000 19.7847 0.0000 -1.5461
# 5 1.0864 0.0571 13.4334 0.0000 46.9463 0.0000
# 6 0.0000 0.0000 0.0000 -1.5461 0.0000 16.1156
#
#
#
# Elastic Compliance Matrix: (Units=1/GPa)
#
#
# Indices 1 2 3 4 5 6 
#
# 1 0.021070 -0.002669 -0.007499 0.000000 0.001661 0.000000
# 2 -0.002669 0.023605 -0.000889 0.000000 0.000287 0.000000
# 3 -0.007499 -0.000889 0.011865 0.000000 -0.003220 0.000000
# 4 0.000000 0.000000 0.000000 0.050926 0.000000 0.004886
# 5 0.001661 0.000287 -0.003220 0.000000 0.022184 0.000000
# 6 0.000000 0.000000 0.000000 0.004886 0.000000 0.062520
#
#
# Mechanical properties :
#
#
# Convention : Reuss Voigt Hill
#
# Bulk Modulus (GPa) = 29.04754 37.46960 33.25857
# Shear Modulus (GPa) = 22.14749 27.42539 24.78644
#
# Velocity S-wave (km/s) = 3.06871 3.41483 3.24639
# Velocity P-wave (km/s) = 4.99067 5.61070 5.30974
#
# Compressibility (1/GPa) = 0.03442632
#
# Stress axis : x y z
#
# Youngs Moduli (GPa) = 47.45993 42.36389 84.28354
#
# Poissons Ratio (x) = 0.11309 0.63201
# Poissons Ratio (y) = 0.12669 0.07492
# Poissons Ratio (z) = 0.35589 0.03766
#
# Static dielectric constant tensor:
#      x y z
#    x 1.800600 0.000000 -0.026010 
#    y 0.000000 1.865350 0.000000 
#    z -0.026010 0.000000 1.896070 
# 
# From -- ./inp_files/292575.got.cif
#   From: 2010.05.17/outbox.cif.g08.bks.cpg/sg12_147_cif.got.tgz:292575.got - 2010.06.03 13:09:07.
