data_PCOD9209718
_publ_section_title
;
Structure prediction by ZEFSAII (Michael W. Deem and Ramdas Pophale) SiO2 
 PCOD9209718
Probable space group: C 2/M
;
_chemical_formula_sum "Si O2"
_cell_formula_units_Z 48
_cell_length_a 17.889881
_cell_length_b 22.470661
_cell_length_c 5.919715
_cell_angle_alpha 90.000000
_cell_angle_beta 106.775621
_cell_angle_gamma 90.000000
_cell_volume 2278.435563
_symmetry_space_group_name_H-M "C 2/M"
_symmetry_group_IT_number 12
_symmetry_cell_setting 'monoclinic'
loop_
_space_group_symop_operation_xyz
x,y,z
-x,y,-z
-x,-y,-z
x,-y,z
1/2+x,1/2+y,z
1/2-x,1/2+y,-z
1/2-x,1/2-y,-z
1/2+x,1/2-y,z
loop_
_atom_site_type_symbol
_atom_site_label
_atom_site_fract_x
_atom_site_fract_y
_atom_site_fract_z
Si Si1 0.698042 0.655206 0.039953
Si Si2 0.908452 0.134836 0.432557
Si Si3 0.042151 0.431814 0.783919
Si Si4 0.157313 0.244982 0.368832
Si Si5 0.728784 0.430378 0.451708
Si Si6 0.163600 0.643240 0.132702
O O1 0.656002 0.706186 0.141436
O O2 0.740700 0.608991 0.240887
O O3 0.630723 0.623438 0.842108
O O4 0.764941 0.676687 0.928749
O O5 0.886429 0.202908 0.489102
O O6 0.857522 0.091424 0.546455
O O7 0.000000 0.126338 0.500000
O O8 0.072022 0.500000 0.786540
O O9 0.000000 0.420687 0.500000
O O10 0.106577 0.382483 0.895190
O O11 0.000000 0.431753 0.000000
O O12 0.250000 0.250000 0.500000
O O13 0.126990 0.310517 0.280251
O O14 0.733057 0.500000 0.419575
O O15 0.792761 0.409046 0.690778
#
# Coordination Sequence:
#
# PCOD9209718 Si02
#       6
#     8   8   8   8   8   8
#     4  10  21  38  64  89 122 164 212 260 332 386
#     4  10  23  42  62  89 131 170 209 264 334 394
#     4  10  24  45  64  91 137 181 220 276 343 403
#     4  11  20  39  62  92 123 164 209 268 324 395
#     4  10  22  38  63  96 123 160 220 270 324 398
#     4  11  22  39  65  91 125 163 222 270 330 399
#
# _framework density 21.067087000000001
#
# number of rings (size 3 to 8) (size 9 to 14) (size 15 to 20)
#    0.000    1.667    5.000    1.000    2.333    6.333 
#    3.000    0.833    0.000    0.000    0.000    0.000 
#    0.000    0.000    0.000    0.000    0.000    0.000 
#
# Total GULP energy -133690.332131 kJ/mol
# GULP energy per Si atom -5570.430505 kJ/mol
# Density = 2.101914 g / cm^3
# Si number density = 21.067087 Si / 1000 Ang^3
#
#
#
# Elastic Constant Matrix: (Units=GPa)
#
#
# Indices 1 2 3 4 5 6 
#
# 1 23.4119 8.1286 16.9357 0.0000 1.1388 0.0000
# 2 8.1286 85.0309 18.5710 0.0000 8.3236 0.0000
# 3 16.9357 18.5710 112.3667 0.0000 10.1733 0.0000
# 4 0.0000 0.0000 0.0000 26.6419 0.0000 2.9851
# 5 1.1388 8.3236 10.1733 0.0000 23.1426 0.0000
# 6 0.0000 0.0000 0.0000 2.9851 0.0000 13.8715
#
#
#
# Elastic Compliance Matrix: (Units=1/GPa)
#
#
# Indices 1 2 3 4 5 6 
#
# 1 0.048825 -0.003326 -0.006978 0.000000 0.001861 0.000000
# 2 -0.003326 0.012730 -0.001253 0.000000 -0.003864 0.000000
# 3 -0.006978 -0.001253 0.010504 0.000000 -0.003824 0.000000
# 4 0.000000 0.000000 0.000000 0.038462 0.000000 -0.008277
# 5 0.001861 -0.003864 -0.003824 0.000000 0.046190 0.000000
# 6 0.000000 0.000000 0.000000 -0.008277 0.000000 0.073872
#
#
# Mechanical properties :
#
#
# Convention : Reuss Voigt Hill
#
# Bulk Modulus (GPa) = 20.43023 34.23115 27.33069
# Shear Modulus (GPa) = 18.51776 24.54280 21.53028
#
# Velocity S-wave (km/s) = 2.96799 3.41689 3.20032
# Velocity P-wave (km/s) = 4.63293 5.64365 5.16308
#
# Compressibility (1/GPa) = 0.04894708
#
# Stress axis : x y z
#
# Youngs Moduli (GPa) = 20.48134 78.55306 95.19877
#
# Poissons Ratio (x) = 0.26124 0.66427
# Poissons Ratio (y) = 0.06811 0.11927
# Poissons Ratio (z) = 0.14291 0.09841
#
# Static dielectric constant tensor:
#      x y z
#    x 1.803950 0.000000 -0.008390 
#    y 0.000000 1.778860 0.000000 
#    z -0.008390 0.000000 1.908000 
# 
# From -- ./inp_files/16880.got.cif
#   From: 2010.05.17/outbox.cif.g08.bks.cpg/sg12_9_cif.got.tgz:16880.got - 2010.06.03 13:09:07.
