data_PCOD9209497
_publ_section_title
;
Structure prediction by ZEFSAII (Michael W. Deem and Ramdas Pophale) SiO2 
 PCOD9209497
Probable space group: C 2/M
;
_chemical_formula_sum "Si O2"
_cell_formula_units_Z 34
_cell_length_a 10.276147
_cell_length_b 7.600502
_cell_length_c 25.517257
_cell_angle_alpha 90.000000
_cell_angle_beta 46.990799
_cell_angle_gamma 90.000000
_cell_volume 1457.367201
_symmetry_space_group_name_H-M "C 2/M"
_symmetry_group_IT_number 12
_symmetry_cell_setting 'monoclinic'
loop_
_space_group_symop_operation_xyz
x,y,z
-x,y,-z
-x,-y,-z
x,-y,z
1/2+x,1/2+y,z
1/2-x,1/2+y,-z
1/2-x,1/2-y,-z
1/2+x,1/2-y,z
loop_
_atom_site_type_symbol
_atom_site_label
_atom_site_fract_x
_atom_site_fract_y
_atom_site_fract_z
Si Si1 0.197898 0.288814 0.955023
Si Si2 0.042714 0.200819 0.565245
Si Si3 0.578430 0.789103 0.286438
Si Si4 0.968385 0.790634 0.201675
Si Si5 0.500000 0.000000 0.500000
O O1 0.190815 0.500000 0.949326
O O2 0.353167 0.218752 0.874422
O O3 0.250000 0.250000 0.000000
O O4 0.000000 0.218269 0.000000
O O5 0.250000 0.250000 0.500000
O O6 0.943264 0.344816 0.557891
O O7 0.001823 0.217084 0.637790
O O8 0.009626 0.000000 0.558457
O O9 0.476721 0.741762 0.261385
O O10 0.783633 0.724593 0.227938
O O11 0.577181 0.000000 0.291202
O O12 0.968332 0.000000 0.193218
#
# Coordination Sequence:
#
# PCOD9209497 Si02
#       5
#     8   8   8   8   2
#     4  10  21  38  62  92 127 168 217 270 327 396
#     4  12  26  46  71 100 136 180 228 287 341 409
#     4  11  24  42  64  95 131 172 223 277 335 406
#     4  10  23  41  62  92 131 170 216 274 336 398
#     4  12  26  48  72 100 136 176 234 280 346 410
#
# _framework density 23.329740000000001
#
# number of rings (size 3 to 8) (size 9 to 14) (size 15 to 20)
#    0.000    1.176    2.353    2.471    3.294    3.294 
#    0.000    0.000    0.000    0.000    0.000    0.000 
#    0.000    0.000    0.000    0.000    0.000    0.000 
#
# Total GULP energy -94905.302767 kJ/mol
# GULP energy per Si atom -5582.664869 kJ/mol
# Density = 2.327664 g / cm^3
# Si number density = 23.329740 Si / 1000 Ang^3
#
#
#
# Elastic Constant Matrix: (Units=GPa)
#
#
# Indices 1 2 3 4 5 6 
#
# 1 74.1948 -14.4380 -10.0128 0.0000 -1.1483 0.0000
# 2 -14.4380 120.6735 -4.6049 0.0000 -5.8359 0.0000
# 3 -10.0128 -4.6049 93.9272 0.0000 0.9599 0.0000
# 4 0.0000 0.0000 0.0000 17.1550 0.0000 15.7708
# 5 -1.1483 -5.8359 0.9599 0.0000 43.3550 0.0000
# 6 0.0000 0.0000 0.0000 15.7708 0.0000 23.1904
#
#
#
# Elastic Compliance Matrix: (Units=1/GPa)
#
#
# Indices 1 2 3 4 5 6 
#
# 1 0.014044 0.001768 0.001578 0.000000 0.000575 0.000000
# 2 0.001768 0.008579 0.000597 0.000000 0.001188 0.000000
# 3 0.001578 0.000597 0.010845 0.000000 -0.000118 0.000000
# 4 0.000000 0.000000 0.000000 0.155524 0.000000 -0.105765
# 5 0.000575 0.001188 -0.000118 0.000000 0.023243 0.000000
# 6 0.000000 0.000000 0.000000 -0.105765 0.000000 0.115048
#
#
# Mechanical properties :
#
#
# Convention : Reuss Voigt Hill
#
# Bulk Modulus (GPa) = 24.18130 25.63155 24.90643
# Shear Modulus (GPa) = 15.00687 37.93017 26.46852
#
# Velocity S-wave (km/s) = 2.53899 4.03653 3.37195
# Velocity P-wave (km/s) = 4.35693 5.72147 5.08518
#
# Compressibility (1/GPa) = 0.04135427
#
# Stress axis : x y z
#
# Youngs Moduli (GPa) = 71.20481 116.56851 92.20651
#
# Poissons Ratio (x) = -0.20613 -0.14550
# Poissons Ratio (y) = -0.12591 -0.05504
# Poissons Ratio (z) = -0.11236 -0.06958
#
# Static dielectric constant tensor:
#      x y z
#    x 1.913400 0.000000 -0.077170 
#    y 0.000000 1.874680 0.000000 
#    z -0.077170 0.000000 1.882110 
# 
# From -- ./inp_files/357289.got.cif
#   From: 2010.05.17/outbox.cif.g08.bks.cpg/sg12_179_cif.got.tgz:357289.got - 2010.06.03 13:09:07.
