data_PCOD9209741
_publ_section_title
;
Structure prediction by ZEFSAII (Michael W. Deem and Ramdas Pophale) SiO2 
 PCOD9209741
Probable space group: C 2/M
;
_chemical_formula_sum "Si O2"
_cell_formula_units_Z 56
_cell_length_a 22.469341
_cell_length_b 9.183539
_cell_length_c 14.825346
_cell_angle_alpha 90.000000
_cell_angle_beta 68.362773
_cell_angle_gamma 90.000000
_cell_volume 2843.622744
_symmetry_space_group_name_H-M "C 2/M"
_symmetry_group_IT_number 12
_symmetry_cell_setting 'monoclinic'
loop_
_space_group_symop_operation_xyz
x,y,z
-x,y,-z
-x,-y,-z
x,-y,z
1/2+x,1/2+y,z
1/2-x,1/2+y,-z
1/2-x,1/2-y,-z
1/2+x,1/2-y,z
loop_
_atom_site_type_symbol
_atom_site_label
_atom_site_fract_x
_atom_site_fract_y
_atom_site_fract_z
Si Si1 0.201159 0.325984 0.957828
Si Si2 0.387877 0.667592 0.637906
Si Si3 0.763488 0.666936 0.268973
Si Si4 0.051723 0.324122 0.045243
Si Si5 0.453645 0.166650 0.747055
Si Si6 0.079926 0.667922 0.555032
Si Si7 0.806161 0.828068 0.413001
O O1 0.201368 0.500000 0.976389
O O2 0.225775 0.304212 0.842107
O O3 0.250000 0.250000 0.000000
O O4 0.126407 0.275732 0.000258
O O5 0.408015 0.500000 0.616813
O O6 0.311754 0.676316 0.666543
O O7 0.403458 0.726460 0.728553
O O8 0.421906 0.767727 0.544458
O O9 0.784562 0.500000 0.275693
O O10 0.800090 0.776223 0.313559
O O11 0.054051 0.500000 0.032135
O O12 0.029250 0.294278 0.160078
O O13 0.000000 0.269916 0.000000
O O14 0.514752 0.170472 0.647651
O O15 0.428725 0.000000 0.762168
O O16 0.102086 0.500000 0.538206
O O17 0.128994 0.768800 0.580919
O O18 0.750000 0.750000 0.500000
O O19 0.800642 0.000000 0.425093
#
# Coordination Sequence:
#
# PCOD9209741 Si02
#       7
#     8   8   8   8   8   8   8
#     4  10  21  38  64  92 122 159 204 259 310 364
#     4  11  22  37  58  85 121 159 195 243 299 361
#     4  10  22  38  59  88 120 159 200 243 302 359
#     4   9  19  37  62  90 118 155 207 259 307 357
#     4  10  22  38  60  87 116 155 201 249 299 353
#     4  11  23  38  59  86 119 157 199 246 294 355
#     4  12  24  39  60  87 119 157 197 244 298 357
#
# _framework density 19.693189
#
# number of rings (size 3 to 8) (size 9 to 14) (size 15 to 20)
#    0.000    1.571    1.429    3.429    2.000    4.000 
#    0.000    0.000    0.000    0.857    0.000    0.000 
#    0.000    0.000    0.000    0.000    0.000    0.000 
#
# Total GULP energy -156379.317957 kJ/mol
# GULP energy per Si atom -5584.975641 kJ/mol
# Density = 1.964837 g / cm^3
# Si number density = 19.693189 Si / 1000 Ang^3
#
#
#
# Elastic Constant Matrix: (Units=GPa)
#
#
# Indices 1 2 3 4 5 6 
#
# 1 106.9120 45.5298 44.7056 0.0000 26.3852 0.0000
# 2 45.5298 104.5810 48.4834 0.0000 20.3705 0.0000
# 3 44.7056 48.4834 107.3867 0.0000 14.6614 0.0000
# 4 0.0000 0.0000 0.0000 21.5495 0.0000 12.4604
# 5 26.3852 20.3705 14.6614 0.0000 35.5420 0.0000
# 6 0.0000 0.0000 0.0000 12.4604 0.0000 28.8478
#
#
#
# Elastic Compliance Matrix: (Units=1/GPa)
#
#
# Indices 1 2 3 4 5 6 
#
# 1 0.013837 -0.003058 -0.003408 0.000000 -0.007113 0.000000
# 2 -0.003058 0.013654 -0.004380 0.000000 -0.003749 0.000000
# 3 -0.003408 -0.004380 0.012738 0.000000 -0.000214 0.000000
# 4 0.000000 0.000000 0.000000 0.061853 0.000000 -0.026717
# 5 -0.007113 -0.003749 -0.000214 0.000000 0.035653 0.000000
# 6 0.000000 0.000000 0.000000 -0.026717 0.000000 0.046205
#
#
# Mechanical properties :
#
#
# Convention : Reuss Voigt Hill
#
# Bulk Modulus (GPa) = 53.94982 66.25750 60.10366
# Shear Modulus (GPa) = 23.60613 29.19859 26.40236
#
# Velocity S-wave (km/s) = 3.46597 3.85473 3.66551
# Velocity P-wave (km/s) = 6.59333 7.31641 6.96426
#
# Compressibility (1/GPa) = 0.01853574
#
# Stress axis : x y z
#
# Youngs Moduli (GPa) = 72.27256 73.23914 78.50783
#
# Poissons Ratio (x) = 0.22398 0.26758
# Poissons Ratio (y) = 0.22102 0.34383
# Poissons Ratio (z) = 0.24633 0.32076
#
# Static dielectric constant tensor:
#      x y z
#    x 1.700730 0.000000 -0.001880 
#    y 0.000000 1.673490 0.000000 
#    z -0.001880 0.000000 1.695960 
# 
# From -- ./inp_files/237376.got.cif
#   From: 2010.05.17/outbox.cif.g08.bks.cpg/sg12_119_cif.got.tgz:237376.got - 2010.06.03 13:09:07.
