data_PCOD9209025
_publ_section_title
;
Structure prediction by ZEFSAII (Michael W. Deem and Ramdas Pophale) SiO2 
 PCOD9209025
Probable space group: C 2/M
;
_chemical_formula_sum "Si O2"
_cell_formula_units_Z 58
_cell_length_a 25.012607
_cell_length_b 7.560466
_cell_length_c 29.161657
_cell_angle_alpha 90.000000
_cell_angle_beta 153.647101
_cell_angle_gamma 90.000000
_cell_volume 2447.955893
_symmetry_space_group_name_H-M "C 2/M"
_symmetry_group_IT_number 12
_symmetry_cell_setting 'monoclinic'
loop_
_space_group_symop_operation_xyz
x,y,z
-x,y,-z
-x,-y,-z
x,-y,z
1/2+x,1/2+y,z
1/2-x,1/2+y,-z
1/2-x,1/2-y,-z
1/2+x,1/2-y,z
loop_
_atom_site_type_symbol
_atom_site_label
_atom_site_fract_x
_atom_site_fract_y
_atom_site_fract_z
Si Si1 0.001139 0.199497 0.377293
Si Si2 0.259129 0.297219 0.601080
Si Si3 0.500000 0.000000 0.000000
Si Si4 0.544928 0.798416 0.309785
Si Si5 0.205282 0.711170 0.914549
Si Si6 0.869471 0.795685 0.776387
Si Si7 0.902928 0.216479 0.989666
Si Si8 0.110834 0.215114 0.618092
O O1 0.134304 0.197098 0.501797
O O2 0.015344 0.296992 0.340584
O O3 0.915570 0.275764 0.350522
O O4 0.963103 0.000000 0.337456
O O5 0.228933 0.500000 0.589861
O O6 0.332982 0.296241 0.610830
O O7 0.346818 0.223167 0.708025
O O8 0.408263 0.841110 0.949429
O O9 0.428661 0.716346 0.195877
O O10 0.563153 0.000000 0.309248
O O11 0.195163 0.500000 0.902709
O O12 0.250000 0.750000 0.000000
O O13 0.295695 0.760867 0.942911
O O14 0.739370 0.779029 0.699649
O O15 0.974626 0.724061 0.889187
O O16 0.904415 0.000000 0.797106
O O17 0.903134 0.000000 0.981348
O O18 0.000000 0.269999 0.500000
O O19 0.111742 0.000000 0.618804
#
# Coordination Sequence:
#
# PCOD9209025 Si02
#       8
#     8   8   2   8   8   8   8   8
#     4  11  23  40  60  88 127 171 209 262 316 378
#     4  11  22  39  63  92 127 168 210 262 320 389
#     4  12  26  44  72 102 130 196 230 274 356 412
#     4  11  24  41  62  93 125 168 212 258 328 390
#     4  10  23  44  71  98 134 171 220 289 346 406
#     4  10  22  39  65  94 127 167 212 267 327 384
#     4  10  24  47  68 102 141 176 231 288 344 413
#     4  10  21  38  60  90 127 165 211 266 315 372
#
# _framework density 23.693238000000001
#
# number of rings (size 3 to 8) (size 9 to 14) (size 15 to 20)
#    0.000    1.517    1.379    2.690    1.931    5.241 
#    2.483    2.759    0.000    0.000    0.000    0.000 
#    0.000    0.000    0.000    0.000    0.000    0.000 
#
# Total GULP energy -161856.780502 kJ/mol
# GULP energy per Si atom -5581.268293 kJ/mol
# Density = 2.363931 g / cm^3
# Si number density = 23.693238 Si / 1000 Ang^3
#
#
#
# Elastic Constant Matrix: (Units=GPa)
#
#
# Indices 1 2 3 4 5 6 
#
# 1 128.4182 15.7040 -16.1441 -0.0011 7.0628 -0.0012
# 2 15.7040 90.1403 -6.2820 -0.0027 -0.7891 0.0005
# 3 -16.1441 -6.2820 38.6357 -0.0003 6.5577 -0.0004
# 4 -0.0011 -0.0027 -0.0003 7.2063 -0.0008 -0.2558
# 5 7.0628 -0.7891 6.5577 -0.0008 29.4689 -0.0007
# 6 -0.0012 0.0005 -0.0004 -0.2558 -0.0007 14.2920
#
#
#
# Elastic Compliance Matrix: (Units=1/GPa)
#
#
# Indices 1 2 3 4 5 6 
#
# 1 0.008592 -0.001252 0.003889 0.000001 -0.002958 0.000001
# 2 -0.001252 0.011404 0.001277 0.000004 0.000321 0.000000
# 3 0.003889 0.001277 0.028962 0.000001 -0.007343 0.000001
# 4 0.000001 0.000004 0.000001 0.138855 0.000003 0.002485
# 5 -0.002958 0.000321 -0.007343 0.000003 0.036286 0.000001
# 6 0.000001 0.000000 0.000001 0.002485 0.000001 0.070014
#
#
# Mechanical properties :
#
#
# Convention : Reuss Voigt Hill
#
# Bulk Modulus (GPa) = 17.61060 27.08331 22.34696
# Shear Modulus (GPa) = 16.38207 27.78788 22.08497
#
# Velocity S-wave (km/s) = 2.63235 3.42836 3.05638
# Velocity P-wave (km/s) = 4.08508 5.20837 4.68055
#
# Compressibility (1/GPa) = 0.05678398
#
# Stress axis : x y z
#
# Youngs Moduli (GPa) = 116.39179 87.69113 34.52857
#
# Poissons Ratio (x) = 0.10976 -0.13427
# Poissons Ratio (y) = 0.14569 -0.04408
# Poissons Ratio (z) = -0.45260 -0.11195
#
# Static dielectric constant tensor:
#      x y z
#    x 1.892230 0.000000 -0.048000 
#    y 0.000000 1.852060 0.000000 
#    z -0.048000 0.000000 1.954590 
# 
# From -- ./inp_files/367578.got.cif
#   From: 2010.05.17/outbox.cif.g08.bks.cpg/sg12_184_cif.got.tgz:367578.got - 2010.06.03 13:09:07.
