data_PCOD9209856
_publ_section_title
;
Structure prediction by ZEFSAII (Michael W. Deem and Ramdas Pophale) SiO2 
 PCOD9209856
Probable space group: C 2/M
;
_chemical_formula_sum "Si O2"
_cell_formula_units_Z 40
_cell_length_a 9.884156
_cell_length_b 18.823192
_cell_length_c 10.621635
_cell_angle_alpha 90.000000
_cell_angle_beta 117.207728
_cell_angle_gamma 90.000000
_cell_volume 1757.515837
_symmetry_space_group_name_H-M "C 2/M"
_symmetry_group_IT_number 12
_symmetry_cell_setting 'monoclinic'
loop_
_space_group_symop_operation_xyz
x,y,z
-x,y,-z
-x,-y,-z
x,-y,z
1/2+x,1/2+y,z
1/2-x,1/2+y,-z
1/2-x,1/2-y,-z
1/2+x,1/2-y,z
loop_
_atom_site_type_symbol
_atom_site_label
_atom_site_fract_x
_atom_site_fract_y
_atom_site_fract_z
Si Si1 0.839373 0.084965 0.627601
Si Si2 0.842570 0.586146 0.207209
Si Si3 0.354021 0.582546 0.106213
Si Si4 0.103498 0.653083 0.154685
Si Si5 0.326886 0.701939 0.430985
O O1 0.705678 0.101734 0.670455
O O2 0.821249 0.122331 0.486067
O O3 0.997315 0.111715 0.759552
O O4 0.845633 0.000000 0.615247
O O5 0.859128 0.500000 0.203313
O O6 0.992396 0.623424 0.215729
O O7 0.703354 0.608471 0.054586
O O8 0.389875 0.500000 0.103137
O O9 0.205865 0.592541 0.131303
O O10 0.228632 0.705447 0.263876
O O11 0.000000 0.684404 0.000000
O O12 0.500000 0.723219 0.500000
O O13 0.250000 0.750000 0.500000
#
# Coordination Sequence:
#
# PCOD9209856 Si02
#       5
#     8   8   8   8   8
#     4  10  21  38  65  98 130 169 217 266 318 378
#     4   9  18  32  58  98 138 170 206 261 323 376
#     4   9  16  32  59  94 134 171 210 261 318 377
#     4  10  21  40  64  92 126 168 219 259 313 382
#     4  12  28  48  68  92 130 172 212 266 328 384
#
# _framework density 22.759395999999999
#
# number of rings (size 3 to 8) (size 9 to 14) (size 15 to 20)
#    0.000    2.000    2.000    1.200    2.800    6.800 
#    0.000    5.000    0.000    0.000    0.000    0.000 
#    0.000    0.000    0.000    0.000    0.000    0.000 
#
# Total GULP energy -111714.864439 kJ/mol
# GULP energy per Si atom -5585.743222 kJ/mol
# Density = 2.270759 g / cm^3
# Si number density = 22.759396 Si / 1000 Ang^3
#
#
#
# Elastic Constant Matrix: (Units=GPa)
#
#
# Indices 1 2 3 4 5 6 
#
# 1 115.1336 7.1208 34.9334 0.0000 16.2240 0.0000
# 2 7.1208 15.7838 7.1012 0.0000 9.3252 0.0000
# 3 34.9334 7.1012 102.3018 0.0000 31.9410 0.0000
# 4 0.0000 0.0000 0.0000 0.5714 0.0000 -13.0014
# 5 16.2240 9.3252 31.9410 0.0000 26.5865 0.0000
# 6 0.0000 0.0000 0.0000 -13.0014 0.0000 14.6388
#
#
#
# Elastic Compliance Matrix: (Units=1/GPa)
#
#
# Indices 1 2 3 4 5 6 
#
# 1 0.009899 -0.001956 -0.002517 0.000000 -0.002331 0.000000
# 2 -0.001956 0.082020 0.005735 0.000000 -0.034465 0.000000
# 3 -0.002517 0.005735 0.016619 0.000000 -0.020442 0.000000
# 4 0.000000 0.000000 0.000000 -0.091109 0.000000 -0.080919
# 5 -0.002331 -0.034465 -0.020442 0.000000 0.075682 0.000000
# 6 0.000000 0.000000 0.000000 -0.080919 0.000000 -0.003556
#
#
# Mechanical properties :
#
#
# Convention : Reuss Voigt Hill
#
# Bulk Modulus (GPa) = 9.00394 36.83668 22.92031
# Shear Modulus (GPa) = 40.30645 20.63026 30.46836
#
# Velocity S-wave (km/s) = 4.21287 3.01400 3.66282
# Velocity P-wave (km/s) = 5.25634 5.32284 5.28969
#
# Compressibility (1/GPa) = 0.11106244
#
# Stress axis : x y z
#
# Youngs Moduli (GPa) = 101.02466 12.19211 60.17378
#
# Poissons Ratio (x) = 0.02385 0.15143
# Poissons Ratio (y) = 0.19764 -0.34513
# Poissons Ratio (z) = 0.25424 -0.06993
#
# Static dielectric constant tensor:
#      x y z
#    x 1.835240 0.000000 0.030570 
#    y 0.000000 1.841880 0.000000 
#    z 0.030570 0.000000 1.762130 
# 
# From -- ./inp_files/122187.got.cif
#   From: 2010.05.17/outbox.cif.g08.bks.cpg/sg12_62_cif.got.tgz:122187.got - 2010.06.03 13:09:07.
