data_PCOD9209239
_publ_section_title
;
Structure prediction by ZEFSAII (Michael W. Deem and Ramdas Pophale) SiO2 
 PCOD9209239
Probable space group: C 2/M
;
_chemical_formula_sum "Si O2"
_cell_formula_units_Z 48
_cell_length_a 20.828669
_cell_length_b 8.833398
_cell_length_c 21.566503
_cell_angle_alpha 90.000000
_cell_angle_beta 138.259209
_cell_angle_gamma 90.000000
_cell_volume 2641.726691
_symmetry_space_group_name_H-M "C 2/M"
_symmetry_group_IT_number 12
_symmetry_cell_setting 'monoclinic'
loop_
_space_group_symop_operation_xyz
x,y,z
-x,y,-z
-x,-y,-z
x,-y,z
1/2+x,1/2+y,z
1/2-x,1/2+y,-z
1/2-x,1/2-y,-z
1/2+x,1/2-y,z
loop_
_atom_site_type_symbol
_atom_site_label
_atom_site_fract_x
_atom_site_fract_y
_atom_site_fract_z
Si Si1 0.969611 0.818339 0.285233
Si Si2 0.218733 0.318729 0.787056
Si Si3 0.986610 0.680952 0.816859
Si Si4 0.078673 0.817949 0.004141
Si Si5 0.763702 0.682142 0.686407
Si Si6 0.672191 0.317567 0.491200
O O1 0.874637 0.752011 0.248346
O O2 0.982388 0.756890 0.224952
O O3 0.065334 0.773309 0.392743
O O4 0.964475 0.000000 0.280585
O O5 0.211570 0.500000 0.781853
O O6 0.231263 0.259855 0.726190
O O7 0.315783 0.277058 0.894687
O O8 0.993126 0.500000 0.815674
O O9 0.050532 0.738488 0.920050
O O10 0.875057 0.720096 0.751471
O O11 0.074385 0.000000 0.992737
O O12 0.000000 0.777350 0.000000
O O13 0.757496 0.500000 0.689269
O O14 0.699894 0.727314 0.581035
O O15 0.679012 0.500000 0.493067
O O16 0.750000 0.250000 0.500000
#
# Coordination Sequence:
#
# PCOD9209239 Si02
#       6
#     8   8   8   8   8   8
#     4  11  24  41  62  88 124 163 198 245 302 355
#     4  11  24  41  62  88 122 160 199 249 302 354
#     4  11  22  37  63  93 121 155 199 249 297 355
#     4  10  21  39  62  88 119 156 201 249 298 356
#     4  10  21  38  61  90 122 155 197 246 297 357
#     4  10  21  38  62  90 120 158 200 245 295 352
#
# _framework density 18.169933
#
# number of rings (size 3 to 8) (size 9 to 14) (size 15 to 20)
#    0.000    1.500    3.333    1.500    0.000    5.000 
#    0.000    3.333    0.000    0.000    0.000    0.000 
#    0.000    0.000    0.000    0.000    0.000    0.000 
#
# Total GULP energy -134140.784106 kJ/mol
# GULP energy per Si atom -5589.199338 kJ/mol
# Density = 1.812858 g / cm^3
# Si number density = 18.169933 Si / 1000 Ang^3
#
#
#
# Elastic Constant Matrix: (Units=GPa)
#
#
# Indices 1 2 3 4 5 6 
#
# 1 187.5648 66.8550 122.9958 0.0000 1.7296 0.0000
# 2 66.8550 41.4883 64.3359 0.0000 -0.0147 0.0000
# 3 122.9958 64.3359 203.0130 0.0000 -7.8000 0.0000
# 4 0.0000 0.0000 0.0000 23.9737 0.0000 -1.4224
# 5 1.7296 -0.0147 -7.8000 0.0000 36.9723 0.0000
# 6 0.0000 0.0000 0.0000 -1.4224 0.0000 37.9329
#
#
#
# Elastic Compliance Matrix: (Units=1/GPa)
#
#
# Indices 1 2 3 4 5 6 
#
# 1 0.013169 -0.017264 -0.002552 0.000000 -0.001161 0.000000
# 2 -0.017264 0.070398 -0.011914 0.000000 -0.001678 0.000000
# 3 -0.002552 -0.011914 0.010336 0.000000 0.002295 0.000000
# 4 0.000000 0.000000 0.000000 0.041805 0.000000 0.001568
# 5 -0.001161 -0.001678 0.002295 0.000000 0.027585 0.000000
# 6 0.000000 0.000000 0.000000 0.001568 0.000000 0.026421
#
#
# Mechanical properties :
#
#
# Convention : Reuss Voigt Hill
#
# Bulk Modulus (GPa) = 32.84967 104.49328 68.67147
# Shear Modulus (GPa) = 18.98808 31.63442 25.31125
#
# Velocity S-wave (km/s) = 3.23620 4.17709 3.73638
# Velocity P-wave (km/s) = 5.66413 8.99433 7.51599
#
# Compressibility (1/GPa) = 0.03044171
#
# Stress axis : x y z
#
# Youngs Moduli (GPa) = 75.93398 14.20503 96.74889
#
# Poissons Ratio (x) = 0.24523 0.24693
# Poissons Ratio (y) = 1.31092 1.15271
# Poissons Ratio (z) = 0.19380 0.16925
#
# Static dielectric constant tensor:
#      x y z
#    x 1.576040 0.000000 0.007920 
#    y 0.000000 1.606720 0.000000 
#    z 0.007920 0.000000 1.614180 
# 
# From -- ./inp_files/229809.got.cif
#   From: 2010.05.17/outbox.cif.g08.bks.cpg/sg12_115_cif.got.tgz:229809.got - 2010.06.03 13:09:07.
