data_PCOD9209649
_publ_section_title
;
Structure prediction by ZEFSAII (Michael W. Deem and Ramdas Pophale) SiO2 
 PCOD9209649
Probable space group: C 2/M
;
_chemical_formula_sum "Si O2"
_cell_formula_units_Z 56
_cell_length_a 10.407718
_cell_length_b 18.766245
_cell_length_c 14.444188
_cell_angle_alpha 90.000000
_cell_angle_beta 71.513466
_cell_angle_gamma 90.000000
_cell_volume 2675.572684
_symmetry_space_group_name_H-M "C 2/M"
_symmetry_group_IT_number 12
_symmetry_cell_setting 'monoclinic'
loop_
_space_group_symop_operation_xyz
x,y,z
-x,y,-z
-x,-y,-z
x,-y,z
1/2+x,1/2+y,z
1/2-x,1/2+y,-z
1/2-x,1/2-y,-z
1/2+x,1/2-y,z
loop_
_atom_site_type_symbol
_atom_site_label
_atom_site_fract_x
_atom_site_fract_y
_atom_site_fract_z
Si Si1 0.483760 0.579334 0.210687
Si Si2 0.415855 0.582276 0.608179
Si Si3 0.133763 0.658404 0.711060
Si Si4 0.887926 0.697370 0.875567
Si Si5 0.370707 0.647863 0.967782
Si Si6 0.232048 0.191816 0.723554
Si Si7 0.935202 0.580466 0.614792
O O1 0.440571 0.500000 0.193918
O O2 0.496185 0.582052 0.318538
O O3 0.621517 0.599579 0.125924
O O4 0.382515 0.641969 0.206903
O O5 0.500000 0.610383 0.500000
O O6 0.379687 0.500000 0.593867
O O7 0.280556 0.622931 0.669561
O O8 0.165415 0.741962 0.686928
O O9 0.043574 0.614150 0.659856
O O10 0.036060 0.663288 0.824229
O O11 0.894728 0.769737 0.932512
O O12 0.828064 0.716536 0.786673
O O13 0.774411 0.647523 0.948573
O O14 0.500000 0.624906 0.000000
O O15 0.315105 0.137500 0.641353
O O16 0.894089 0.500000 0.652504
O O17 0.000000 0.576181 0.500000
#
# Coordination Sequence:
#
# PCOD9209649 Si02
#       7
#     8   8   8   8   8   8   8
#     4  11  23  40  62  90 129 168 213 266 318 391
#     4  10  24  44  66  90 124 173 217 262 326 392
#     4  11  22  39  67  92 127 161 222 275 318 384
#     4  10  21  38  63  93 128 165 206 268 327 380
#     4  11  20  38  63  93 127 168 213 254 325 389
#     4  11  22  40  61  94 126 169 212 270 321 380
#     4  10  24  42  61  89 129 173 214 267 337 396
#
# _framework density 20.930098000000001
#
# number of rings (size 3 to 8) (size 9 to 14) (size 15 to 20)
#    0.000    1.429    2.857    1.714    4.000    2.571 
#    0.000    1.429    0.000    1.714    0.000    0.000 
#    0.000    0.000    0.000    0.000    0.000    0.000 
#
# Total GULP energy -156132.610235 kJ/mol
# GULP energy per Si atom -5576.164651 kJ/mol
# Density = 2.088246 g / cm^3
# Si number density = 20.930098 Si / 1000 Ang^3
#
#
#
# Elastic Constant Matrix: (Units=GPa)
#
#
# Indices 1 2 3 4 5 6 
#
# 1 49.8646 26.0532 25.3631 0.0000 -32.5986 0.0000
# 2 26.0532 89.2423 26.2974 0.0000 -14.7348 0.0000
# 3 25.3631 26.2974 104.1192 0.0000 -21.8514 0.0000
# 4 0.0000 0.0000 0.0000 23.6383 0.0000 15.9900
# 5 -32.5986 -14.7348 -21.8514 0.0000 31.9506 0.0000
# 6 0.0000 0.0000 0.0000 15.9900 0.0000 -19.2145
#
#
#
# Elastic Compliance Matrix: (Units=1/GPa)
#
#
# Indices 1 2 3 4 5 6 
#
# 1 0.066126 -0.008702 -0.000693 0.000000 0.062980 0.000000
# 2 -0.008702 0.013724 -0.002197 0.000000 -0.004051 0.000000
# 3 -0.000693 -0.002197 0.011637 0.000000 0.006239 0.000000
# 4 0.000000 0.000000 0.000000 0.027067 0.000000 0.022525
# 5 0.062980 -0.004051 0.006239 0.000000 0.097954 0.000000
# 6 0.000000 0.000000 0.000000 0.022525 0.000000 -0.033299
#
#
# Mechanical properties :
#
#
# Convention : Reuss Voigt Hill
#
# Bulk Modulus (GPa) = 14.64026 44.29485 29.46756
# Shear Modulus (GPa) = 21.81871 18.30902 20.06386
#
# Velocity S-wave (km/s) = 3.23221 2.96086 3.09951
# Velocity P-wave (km/s) = 4.57598 5.73569 5.18834
#
# Compressibility (1/GPa) = 0.06830479
#
# Stress axis : x y z
#
# Youngs Moduli (GPa) = 15.12268 72.86369 85.93010
#
# Poissons Ratio (x) = 0.63405 0.05952
# Poissons Ratio (y) = 0.13160 0.18878
# Poissons Ratio (z) = 0.01047 0.16007
#
# Static dielectric constant tensor:
#      x y z
#    x 1.816410 0.000000 -0.036360 
#    y 0.000000 1.740740 0.000000 
#    z -0.036360 0.000000 1.798190 
# 
# From -- ./inp_files/206562.got.cif
#   From: 2010.05.17/outbox.cif.g08.bks.cpg/sg12_104_cif.got.tgz:206562.got - 2010.06.03 13:09:07.
