data_PCOD9209985
_publ_section_title
;
Structure prediction by ZEFSAII (Michael W. Deem and Ramdas Pophale) SiO2 
 PCOD9209985
Probable space group: C 2/M
;
_chemical_formula_sum "Si O2"
_cell_formula_units_Z 40
_cell_length_a 7.517472
_cell_length_b 28.596385
_cell_length_c 10.336894
_cell_angle_alpha 90.000000
_cell_angle_beta 126.678766
_cell_angle_gamma 90.000000
_cell_volume 1782.156339
_symmetry_space_group_name_H-M "C 2/M"
_symmetry_group_IT_number 12
_symmetry_cell_setting 'monoclinic'
loop_
_space_group_symop_operation_xyz
x,y,z
-x,y,-z
-x,-y,-z
x,-y,z
1/2+x,1/2+y,z
1/2-x,1/2+y,-z
1/2-x,1/2-y,-z
1/2+x,1/2-y,z
loop_
_atom_site_type_symbol
_atom_site_label
_atom_site_fract_x
_atom_site_fract_y
_atom_site_fract_z
Si Si1 0.544429 0.284724 0.384037
Si Si2 0.741878 0.895678 0.845670
Si Si3 0.643009 0.556377 0.367078
Si Si4 0.675490 0.944202 0.265610
Si Si5 0.199275 0.203690 0.183010
O O1 0.500000 0.310542 0.500000
O O2 0.343729 0.249804 0.263454
O O3 0.604152 0.312090 0.281336
O O4 0.750000 0.250000 0.500000
O O5 0.742695 0.918922 0.703971
O O6 0.564726 0.921971 0.857558
O O7 0.671151 0.841337 0.811267
O O8 0.000000 0.897509 0.000000
O O9 0.653364 0.500000 0.352620
O O10 0.752448 0.566064 0.554116
O O11 0.383972 0.570472 0.268565
O O12 0.657370 0.000000 0.245776
O O13 0.000000 0.214032 0.000000
#
# Coordination Sequence:
#
# PCOD9209985 Si02
#       5
#     8   8   8   8   8
#     4   9  19  37  60  85 107 140 190 239 277 336
#     4  11  23  36  54  86 119 151 189 232 284 345
#     4   9  19  37  58  82 111 151 198 238 285 337
#     4   9  19  37  59  82 112 152 196 240 286 336
#     4  10  21  39  58  82 118 154 186 227 294 359
#
# _framework density 22.444721999999999
#
# number of rings (size 3 to 8) (size 9 to 14) (size 15 to 20)
#    0.000    2.400    0.000    3.000    0.000    8.800 
#   10.800    2.000    0.000    0.000    0.000    0.000 
#    0.000    0.000    0.000    0.000    0.000    0.000 
#
# Total GULP energy -111727.305290 kJ/mol
# GULP energy per Si atom -5586.365264 kJ/mol
# Density = 2.239364 g / cm^3
# Si number density = 22.444722 Si / 1000 Ang^3
#
#
#
# Elastic Constant Matrix: (Units=GPa)
#
#
# Indices 1 2 3 4 5 6 
#
# 1 76.8871 8.9554 8.7124 0.0000 17.4142 0.0000
# 2 8.9554 30.0842 7.1785 0.0000 13.8523 0.0000
# 3 8.7124 7.1785 64.2771 0.0000 2.1269 0.0000
# 4 0.0000 0.0000 0.0000 -333.6304 0.0000 -230.9010
# 5 17.4142 13.8523 2.1269 0.0000 26.9145 0.0000
# 6 0.0000 0.0000 0.0000 -230.9010 0.0000 -153.7589
#
#
#
# Elastic Compliance Matrix: (Units=1/GPa)
#
#
# Indices 1 2 3 4 5 6 
#
# 1 0.015442 0.000485 -0.001813 0.000000 -0.010098 0.000000
# 2 0.000485 0.044703 -0.004298 0.000000 -0.022982 0.000000
# 3 -0.001813 -0.004298 0.016214 0.000000 0.002104 0.000000
# 4 0.000000 0.000000 0.000000 0.076245 0.000000 -0.114498
# 5 -0.010098 -0.022982 0.002104 0.000000 0.055350 0.000000
# 6 0.000000 0.000000 0.000000 -0.114498 0.000000 0.165439
#
#
# Mechanical properties :
#
#
# Convention : Reuss Voigt Hill
#
# Bulk Modulus (GPa) = 15.35909 24.54900 19.95404
# Shear Modulus (GPa) = 12.30476 -82.33480 -35.01502
#
# Velocity S-wave (km/s) = 2.34396 -6.06325 -3.95404
# Velocity P-wave (km/s) = 3.76609 6.16896 3.45489
#
# Compressibility (1/GPa) = 0.06510803
#
# Stress axis : x y z
#
# Youngs Moduli (GPa) = 64.75816 22.36980 61.67598
#
# Poissons Ratio (x) = -0.01086 0.11183
# Poissons Ratio (y) = -0.03144 0.26507
# Poissons Ratio (z) = 0.11742 0.09614
#
# Static dielectric constant tensor:
#      x y z
#    x 1.901310 0.000000 0.002420 
#    y 0.000000 1.800880 0.000000 
#    z 0.002420 0.000000 1.853500 
# 
# From -- ./inp_files/125464.got.cif
#   From: 2010.05.17/outbox.cif.g08.bks.cpg/sg12_63_cif.got.tgz:125464.got - 2010.06.03 13:09:07.
