data_PCOD9209440
_publ_section_title
;
Structure prediction by ZEFSAII (Michael W. Deem and Ramdas Pophale) SiO2 
 PCOD9209440
Probable space group: C 2/M
;
_chemical_formula_sum "Si O2"
_cell_formula_units_Z 32
_cell_length_a 22.726754
_cell_length_b 10.042077
_cell_length_c 10.027118
_cell_angle_alpha 90.000000
_cell_angle_beta 142.929534
_cell_angle_gamma 90.000000
_cell_volume 1379.456494
_symmetry_space_group_name_H-M "C 2/M"
_symmetry_group_IT_number 12
_symmetry_cell_setting 'monoclinic'
loop_
_space_group_symop_operation_xyz
x,y,z
-x,y,-z
-x,-y,-z
x,-y,z
1/2+x,1/2+y,z
1/2-x,1/2+y,-z
1/2-x,1/2-y,-z
1/2+x,1/2-y,z
loop_
_atom_site_type_symbol
_atom_site_label
_atom_site_fract_x
_atom_site_fract_y
_atom_site_fract_z
Si Si1 0.259543 0.650550 0.891966
Si Si2 0.419057 0.717674 0.757390
Si Si3 0.206912 0.356803 0.268697
Si Si4 0.533862 0.850928 0.420781
O O1 0.298688 0.500000 0.988044
O O2 0.306950 0.734998 0.858128
O O3 0.149223 0.633977 0.643605
O O4 0.250000 0.750000 0.000000
O O5 0.317582 0.647916 0.528947
O O6 0.372187 0.839462 0.757466
O O7 0.475733 0.765047 0.728405
O O8 0.500000 0.652640 0.000000
O O9 0.196446 0.500000 0.182435
O O10 0.500000 0.789679 0.500000
O O11 0.490199 0.000000 0.331530
#
# Coordination Sequence:
#
# PCOD9209440 Si02
#       4
#     8   8   8   8
#     4  10  21  38  62  90 124 164 206 255 316 377
#     4  10  22  38  62  92 127 167 214 262 315 375
#     4  10  22  40  63  92 128 165 211 265 319 376
#     4   9  19  35  57  86 121 154 202 259 305 364
#
# _framework density 23.197541999999999
#
# number of rings (size 3 to 8) (size 9 to 14) (size 15 to 20)
#    0.000    2.250    0.000    1.500    3.500    8.500 
#    0.000    0.000    0.000    3.750    0.000    0.000 
#    0.000    0.000    0.000    0.000    0.000    0.000 
#
# Total GULP energy -89208.574460 kJ/mol
# GULP energy per Si atom -5575.535904 kJ/mol
# Density = 2.314474 g / cm^3
# Si number density = 23.197542 Si / 1000 Ang^3
#
#
#
# Elastic Constant Matrix: (Units=GPa)
#
#
# Indices 1 2 3 4 5 6 
#
# 1 141.8140 38.1332 37.5160 0.0000 -17.5892 0.0000
# 2 38.1332 154.1502 39.6042 0.0000 -20.4585 0.0000
# 3 37.5160 39.6042 127.3723 0.0000 -2.5590 0.0000
# 4 0.0000 0.0000 0.0000 -27.0502 0.0000 7.6960
# 5 -17.5892 -20.4585 -2.5590 0.0000 48.3473 0.0000
# 6 0.0000 0.0000 0.0000 7.6960 0.0000 4.0538
#
#
#
# Elastic Compliance Matrix: (Units=1/GPa)
#
#
# Indices 1 2 3 4 5 6 
#
# 1 0.008195 -0.001201 -0.001993 0.000000 0.002368 0.000000
# 2 -0.001201 0.007648 -0.001970 0.000000 0.002695 0.000000
# 3 -0.001993 -0.001970 0.009029 0.000000 -0.001081 0.000000
# 4 0.000000 0.000000 0.000000 -0.024003 0.000000 0.045569
# 5 0.002368 0.002695 -0.001081 0.000000 0.022628 0.000000
# 6 0.000000 0.000000 0.000000 0.045569 0.000000 0.160169
#
#
# Mechanical properties :
#
#
# Convention : Reuss Voigt Hill
#
# Bulk Modulus (GPa) = 68.75584 72.64927 70.70255
# Shear Modulus (GPa) = 25.14559 25.60905 25.37732
#
# Velocity S-wave (km/s) = 3.29595 3.32619 3.31110
# Velocity P-wave (km/s) = 6.64741 6.79242 6.72031
#
# Compressibility (1/GPa) = 0.01454422
#
# Stress axis : x y z
#
# Youngs Moduli (GPa) = 122.02081 130.75032 110.75632
#
# Poissons Ratio (x) = 0.15704 0.22072
# Poissons Ratio (y) = 0.14656 0.21821
# Poissons Ratio (z) = 0.24316 0.25760
#
# Static dielectric constant tensor:
#      x y z
#    x 1.878120 0.000000 -0.007530 
#    y 0.000000 1.912070 0.000000 
#    z -0.007530 0.000000 1.922810 
# 
# From -- ./inp_files/83870.got.cif
#   From: 2010.05.17/outbox.cif.g08.bks.cpg/sg12_42_cif.got.tgz:83870.got - 2010.06.03 13:09:07.
