data_PCOD9209668
_publ_section_title
;
Structure prediction by ZEFSAII (Michael W. Deem and Ramdas Pophale) SiO2 
 PCOD9209668
Probable space group: C 2/M
;
_chemical_formula_sum "Si O2"
_cell_formula_units_Z 56
_cell_length_a 15.567543
_cell_length_b 17.233350
_cell_length_c 9.793849
_cell_angle_alpha 90.000000
_cell_angle_beta 121.326188
_cell_angle_gamma 90.000000
_cell_volume 2244.468814
_symmetry_space_group_name_H-M "C 2/M"
_symmetry_group_IT_number 12
_symmetry_cell_setting 'monoclinic'
loop_
_space_group_symop_operation_xyz
x,y,z
-x,y,-z
-x,-y,-z
x,-y,z
1/2+x,1/2+y,z
1/2-x,1/2+y,-z
1/2-x,1/2-y,-z
1/2+x,1/2-y,z
loop_
_atom_site_type_symbol
_atom_site_label
_atom_site_fract_x
_atom_site_fract_y
_atom_site_fract_z
Si Si1 0.159143 0.208131 0.843705
Si Si2 0.377128 0.123398 0.270691
Si Si3 0.137448 0.316659 0.462833
Si Si4 0.862547 0.160675 0.661851
Si Si5 0.962861 0.412569 0.825642
Si Si6 0.361604 0.409798 0.947718
Si Si7 0.878620 0.086177 0.404412
O O1 0.108375 0.284556 0.742792
O O2 0.177385 0.150484 0.732531
O O3 0.250000 0.250000 0.000000
O O4 0.106615 0.150291 0.907716
O O5 0.399812 0.122911 0.451475
O O6 0.447451 0.087259 0.212319
O O7 0.261944 0.095136 0.155125
O O8 0.091642 0.232567 0.386887
O O9 0.251883 0.305691 0.604192
O O10 0.124404 0.362090 0.311362
O O11 0.898114 0.124254 0.832892
O O12 0.852104 0.094043 0.541102
O O13 0.928805 0.500000 0.823178
O O14 0.000000 0.378844 0.000000
O O15 0.389478 0.500000 0.990501
O O16 0.000000 0.097613 0.500000
O O17 0.856429 0.000000 0.333307
#
# Coordination Sequence:
#
# PCOD9209668 Si02
#       7
#     8   8   8   8   8   8   8
#     4  10  22  39  64  95 127 171 220 268 328 395
#     4  10  21  39  64  92 126 171 216 257 318 394
#     4  10  22  39  65  92 124 169 214 265 312 382
#     4  10  22  40  66  94 122 163 223 268 318 388
#     4  11  26  42  61  97 136 168 208 257 322 390
#     4  10  21  38  63  94 129 164 211 274 329 381
#     4  11  24  42  66  95 132 174 221 274 334 393
#
# _framework density 24.950225
#
# number of rings (size 3 to 8) (size 9 to 14) (size 15 to 20)
#    0.000    1.714    1.429    1.714    6.000    5.143 
#    0.000    3.571    0.000    2.571    0.000    0.000 
#    0.000    0.000    0.000    0.000    0.000    0.000 
#
# Total GULP energy -156297.194891 kJ/mol
# GULP energy per Si atom -5582.042675 kJ/mol
# Density = 2.489344 g / cm^3
# Si number density = 24.950225 Si / 1000 Ang^3
#
#
#
# Elastic Constant Matrix: (Units=GPa)
#
#
# Indices 1 2 3 4 5 6 
#
# 1 81.6897 -11.5972 -7.4915 0.0000 -8.2502 0.0000
# 2 -11.5972 136.5198 33.6729 0.0000 -6.5169 0.0000
# 3 -7.4915 33.6729 142.0277 0.0000 -32.4320 0.0000
# 4 0.0000 0.0000 0.0000 43.2252 0.0000 -32.9483
# 5 -8.2502 -6.5169 -32.4320 0.0000 29.6925 0.0000
# 6 0.0000 0.0000 0.0000 -32.9483 0.0000 49.0799
#
#
#
# Elastic Compliance Matrix: (Units=1/GPa)
#
#
# Indices 1 2 3 4 5 6 
#
# 1 0.013129 0.000950 0.001796 0.000000 0.005818 0.000000
# 2 0.000950 0.007852 -0.001809 0.000000 0.000012 0.000000
# 3 0.001796 -0.001809 0.010109 0.000000 0.011144 0.000000
# 4 0.000000 0.000000 0.000000 0.047379 0.000000 0.031807
# 5 0.005818 0.000012 0.011144 0.000000 0.047470 0.000000
# 6 0.000000 0.000000 0.000000 0.031807 0.000000 0.041727
#
#
# Mechanical properties :
#
#
# Convention : Reuss Voigt Hill
#
# Bulk Modulus (GPa) = 30.33633 43.26729 36.80181
# Shear Modulus (GPa) = 28.28369 47.44304 37.86337
#
# Velocity S-wave (km/s) = 3.37056 4.36536 3.89981
# Velocity P-wave (km/s) = 5.22807 6.54122 5.92116
#
# Compressibility (1/GPa) = 0.03296378
#
# Stress axis : x y z
#
# Youngs Moduli (GPa) = 76.16978 127.34981 98.92021
#
# Poissons Ratio (x) = -0.12099 -0.17763
# Poissons Ratio (y) = -0.07237 0.17894
# Poissons Ratio (z) = -0.13678 0.23037
#
# Static dielectric constant tensor:
#      x y z
#    x 2.160900 0.000000 -0.006440 
#    y 0.000000 1.925850 0.000000 
#    z -0.006440 0.000000 1.970250 
# 
# From -- ./inp_files/75963.got.cif
#   From: 2010.05.17/outbox.cif.g08.bks.cpg/sg12_38_cif.got.tgz:75963.got - 2010.06.03 13:09:07.
