data_PCOD9209782
_publ_section_title
;
Structure prediction by ZEFSAII (Michael W. Deem and Ramdas Pophale) SiO2 
 PCOD9209782
Probable space group: C 2/M
;
_chemical_formula_sum "Si O2"
_cell_formula_units_Z 64
_cell_length_a 24.058218
_cell_length_b 28.123958
_cell_length_c 6.329562
_cell_angle_alpha 90.000000
_cell_angle_beta 133.611609
_cell_angle_gamma 90.000000
_cell_volume 3100.783093
_symmetry_space_group_name_H-M "C 2/M"
_symmetry_group_IT_number 12
_symmetry_cell_setting 'monoclinic'
loop_
_space_group_symop_operation_xyz
x,y,z
-x,y,-z
-x,-y,-z
x,-y,z
1/2+x,1/2+y,z
1/2-x,1/2+y,-z
1/2-x,1/2-y,-z
1/2+x,1/2-y,z
loop_
_atom_site_type_symbol
_atom_site_label
_atom_site_fract_x
_atom_site_fract_y
_atom_site_fract_z
Si Si1 0.738418 0.945921 0.766386
Si Si2 0.803467 0.126558 0.667265
Si Si3 0.885174 0.262115 0.874329
Si Si4 0.745698 0.145095 0.068077
Si Si5 0.414143 0.947631 0.860382
Si Si6 0.257716 0.781947 0.263290
Si Si7 0.580969 0.858985 0.827732
Si Si8 0.467950 0.665019 0.164118
O O1 0.774560 0.926213 0.642854
O O2 0.647108 0.944306 0.488952
O O3 0.760277 0.000000 0.875426
O O4 0.761800 0.903252 0.981213
O O5 0.796310 0.138888 0.406019
O O6 0.748558 0.166996 0.627011
O O7 0.888873 0.135554 0.970208
O O8 0.810264 0.250109 0.822739
O O9 0.843224 0.263909 0.536581
O O10 0.920124 0.312314 0.028706
O O11 0.944404 0.220095 0.070027
O O12 0.762679 0.197011 0.016645
O O13 0.654540 0.146022 0.870193
O O14 0.402697 0.000000 0.928735
O O15 0.500000 0.944622 0.000000
O O16 0.402204 0.905347 0.990141
O O17 0.500000 0.863856 0.500000
O O18 0.500000 0.661057 0.500000
O O19 0.500000 0.652757 0.000000
#
# Coordination Sequence:
#
# PCOD9209782 Si02
#       8
#     8   8   8   8   8   8   8   8
#     4  10  21  38  64  96 125 158 215 275 321 384
#     4  10  21  42  66  90 128 172 211 267 326 401
#     4  10  21  40  58  90 126 168 215 271 325 381
#     4  11  21  37  63  92 123 169 213 259 324 394
#     4  10  21  39  58  79 122 169 208 258 317 380
#     4   9  20  38  60  87 121 166 218 258 320 391
#     4  12  23  35  54  87 125 165 210 268 316 373
#     4  11  27  45  68  99 131 174 225 277 338 407
#
# _framework density 20.639946999999999
#
# number of rings (size 3 to 8) (size 9 to 14) (size 15 to 20)
#    0.000    1.625    2.500    1.875    5.250    4.250 
#    0.000    0.000    0.000    0.750    0.000    0.000 
#    0.000    0.000    0.000    0.000    0.000    0.000 
#
# Total GULP energy -178244.704706 kJ/mol
# GULP energy per Si atom -5570.147022 kJ/mol
# Density = 2.059297 g / cm^3
# Si number density = 20.639947 Si / 1000 Ang^3
#
#
#
# Elastic Constant Matrix: (Units=GPa)
#
#
# Indices 1 2 3 4 5 6 
#
# 1 26.7720 -2.3217 11.3684 0.0000 2.0869 0.0000
# 2 -2.3217 63.3623 6.0328 0.0000 2.6481 0.0000
# 3 11.3684 6.0328 117.3995 0.0000 -2.7190 0.0000
# 4 0.0000 0.0000 0.0000 16.4910 0.0000 -1.1316
# 5 2.0869 2.6481 -2.7190 0.0000 23.8506 0.0000
# 6 0.0000 0.0000 0.0000 -1.1316 0.0000 25.3548
#
#
#
# Elastic Compliance Matrix: (Units=1/GPa)
#
#
# Indices 1 2 3 4 5 6 
#
# 1 0.039561 0.002006 -0.004030 0.000000 -0.004144 0.000000
# 2 0.002006 0.016044 -0.001067 0.000000 -0.002079 0.000000
# 3 -0.004030 -0.001067 0.008998 0.000000 0.001497 0.000000
# 4 0.000000 0.000000 0.000000 0.060826 0.000000 0.002715
# 5 -0.004144 -0.002079 0.001497 0.000000 0.042692 0.000000
# 6 0.000000 0.000000 0.000000 0.002715 0.000000 0.039561
#
#
# Mechanical properties :
#
#
# Convention : Reuss Voigt Hill
#
# Bulk Modulus (GPa) = 17.11687 26.41030 21.76358
# Shear Modulus (GPa) = 21.42832 25.96955 23.69893
#
# Velocity S-wave (km/s) = 3.22560 3.55098 3.39220
# Velocity P-wave (km/s) = 4.70996 5.44391 5.09018
#
# Compressibility (1/GPa) = 0.05842190
#
# Stress axis : x y z
#
# Youngs Moduli (GPa) = 25.27758 62.32774 111.14006
#
# Poissons Ratio (x) = -0.12506 0.44789
# Poissons Ratio (y) = -0.05072 0.11858
# Poissons Ratio (z) = 0.10187 0.06650
#
# Static dielectric constant tensor:
#      x y z
#    x 1.835830 0.000000 -0.187540 
#    y 0.000000 1.724110 0.000000 
#    z -0.187540 0.000000 1.620400 
# 
# From -- ./inp_files/29887.got.cif
#   From: 2010.05.17/outbox.cif.g08.bks.cpg/sg12_15_cif.got.tgz:29887.got - 2010.06.03 13:09:07.
