data_PCOD9209111
_publ_section_title
;
Structure prediction by ZEFSAII (Michael W. Deem and Ramdas Pophale) SiO2 
 PCOD9209111
Probable space group: C 2/M
;
_chemical_formula_sum "Si O2"
_cell_formula_units_Z 48
_cell_length_a 15.547534
_cell_length_b 12.148860
_cell_length_c 14.260310
_cell_angle_alpha 90.000000
_cell_angle_beta 113.430308
_cell_angle_gamma 90.000000
_cell_volume 2471.457268
_symmetry_space_group_name_H-M "C 2/M"
_symmetry_group_IT_number 12
_symmetry_cell_setting 'monoclinic'
loop_
_space_group_symop_operation_xyz
x,y,z
-x,y,-z
-x,-y,-z
x,-y,z
1/2+x,1/2+y,z
1/2-x,1/2+y,-z
1/2-x,1/2-y,-z
1/2+x,1/2-y,z
loop_
_atom_site_type_symbol
_atom_site_label
_atom_site_fract_x
_atom_site_fract_y
_atom_site_fract_z
Si Si1 0.125220 0.000000 0.151610
Si Si2 0.407806 0.126069 0.501085
Si Si3 0.154018 0.632734 0.323241
Si Si4 0.922289 0.369625 0.898021
Si Si5 0.718640 0.695644 0.889996
Si Si6 0.403964 0.500000 0.085625
Si Si7 0.230753 0.316463 0.718244
O O1 0.181568 0.106330 0.214760
O O2 0.016748 0.000000 0.135459
O O3 0.125898 0.000000 0.037860
O O4 0.500000 0.182969 0.500000
O O5 0.370250 0.171038 0.582906
O O6 0.334118 0.124469 0.385093
O O7 0.433238 0.000000 0.537550
O O8 0.170896 0.500000 0.328463
O O9 0.074944 0.660221 0.210553
O O10 0.239807 0.704305 0.322079
O O11 0.936385 0.500000 0.905135
O O12 0.817331 0.349007 0.890167
O O13 0.000000 0.316877 0.000000
O O14 0.642782 0.604156 0.883009
O O15 0.683819 0.781403 0.796184
O O16 0.750000 0.750000 0.000000
#
# Coordination Sequence:
#
# PCOD9209111 Si02
#       7
#     4   8   8   8   8   4   8
#     4  11  24  42  63  87 127 173 207 252 315 378
#     4  10  21  38  61  87 118 152 201 262 309 359
#     4   9  20  38  59  88 118 161 200 247 308 361
#     4   9  18  33  55  83 117 150 195 243 297 357
#     4  11  22  36  60  87 120 165 203 256 306 365
#     4  11  24  44  57  89 131 167 211 254 312 376
#     4  11  22  39  64  89 120 163 208 250 314 375
#
# _framework density 19.42174
#
# number of rings (size 3 to 8) (size 9 to 14) (size 15 to 20)
#    0.000    1.833    3.333    0.500    1.167    5.333 
#    0.000    1.667    0.000    0.500    0.000    0.000 
#    0.000    0.000    0.000    0.000    0.000    0.000 
#
# Total GULP energy -133701.229712 kJ/mol
# GULP energy per Si atom -5570.884571 kJ/mol
# Density = 1.937754 g / cm^3
# Si number density = 19.421740 Si / 1000 Ang^3
#
#
#
# Elastic Constant Matrix: (Units=GPa)
#
#
# Indices 1 2 3 4 5 6 
#
# 1 89.4896 25.3515 52.7071 0.0000 -6.3320 0.0000
# 2 25.3515 65.2620 24.6804 0.0000 -10.2964 0.0000
# 3 52.7071 24.6804 145.2574 0.0000 -17.5781 0.0000
# 4 0.0000 0.0000 0.0000 11.2315 0.0000 -3.3885
# 5 -6.3320 -10.2964 -17.5781 0.0000 33.2372 0.0000
# 6 0.0000 0.0000 0.0000 -3.3885 0.0000 2.2800
#
#
#
# Elastic Compliance Matrix: (Units=1/GPa)
#
#
# Indices 1 2 3 4 5 6 
#
# 1 0.015191 -0.004199 -0.004921 0.000000 -0.001009 0.000000
# 2 -0.004199 0.018010 -0.001023 0.000000 0.004238 0.000000
# 3 -0.004921 -0.001023 0.009286 0.000000 0.003657 0.000000
# 4 0.000000 0.000000 0.000000 0.161406 0.000000 0.239880
# 5 -0.001009 0.004238 0.003657 0.000000 0.033141 0.000000
# 6 0.000000 0.000000 0.000000 0.239880 0.000000 0.795109
#
#
# Mechanical properties :
#
#
# Convention : Reuss Voigt Hill
#
# Bulk Modulus (GPa) = 45.04518 56.16524 50.60521
# Shear Modulus (GPa) = 4.71774 22.50105 13.60939
#
# Velocity S-wave (km/s) = 1.56025 3.40744 2.65000
# Velocity P-wave (km/s) = 5.14678 6.66801 5.95616
#
# Compressibility (1/GPa) = 0.02219994
#
# Stress axis : x y z
#
# Youngs Moduli (GPa) = 65.82901 55.52536 107.68642
#
# Poissons Ratio (x) = 0.23317 0.52989
# Poissons Ratio (y) = 0.27644 0.11021
# Poissons Ratio (z) = 0.32392 0.05682
#
# Static dielectric constant tensor:
#      x y z
#    x 1.712160 0.000000 -0.005320 
#    y 0.000000 1.714930 0.000000 
#    z -0.005320 0.000000 1.720000 
# 
# From -- ./inp_files/212864.got.cif
#   From: 2010.05.17/outbox.cif.g08.bks.cpg/sg12_107_cif.got.tgz:212864.got - 2010.06.03 13:09:07.
