data_PCOD9209064
_publ_section_title
;
Structure prediction by ZEFSAII (Michael W. Deem and Ramdas Pophale) SiO2 
 PCOD9209064
Probable space group: C 2/M
;
_chemical_formula_sum "Si O2"
_cell_formula_units_Z 56
_cell_length_a 23.553444
_cell_length_b 15.814298
_cell_length_c 7.189132
_cell_angle_alpha 90.000000
_cell_angle_beta 54.677044
_cell_angle_gamma 90.000000
_cell_volume 2184.846461
_symmetry_space_group_name_H-M "C 2/M"
_symmetry_group_IT_number 12
_symmetry_cell_setting 'monoclinic'
loop_
_space_group_symop_operation_xyz
x,y,z
-x,y,-z
-x,-y,-z
x,-y,z
1/2+x,1/2+y,z
1/2-x,1/2+y,-z
1/2-x,1/2-y,-z
1/2+x,1/2-y,z
loop_
_atom_site_type_symbol
_atom_site_label
_atom_site_fract_x
_atom_site_fract_y
_atom_site_fract_z
Si Si1 0.778672 0.343539 0.452003
Si Si2 0.748009 0.101304 0.085673
Si Si3 0.861989 0.908211 0.390234
Si Si4 0.017789 0.592380 0.743822
Si Si5 0.025222 0.780013 0.735474
Si Si6 0.402094 0.401176 0.874956
Si Si7 0.137266 0.598028 0.003900
O O1 0.750000 0.250000 0.500000
O O2 0.778932 0.375447 0.659540
O O3 0.720495 0.396587 0.449591
O O4 0.850904 0.351636 0.209167
O O5 0.747900 0.000000 0.072114
O O6 0.829321 0.125271 0.915776
O O7 0.691991 0.134717 0.045950
O O8 0.906876 0.837643 0.402743
O O9 0.881808 0.000000 0.425739
O O10 0.881664 0.904863 0.133781
O O11 0.051240 0.500000 0.638387
O O12 0.046315 0.684738 0.643483
O O13 0.942322 0.597350 0.787615
O O14 0.000000 0.589387 0.000000
O O15 0.962597 0.830771 0.750461
O O16 0.000000 0.777513 0.000000
O O17 0.420787 0.500000 0.792365
O O18 0.153342 0.500000 0.932978
#
# Coordination Sequence:
#
# PCOD9209064 Si02
#       7
#     8   8   8   8   8   8   8
#     4  11  23  34  56  89 125 155 192 241 299 358
#     4   9  19  37  58  83 118 154 198 248 296 358
#     4   9  17  31  51  79 113 149 192 240 287 350
#     4   9  19  33  52  80 112 147 195 246 295 356
#     4   9  16  26  50  75 108 144 190 236 287 343
#     4   8  14  26  47  78 109 142 183 231 284 338
#     4  10  21  38  61  85 113 157 199 242 305 358
#
# _framework density 25.631093
#
# number of rings (size 3 to 8) (size 9 to 14) (size 15 to 20)
#    0.000    2.714    0.000    2.571    8.000    2.286 
#    0.000    0.000    0.000    1.714    0.000    9.000 
#    0.000    0.000    0.000    0.000    0.000    0.000 
#
# Total GULP energy -156694.595541 kJ/mol
# GULP energy per Si atom -5596.235555 kJ/mol
# Density = 2.557276 g / cm^3
# Si number density = 25.631093 Si / 1000 Ang^3
#
#
#
# Elastic Constant Matrix: (Units=GPa)
#
#
# Indices 1 2 3 4 5 6 
#
# 1 123.3104 46.1388 31.9516 0.0000 2.6464 0.0000
# 2 46.1388 166.2272 10.6893 0.0000 -12.8290 0.0000
# 3 31.9516 10.6893 55.5293 0.0000 2.8995 0.0000
# 4 0.0000 0.0000 0.0000 5.6959 0.0000 -12.4568
# 5 2.6464 -12.8290 2.8995 0.0000 21.8399 0.0000
# 6 0.0000 0.0000 0.0000 -12.4568 0.0000 4.9286
#
#
#
# Elastic Compliance Matrix: (Units=1/GPa)
#
#
# Indices 1 2 3 4 5 6 
#
# 1 0.010603 -0.002761 -0.005456 0.000000 -0.002182 0.000000
# 2 -0.002761 0.007133 -0.000021 0.000000 0.004527 0.000000
# 3 -0.005456 -0.000021 0.021265 0.000000 -0.002174 0.000000
# 4 0.000000 0.000000 0.000000 -0.038778 0.000000 -0.098009
# 5 -0.002182 0.004527 -0.002174 0.000000 0.049000 0.000000
# 6 0.000000 0.000000 0.000000 -0.098009 0.000000 -0.044815
#
#
# Mechanical properties :
#
#
# Convention : Reuss Voigt Hill
#
# Bulk Modulus (GPa) = 44.39182 58.06957 51.23070
# Shear Modulus (GPa) = 176.10792 23.57869 99.84331
#
# Velocity S-wave (km/s) = 8.29806 3.03632 6.24808
# Velocity P-wave (km/s) = 10.44833 5.91586 8.49014
#
# Compressibility (1/GPa) = 0.02252667
#
# Stress axis : x y z
#
# Youngs Moduli (GPa) = 94.31288 140.19625 47.02505
#
# Poissons Ratio (x) = 0.38703 0.25655
# Poissons Ratio (y) = 0.26036 0.00099
# Poissons Ratio (z) = 0.51454 0.00294
#
# Static dielectric constant tensor:
#      x y z
#    x 2.067950 0.000000 0.031980 
#    y 0.000000 1.962400 0.000000 
#    z 0.031980 0.000000 1.996010 
# 
# From -- ./inp_files/96772.got.cif
#   From: 2010.05.17/outbox.cif.g08.bks.cpg/sg12_49_cif.got.tgz:96772.got - 2010.06.03 13:09:07.
