data_PCOD9209157
_publ_section_title
;
Structure prediction by ZEFSAII (Michael W. Deem and Ramdas Pophale) SiO2 
 PCOD9209157
Probable space group: C 2/M
;
_chemical_formula_sum "Si O2"
_cell_formula_units_Z 48
_cell_length_a 25.903548
_cell_length_b 8.629746
_cell_length_c 9.763649
_cell_angle_alpha 90.000000
_cell_angle_beta 100.692172
_cell_angle_gamma 90.000000
_cell_volume 2144.682696
_symmetry_space_group_name_H-M "C 2/M"
_symmetry_group_IT_number 12
_symmetry_cell_setting 'monoclinic'
loop_
_space_group_symop_operation_xyz
x,y,z
-x,y,-z
-x,-y,-z
x,-y,z
1/2+x,1/2+y,z
1/2-x,1/2+y,-z
1/2-x,1/2-y,-z
1/2+x,1/2-y,z
loop_
_atom_site_type_symbol
_atom_site_label
_atom_site_fract_x
_atom_site_fract_y
_atom_site_fract_z
Si Si1 0.146390 0.680604 0.274156
Si Si2 0.798972 0.183765 0.110174
Si Si3 0.082636 0.812805 0.474879
Si Si4 0.093268 0.813730 0.999050
Si Si5 0.754615 0.319114 0.350578
Si Si6 0.471853 0.687502 0.279821
O O1 0.159369 0.500000 0.270726
O O2 0.128272 0.726060 0.417448
O O3 0.196772 0.783239 0.261199
O O4 0.101091 0.727356 0.145340
O O5 0.854106 0.218584 0.063942
O O6 0.794775 0.243892 0.263610
O O7 0.793598 0.000000 0.111018
O O8 0.750000 0.250000 0.000000
O O9 0.070306 0.766602 0.624468
O O10 0.029023 0.774233 0.365485
O O11 0.090798 0.000000 0.472819
O O12 0.045216 0.762234 0.879056
O O13 0.089665 0.000000 0.021980
O O14 0.764228 0.500000 0.364140
O O15 0.750000 0.250000 0.500000
O O16 0.470010 0.500000 0.276658
#
# Coordination Sequence:
#
# PCOD9209157 Si02
#       6
#     8   8   8   8   8   8
#     4  12  25  40  58  87 123 159 202 247 300 361
#     4  11  22  38  62  90 123 161 202 247 299 355
#     4   9  18  37  64  89 118 154 196 251 304 357
#     4  10  21  38  61  88 118 159 204 247 296 356
#     4  12  26  44  64  89 122 159 202 249 302 359
#     4   8  17  36  63  92 115 149 202 248 299 364
#
# _framework density 22.380932000000001
#
# number of rings (size 3 to 8) (size 9 to 14) (size 15 to 20)
#    0.000    1.667    1.667    4.500    2.333    1.333 
#    0.000    6.667    0.000    0.000    0.000    0.000 
#    0.000    0.000    0.000    0.000    0.000    0.000 
#
# Total GULP energy -134230.202842 kJ/mol
# GULP energy per Si atom -5592.925118 kJ/mol
# Density = 2.232999 g / cm^3
# Si number density = 22.380932 Si / 1000 Ang^3
#
#
#
# Elastic Constant Matrix: (Units=GPa)
#
#
# Indices 1 2 3 4 5 6 
#
# 1 26.1502 9.3086 1.2206 0.0000 -5.4113 0.0000
# 2 9.3086 30.7701 6.6033 0.0000 -11.0237 0.0000
# 3 1.2206 6.6033 105.8778 0.0000 -1.8558 0.0000
# 4 0.0000 0.0000 0.0000 34.2150 0.0000 -7.1346
# 5 -5.4113 -11.0237 -1.8558 0.0000 44.0994 0.0000
# 6 0.0000 0.0000 0.0000 -7.1346 0.0000 9.2041
#
#
#
# Elastic Compliance Matrix: (Units=1/GPa)
#
#
# Indices 1 2 3 4 5 6 
#
# 1 0.043064 -0.012298 0.000310 0.000000 0.002223 0.000000
# 2 -0.012298 0.039667 -0.002186 0.000000 0.008315 0.000000
# 3 0.000310 -0.002186 0.009576 0.000000 -0.000106 0.000000
# 4 0.000000 0.000000 0.000000 0.034862 0.000000 0.027024
# 5 0.002223 0.008315 -0.000106 0.000000 0.025023 0.000000
# 6 0.000000 0.000000 0.000000 0.027024 0.000000 0.129596
#
#
# Mechanical properties :
#
#
# Convention : Reuss Voigt Hill
#
# Bulk Modulus (GPa) = 15.63533 21.89591 18.76562
# Shear Modulus (GPa) = 15.08496 27.21473 21.14984
#
# Velocity S-wave (km/s) = 2.59899 3.49087 3.07741
# Velocity P-wave (km/s) = 4.00093 5.10419 4.58586
#
# Compressibility (1/GPa) = 0.06395772
#
# Stress axis : x y z
#
# Youngs Moduli (GPa) = 23.22137 25.20957 104.43002
#
# Poissons Ratio (x) = 0.31002 -0.03232
# Poissons Ratio (y) = 0.28557 0.22833
# Poissons Ratio (z) = -0.00719 0.05512
#
# Static dielectric constant tensor:
#      x y z
#    x 1.916530 0.000000 0.033130 
#    y 0.000000 1.752300 0.000000 
#    z 0.033130 0.000000 1.867070 
# 
# From -- ./inp_files/108644.got.cif
#   From: 2010.05.17/outbox.cif.g08.bks.cpg/sg12_55_cif.got.tgz:108644.got - 2010.06.03 13:09:07.
