data_PCOD9209637
_publ_section_title
;
Structure prediction by ZEFSAII (Michael W. Deem and Ramdas Pophale) SiO2 
 PCOD9209637
Probable space group: C 2/M
;
_chemical_formula_sum "Si O2"
_cell_formula_units_Z 64
_cell_length_a 9.016700
_cell_length_b 15.841766
_cell_length_c 28.411821
_cell_angle_alpha 90.000000
_cell_angle_beta 129.740304
_cell_angle_gamma 90.000000
_cell_volume 3120.674004
_symmetry_space_group_name_H-M "C 2/M"
_symmetry_group_IT_number 12
_symmetry_cell_setting 'monoclinic'
loop_
_space_group_symop_operation_xyz
x,y,z
-x,y,-z
-x,-y,-z
x,-y,z
1/2+x,1/2+y,z
1/2-x,1/2+y,-z
1/2-x,1/2-y,-z
1/2+x,1/2-y,z
loop_
_atom_site_type_symbol
_atom_site_label
_atom_site_fract_x
_atom_site_fract_y
_atom_site_fract_z
Si Si1 0.729184 0.589278 0.048088
Si Si2 0.363841 0.282672 0.372602
Si Si3 0.302819 0.366458 0.856785
Si Si4 0.748727 0.599371 0.307720
Si Si5 0.463159 0.797710 0.936861
Si Si6 0.590295 0.593717 0.833054
Si Si7 0.706065 0.780407 0.543963
Si Si8 0.972557 0.401563 0.725208
O O1 0.780123 0.500000 0.035220
O O2 0.770499 0.587043 0.111712
O O3 0.848697 0.661206 0.047794
O O4 0.500000 0.598249 0.000000
O O5 0.310158 0.183395 0.350109
O O6 0.341171 0.287615 0.424821
O O7 0.577933 0.309537 0.399359
O O8 0.218513 0.347766 0.319680
O O9 0.419890 0.289146 0.902038
O O10 0.446192 0.408908 0.848671
O O11 0.110907 0.350212 0.788409
O O12 0.737398 0.500000 0.324077
O O13 0.546659 0.618189 0.239060
O O14 0.912599 0.595835 0.300740
O O15 0.272265 0.850836 0.884593
O O16 0.500000 0.792713 0.000000
O O17 0.662846 0.500000 0.837689
O O18 0.500000 0.830339 0.500000
O O19 0.750000 0.750000 0.500000
O O20 0.948166 0.500000 0.735106
#
# Coordination Sequence:
#
# PCOD9209637 Si02
#       8
#     8   8   8   8   8   8   8   8
#     4  11  24  41  60  82 114 156 200 251 311 373
#     4  11  18  37  65  92 124 171 214 251 306 358
#     4  11  22  40  60  83 117 152 195 251 310 363
#     4   9  19  36  60  91 126 164 206 254 310 374
#     4  12  25  39  58  86 116 151 203 256 308 375
#     4  10  21  39  60  83 116 156 196 246 311 370
#     4   9  20  36  62  94 131 172 212 252 302 355
#     4  10  21  38  63  93 124 162 207 253 309 380
#
# _framework density 20.508391
#
# number of rings (size 3 to 8) (size 9 to 14) (size 15 to 20)
#    0.000    1.625    1.250    4.875    0.000    4.500 
#    2.250    0.625    0.000   15.000    0.000    0.000 
#    0.000    0.000    0.000    0.000    0.000    0.000 
#
# Total GULP energy -178189.186906 kJ/mol
# GULP energy per Si atom -5568.412091 kJ/mol
# Density = 2.046171 g / cm^3
# Si number density = 20.508391 Si / 1000 Ang^3
#
#
#
# Elastic Constant Matrix: (Units=GPa)
#
#
# Indices 1 2 3 4 5 6 
#
# 1 84.7019 19.5894 37.3463 0.0000 14.1726 0.0000
# 2 19.5894 106.5510 40.7598 0.0000 10.2397 0.0000
# 3 37.3463 40.7598 95.2715 0.0000 19.1297 0.0000
# 4 0.0000 0.0000 0.0000 70.3390 0.0000 80.3960
# 5 14.1726 10.2397 19.1297 0.0000 42.7215 0.0000
# 6 0.0000 0.0000 0.0000 80.3960 0.0000 108.0980
#
#
#
# Elastic Compliance Matrix: (Units=1/GPa)
#
#
# Indices 1 2 3 4 5 6 
#
# 1 0.014535 -0.000532 -0.004975 0.000000 -0.002467 0.000000
# 2 -0.000532 0.011255 -0.004505 0.000000 -0.000504 0.000000
# 3 -0.004975 -0.004505 0.015192 0.000000 -0.004072 0.000000
# 4 0.000000 0.000000 0.000000 0.094825 0.000000 -0.070524
# 5 -0.002467 -0.000504 -0.004072 0.000000 0.026170 0.000000
# 6 0.000000 0.000000 0.000000 -0.070524 0.000000 0.061702
#
#
# Mechanical properties :
#
#
# Convention : Reuss Voigt Hill
#
# Bulk Modulus (GPa) = 47.71658 53.54616 50.63137
# Shear Modulus (GPa) = 19.94498 56.82028 38.38263
#
# Velocity S-wave (km/s) = 3.12192 5.26935 4.33084
# Velocity P-wave (km/s) = 6.02599 7.94905 7.05337
#
# Compressibility (1/GPa) = 0.02095707
#
# Stress axis : x y z
#
# Youngs Moduli (GPa) = 68.79729 88.85004 65.82555
#
# Poissons Ratio (x) = 0.04729 0.32747
# Poissons Ratio (y) = 0.03661 0.29657
# Poissons Ratio (z) = 0.34226 0.40031
#
# Static dielectric constant tensor:
#      x y z
#    x 1.721860 0.000000 0.017630 
#    y 0.000000 1.760250 0.000000 
#    z 0.017630 0.000000 1.810920 
# 
# From -- ./inp_files/372595.got.cif
#   From: 2010.05.17/outbox.cif.g08.bks.cpg/sg12_187_cif.got.tgz:372595.got - 2010.06.03 13:09:07.
