data_PCOD9209107
_publ_section_title
;
Structure prediction by ZEFSAII (Michael W. Deem and Ramdas Pophale) SiO2 
 PCOD9209107
Probable space group: C 2/M
;
_chemical_formula_sum "Si O2"
_cell_formula_units_Z 48
_cell_length_a 15.205717
_cell_length_b 8.965551
_cell_length_c 17.356664
_cell_angle_alpha 90.000000
_cell_angle_beta 90.820419
_cell_angle_gamma 90.000000
_cell_volume 2365.950319
_symmetry_space_group_name_H-M "C 2/M"
_symmetry_group_IT_number 12
_symmetry_cell_setting 'monoclinic'
loop_
_space_group_symop_operation_xyz
x,y,z
-x,y,-z
-x,-y,-z
x,-y,z
1/2+x,1/2+y,z
1/2-x,1/2+y,-z
1/2-x,1/2-y,-z
1/2+x,1/2-y,z
loop_
_atom_site_type_symbol
_atom_site_label
_atom_site_fract_x
_atom_site_fract_y
_atom_site_fract_z
Si Si1 0.139840 0.820956 0.295568
Si Si2 0.725822 0.321451 0.581031
Si Si3 0.399315 0.166269 0.168497
Si Si4 0.604898 0.167669 0.138432
Si Si5 0.565106 0.677292 0.678130
Si Si6 0.155794 0.176971 0.986758
O O1 0.209159 0.746245 0.353767
O O2 0.150403 0.756858 0.208791
O O3 0.039090 0.786141 0.322743
O O4 0.149391 0.000000 0.294945
O O5 0.736678 0.500000 0.578574
O O6 0.750000 0.250000 0.500000
O O7 0.624274 0.290821 0.604105
O O8 0.504285 0.153311 0.162362
O O9 0.386727 0.238107 0.251417
O O10 0.360256 0.000000 0.161055
O O11 0.372127 0.270087 0.097872
O O12 0.602623 0.253262 0.057433
O O13 0.642372 0.000000 0.129477
O O14 0.569970 0.500000 0.693151
O O15 0.155606 0.000000 0.992312
O O16 0.250000 0.250000 0.000000
#
# Coordination Sequence:
#
# PCOD9209107 Si02
#       6
#     8   8   8   8   8   8
#     4  10  21  40  65  92 122 161 206 250 302 365
#     4  11  24  42  64  92 125 160 200 250 308 370
#     4  10  21  38  61  87 117 154 199 248 299 356
#     4  10  21  39  61  86 118 156 198 247 299 356
#     4   9  21  41  64  89 122 164 205 247 302 368
#     4  12  25  38  55  82 118 159 203 250 299 353
#
# _framework density 20.287832000000002
#
# number of rings (size 3 to 8) (size 9 to 14) (size 15 to 20)
#    0.000    1.667    0.000    4.000    2.333    6.667 
#    0.000    3.333    0.000    0.000    0.000    0.000 
#    0.000    0.000    0.000    0.000    0.000    0.000 
#
# Total GULP energy -134050.209106 kJ/mol
# GULP energy per Si atom -5585.425379 kJ/mol
# Density = 2.024166 g / cm^3
# Si number density = 20.287832 Si / 1000 Ang^3
#
#
#
# Elastic Constant Matrix: (Units=GPa)
#
#
# Indices 1 2 3 4 5 6 
#
# 1 41.5356 21.0470 6.9942 0.0000 -5.8557 0.0000
# 2 21.0470 96.1137 19.3246 0.0000 -7.6216 0.0000
# 3 6.9942 19.3246 56.8204 0.0000 -12.6041 0.0000
# 4 0.0000 0.0000 0.0000 39.8231 0.0000 3.3869
# 5 -5.8557 -7.6216 -12.6041 0.0000 35.1100 0.0000
# 6 0.0000 0.0000 0.0000 3.3869 0.0000 27.1366
#
#
#
# Elastic Compliance Matrix: (Units=1/GPa)
#
#
# Indices 1 2 3 4 5 6 
#
# 1 0.027489 -0.005616 -0.000790 0.000000 0.003082 0.000000
# 2 -0.005616 0.012359 -0.003395 0.000000 0.000527 0.000000
# 3 -0.000790 -0.003395 0.020273 0.000000 0.006409 0.000000
# 4 0.000000 0.000000 0.000000 0.025380 0.000000 -0.003168
# 5 0.003082 0.000527 0.006409 0.000000 0.031411 0.000000
# 6 0.000000 0.000000 0.000000 -0.003168 0.000000 0.037246
#
#
# Mechanical properties :
#
#
# Convention : Reuss Voigt Hill
#
# Bulk Modulus (GPa) = 24.68024 32.13348 28.40686
# Shear Modulus (GPa) = 26.69990 30.22086 28.46038
#
# Velocity S-wave (km/s) = 3.63168 3.86373 3.74950
# Velocity P-wave (km/s) = 5.45683 5.98145 5.72515
#
# Compressibility (1/GPa) = 0.04051825
#
# Stress axis : x y z
#
# Youngs Moduli (GPa) = 36.37796 80.91526 49.32712
#
# Poissons Ratio (x) = 0.45445 0.03897
# Poissons Ratio (y) = 0.20431 0.16746
# Poissons Ratio (z) = 0.02874 0.27470
#
# Static dielectric constant tensor:
#      x y z
#    x 1.754110 0.000000 -0.119090 
#    y 0.000000 1.711410 0.000000 
#    z -0.119090 0.000000 1.799380 
# 
# From -- ./inp_files/267704.got.cif
#   From: 2010.05.17/outbox.cif.g08.bks.cpg/sg12_134_cif.got.tgz:267704.got - 2010.06.03 13:09:07.
