data_PCOD9209468
_publ_section_title
;
Structure prediction by ZEFSAII (Michael W. Deem and Ramdas Pophale) SiO2 
 PCOD9209468
Probable space group: C 2/M
;
_chemical_formula_sum "Si O2"
_cell_formula_units_Z 56
_cell_length_a 16.278207
_cell_length_b 9.003422
_cell_length_c 20.012644
_cell_angle_alpha 90.000000
_cell_angle_beta 78.401188
_cell_angle_gamma 90.000000
_cell_volume 2873.149967
_symmetry_space_group_name_H-M "C 2/M"
_symmetry_group_IT_number 12
_symmetry_cell_setting 'monoclinic'
loop_
_space_group_symop_operation_xyz
x,y,z
-x,y,-z
-x,-y,-z
x,-y,z
1/2+x,1/2+y,z
1/2-x,1/2+y,-z
1/2-x,1/2-y,-z
1/2+x,1/2-y,z
loop_
_atom_site_type_symbol
_atom_site_label
_atom_site_fract_x
_atom_site_fract_y
_atom_site_fract_z
Si Si1 0.272441 0.328252 0.798705
Si Si2 0.520624 0.674635 0.074633
Si Si3 0.128363 0.178244 0.348422
Si Si4 0.447493 0.321573 0.338254
Si Si5 0.236698 0.178446 0.574410
Si Si6 0.418194 0.172635 0.203983
Si Si7 0.302054 0.824193 0.931831
O O1 0.285854 0.500000 0.817313
O O2 0.341622 0.288803 0.732289
O O3 0.182487 0.319503 0.777666
O O4 0.271499 0.228195 0.864243
O O5 0.533721 0.500000 0.085562
O O6 0.449202 0.737831 0.134474
O O7 0.603565 0.766212 0.077235
O O8 0.500000 0.692539 0.000000
O O9 0.191254 0.260446 0.388044
O O10 0.029723 0.216501 0.368611
O O11 0.137663 0.000000 0.356686
O O12 0.449494 0.500000 0.328188
O O13 0.357242 0.282954 0.384459
O O14 0.453711 0.243286 0.265558
O O15 0.250000 0.250000 0.500000
O O16 0.241718 0.000000 0.570197
O O17 0.442519 0.000000 0.193919
O O18 0.296718 0.000000 0.938903
O O19 0.250000 0.750000 0.000000
#
# Coordination Sequence:
#
# PCOD9209468 Si02
#       7
#     8   8   8   8   8   8   8
#     4  10  21  38  62  91 125 163 203 255 319 382
#     4  11  24  41  60  84 117 161 208 258 317 378
#     4  10  21  41  66  93 126 166 209 260 317 380
#     4  10  22  40  65  94 127 169 215 260 317 385
#     4  11  24  42  65  95 130 170 213 264 320 383
#     4  11  22  37  62  94 124 160 205 258 316 376
#     4  12  25  40  60  86 119 160 208 263 319 381
#
# _framework density 19.490801999999999
#
# number of rings (size 3 to 8) (size 9 to 14) (size 15 to 20)
#    0.000    1.286    1.429    4.286    0.000    8.000 
#    0.000    2.857    0.000    0.000    0.000    0.000 
#    0.000    0.000    0.000    0.000    0.000    0.000 
#
# Total GULP energy -156534.065003 kJ/mol
# GULP energy per Si atom -5590.502322 kJ/mol
# Density = 1.944644 g / cm^3
# Si number density = 19.490802 Si / 1000 Ang^3
#
#
#
# Elastic Constant Matrix: (Units=GPa)
#
#
# Indices 1 2 3 4 5 6 
#
# 1 123.8598 51.2983 51.5907 0.0000 9.5435 0.0000
# 2 51.2983 90.3384 64.5599 0.0000 3.7733 0.0000
# 3 51.5907 64.5599 106.1783 0.0000 -0.1371 0.0000
# 4 0.0000 0.0000 0.0000 36.9182 0.0000 2.9889
# 5 9.5435 3.7733 -0.1371 0.0000 20.9178 0.0000
# 6 0.0000 0.0000 0.0000 2.9889 0.0000 31.8415
#
#
#
# Elastic Compliance Matrix: (Units=1/GPa)
#
#
# Indices 1 2 3 4 5 6 
#
# 1 0.011385 -0.004104 -0.003042 0.000000 -0.004474 0.000000
# 2 -0.004104 0.021331 -0.010979 0.000000 -0.002048 0.000000
# 3 -0.003042 -0.010979 0.017576 0.000000 0.003484 0.000000
# 4 0.000000 0.000000 0.000000 0.027294 0.000000 -0.002562
# 5 -0.004474 -0.002048 0.003484 0.000000 0.050240 0.000000
# 6 0.000000 0.000000 0.000000 -0.002562 0.000000 0.031646
#
#
# Mechanical properties :
#
#
# Convention : Reuss Voigt Hill
#
# Bulk Modulus (GPa) = 71.21119 72.80826 72.00973
# Shear Modulus (GPa) = 24.94957 28.13067 26.54012
#
# Velocity S-wave (km/s) = 3.58169 3.80317 3.69409
# Velocity P-wave (km/s) = 7.32938 7.53139 7.43107
#
# Compressibility (1/GPa) = 0.01404274
#
# Stress axis : x y z
#
# Youngs Moduli (GPa) = 87.83218 46.87934 56.89473
#
# Poissons Ratio (x) = 0.19239 0.17310
# Poissons Ratio (y) = 0.36046 0.62463
# Poissons Ratio (z) = 0.26722 0.51468
#
# Static dielectric constant tensor:
#      x y z
#    x 1.718520 0.000000 -0.037210 
#    y 0.000000 1.656310 0.000000 
#    z -0.037210 0.000000 1.711860 
# 
# From -- ./inp_files/308900.got.cif
#   From: 2010.05.17/outbox.cif.g08.bks.cpg/sg12_155_cif.got.tgz:308900.got - 2010.06.03 13:09:07.
