data_PCOD9209164
_publ_section_title
;
Structure prediction by ZEFSAII (Michael W. Deem and Ramdas Pophale) SiO2 
 PCOD9209164
Probable space group: C 2/M
;
_chemical_formula_sum "Si O2"
_cell_formula_units_Z 56
_cell_length_a 16.655214
_cell_length_b 9.130685
_cell_length_c 18.297115
_cell_angle_alpha 90.000000
_cell_angle_beta 67.817825
_cell_angle_gamma 90.000000
_cell_volume 2576.567920
_symmetry_space_group_name_H-M "C 2/M"
_symmetry_group_IT_number 12
_symmetry_cell_setting 'monoclinic'
loop_
_space_group_symop_operation_xyz
x,y,z
-x,y,-z
-x,-y,-z
x,-y,z
1/2+x,1/2+y,z
1/2-x,1/2+y,-z
1/2-x,1/2-y,-z
1/2+x,1/2-y,z
loop_
_atom_site_type_symbol
_atom_site_label
_atom_site_fract_x
_atom_site_fract_y
_atom_site_fract_z
Si Si1 0.005071 0.831026 0.378760
Si Si2 0.353300 0.331668 0.540560
Si Si3 0.284028 0.327091 0.325286
Si Si4 0.898145 0.673635 0.030072
Si Si5 0.248264 0.671796 0.808365
Si Si6 0.469768 0.827219 0.250715
Si Si7 0.888721 0.827680 0.887995
O O1 0.912494 0.802798 0.449542
O O2 0.017854 0.719440 0.308982
O O3 0.077920 0.821964 0.416001
O O4 0.005528 0.000000 0.351107
O O5 0.322711 0.500000 0.547622
O O6 0.274629 0.226367 0.586991
O O7 0.295364 0.500000 0.323071
O O8 0.238428 0.272861 0.266085
O O9 0.376084 0.246347 0.290669
O O10 0.888697 0.500000 0.018423
O O11 0.844899 0.701779 0.122279
O O12 0.860334 0.764081 0.975482
O O13 0.000000 0.707694 0.000000
O O14 0.252127 0.500000 0.784488
O O15 0.317348 0.693007 0.849287
O O16 0.525736 0.758291 0.166647
O O17 0.462282 0.000000 0.244550
O O18 0.906223 0.000000 0.887770
#
# Coordination Sequence:
#
# PCOD9209164 Si02
#       7
#     8   8   8   8   8   8   8
#     4   9  19  38  63  89 117 152 195 239 286 345
#     4   9  19  38  63  88 118 155 191 235 292 348
#     4  12  25  39  59  87 118 153 196 244 291 346
#     4  10  21  38  61  88 119 157 198 239 286 341
#     4  10  22  40  61  87 121 158 194 237 291 345
#     4  12  25  40  59  83 116 156 196 243 297 348
#     4  11  23  39  61  88 119 155 196 242 289 343
#
# _framework density 21.734338000000001
#
# number of rings (size 3 to 8) (size 9 to 14) (size 15 to 20)
#    0.000    1.571    0.000    6.000    0.000    8.286 
#    0.000    1.429    0.000    0.000    0.000    0.000 
#    0.000    0.000    0.000    0.000    0.000    0.000 
#
# Total GULP energy -156727.546119 kJ/mol
# GULP energy per Si atom -5597.412361 kJ/mol
# Density = 2.168487 g / cm^3
# Si number density = 21.734338 Si / 1000 Ang^3
#
#
#
# Elastic Constant Matrix: (Units=GPa)
#
#
# Indices 1 2 3 4 5 6 
#
# 1 58.1594 31.0414 5.5269 0.0000 -17.1119 0.0000
# 2 31.0414 77.9930 34.7429 0.0000 -10.1077 0.0000
# 3 5.5269 34.7429 66.0468 0.0000 -10.6595 0.0000
# 4 0.0000 0.0000 0.0000 36.3142 0.0000 2.4126
# 5 -17.1119 -10.1077 -10.6595 0.0000 39.1002 0.0000
# 6 0.0000 0.0000 0.0000 2.4126 0.0000 23.5996
#
#
#
# Elastic Compliance Matrix: (Units=1/GPa)
#
#
# Indices 1 2 3 4 5 6 
#
# 1 0.025592 -0.011323 0.005387 0.000000 0.009742 0.000000
# 2 -0.011323 0.021909 -0.010944 0.000000 -0.002275 0.000000
# 3 0.005387 -0.010944 0.021309 0.000000 0.005337 0.000000
# 4 0.000000 0.000000 0.000000 0.027726 0.000000 -0.002834
# 5 0.009742 -0.002275 0.005337 0.000000 0.030705 0.000000
# 6 0.000000 0.000000 0.000000 -0.002834 0.000000 0.042663
#
#
# Mechanical properties :
#
#
# Convention : Reuss Voigt Hill
#
# Bulk Modulus (GPa) = 28.53217 38.31352 33.42284
# Shear Modulus (GPa) = 23.21839 28.52867 25.87353
#
# Velocity S-wave (km/s) = 3.27200 3.62692 3.45403
# Velocity P-wave (km/s) = 5.23745 5.93345 5.59628
#
# Compressibility (1/GPa) = 0.03504816
#
# Stress axis : x y z
#
# Youngs Moduli (GPa) = 39.07529 45.64435 46.92950
#
# Poissons Ratio (x) = 0.51681 -0.25280
# Poissons Ratio (y) = 0.44244 0.51361
# Poissons Ratio (z) = -0.21049 0.49955
#
# Static dielectric constant tensor:
#      x y z
#    x 1.852200 0.000000 0.015370 
#    y 0.000000 1.720980 0.000000 
#    z 0.015370 0.000000 1.797620 
# 
# From -- ./inp_files/275001.got.cif
#   From: 2010.05.17/outbox.cif.g08.bks.cpg/sg12_138_cif.got.tgz:275001.got - 2010.06.03 13:09:07.
