data_PCOD9209751
_publ_section_title
;
Structure prediction by ZEFSAII (Michael W. Deem and Ramdas Pophale) SiO2 
 PCOD9209751
Probable space group: C 2/M
;
_chemical_formula_sum "Si O2"
_cell_formula_units_Z 64
_cell_length_a 9.719162
_cell_length_b 26.490112
_cell_length_c 11.956978
_cell_angle_alpha 90.000000
_cell_angle_beta 76.758697
_cell_angle_gamma 90.000000
_cell_volume 2996.619841
_symmetry_space_group_name_H-M "C 2/M"
_symmetry_group_IT_number 12
_symmetry_cell_setting 'monoclinic'
loop_
_space_group_symop_operation_xyz
x,y,z
-x,y,-z
-x,-y,-z
x,-y,z
1/2+x,1/2+y,z
1/2-x,1/2+y,-z
1/2-x,1/2-y,-z
1/2+x,1/2-y,z
loop_
_atom_site_type_symbol
_atom_site_label
_atom_site_fract_x
_atom_site_fract_y
_atom_site_fract_z
Si Si1 0.133296 0.097959 0.409371
Si Si2 0.806867 0.383799 0.824825
Si Si3 0.860445 0.205502 0.469587
Si Si4 0.419274 0.941432 0.269030
Si Si5 0.999572 0.206131 0.791102
Si Si6 0.720204 0.943630 0.949178
Si Si7 0.995198 0.098444 0.816005
Si Si8 0.256116 0.734525 0.128216
O O1 0.164480 0.152506 0.461070
O O2 0.282129 0.069674 0.371323
O O3 0.066888 0.101853 0.297742
O O4 0.000000 0.074330 0.500000
O O5 0.663048 0.408082 0.798659
O O6 0.785338 0.323624 0.838707
O O7 0.948748 0.403822 0.738242
O O8 0.818957 0.404653 0.948340
O O9 0.750000 0.250000 0.500000
O O10 0.900734 0.194823 0.333296
O O11 0.000000 0.227107 0.500000
O O12 0.358901 0.934647 0.153505
O O13 0.462216 0.000000 0.273411
O O14 0.087528 0.242831 0.853915
O O15 0.969043 0.155244 0.864805
O O16 0.853535 0.230771 0.784702
O O17 0.889038 0.938875 0.897604
O O18 0.684492 0.000000 0.993893
O O19 0.250000 0.750000 0.000000
#
# Coordination Sequence:
#
# PCOD9209751 Si02
#       8
#     8   8   8   8   8   8   8   8
#     4  10  21  43  66  89 120 165 212 263 317 379
#     4  11  23  38  60  93 131 167 205 265 315 377
#     4  11  22  39  64  95 120 163 207 265 314 362
#     4  10  23  41  65  95 127 165 210 265 328 386
#     4  11  22  39  60  86 125 161 211 250 301 372
#     4  10  21  38  64  93 124 167 213 256 310 380
#     4  10  21  39  61  89 126 164 209 257 309 371
#     4  11  25  39  58  90 128 174 203 245 307 379
#
# _framework density 21.357398
#
# number of rings (size 3 to 8) (size 9 to 14) (size 15 to 20)
#    0.000    1.500    2.500    3.000    1.750    7.750 
#    0.000    0.625    0.000    0.750    0.000    0.000 
#    0.000    0.000    0.000    0.000    0.000    0.000 
#
# Total GULP energy -178584.304428 kJ/mol
# GULP energy per Si atom -5580.759513 kJ/mol
# Density = 2.130879 g / cm^3
# Si number density = 21.357398 Si / 1000 Ang^3
#
#
#
# Elastic Constant Matrix: (Units=GPa)
#
#
# Indices 1 2 3 4 5 6 
#
# 1 116.8214 31.4882 0.5669 0.0000 -11.7108 0.0000
# 2 31.4882 56.9055 7.0463 0.0000 -12.3489 0.0000
# 3 0.5669 7.0463 59.9045 0.0000 -8.8748 0.0000
# 4 0.0000 0.0000 0.0000 21.0360 0.0000 1.7397
# 5 -11.7108 -12.3489 -8.8748 0.0000 32.9590 0.0000
# 6 0.0000 0.0000 0.0000 1.7397 0.0000 15.7507
#
#
#
# Elastic Compliance Matrix: (Units=1/GPa)
#
#
# Indices 1 2 3 4 5 6 
#
# 1 0.010178 -0.005333 0.000803 0.000000 0.001834 0.000000
# 2 -0.005333 0.022011 -0.001664 0.000000 0.005904 0.000000
# 3 0.000803 -0.001664 0.017531 0.000000 0.004382 0.000000
# 4 0.000000 0.000000 0.000000 0.047976 0.000000 -0.005299
# 5 0.001834 0.005904 0.004382 0.000000 0.034385 0.000000
# 6 0.000000 0.000000 0.000000 -0.005299 0.000000 0.064075
#
#
# Mechanical properties :
#
#
# Convention : Reuss Voigt Hill
#
# Bulk Modulus (GPa) = 26.78745 34.64825 30.71785
# Shear Modulus (GPa) = 22.62581 26.91779 24.77180
#
# Velocity S-wave (km/s) = 3.25836 3.55399 3.40938
# Velocity P-wave (km/s) = 5.16968 5.75321 5.46923
#
# Compressibility (1/GPa) = 0.03733092
#
# Stress axis : x y z
#
# Youngs Moduli (GPa) = 98.25575 45.43137 57.04315
#
# Poissons Ratio (x) = 0.24229 -0.04579
# Poissons Ratio (y) = 0.52400 0.09492
# Poissons Ratio (z) = -0.07887 0.07559
#
# Static dielectric constant tensor:
#      x y z
#    x 1.802070 0.000000 -0.024220 
#    y 0.000000 1.767880 0.000000 
#    z -0.024220 0.000000 1.840730 
# 
# From -- ./inp_files/125732.got.cif
#   From: 2010.05.17/outbox.cif.g08.bks.cpg/sg12_63_cif.got.tgz:125732.got - 2010.06.03 13:09:07.
