data_PCOD9209917
_publ_section_title
;
Structure prediction by ZEFSAII (Michael W. Deem and Ramdas Pophale) SiO2 
 PCOD9209917
Probable space group: C 2/M
;
_chemical_formula_sum "Si O2"
_cell_formula_units_Z 32
_cell_length_a 10.814277
_cell_length_b 18.862866
_cell_length_c 14.364872
_cell_angle_alpha 90.000000
_cell_angle_beta 29.986629
_cell_angle_gamma 90.000000
_cell_volume 1464.540353
_symmetry_space_group_name_H-M "C 2/M"
_symmetry_group_IT_number 12
_symmetry_cell_setting 'monoclinic'
loop_
_space_group_symop_operation_xyz
x,y,z
-x,y,-z
-x,-y,-z
x,-y,z
1/2+x,1/2+y,z
1/2-x,1/2+y,-z
1/2-x,1/2-y,-z
1/2+x,1/2-y,z
loop_
_atom_site_type_symbol
_atom_site_label
_atom_site_fract_x
_atom_site_fract_y
_atom_site_fract_z
Si Si1 0.423416 0.179906 0.451994
Si Si2 0.093370 0.772882 0.190938
Si Si3 0.176476 0.576919 0.973325
Si Si4 0.260640 0.583466 0.594948
O O1 0.500000 0.146091 0.500000
O O2 0.629141 0.225541 0.260735
O O3 0.308546 0.125256 0.453146
O O4 0.202377 0.232770 0.627902
O O5 0.250000 0.750000 0.000000
O O6 0.155768 0.855796 0.156249
O O7 0.301931 0.500000 0.904511
O O8 0.987619 0.589342 0.181144
O O9 0.000000 0.571552 0.000000
O O10 0.500000 0.607783 0.500000
O O11 0.305524 0.500000 0.546305
#
# Coordination Sequence:
#
# PCOD9209917 Si02
#       4
#     8   8   8   8
#     4  11  26  42  65 101 136 180 226 279 349 405
#     4  11  24  42  64  92 135 183 221 277 333 413
#     4  10  21  38  67  98 126 171 229 283 334 392
#     4  10  21  42  69  99 136 180 231 281 335 409
#
# _framework density 21.849858999999999
#
# number of rings (size 3 to 8) (size 9 to 14) (size 15 to 20)
#    0.000    1.500    2.500    1.500    3.500    7.500 
#    0.000    0.000    0.000    3.750    0.000    0.000 
#    0.000    0.000    0.000    0.000    0.000    0.000 
#
# Total GULP energy -89256.298515 kJ/mol
# GULP energy per Si atom -5578.518657 kJ/mol
# Density = 2.180013 g / cm^3
# Si number density = 21.849859 Si / 1000 Ang^3
#
#
#
# Elastic Constant Matrix: (Units=GPa)
#
#
# Indices 1 2 3 4 5 6 
#
# 1 138.5197 64.9509 47.6312 0.0240 41.7615 -0.0054
# 2 64.9509 139.0506 57.1285 0.0025 14.2271 -0.0027
# 3 47.6312 57.1285 146.3716 -0.0496 39.7667 0.0078
# 4 0.0240 0.0025 -0.0496 53.1506 -0.0218 12.9421
# 5 41.7615 14.2271 39.7667 -0.0218 32.4016 0.0032
# 6 -0.0054 -0.0027 0.0078 12.9421 0.0032 38.9588
#
#
#
# Elastic Compliance Matrix: (Units=1/GPa)
#
#
# Indices 1 2 3 4 5 6 
#
# 1 0.015446 -0.006366 0.003162 -0.000014 -0.020993 0.000008
# 2 -0.006366 0.011194 -0.004788 0.000002 0.009166 0.000000
# 3 0.003162 -0.004788 0.012313 0.000004 -0.017085 -0.000002
# 4 -0.000014 0.000002 0.000004 0.020470 0.000027 -0.006800
# 5 -0.020993 0.009166 -0.017085 0.000027 0.074865 -0.000014
# 6 0.000008 0.000000 -0.000002 -0.006800 -0.000014 0.027927
#
#
# Mechanical properties :
#
#
# Convention : Reuss Voigt Hill
#
# Bulk Modulus (GPa) = 43.53463 84.81813 64.17638
# Shear Modulus (GPa) = 26.90235 41.85094 34.37665
#
# Velocity S-wave (km/s) = 3.51271 4.38126 3.97080
# Velocity P-wave (km/s) = 6.03488 8.03099 7.10340
#
# Compressibility (1/GPa) = 0.02297022
#
# Stress axis : x y z
#
# Youngs Moduli (GPa) = 64.74111 89.33004 81.21170
#
# Poissons Ratio (x) = 0.56868 -0.25678
# Poissons Ratio (y) = 0.41214 0.38882
# Poissons Ratio (z) = -0.20470 0.42769
#
# Static dielectric constant tensor:
#      x y z
#    x 1.824420 -0.000020 0.043240 
#    y -0.000020 1.961670 0.000000 
#    z 0.043240 0.000000 1.815380 
# 
# From -- ./inp_files/205868.got.cif
#   From: 2010.05.17/outbox.cif.g08.bks.cpg/sg12_103_cif.got.tgz:205868.got - 2010.06.03 13:09:07.
