data_PCOD9209269
_publ_section_title
;
Structure prediction by ZEFSAII (Michael W. Deem and Ramdas Pophale) SiO2 
 PCOD9209269
Probable space group: C 2/M
;
_chemical_formula_sum "Si O2"
_cell_formula_units_Z 50
_cell_length_a 7.919024
_cell_length_b 26.861808
_cell_length_c 14.338173
_cell_angle_alpha 90.000000
_cell_angle_beta 56.474855
_cell_angle_gamma 90.000000
_cell_volume 2542.617859
_symmetry_space_group_name_H-M "C 2/M"
_symmetry_group_IT_number 12
_symmetry_cell_setting 'monoclinic'
loop_
_space_group_symop_operation_xyz
x,y,z
-x,y,-z
-x,-y,-z
x,-y,z
1/2+x,1/2+y,z
1/2-x,1/2+y,-z
1/2-x,1/2-y,-z
1/2+x,1/2-y,z
loop_
_atom_site_type_symbol
_atom_site_label
_atom_site_fract_x
_atom_site_fract_y
_atom_site_fract_z
Si Si1 0.836765 0.500000 0.869524
Si Si2 0.312140 0.577797 0.500000
Si Si3 0.565611 0.599518 0.735392
Si Si4 0.927021 0.304330 0.871179
Si Si5 0.463604 0.099518 0.735393
Si Si6 0.075811 0.000000 0.130477
Si Si7 0.500000 0.000000 0.500000
Si Si8 0.669380 0.304330 0.128821
O O1 0.956542 0.549831 0.802345
O O2 0.629171 0.500000 0.870830
O O3 0.760822 0.500000 0.000000
O O4 0.500000 0.555422 0.500000
O O5 0.409317 0.606026 0.382547
O O6 0.174410 0.606026 0.617454
O O7 0.151437 0.541697 0.500000
O O8 0.784644 0.591678 0.715356
O O9 0.438769 0.549831 0.802344
O O10 0.468917 0.648720 0.807831
O O11 0.915421 0.351280 0.807831
O O12 0.925061 0.250000 0.824940
O O13 0.129848 0.308764 0.870152
O O14 0.738247 0.305715 1.000000
#
# Coordination Sequence:
#
# PCOD9209269 Si02
#       8
#     4   8   8   8   8   4   2   8
#     4   9  19  33  55  87 121 160 200 244 308 377
#     4  12  25  41  64  91 126 170 220 267 317 378
#     4  11  21  38  63  89 127 164 211 263 317 382
#     4  10  21  38  61  91 124 164 214 265 322 384
#     4  11  21  38  63  89 127 164 211 263 317 382
#     4   9  19  33  55  87 121 160 200 244 308 377
#     4  12  22  44  60  90 122 168 218 260 308 378
#     4  10  21  38  61  91 124 164 214 265 322 384
#
# _framework density 19.664770999999998
#
# number of rings (size 3 to 8) (size 9 to 14) (size 15 to 20)
#    0.000    1.440    1.600    4.080    2.240    3.200 
#    0.000    3.200    0.000    5.760    0.000    0.000 
#    0.000    0.000    0.000    0.000    0.000    0.000 
#
# Total GULP energy -139301.263951 kJ/mol
# GULP energy per Si atom -5572.050558 kJ/mol
# Density = 1.962001 g / cm^3
# Si number density = 19.664771 Si / 1000 Ang^3
#
#
#
# Elastic Constant Matrix: (Units=GPa)
#
#
# Indices 1 2 3 4 5 6 
#
# 1 88.6227 13.6717 15.9609 0.0000 -1.1372 0.0000
# 2 13.6717 152.5056 76.4409 0.0000 1.6075 0.0000
# 3 15.9609 76.4409 134.0418 0.0000 2.3003 0.0000
# 4 0.0000 0.0000 0.0000 60.4297 0.0000 -3.0174
# 5 -1.1372 1.6075 2.3003 0.0000 14.2196 0.0000
# 6 0.0000 0.0000 0.0000 -3.0174 0.0000 178.3999
#
#
#
# Elastic Compliance Matrix: (Units=1/GPa)
#
#
# Indices 1 2 3 4 5 6 
#
# 1 0.011576 -0.000489 -0.001120 0.000000 0.001162 0.000000
# 2 -0.000489 0.009203 -0.005186 0.000000 -0.000241 0.000000
# 3 -0.001120 -0.005186 0.010572 0.000000 -0.001213 0.000000
# 4 0.000000 0.000000 0.000000 0.016562 0.000000 0.000280
# 5 0.001162 -0.000241 -0.001213 0.000000 0.070642 0.000000
# 6 0.000000 0.000000 0.000000 0.000280 0.000000 0.005610
#
#
# Mechanical properties :
#
#
# Convention : Reuss Voigt Hill
#
# Bulk Modulus (GPa) = 56.29992 65.25747 60.77869
# Shear Modulus (GPa) = 34.80116 68.54960 51.67538
#
# Velocity S-wave (km/s) = 4.21137 5.91056 5.13178
# Velocity P-wave (km/s) = 7.23460 8.93514 8.12946
#
# Compressibility (1/GPa) = 0.01776201
#
# Stress axis : x y z
#
# Youngs Moduli (GPa) = 86.38750 108.66268 94.59093
#
# Poissons Ratio (x) = 0.05312 0.10590
# Poissons Ratio (y) = 0.04223 0.49053
# Poissons Ratio (z) = 0.09672 0.56350
#
# Static dielectric constant tensor:
#      x y z
#    x 1.701430 0.000000 0.003230 
#    y 0.000000 1.653420 0.000000 
#    z 0.003230 0.000000 1.827550 
# 
# From -- ./inp_files/199659.got.cif
#   From: 2010.05.17/outbox.cif.g08.bks.cpg/sg12_100_cif.got.tgz:199659.got - 2010.06.03 13:09:07.
