data_PCOD9209983
_publ_section_title
;
Structure prediction by ZEFSAII (Michael W. Deem and Ramdas Pophale) SiO2 
 PCOD9209983
Probable space group: C 2/M
;
_chemical_formula_sum "Si O2"
_cell_formula_units_Z 48
_cell_length_a 16.852034
_cell_length_b 13.460523
_cell_length_c 8.076407
_cell_angle_alpha 90.000000
_cell_angle_beta 86.484755
_cell_angle_gamma 90.000000
_cell_volume 1828.582552
_symmetry_space_group_name_H-M "C 2/M"
_symmetry_group_IT_number 12
_symmetry_cell_setting 'monoclinic'
loop_
_space_group_symop_operation_xyz
x,y,z
-x,y,-z
-x,-y,-z
x,-y,z
1/2+x,1/2+y,z
1/2-x,1/2+y,-z
1/2-x,1/2-y,-z
1/2+x,1/2-y,z
loop_
_atom_site_type_symbol
_atom_site_label
_atom_site_fract_x
_atom_site_fract_y
_atom_site_fract_z
Si Si1 0.170192 0.879422 0.900593
Si Si2 0.761016 0.619542 0.219578
Si Si3 0.017698 0.883020 0.752801
Si Si4 0.320962 0.113848 0.681181
Si Si5 0.378148 0.692129 0.563857
Si Si6 0.088084 0.616182 0.977397
O O1 0.077392 0.856287 0.893581
O O2 0.233210 0.850542 0.749477
O O3 0.173638 0.000000 0.895767
O O4 0.207891 0.848294 0.068672
O O5 0.765155 0.500000 0.216126
O O6 0.708084 0.648324 0.382249
O O7 0.849051 0.658140 0.163919
O O8 0.078105 0.862573 0.590968
O O9 0.938548 0.826435 0.710123
O O10 0.997842 0.000000 0.765981
O O11 0.364160 0.190130 0.553871
O O12 0.369569 0.116171 0.849006
O O13 0.319271 0.000000 0.622555
O O14 0.077973 0.500000 0.931278
O O15 0.000000 0.658671 0.000000
#
# Coordination Sequence:
#
# PCOD9209983 Si02
#       6
#     8   8   8   8   8   8
#     4   8  17  35  58  80 111 152 182 222 288 340
#     4   9  17  32  56  88 117 144 186 234 275 335
#     4  10  21  39  58  80 116 154 182 227 293 343
#     4   9  19  37  56  77 111 151 189 231 282 335
#     4  11  21  34  55  87 112 148 192 234 280 327
#     4   8  15  31  54  79 113 151 180 222 287 334
#
# _framework density 26.249841
#
# number of rings (size 3 to 8) (size 9 to 14) (size 15 to 20)
#    0.000    2.833    0.000    4.000    0.000    4.000 
#    6.000    4.167    0.000    0.000    0.000    1.167 
#    0.000    0.000    0.000    0.000    0.000    0.000 
#
# Total GULP energy -134370.078187 kJ/mol
# GULP energy per Si atom -5598.753258 kJ/mol
# Density = 2.619010 g / cm^3
# Si number density = 26.249841 Si / 1000 Ang^3
#
#
#
# Elastic Constant Matrix: (Units=GPa)
#
#
# Indices 1 2 3 4 5 6 
#
# 1 197.4803 32.2414 30.6871 0.0000 -17.5268 0.0000
# 2 32.2414 127.7051 -6.2445 0.0000 -10.8254 0.0000
# 3 30.6871 -6.2445 78.4656 0.0000 -6.1704 0.0000
# 4 0.0000 0.0000 0.0000 10.4396 0.0000 -11.9712
# 5 -17.5268 -10.8254 -6.1704 0.0000 40.6746 0.0000
# 6 0.0000 0.0000 0.0000 -11.9712 0.0000 43.3125
#
#
#
# Elastic Compliance Matrix: (Units=1/GPa)
#
#
# Indices 1 2 3 4 5 6 
#
# 1 0.005803 -0.001424 -0.002243 0.000000 0.001781 0.000000
# 2 -0.001424 0.008412 0.001370 0.000000 0.001833 0.000000
# 3 -0.002243 0.001370 0.013848 0.000000 0.001499 0.000000
# 4 0.000000 0.000000 0.000000 0.140235 0.000000 0.038760
# 5 0.001781 0.001833 0.001499 0.000000 0.026068 0.000000
# 6 0.000000 0.000000 0.000000 0.038760 0.000000 0.033801
#
#
# Mechanical properties :
#
#
# Convention : Reuss Voigt Hill
#
# Bulk Modulus (GPa) = 42.60409 57.44657 50.02533
# Shear Modulus (GPa) = 20.78281 42.01647 31.39964
#
# Velocity S-wave (km/s) = 2.81682 4.00514 3.46234
# Velocity P-wave (km/s) = 5.18120 6.58181 5.92305
#
# Compressibility (1/GPa) = 0.02347193
#
# Stress axis : x y z
#
# Youngs Moduli (GPa) = 172.32999 118.87210 72.21011
#
# Poissons Ratio (x) = 0.16924 0.16194
# Poissons Ratio (y) = 0.24534 -0.09896
# Poissons Ratio (z) = 0.38647 -0.16291
#
# Static dielectric constant tensor:
#      x y z
#    x 2.013210 0.000000 0.053340 
#    y 0.000000 2.060630 0.000000 
#    z 0.053340 0.000000 2.132360 
# 
# From -- ./inp_files/142847.got.cif
#   From: 2010.05.17/outbox.cif.g08.bks.cpg/sg12_72_cif.got.tgz:142847.got - 2010.06.03 13:09:07.
