data_PCOD9209809
_publ_section_title
;
Structure prediction by ZEFSAII (Michael W. Deem and Ramdas Pophale) SiO2 
 PCOD9209809
Probable space group: C 2/M
;
_chemical_formula_sum "Si O2"
_cell_formula_units_Z 48
_cell_length_a 22.528356
_cell_length_b 13.747936
_cell_length_c 12.377907
_cell_angle_alpha 90.000000
_cell_angle_beta 140.090494
_cell_angle_gamma 90.000000
_cell_volume 2459.591247
_symmetry_space_group_name_H-M "C 2/M"
_symmetry_group_IT_number 12
_symmetry_cell_setting 'monoclinic'
loop_
_space_group_symop_operation_xyz
x,y,z
-x,y,-z
-x,-y,-z
x,-y,z
1/2+x,1/2+y,z
1/2-x,1/2+y,-z
1/2-x,1/2-y,-z
1/2+x,1/2-y,z
loop_
_atom_site_type_symbol
_atom_site_label
_atom_site_fract_x
_atom_site_fract_y
_atom_site_fract_z
Si Si1 0.626207 0.391745 0.579077
Si Si2 0.212268 0.889675 0.098268
Si Si3 0.497485 0.608151 0.192249
Si Si4 0.883467 0.615269 0.175145
Si Si5 0.500000 0.757631 0.000000
Si Si6 0.000000 0.265526 0.500000
Si Si7 0.677080 0.810260 0.143149
O O1 0.610831 0.500000 0.603657
O O2 0.569955 0.383607 0.389321
O O3 0.585154 0.306335 0.594762
O O4 0.734219 0.375420 0.711165
O O5 0.290737 0.872695 0.118587
O O6 0.211889 0.802100 0.183586
O O7 0.226149 0.000000 0.160431
O O8 0.107100 0.886112 0.907009
O O9 0.506467 0.500000 0.156136
O O10 0.509424 0.688760 0.117798
O O11 0.900722 0.500000 0.189352
O O12 0.967414 0.667626 0.354953
O O13 0.862839 0.660718 0.030002
O O14 0.593502 0.817097 0.110541
#
# Coordination Sequence:
#
# PCOD9209809 Si02
#       7
#     8   8   8   8   4   4   8
#     4  11  24  38  58  91 124 152 192 245 302 356
#     4   9  18  35  60  87 118 154 196 241 291 349
#     4   9  19  36  59  90 119 150 195 247 296 347
#     4  11  23  39  60  88 122 160 197 241 294 352
#     4  10  21  38  65  80 110 164 206 242 286 342
#     4  12  22  38  62  88 124 158 194 240 292 362
#     4  11  22  40  60  88 121 158 201 244 294 349
#
# _framework density 19.515438
#
# number of rings (size 3 to 8) (size 9 to 14) (size 15 to 20)
#    0.000    1.667    1.667    3.750    2.333    1.333 
#    0.000    1.667    0.000    2.000    0.000    0.000 
#    0.000    0.000    0.000    0.000    0.000    0.000 
#
# Total GULP energy -134004.406584 kJ/mol
# GULP energy per Si atom -5583.516941 kJ/mol
# Density = 1.947102 g / cm^3
# Si number density = 19.515438 Si / 1000 Ang^3
#
#
#
# Elastic Constant Matrix: (Units=GPa)
#
#
# Indices 1 2 3 4 5 6 
#
# 1 62.8277 27.0799 -6.4906 0.0000 22.7503 0.0000
# 2 27.0799 100.8437 26.3286 0.0000 9.5975 0.0000
# 3 -6.4906 26.3286 55.3660 0.0000 10.7563 0.0000
# 4 0.0000 0.0000 0.0000 26.4783 0.0000 8.5567
# 5 22.7503 9.5975 10.7563 0.0000 22.2132 0.0000
# 6 0.0000 0.0000 0.0000 8.5567 0.0000 23.0830
#
#
#
# Elastic Compliance Matrix: (Units=1/GPa)
#
#
# Indices 1 2 3 4 5 6 
#
# 1 0.037931 -0.010780 0.017899 0.000000 -0.042858 0.000000
# 2 -0.010780 0.014515 -0.010037 0.000000 0.009630 0.000000
# 3 0.017899 -0.010037 0.030523 0.000000 -0.028776 0.000000
# 4 0.000000 0.000000 0.000000 0.042907 0.000000 -0.015905
# 5 -0.042858 0.009630 -0.028776 0.000000 0.098686 0.000000
# 6 0.000000 0.000000 0.000000 -0.015905 0.000000 0.049218
#
#
# Mechanical properties :
#
#
# Convention : Reuss Voigt Hill
#
# Bulk Modulus (GPa) = 12.96439 34.76368 23.86403
# Shear Modulus (GPa) = 16.37582 25.82952 21.10267
#
# Velocity S-wave (km/s) = 2.89990 3.64200 3.29193
# Velocity P-wave (km/s) = 4.22731 5.96135 5.16758
#
# Compressibility (1/GPa) = 0.07713437
#
# Stress axis : x y z
#
# Youngs Moduli (GPa) = 26.36339 68.89319 32.76167
#
# Poissons Ratio (x) = 0.74268 -0.58642
# Poissons Ratio (y) = 0.28420 0.32883
# Poissons Ratio (z) = -0.47189 0.69149
#
# Static dielectric constant tensor:
#      x y z
#    x 1.673260 0.000000 0.025080 
#    y 0.000000 1.722960 0.000000 
#    z 0.025080 0.000000 1.659950 
# 
# From -- ./inp_files/167657.got.cif
#   From: 2010.05.17/outbox.cif.g08.bks.cpg/sg12_84_cif.got.tgz:167657.got - 2010.06.03 13:09:07.
