data_PCOD9209838
_publ_section_title
;
Structure prediction by ZEFSAII (Michael W. Deem and Ramdas Pophale) SiO2 
 PCOD9209838
Probable space group: C 2/M
;
_chemical_formula_sum "Si O2"
_cell_formula_units_Z 56
_cell_length_a 22.872960
_cell_length_b 17.484352
_cell_length_c 13.678215
_cell_angle_alpha 90.000000
_cell_angle_beta 150.020148
_cell_angle_gamma 90.000000
_cell_volume 2733.422199
_symmetry_space_group_name_H-M "C 2/M"
_symmetry_group_IT_number 12
_symmetry_cell_setting 'monoclinic'
loop_
_space_group_symop_operation_xyz
x,y,z
-x,y,-z
-x,-y,-z
x,-y,z
1/2+x,1/2+y,z
1/2-x,1/2+y,-z
1/2-x,1/2-y,-z
1/2+x,1/2-y,z
loop_
_atom_site_type_symbol
_atom_site_label
_atom_site_fract_x
_atom_site_fract_y
_atom_site_fract_z
Si Si1 0.323071 0.671011 0.109988
Si Si2 0.635085 0.414576 0.225934
Si Si3 0.685938 0.689581 0.476573
Si Si4 0.778985 0.820732 0.831799
Si Si5 0.892297 0.331520 0.918176
Si Si6 0.613622 0.089034 0.892746
Si Si7 0.467021 0.226926 0.588708
O O1 0.449422 0.703064 0.322443
O O2 0.250000 0.750000 0.000000
O O3 0.319370 0.642441 0.991995
O O4 0.249087 0.613556 0.069387
O O5 0.681237 0.500000 0.301181
O O6 0.639133 0.373148 0.335297
O O7 0.704782 0.371572 0.241138
O O8 0.500000 0.415491 0.000000
O O9 0.750000 0.750000 0.500000
O O10 0.778056 0.654329 0.686423
O O11 0.591846 0.738279 0.399322
O O12 0.859077 0.746448 0.927369
O O13 0.643002 0.795128 0.638684
O O14 0.914239 0.393433 0.034026
O O15 0.000000 0.321054 0.000000
O O16 0.537655 0.149587 0.718676
O O17 0.594278 0.000000 0.841180
#
# Coordination Sequence:
#
# PCOD9209838 Si02
#       7
#     8   8   8   8   8   8   8
#     4  10  21  40  63  89 120 166 212 262 306 378
#     4  11  24  38  59  92 135 171 204 262 322 370
#     4  11  21  37  64  97 125 168 220 258 307 382
#     4  11  21  37  66  95 123 161 222 259 309 378
#     4  11  22  38  66  97 126 168 209 259 315 381
#     4  11  25  43  62  94 132 166 208 266 327 375
#     4  10  21  38  65  95 119 169 215 263 311 373
#
# _framework density 20.487138000000002
#
# number of rings (size 3 to 8) (size 9 to 14) (size 15 to 20)
#    0.000    1.286    5.714    2.143    0.000    4.286 
#    0.000    1.429    0.000    4.286    0.000    0.000 
#    0.000    0.000    0.000    0.000    0.000    0.000 
#
# Total GULP energy -156375.386571 kJ/mol
# GULP energy per Si atom -5584.835235 kJ/mol
# Density = 2.044051 g / cm^3
# Si number density = 20.487138 Si / 1000 Ang^3
#
#
#
# Elastic Constant Matrix: (Units=GPa)
#
#
# Indices 1 2 3 4 5 6 
#
# 1 91.9292 20.2151 26.4958 0.0000 2.3894 0.0000
# 2 20.2151 89.8863 29.4324 0.0000 1.3415 0.0000
# 3 26.4958 29.4324 93.9694 0.0000 5.3265 0.0000
# 4 0.0000 0.0000 0.0000 5.5755 0.0000 9.9163
# 5 2.3894 1.3415 5.3265 0.0000 38.7785 0.0000
# 6 0.0000 0.0000 0.0000 9.9163 0.0000 17.1156
#
#
#
# Elastic Compliance Matrix: (Units=1/GPa)
#
#
# Indices 1 2 3 4 5 6 
#
# 1 0.012095 -0.001788 -0.002834 0.000000 -0.000294 0.000000
# 2 -0.001788 0.012661 -0.003470 0.000000 0.000149 0.000000
# 3 -0.002834 -0.003470 0.012609 0.000000 -0.001437 0.000000
# 4 0.000000 0.000000 0.000000 -5.892626 0.000000 3.414022
# 5 -0.000294 0.000149 -0.001437 0.000000 0.025998 0.000000
# 6 0.000000 0.000000 0.000000 3.414022 0.000000 -1.919562
#
#
# Mechanical properties :
#
#
# Convention : Reuss Voigt Hill
#
# Bulk Modulus (GPa) = 47.20888 47.56348 47.38618
# Shear Modulus (GPa) = -0.64720 25.60336 12.47808
#
# Velocity S-wave (km/s) = -0.56266 3.53899 2.47061
# Velocity P-wave (km/s) = 4.76142 6.32186 5.59629
#
# Compressibility (1/GPa) = 0.02118245
#
# Stress axis : x y z
#
# Youngs Moduli (GPa) = 82.67540 78.98107 79.30787
#
# Poissons Ratio (x) = 0.14121 0.22474
# Poissons Ratio (y) = 0.14782 0.27520
# Poissons Ratio (z) = 0.23428 0.27406
#
# Static dielectric constant tensor:
#      x y z
#    x 1.793130 0.000000 -0.009200 
#    y 0.000000 1.710360 0.000000 
#    z -0.009200 0.000000 1.790660 
# 
# From -- ./inp_files/234694.got.cif
#   From: 2010.05.17/outbox.cif.g08.bks.cpg/sg12_118_cif.got.tgz:234694.got - 2010.06.03 13:09:07.
