data_PCOD9209890
_publ_section_title
;
Structure prediction by ZEFSAII (Michael W. Deem and Ramdas Pophale) SiO2 
 PCOD9209890
Probable space group: C 2/M
;
_chemical_formula_sum "Si O2"
_cell_formula_units_Z 38
_cell_length_a 5.797379
_cell_length_b 21.826256
_cell_length_c 12.057272
_cell_angle_alpha 90.000000
_cell_angle_beta 98.067229
_cell_angle_gamma 90.000000
_cell_volume 1510.569977
_symmetry_space_group_name_H-M "C 2/M"
_symmetry_group_IT_number 12
_symmetry_cell_setting 'monoclinic'
loop_
_space_group_symop_operation_xyz
x,y,z
-x,y,-z
-x,-y,-z
x,-y,z
1/2+x,1/2+y,z
1/2-x,1/2+y,-z
1/2-x,1/2-y,-z
1/2+x,1/2-y,z
loop_
_atom_site_type_symbol
_atom_site_label
_atom_site_fract_x
_atom_site_fract_y
_atom_site_fract_z
Si Si1 0.916566 0.179272 0.115390
Si Si2 0.500000 0.897726 0.000000
Si Si3 0.769161 0.570289 0.203397
Si Si4 0.360950 0.883516 0.587514
Si Si5 0.598292 0.724554 0.656319
Si Si6 0.500000 0.000000 0.500000
O O1 0.676957 0.145395 0.076125
O O2 0.880657 0.228643 0.208498
O O3 0.082345 0.124716 0.174288
O O4 0.000000 0.201459 0.000000
O O5 0.628833 0.934877 0.913598
O O6 0.701362 0.500000 0.233953
O O7 0.963543 0.595788 0.301810
O O8 0.500000 0.847218 0.500000
O O9 0.151051 0.844693 0.621435
O O10 0.313415 0.946224 0.521525
O O11 0.328654 0.742136 0.622577
#
# Coordination Sequence:
#
# PCOD9209890 Si02
#       6
#     8   4   8   8   8   2
#     4  10  24  42  66 103 146 195 255 303 376 450
#     4  10  21  38  66  96 146 184 240 303 370 452
#     4  11  20  39  67 104 145 191 238 306 371 453
#     4  10  21  45  77 109 149 193 250 297 379 441
#     4  12  27  48  77 108 150 202 253 318 374 439
#     4   8  20  44  80 112 144 204 234 312 370 446
#
# _framework density 25.156065000000002
#
# number of rings (size 3 to 8) (size 9 to 14) (size 15 to 20)
#    0.632    0.842    3.158    1.579    2.947    6.316 
#    1.895    3.158    0.000    6.316    0.000    0.000 
#    0.000    0.000    0.000    0.000    0.000    0.000 
#
# Total GULP energy -105836.223190 kJ/mol
# GULP energy per Si atom -5570.327536 kJ/mol
# Density = 2.509881 g / cm^3
# Si number density = 25.156065 Si / 1000 Ang^3
#
#
#
# Elastic Constant Matrix: (Units=GPa)
#
#
# Indices 1 2 3 4 5 6 
#
# 1 129.5847 72.6580 42.5540 0.0000 -12.4172 0.0000
# 2 72.6580 105.2660 31.9289 0.0000 -14.5506 0.0000
# 3 42.5540 31.9289 123.1650 0.0000 -8.2265 0.0000
# 4 0.0000 0.0000 0.0000 286.5212 0.0000 -144.8859
# 5 -12.4172 -14.5506 -8.2265 0.0000 45.2148 0.0000
# 6 0.0000 0.0000 0.0000 -144.8859 0.0000 -24.7218
#
#
#
# Elastic Compliance Matrix: (Units=1/GPa)
#
#
# Indices 1 2 3 4 5 6 
#
# 1 0.013217 -0.008332 -0.002372 0.000000 0.000517 0.000000
# 2 -0.008332 0.015943 -0.001078 0.000000 0.002647 0.000000
# 3 -0.002372 -0.001078 0.009264 0.000000 0.000687 0.000000
# 4 0.000000 0.000000 0.000000 0.000881 0.000000 -0.005161
# 5 0.000517 0.002647 0.000687 0.000000 0.023235 0.000000
# 6 0.000000 0.000000 0.000000 -0.005161 0.000000 -0.010205
#
#
# Mechanical properties :
#
#
# Convention : Reuss Voigt Hill
#
# Bulk Modulus (GPa) = 67.28923 72.47748 69.88336
# Shear Modulus (GPa) = 61.84117 75.46115 68.65116
#
# Velocity S-wave (km/s) = 4.96350 5.48291 5.22966
# Velocity P-wave (km/s) = 7.72368 8.30402 8.01910
#
# Compressibility (1/GPa) = 0.01486122
#
# Stress axis : x y z
#
# Youngs Moduli (GPa) = 75.65896 62.72172 107.94440
#
# Poissons Ratio (x) = 0.52260 0.25606
# Poissons Ratio (y) = 0.63039 0.11632
# Poissons Ratio (z) = 0.17947 0.06759
#
# Static dielectric constant tensor:
#      x y z
#    x 2.034360 0.000000 -0.047060 
#    y 0.000000 1.989930 0.000000 
#    z -0.047060 0.000000 2.084910 
# 
# From -- ./inp_files/115517.got.cif
#   From: 2010.05.17/outbox.cif.g08.bks.cpg/sg12_58_cif.got.tgz:115517.got - 2010.06.03 13:09:07.
