data_PCOD9209335
_publ_section_title
;
Structure prediction by ZEFSAII (Michael W. Deem and Ramdas Pophale) SiO2 
 PCOD9209335
Probable space group: C 2/M
;
_chemical_formula_sum "Si O2"
_cell_formula_units_Z 34
_cell_length_a 18.138845
_cell_length_b 13.575894
_cell_length_c 22.799824
_cell_angle_alpha 90.000000
_cell_angle_beta 15.455073
_cell_angle_gamma 90.000000
_cell_volume 1496.161804
_symmetry_space_group_name_H-M "C 2/M"
_symmetry_group_IT_number 12
_symmetry_cell_setting 'monoclinic'
loop_
_space_group_symop_operation_xyz
x,y,z
-x,y,-z
-x,-y,-z
x,-y,z
1/2+x,1/2+y,z
1/2-x,1/2+y,-z
1/2-x,1/2-y,-z
1/2+x,1/2-y,z
loop_
_atom_site_type_symbol
_atom_site_label
_atom_site_fract_x
_atom_site_fract_y
_atom_site_fract_z
Si Si1 0.138968 0.387968 0.956311
Si Si2 0.000000 0.000000 0.000000
Si Si3 0.228237 0.288207 0.674007
Si Si4 0.207379 0.612853 0.565440
Si Si5 0.043546 0.390883 0.566321
O O1 0.059160 0.500000 0.036643
O O2 0.465602 0.387018 0.697329
O O3 0.000000 0.370554 0.000000
O O4 0.026188 0.308754 0.088426
O O5 0.779081 0.915470 0.193122
O O6 0.500000 0.329670 0.500000
O O7 0.163347 0.339093 0.661874
O O8 0.313642 0.178222 0.590132
O O9 0.103205 0.500000 0.648622
O O10 0.074424 0.654566 0.607873
O O11 0.180797 0.500000 0.461516
#
# Coordination Sequence:
#
# PCOD9209335 Si02
#       5
#     8   2   8   8   8
#     4  10  21  38  62 101 144 181 215 271 344 419
#     4   8  20  48  74  92 124 196 232 282 344 392
#     4  12  23  37  68 103 136 181 229 276 343 408
#     4  10  21  41  68 101 141 175 221 282 345 412
#     4   9  22  44  69  96 133 181 234 288 337 395
#
# _framework density 22.724815
#
# number of rings (size 3 to 8) (size 9 to 14) (size 15 to 20)
#    0.706    1.176    2.353    1.412    0.000    4.235 
#    0.000    2.353    5.176    0.706    0.000    0.000 
#    0.000    0.000    0.000    0.000    0.000    0.000 
#
# Total GULP energy -94676.650606 kJ/mol
# GULP energy per Si atom -5569.214742 kJ/mol
# Density = 2.267309 g / cm^3
# Si number density = 22.724815 Si / 1000 Ang^3
#
#
#
# Elastic Constant Matrix: (Units=GPa)
#
#
# Indices 1 2 3 4 5 6 
#
# 1 83.6050 35.6072 10.0519 -0.3204 28.7956 0.0041
# 2 35.6072 94.8417 30.9300 -0.3668 30.2902 0.0237
# 3 10.0519 30.9300 66.2393 -0.8402 24.1617 0.1225
# 4 -0.3204 -0.3668 -0.8402 62.4766 0.1187 6.9746
# 5 28.7956 30.2902 24.1617 0.1187 24.5213 -0.0078
# 6 0.0041 0.0237 0.1225 6.9746 -0.0078 25.1799
#
#
#
# Elastic Compliance Matrix: (Units=1/GPa)
#
#
# Indices 1 2 3 4 5 6 
#
# 1 0.023888 -0.000207 0.010328 0.000351 -0.037975 -0.000163
# 2 -0.000207 0.017425 -0.000531 0.000140 -0.020759 -0.000059
# 3 0.010328 -0.000531 0.028053 0.000535 -0.039117 -0.000298
# 4 0.000351 0.000140 0.000535 0.016530 -0.001193 -0.004582
# 5 -0.037975 -0.020759 -0.039117 -0.001193 0.149568 0.000593
# 6 -0.000163 -0.000059 -0.000298 -0.004582 0.000593 0.040985
#
#
# Mechanical properties :
#
#
# Convention : Reuss Voigt Hill
#
# Bulk Modulus (GPa) = 11.29342 44.20713 27.75028
# Shear Modulus (GPa) = 17.43465 33.64201 25.53833
#
# Velocity S-wave (km/s) = 2.77286 3.85178 3.35596
# Velocity P-wave (km/s) = 3.90283 6.26714 5.22059
#
# Compressibility (1/GPa) = 0.08854710
#
# Stress axis : x y z
#
# Youngs Moduli (GPa) = 41.86131 57.38772 35.64632
#
# Poissons Ratio (x) = 0.01189 -0.36817
# Poissons Ratio (y) = 0.00867 0.01894
# Poissons Ratio (z) = -0.43236 0.03049
#
# Static dielectric constant tensor:
#      x y z
#    x 1.882460 -0.000020 -0.029340 
#    y -0.000020 1.919920 0.000210 
#    z -0.029340 0.000210 1.778900 
# 
# From -- ./inp_files/316425.got.cif
#   From: 2010.05.17/outbox.cif.g08.bks.cpg/sg12_159_cif.got.tgz:316425.got - 2010.06.03 13:09:07.
