data_PCOD9209737
_publ_section_title
;
Structure prediction by ZEFSAII (Michael W. Deem and Ramdas Pophale) SiO2 
 PCOD9209737
Probable space group: C 2/M
;
_chemical_formula_sum "Si O2"
_cell_formula_units_Z 60
_cell_length_a 19.585467
_cell_length_b 7.534579
_cell_length_c 22.899539
_cell_angle_alpha 90.000000
_cell_angle_beta 133.727381
_cell_angle_gamma 90.000000
_cell_volume 2441.967024
_symmetry_space_group_name_H-M "C 2/M"
_symmetry_group_IT_number 12
_symmetry_cell_setting 'monoclinic'
loop_
_space_group_symop_operation_xyz
x,y,z
-x,y,-z
-x,-y,-z
x,-y,z
1/2+x,1/2+y,z
1/2-x,1/2+y,-z
1/2-x,1/2-y,-z
1/2+x,1/2-y,z
loop_
_atom_site_type_symbol
_atom_site_label
_atom_site_fract_x
_atom_site_fract_y
_atom_site_fract_z
Si Si1 0.336697 0.000000 0.526494
Si Si2 0.259356 0.289734 0.073354
Si Si3 0.748235 0.296831 0.735313
Si Si4 0.052576 0.208801 0.974975
Si Si5 0.442679 0.301116 0.803484
Si Si6 0.896210 0.785174 0.644879
Si Si7 0.107223 0.785099 0.751667
Si Si8 0.104857 0.303160 0.555614
O O1 0.327768 0.155459 0.571335
O O2 0.361746 0.152561 0.489911
O O3 0.259804 0.500000 0.079580
O O4 0.352191 0.223961 0.161896
O O5 0.250000 0.250000 0.000000
O O6 0.164219 0.222697 0.047352
O O7 0.773581 0.500000 0.764710
O O8 0.845411 0.196300 0.782307
O O9 0.680624 0.225369 0.746183
O O10 0.685157 0.293099 0.639679
O O11 0.017956 0.284411 0.892079
O O12 0.027160 0.000000 0.956832
O O13 0.000000 0.285812 0.000000
O O14 0.478417 0.500000 0.810559
O O15 0.412636 0.233280 0.722300
O O16 0.998801 0.740944 0.677255
O O17 0.871619 0.000000 0.627084
O O18 0.107173 0.000000 0.750512
O O19 0.096236 0.500000 0.579514
O O20 0.000000 0.222515 0.500000
#
# Coordination Sequence:
#
# PCOD9209737 Si02
#       8
#     4   8   8   8   8   8   8   8
#     4  10  21  38  64  92 119 156 203 252 304 380
#     4  11  22  38  58  85 129 163 207 261 313 362
#     4  11  22  37  64  92 120 155 205 251 306 373
#     4  10  21  39  62  88 121 163 210 257 315 373
#     4  10  22  40  61  84 124 167 200 253 310 364
#     4  10  21  40  64  88 125 167 212 253 313 372
#     4   9  20  38  59  89 122 162 202 257 311 364
#     4   9  20  38  60  88 125 152 186 249 311 364
#
# _framework density 24.570354999999999
#
# number of rings (size 3 to 8) (size 9 to 14) (size 15 to 20)
#    0.400    1.600    0.000    3.200    0.933    3.733 
#    6.000    0.667    0.000    0.400    0.000    0.000 
#    0.000    0.000    0.000    0.000    0.000    0.000 
#
# Total GULP energy -167126.097216 kJ/mol
# GULP energy per Si atom -5570.869907 kJ/mol
# Density = 2.451443 g / cm^3
# Si number density = 24.570355 Si / 1000 Ang^3
#
#
#
# Elastic Constant Matrix: (Units=GPa)
#
#
# Indices 1 2 3 4 5 6 
#
# 1 67.9926 11.3306 -1.1171 0.0000 -5.1448 0.0000
# 2 11.3306 75.1825 33.9441 0.0000 -2.2525 -0.0001
# 3 -1.1171 33.9441 97.5532 0.0000 -11.2373 0.0000
# 4 0.0000 0.0000 0.0000 14.2212 0.0000 -3.3958
# 5 -5.1448 -2.2525 -11.2373 0.0000 47.0078 0.0000
# 6 0.0000 -0.0001 0.0000 -3.3958 0.0000 16.7900
#
#
#
# Elastic Compliance Matrix: (Units=1/GPa)
#
#
# Indices 1 2 3 4 5 6 
#
# 1 0.015354 -0.002888 0.001397 0.000000 0.001876 0.000000
# 2 -0.002888 0.016338 -0.005825 0.000000 -0.000926 0.000000
# 3 0.001397 -0.005825 0.012627 0.000000 0.002892 0.000000
# 4 0.000000 0.000000 0.000000 0.073886 0.000000 0.014943
# 5 0.001876 -0.000926 0.002892 0.000000 0.022125 0.000000
# 6 0.000000 0.000000 0.000000 0.014943 0.000000 0.062581
#
#
# Mechanical properties :
#
#
# Convention : Reuss Voigt Hill
#
# Bulk Modulus (GPa) = 33.68546 36.56038 35.12292
# Shear Modulus (GPa) = 21.98392 28.70852 25.34622
#
# Velocity S-wave (km/s) = 2.99446 3.42193 3.21530
# Velocity P-wave (km/s) = 5.06905 5.52494 5.30190
#
# Compressibility (1/GPa) = 0.02968640
#
# Stress axis : x y z
#
# Youngs Moduli (GPa) = 65.13075 61.20579 79.19724
#
# Poissons Ratio (x) = 0.17679 -0.11063
# Poissons Ratio (y) = 0.18813 0.46130
# Poissons Ratio (z) = -0.09098 0.35650
#
# Static dielectric constant tensor:
#      x y z
#    x 1.978110 0.000000 0.044110 
#    y 0.000000 1.955490 0.000000 
#    z 0.044110 0.000000 2.029900 
# 
# From -- ./inp_files/320564.got.cif
#   From: 2010.05.17/outbox.cif.g08.bks.cpg/sg12_161_cif.got.tgz:320564.got - 2010.06.03 13:09:07.
