data_PCOD9209492
_publ_section_title
;
Structure prediction by ZEFSAII (Michael W. Deem and Ramdas Pophale) SiO2 
 PCOD9209492
Probable space group: C 2/M
;
_chemical_formula_sum "Si O2"
_cell_formula_units_Z 40
_cell_length_a 24.361452
_cell_length_b 15.655278
_cell_length_c 8.898659
_cell_angle_alpha 90.000000
_cell_angle_beta 30.936583
_cell_angle_gamma 90.000000
_cell_volume 1744.724436
_symmetry_space_group_name_H-M "C 2/M"
_symmetry_group_IT_number 12
_symmetry_cell_setting 'monoclinic'
loop_
_space_group_symop_operation_xyz
x,y,z
-x,y,-z
-x,-y,-z
x,-y,z
1/2+x,1/2+y,z
1/2-x,1/2+y,-z
1/2-x,1/2-y,-z
1/2+x,1/2-y,z
loop_
_atom_site_type_symbol
_atom_site_label
_atom_site_fract_x
_atom_site_fract_y
_atom_site_fract_z
Si Si1 0.526108 0.401260 0.613329
Si Si2 0.380147 0.097188 0.723700
Si Si3 0.197952 0.861047 0.714607
Si Si4 0.582178 0.095063 0.691973
Si Si5 0.216894 0.186900 0.330306
O O1 0.500000 0.384536 0.500000
O O2 0.566490 0.500000 0.531852
O O3 0.610008 0.333179 0.483741
O O4 0.412693 0.394934 0.962662
O O5 0.500000 0.093277 0.500000
O O6 0.392085 0.135887 0.528981
O O7 0.337765 0.000000 0.805690
O O8 0.307295 0.145673 0.012550
O O9 0.305347 0.913173 0.491825
O O10 0.189274 0.854060 0.556288
O O11 0.229805 0.774603 0.731740
O O12 0.536192 0.000000 0.766857
O O13 0.500000 0.139450 0.000000
#
# Coordination Sequence:
#
# PCOD9209492 Si02
#       5
#     8   8   8   8   8
#     4  11  25  45  69  98 132 174 225 275 328 397
#     4  10  21  38  62  92 125 165 215 269 327 391
#     4  11  25  42  63  93 130 171 218 273 332 391
#     4  10  21  38  62  92 126 166 215 271 327 388
#     4  11  25  42  63  94 131 171 219 273 327 391
#
# _framework density 22.926255999999999
#
# number of rings (size 3 to 8) (size 9 to 14) (size 15 to 20)
#    0.000    1.400    0.000    4.200    0.000   17.600 
#    0.000    0.000    0.000    0.000    0.000    0.000 
#    0.000    0.000    0.000    0.000    0.000    0.000 
#
# Total GULP energy -111590.216888 kJ/mol
# GULP energy per Si atom -5579.510844 kJ/mol
# Density = 2.287408 g / cm^3
# Si number density = 22.926256 Si / 1000 Ang^3
#
#
#
# Elastic Constant Matrix: (Units=GPa)
#
#
# Indices 1 2 3 4 5 6 
#
# 1 121.4097 57.3507 52.3854 0.0000 17.2973 0.0000
# 2 57.3507 74.6655 45.6064 0.0000 19.2469 0.0000
# 3 52.3854 45.6064 191.6447 0.0000 23.6238 0.0000
# 4 0.0000 0.0000 0.0000 59.8730 0.0000 -11.0659
# 5 17.2973 19.2469 23.6238 0.0000 55.6725 0.0000
# 6 0.0000 0.0000 0.0000 -11.0659 0.0000 17.1644
#
#
#
# Elastic Compliance Matrix: (Units=1/GPa)
#
#
# Indices 1 2 3 4 5 6 
#
# 1 0.013247 -0.009246 -0.001379 0.000000 -0.000334 0.000000
# 2 -0.009246 0.023039 -0.002456 0.000000 -0.004050 0.000000
# 3 -0.001379 -0.002456 0.006354 0.000000 -0.001419 0.000000
# 4 0.000000 0.000000 0.000000 0.018961 0.000000 0.012224
# 5 -0.000334 -0.004050 -0.001419 0.000000 0.020068 0.000000
# 6 0.000000 0.000000 0.000000 0.012224 0.000000 0.066141
#
#
# Mechanical properties :
#
#
# Convention : Reuss Voigt Hill
#
# Bulk Modulus (GPa) = 60.69065 77.60053 69.14559
# Shear Modulus (GPa) = 27.86013 42.03382 34.94698
#
# Velocity S-wave (km/s) = 3.48976 4.28651 3.90849
# Velocity P-wave (km/s) = 6.53969 7.64331 7.11294
#
# Compressibility (1/GPa) = 0.01647700
#
# Stress axis : x y z
#
# Youngs Moduli (GPa) = 75.48796 43.40374 157.37069
#
# Poissons Ratio (x) = 0.40133 0.21709
# Poissons Ratio (y) = 0.69800 0.38651
# Poissons Ratio (z) = 0.10413 0.10660
#
# Static dielectric constant tensor:
#      x y z
#    x 1.858720 0.000000 0.018140 
#    y 0.000000 1.968890 0.000000 
#    z 0.018140 0.000000 1.796100 
# 
# From -- ./inp_files/98981.got.cif
#   From: 2010.05.17/outbox.cif.g08.bks.cpg/sg12_50_cif.got.tgz:98981.got - 2010.06.03 13:09:07.
