data_PCOD9209318
_publ_section_title
;
Structure prediction by ZEFSAII (Michael W. Deem and Ramdas Pophale) SiO2 
 PCOD9209318
Probable space group: C 2/M
;
_chemical_formula_sum "Si O2"
_cell_formula_units_Z 58
_cell_length_a 9.651665
_cell_length_b 17.692646
_cell_length_c 19.571245
_cell_angle_alpha 90.000000
_cell_angle_beta 51.721411
_cell_angle_gamma 90.000000
_cell_volume 2623.538979
_symmetry_space_group_name_H-M "C 2/M"
_symmetry_group_IT_number 12
_symmetry_cell_setting 'monoclinic'
loop_
_space_group_symop_operation_xyz
x,y,z
-x,y,-z
-x,-y,-z
x,-y,z
1/2+x,1/2+y,z
1/2-x,1/2+y,-z
1/2-x,1/2-y,-z
1/2+x,1/2-y,z
loop_
_atom_site_type_symbol
_atom_site_label
_atom_site_fract_x
_atom_site_fract_y
_atom_site_fract_z
Si Si1 0.264480 0.613343 0.890235
Si Si2 0.873567 0.136279 0.477840
Si Si3 0.792174 0.277838 0.848573
Si Si4 0.111556 0.914193 0.291026
Si Si5 0.488033 0.811502 0.426850
Si Si6 0.317094 0.757833 0.259779
Si Si7 0.200998 0.081519 0.962953
Si Si8 0.000000 0.500000 0.000000
O O1 0.237907 0.702098 0.904025
O O2 0.400429 0.596170 0.787522
O O3 0.304378 0.583642 0.953399
O O4 0.090266 0.566533 0.924773
O O5 0.666794 0.139211 0.560321
O O6 0.921721 0.224548 0.451859
O O7 0.000000 0.108047 0.500000
O O8 0.933334 0.096319 0.389704
O O9 0.665822 0.278010 0.821326
O O10 0.994151 0.265381 0.762241
O O11 0.791520 0.348899 0.898014
O O12 0.234360 0.842385 0.276066
O O13 0.175813 0.000000 0.284467
O O14 0.500000 0.840978 0.500000
O O15 0.681480 0.798564 0.337749
O O16 0.277897 0.000000 0.919855
O O17 0.000000 0.084688 0.000000
#
# Coordination Sequence:
#
# PCOD9209318 Si02
#       8
#     8   8   8   8   8   8   8   2
#     4  11  24  40  65  91 126 164 219 265 316 382
#     4   9  19  34  60  90 123 161 202 256 316 374
#     4  11  25  40  64  95 130 165 216 273 318 377
#     4  10  21  38  61  94 126 164 211 264 315 374
#     4   9  19  34  59  88 122 160 204 254 311 383
#     4  10  24  38  62  95 126 164 213 264 322 379
#     4  11  24  42  63  90 130 175 212 261 331 390
#     4  12  24  40  66  96 116 170 212 272 318 372
#
# _framework density 22.107541999999999
#
# number of rings (size 3 to 8) (size 9 to 14) (size 15 to 20)
#    0.000    1.793    1.379    1.241   16.414    0.828 
#    0.000    0.000    0.000    0.414    0.000    0.000 
#    0.000    0.000    0.000    0.000    0.000    0.000 
#
# Total GULP energy -161518.149682 kJ/mol
# GULP energy per Si atom -5569.591368 kJ/mol
# Density = 2.205722 g / cm^3
# Si number density = 22.107542 Si / 1000 Ang^3
#
#
#
# Elastic Constant Matrix: (Units=GPa)
#
#
# Indices 1 2 3 4 5 6 
#
# 1 62.3323 9.5410 19.4981 0.0002 -1.3440 -0.0001
# 2 9.5410 124.3193 42.9487 0.0000 0.6845 0.0000
# 3 19.4981 42.9487 95.2451 0.0001 0.1681 0.0000
# 4 0.0002 0.0000 0.0001 18.5868 -0.0001 -10.5045
# 5 -1.3440 0.6845 0.1681 -0.0001 27.5338 0.0000
# 6 -0.0001 0.0000 0.0000 -10.5045 0.0000 7.3936
#
#
#
# Elastic Compliance Matrix: (Units=1/GPa)
#
#
# Indices 1 2 3 4 5 6 
#
# 1 0.017163 -0.000127 -0.003458 0.000000 0.000862 0.000000
# 2 -0.000127 0.009530 -0.004271 0.000000 -0.000217 0.000000
# 3 -0.003458 -0.004271 0.013133 0.000000 -0.000143 0.000000
# 4 0.000000 0.000000 0.000000 0.273048 0.000001 0.387937
# 5 0.000862 -0.000217 -0.000143 0.000001 0.036367 0.000001
# 6 0.000000 0.000000 0.000000 0.387937 0.000001 0.686419
#
#
# Mechanical properties :
#
#
# Convention : Reuss Voigt Hill
#
# Bulk Modulus (GPa) = 41.46924 47.31913 44.39419
# Shear Modulus (GPa) = 4.71961 24.69677 14.70819
#
# Velocity S-wave (km/s) = 1.46269 3.34596 2.58214
# Velocity P-wave (km/s) = 4.65310 6.03140 5.38652
#
# Compressibility (1/GPa) = 0.02411426
#
# Stress axis : x y z
#
# Youngs Moduli (GPa) = 58.26592 104.92866 76.14292
#
# Poissons Ratio (x) = 0.01337 0.26327
# Poissons Ratio (y) = 0.00743 0.32521
# Poissons Ratio (z) = 0.20146 0.44815
#
# Static dielectric constant tensor:
#      x y z
#    x 1.946280 0.000000 -0.060510 
#    y 0.000000 1.908020 0.000000 
#    z -0.060510 0.000000 1.880690 
# 
# From -- ./inp_files/306355.got.cif
#   From: 2010.05.17/outbox.cif.g08.bks.cpg/sg12_154_cif.got.tgz:306355.got - 2010.06.03 13:09:07.
