data_PCOD9209662
_publ_section_title
;
Structure prediction by ZEFSAII (Michael W. Deem and Ramdas Pophale) SiO2 
 PCOD9209662
Probable space group: C 2/M
;
_chemical_formula_sum "Si O2"
_cell_formula_units_Z 48
_cell_length_a 29.304048
_cell_length_b 13.745463
_cell_length_c 9.295718
_cell_angle_alpha 90.000000
_cell_angle_beta 40.378432
_cell_angle_gamma 90.000000
_cell_volume 2425.677852
_symmetry_space_group_name_H-M "C 2/M"
_symmetry_group_IT_number 12
_symmetry_cell_setting 'monoclinic'
loop_
_space_group_symop_operation_xyz
x,y,z
-x,y,-z
-x,-y,-z
x,-y,z
1/2+x,1/2+y,z
1/2-x,1/2+y,-z
1/2-x,1/2-y,-z
1/2+x,1/2-y,z
loop_
_atom_site_type_symbol
_atom_site_label
_atom_site_fract_x
_atom_site_fract_y
_atom_site_fract_z
Si Si1 0.683553 0.263634 0.498755
Si Si2 0.576174 0.610576 0.244275
Si Si3 0.433598 0.616853 0.064388
Si Si4 0.833371 0.259366 0.786692
Si Si5 0.573643 0.114590 0.258632
Si Si6 0.820222 0.617962 0.240231
O O1 0.635767 0.337168 0.703360
O O2 0.651762 0.250464 0.417618
O O3 0.759486 0.317022 0.309050
O O4 0.682860 0.163304 0.591692
O O5 0.500000 0.609928 0.500000
O O6 0.603826 0.500000 0.176795
O O7 0.628165 0.677940 0.209423
O O8 0.563936 0.641773 0.109503
O O9 0.431193 0.500000 0.080352
O O10 0.500000 0.650370 0.000000
O O11 0.865770 0.357490 0.773589
O O12 0.750000 0.250000 0.000000
O O13 0.500000 0.157039 0.500000
O O14 0.563998 0.000000 0.274800
O O15 0.607190 0.139549 0.021528
O O16 0.808589 0.500000 0.264950
#
# Coordination Sequence:
#
# PCOD9209662 Si02
#       6
#     8   8   8   8   8   8
#     4  11  23  38  61  90 127 160 207 258 322 378
#     4  10  22  40  63  91 126 166 209 258 311 370
#     4  10  21  38  63  94 127 165 210 259 317 377
#     4  12  24  39  60  93 129 164 208 258 316 384
#     4  10  22  43  67  89 122 169 218 266 313 372
#     4  10  22  41  63  88 121 165 214 262 316 375
#
# _framework density 19.788284000000001
#
# number of rings (size 3 to 8) (size 9 to 14) (size 15 to 20)
#    0.000    1.500    1.667    3.000    2.333    5.333 
#    0.000    0.000    0.000    3.500    0.000    0.000 
#    0.000    0.000    0.000    0.000    0.000    0.000 
#
# Total GULP energy -133891.876017 kJ/mol
# GULP energy per Si atom -5578.828167 kJ/mol
# Density = 1.974324 g / cm^3
# Si number density = 19.788284 Si / 1000 Ang^3
#
#
#
# Elastic Constant Matrix: (Units=GPa)
#
#
# Indices 1 2 3 4 5 6 
#
# 1 79.9080 11.1999 29.7696 0.0000 21.3358 0.0000
# 2 11.1999 76.0177 22.9406 0.0000 7.8692 0.0000
# 3 29.7696 22.9406 126.9070 0.0000 5.1198 0.0000
# 4 0.0000 0.0000 0.0000 1.8227 0.0000 -12.8160
# 5 21.3358 7.8692 5.1198 0.0000 46.2597 0.0000
# 6 0.0000 0.0000 0.0000 -12.8160 0.0000 18.4014
#
#
#
# Elastic Compliance Matrix: (Units=1/GPa)
#
#
# Indices 1 2 3 4 5 6 
#
# 1 0.015622 -0.000614 -0.003282 0.000000 -0.006738 0.000000
# 2 -0.000614 0.014144 -0.002338 0.000000 -0.001864 0.000000
# 3 -0.003282 -0.002338 0.009035 0.000000 0.000911 0.000000
# 4 0.000000 0.000000 0.000000 -0.140780 0.000000 -0.098049
# 5 -0.006738 -0.001864 0.000911 0.000000 0.024941 0.000000
# 6 0.000000 0.000000 0.000000 -0.098049 0.000000 -0.013944
#
#
# Mechanical properties :
#
#
# Convention : Reuss Voigt Hill
#
# Bulk Modulus (GPa) = 37.97254 45.62810 41.80032
# Shear Modulus (GPa) = -71.69667 27.89160 -21.90253
#
# Velocity S-wave (km/s) = -6.02582 3.75840 -3.33054
# Velocity P-wave (km/s) = 5.40213 6.47629 2.52580
#
# Compressibility (1/GPa) = 0.02633482
#
# Stress axis : x y z
#
# Youngs Moduli (GPa) = 64.01230 70.70308 110.67566
#
# Poissons Ratio (x) = 0.04340 0.36322
# Poissons Ratio (y) = 0.03929 0.25871
# Poissons Ratio (z) = 0.21008 0.16527
#
# Static dielectric constant tensor:
#      x y z
#    x 1.684930 0.000000 0.011900 
#    y 0.000000 1.717060 0.000000 
#    z 0.011900 0.000000 1.716150 
# 
# From -- ./inp_files/104954.got.cif
#   From: 2010.05.17/outbox.cif.g08.bks.cpg/sg12_53_cif.got.tgz:104954.got - 2010.06.03 13:09:07.
