data_PCOD9209644
_publ_section_title
;
Structure prediction by ZEFSAII (Michael W. Deem and Ramdas Pophale) SiO2 
 PCOD9209644
Probable space group: C 2/M
;
_chemical_formula_sum "Si O2"
_cell_formula_units_Z 48
_cell_length_a 17.015678
_cell_length_b 13.721401
_cell_length_c 17.965860
_cell_angle_alpha 90.000000
_cell_angle_beta 149.313542
_cell_angle_gamma 90.000000
_cell_volume 2140.696304
_symmetry_space_group_name_H-M "C 2/M"
_symmetry_group_IT_number 12
_symmetry_cell_setting 'monoclinic'
loop_
_space_group_symop_operation_xyz
x,y,z
-x,y,-z
-x,-y,-z
x,-y,z
1/2+x,1/2+y,z
1/2-x,1/2+y,-z
1/2-x,1/2-y,-z
1/2+x,1/2-y,z
loop_
_atom_site_type_symbol
_atom_site_label
_atom_site_fract_x
_atom_site_fract_y
_atom_site_fract_z
Si Si1 0.076776 0.229406 0.933265
Si Si2 0.667285 0.883976 0.465843
Si Si3 0.167482 0.383942 0.769475
Si Si4 0.274631 0.223270 0.332997
Si Si5 0.906882 0.114913 0.532086
Si Si6 0.164555 0.116631 0.859511
O O1 0.076024 0.174489 0.852931
O O2 0.906612 0.240885 0.826044
O O3 0.183323 0.159317 0.069754
O O4 0.169240 0.331513 0.005828
O O5 0.486266 0.861866 0.308042
O O6 0.710644 0.841514 0.580877
O O7 0.778870 0.854627 0.489932
O O8 0.682928 0.000000 0.483221
O O9 0.178651 0.500000 0.769981
O O10 0.155034 0.332937 0.679463
O O11 0.359079 0.323091 0.422288
O O12 0.070433 0.131974 0.706036
O O13 0.894254 0.000000 0.507515
O O14 0.169823 0.000000 0.877924
#
# Coordination Sequence:
#
# PCOD9209644 Si02
#       6
#     8   8   8   8   8   8
#     4  11  24  38  63  94 129 170 209 256 318 379
#     4  10  21  38  63  93 125 164 209 259 314 373
#     4  11  25  42  63  95 134 170 205 253 319 389
#     4  12  23  38  63  94 132 165 209 260 317 377
#     4  10  22  41  66  94 124 165 216 266 312 366
#     4  10  22  41  64  93 128 166 212 264 315 371
#
# _framework density 22.422611
#
# number of rings (size 3 to 8) (size 9 to 14) (size 15 to 20)
#    0.000    1.333    1.667    3.500    4.667    4.667 
#    0.000    0.833    0.000    6.000    0.000    0.000 
#    0.000    0.000    0.000    0.000    0.000    0.000 
#
# Total GULP energy -134399.751002 kJ/mol
# GULP energy per Si atom -5599.989625 kJ/mol
# Density = 2.237158 g / cm^3
# Si number density = 22.422611 Si / 1000 Ang^3
#
#
#
# Elastic Constant Matrix: (Units=GPa)
#
#
# Indices 1 2 3 4 5 6 
#
# 1 65.5010 23.2864 35.4858 0.0000 18.6773 0.0000
# 2 23.2864 126.6353 46.2410 0.0000 -3.7919 0.0001
# 3 35.4858 46.2410 124.9493 0.0000 10.0425 0.0000
# 4 0.0000 0.0000 0.0000 31.7926 0.0000 1.8291
# 5 18.6773 -3.7919 10.0425 0.0000 45.5358 0.0001
# 6 0.0000 0.0001 0.0000 1.8291 0.0001 19.0968
#
#
#
# Elastic Compliance Matrix: (Units=1/GPa)
#
#
# Indices 1 2 3 4 5 6 
#
# 1 0.020700 -0.002449 -0.004351 0.000000 -0.007735 0.000000
# 2 -0.002449 0.009527 -0.003028 0.000000 0.002466 0.000000
# 3 -0.004351 -0.003028 0.010421 0.000000 -0.000766 0.000000
# 4 0.000000 0.000000 0.000000 0.031628 0.000000 -0.003029
# 5 -0.007735 0.002466 -0.000766 0.000000 0.025508 0.000000
# 6 0.000000 0.000000 0.000000 -0.003029 0.000000 0.052655
#
#
# Mechanical properties :
#
#
# Convention : Reuss Voigt Hill
#
# Bulk Modulus (GPa) = 47.63842 58.56800 53.10321
# Shear Modulus (GPa) = 28.23379 33.42321 30.82850
#
# Velocity S-wave (km/s) = 3.55232 3.86502 3.71197
# Velocity P-wave (km/s) = 6.17391 6.78930 6.48891
#
# Compressibility (1/GPa) = 0.02099146
#
# Stress axis : x y z
#
# Youngs Moduli (GPa) = 48.30809 104.96842 95.95928
#
# Poissons Ratio (x) = 0.25711 0.41750
# Poissons Ratio (y) = 0.11833 0.29058
# Poissons Ratio (z) = 0.21018 0.31786
#
# Static dielectric constant tensor:
#      x y z
#    x 1.840980 0.000000 0.006480 
#    y 0.000000 1.817750 0.000000 
#    z 0.006480 0.000000 1.836560 
# 
# From -- ./inp_files/278235.got.cif
#   From: 2010.05.17/outbox.cif.g08.bks.cpg/sg12_140_cif.got.tgz:278235.got - 2010.06.03 13:09:07.
