data_PCOD9209749
_publ_section_title
;
Structure prediction by ZEFSAII (Michael W. Deem and Ramdas Pophale) SiO2 
 PCOD9209749
Probable space group: C 2/M
;
_chemical_formula_sum "Si O2"
_cell_formula_units_Z 64
_cell_length_a 26.879185
_cell_length_b 13.753726
_cell_length_c 13.187269
_cell_angle_alpha 90.000000
_cell_angle_beta 41.885364
_cell_angle_gamma 90.000000
_cell_volume 3254.881941
_symmetry_space_group_name_H-M "C 2/M"
_symmetry_group_IT_number 12
_symmetry_cell_setting 'monoclinic'
loop_
_space_group_symop_operation_xyz
x,y,z
-x,y,-z
-x,-y,-z
x,-y,z
1/2+x,1/2+y,z
1/2-x,1/2+y,-z
1/2-x,1/2-y,-z
1/2+x,1/2-y,z
loop_
_atom_site_type_symbol
_atom_site_label
_atom_site_fract_x
_atom_site_fract_y
_atom_site_fract_z
Si Si1 0.820186 0.287869 0.458796
Si Si2 0.526751 0.110212 0.842550
Si Si3 0.657810 0.308283 0.218090
Si Si4 0.273694 0.110128 0.884270
Si Si5 0.454536 0.606397 0.762046
Si Si6 0.944803 0.203877 0.987896
Si Si7 0.204735 0.889648 0.769969
Si Si8 0.629782 0.391202 0.479183
O O1 0.750000 0.250000 0.500000
O O2 0.890718 0.342576 0.298761
O O3 0.780599 0.360940 0.598086
O O4 0.849507 0.192266 0.472573
O O5 0.467908 0.193985 0.899510
O O6 0.524258 0.000000 0.803663
O O7 0.500000 0.101180 0.000000
O O8 0.666188 0.193731 0.223976
O O9 0.588492 0.324191 0.248816
O O10 0.656536 0.361634 0.327286
O O11 0.726930 0.353843 0.051549
O O12 0.220995 0.113411 0.865158
O O13 0.300540 0.000000 0.855210
O O14 0.421242 0.500000 0.793294
O O15 0.451249 0.628317 0.886383
O O16 0.540971 0.606153 0.605387
O O17 0.860683 0.187554 0.153932
O O18 0.000000 0.188598 0.000000
O O19 0.182414 0.000000 0.775720
O O20 0.656030 0.500000 0.468383
#
# Coordination Sequence:
#
# PCOD9209749 Si02
#       8
#     8   8   8   8   8   8   8   8
#     4  12  24  43  64  95 134 170 216 265 321 383
#     4  10  22  43  66  88 123 174 219 259 318 385
#     4  11  21  40  64  87 128 164 206 268 320 379
#     4  10  21  38  64  93 122 163 210 257 320 389
#     4  11  22  38  63  90 121 164 209 260 324 381
#     4  11  22  40  62  96 129 164 212 267 318 380
#     4  11  23  40  66  96 128 170 213 263 327 382
#     4  11  24  40  62  94 126 164 215 267 320 379
#
# _framework density 19.662770999999999
#
# number of rings (size 3 to 8) (size 9 to 14) (size 15 to 20)
#    0.000    1.125    3.750    3.750    0.000    3.000 
#    0.000    1.250    0.000    1.125    0.000    0.000 
#    0.000    0.000    0.000    0.000    0.000    0.000 
#
# Total GULP energy -178421.438073 kJ/mol
# GULP energy per Si atom -5575.669940 kJ/mol
# Density = 1.961802 g / cm^3
# Si number density = 19.662771 Si / 1000 Ang^3
#
#
#
# Elastic Constant Matrix: (Units=GPa)
#
#
# Indices 1 2 3 4 5 6 
#
# 1 66.7382 45.6119 7.7284 0.0000 -7.3371 0.0000
# 2 45.6119 145.8442 43.5624 0.0000 -17.8161 0.0000
# 3 7.7284 43.5624 106.3433 0.0000 -3.9491 0.0000
# 4 0.0000 0.0000 0.0000 39.8786 0.0000 -19.6233
# 5 -7.3371 -17.8161 -3.9491 0.0000 24.3614 0.0000
# 6 0.0000 0.0000 0.0000 -19.6233 0.0000 29.3312
#
#
#
# Elastic Compliance Matrix: (Units=1/GPa)
#
#
# Indices 1 2 3 4 5 6 
#
# 1 0.019240 -0.006196 0.001194 0.000000 0.001457 0.000000
# 2 -0.006196 0.010530 -0.003669 0.000000 0.005240 0.000000
# 3 0.001194 -0.003669 0.010798 0.000000 -0.000573 0.000000
# 4 0.000000 0.000000 0.000000 0.037383 0.000000 0.025010
# 5 0.001457 0.005240 -0.000573 0.000000 0.045227 0.000000
# 6 0.000000 0.000000 0.000000 0.025010 0.000000 0.050826
#
#
# Mechanical properties :
#
#
# Convention : Reuss Voigt Hill
#
# Bulk Modulus (GPa) = 43.05230 56.97011 50.01121
# Shear Modulus (GPa) = 25.11445 33.51579 29.31512
#
# Velocity S-wave (km/s) = 3.57775 4.13307 3.86540
# Velocity P-wave (km/s) = 6.24580 7.19812 6.73880
#
# Compressibility (1/GPa) = 0.02322756
#
# Stress axis : x y z
#
# Youngs Moduli (GPa) = 51.97384 94.96361 92.60696
#
# Poissons Ratio (x) = 0.58839 -0.11057
# Poissons Ratio (y) = 0.32203 0.33975
# Poissons Ratio (z) = -0.06205 0.34840
#
# Static dielectric constant tensor:
#      x y z
#    x 1.664980 0.000000 0.015130 
#    y 0.000000 1.755390 0.000000 
#    z 0.015130 0.000000 1.764340 
# 
# From -- ./inp_files/245951.got.cif
#   From: 2010.05.17/outbox.cif.g08.bks.cpg/sg12_123_cif.got.tgz:245951.got - 2010.06.03 13:09:07.
