data_PCOD9209368
_publ_section_title
;
Structure prediction by ZEFSAII (Michael W. Deem and Ramdas Pophale) SiO2 
 PCOD9209368
Probable space group: C 2/M
;
_chemical_formula_sum "Si O2"
_cell_formula_units_Z 56
_cell_length_a 9.930696
_cell_length_b 17.943170
_cell_length_c 27.710519
_cell_angle_alpha 90.000000
_cell_angle_beta 37.674124
_cell_angle_gamma 90.000000
_cell_volume 3017.764148
_symmetry_space_group_name_H-M "C 2/M"
_symmetry_group_IT_number 12
_symmetry_cell_setting 'monoclinic'
loop_
_space_group_symop_operation_xyz
x,y,z
-x,y,-z
-x,-y,-z
x,-y,z
1/2+x,1/2+y,z
1/2-x,1/2+y,-z
1/2-x,1/2-y,-z
1/2+x,1/2-y,z
loop_
_atom_site_type_symbol
_atom_site_label
_atom_site_fract_x
_atom_site_fract_y
_atom_site_fract_z
Si Si1 0.038920 0.204549 0.137261
Si Si2 0.860836 0.185902 0.721788
Si Si3 0.373113 0.326633 0.082106
Si Si4 0.031312 0.413946 0.757567
Si Si5 0.043701 0.415953 0.638834
Si Si6 0.242672 0.766092 0.446073
Si Si7 0.537948 0.411816 0.760460
O O1 0.814033 0.250832 0.212470
O O2 0.032830 0.191846 0.081653
O O3 0.032308 0.128492 0.169848
O O4 0.240389 0.254402 0.099777
O O5 0.733207 0.135234 0.719309
O O6 0.071590 0.223665 0.637473
O O7 0.930925 0.135213 0.747334
O O8 0.187718 0.381405 0.155826
O O9 0.500000 0.358374 0.000000
O O10 0.062963 0.500000 0.761691
O O11 0.011167 0.408842 0.705678
O O12 0.118385 0.500000 0.607288
O O13 0.210971 0.353239 0.575117
O O14 0.803735 0.404850 0.682960
O O15 0.250000 0.750000 0.500000
O O16 0.000000 0.743699 0.500000
O O17 0.484271 0.500000 0.774432
#
# Coordination Sequence:
#
# PCOD9209368 Si02
#       7
#     8   8   8   8   8   8   8
#     4  11  21  38  62  86 117 162 206 248 294 358
#     4  11  22  39  62  85 118 157 207 251 291 360
#     4  11  22  36  59  92 125 157 197 251 307 362
#     4  10  21  38  62  88 114 155 204 250 297 354
#     4  10  21  39  61  84 116 158 205 248 298 359
#     4  12  24  37  59  89 121 155 196 249 310 361
#     4  11  21  37  63  88 115 155 208 257 295 349
#
# _framework density 18.556785000000001
#
# number of rings (size 3 to 8) (size 9 to 14) (size 15 to 20)
#    0.000    1.143    4.286    2.571    2.000    0.571 
#    0.000    1.429    0.000    4.286    0.000    0.000 
#    0.000    0.000    0.000    0.000    0.000    0.000 
#
# Total GULP energy -156453.591495 kJ/mol
# GULP energy per Si atom -5587.628268 kJ/mol
# Density = 1.851455 g / cm^3
# Si number density = 18.556785 Si / 1000 Ang^3
#
#
#
# Elastic Constant Matrix: (Units=GPa)
#
#
# Indices 1 2 3 4 5 6 
#
# 1 94.5826 28.8270 17.1559 0.0004 6.3428 -0.0020
# 2 28.8270 93.7615 22.1181 -0.0031 9.6028 0.0022
# 3 17.1559 22.1181 59.2317 -0.0084 12.0350 0.0046
# 4 0.0004 -0.0031 -0.0084 16.3770 0.0023 5.2903
# 5 6.3428 9.6028 12.0350 0.0023 22.8876 -0.0015
# 6 -0.0020 0.0022 0.0046 5.2903 -0.0015 26.6970
#
#
#
# Elastic Compliance Matrix: (Units=1/GPa)
#
#
# Indices 1 2 3 4 5 6 
#
# 1 0.011959 -0.003082 -0.002130 -0.000002 -0.000901 0.000002
# 2 -0.003082 0.012667 -0.003282 0.000002 -0.002735 -0.000001
# 3 -0.002130 -0.003282 0.020518 0.000013 -0.008822 -0.000007
# 4 -0.000002 0.000002 0.000013 0.065237 -0.000014 -0.012928
# 5 -0.000901 -0.002735 -0.008822 -0.000014 0.049728 0.000007
# 6 0.000002 -0.000001 -0.000007 -0.012928 0.000007 0.040019
#
#
# Mechanical properties :
#
#
# Convention : Reuss Voigt Hill
#
# Bulk Modulus (GPa) = 35.51581 42.64197 39.07889
# Shear Modulus (GPa) = 22.07502 25.15731 23.61616
#
# Velocity S-wave (km/s) = 3.45279 3.68597 3.57128
# Velocity P-wave (km/s) = 5.92252 6.41438 6.17335
#
# Compressibility (1/GPa) = 0.02815647
#
# Stress axis : x y z
#
# Youngs Moduli (GPa) = 83.61994 78.94406 48.73864
#
# Poissons Ratio (x) = 0.24331 0.10380
# Poissons Ratio (y) = 0.25772 0.15995
# Poissons Ratio (z) = 0.17809 0.25908
#
# Static dielectric constant tensor:
#      x y z
#    x 1.635010 0.000000 -0.014250 
#    y 0.000000 1.641180 0.000000 
#    z -0.014250 0.000000 1.623480 
# 
# From -- ./inp_files/257001.got.cif
#   From: 2010.05.17/outbox.cif.g08.bks.cpg/sg12_129_cif.got.tgz:257001.got - 2010.06.03 13:09:07.
