data_PCOD9209738
_publ_section_title
;
Structure prediction by ZEFSAII (Michael W. Deem and Ramdas Pophale) SiO2 
 PCOD9209738
Probable space group: C 2/M
;
_chemical_formula_sum "Si O2"
_cell_formula_units_Z 64
_cell_length_a 28.971114
_cell_length_b 8.516620
_cell_length_c 13.335686
_cell_angle_alpha 90.000000
_cell_angle_beta 86.360150
_cell_angle_gamma 90.000000
_cell_volume 3283.756075
_symmetry_space_group_name_H-M "C 2/M"
_symmetry_group_IT_number 12
_symmetry_cell_setting 'monoclinic'
loop_
_space_group_symop_operation_xyz
x,y,z
-x,y,-z
-x,-y,-z
x,-y,z
1/2+x,1/2+y,z
1/2-x,1/2+y,-z
1/2-x,1/2-y,-z
1/2+x,1/2-y,z
loop_
_atom_site_type_symbol
_atom_site_label
_atom_site_fract_x
_atom_site_fract_y
_atom_site_fract_z
Si Si1 0.779629 0.188167 0.901931
Si Si2 0.298428 0.812456 0.453431
Si Si3 0.885946 0.311738 0.125883
Si Si4 0.896225 0.691638 0.515402
Si Si5 0.555425 0.809504 0.284992
Si Si6 0.551431 0.191211 0.694216
Si Si7 0.705877 0.686357 0.768369
Si Si8 0.886540 0.811706 0.910605
O O1 0.753678 0.250289 0.807065
O O2 0.833022 0.238541 0.901089
O O3 0.778217 0.000000 0.903247
O O4 0.750000 0.250000 0.000000
O O5 0.250000 0.750000 0.500000
O O6 0.343039 0.757851 0.510305
O O7 0.304445 0.759083 0.338237
O O8 0.297721 0.000000 0.456830
O O9 0.881665 0.500000 0.129671
O O10 0.919463 0.260762 0.212016
O O11 0.835781 0.237151 0.153097
O O12 0.902554 0.258722 0.014506
O O13 0.896881 0.500000 0.514986
O O14 0.919858 0.741990 0.615318
O O15 0.924245 0.742694 0.412403
O O16 0.501839 0.759629 0.293017
O O17 0.582408 0.745628 0.185388
O O18 0.556451 0.000000 0.281971
O O19 0.551961 0.000000 0.692922
O O20 0.707823 0.500000 0.761004
O O21 0.887445 0.000000 0.916432
#
# Coordination Sequence:
#
# PCOD9209738 Si02
#       8
#     8   8   8   8   8   8   8   8
#     4  11  23  39  61  87 118 159 202 247 296 357
#     4  11  23  40  60  90 127 163 202 249 307 364
#     4  11  21  38  65  91 121 159 206 258 306 362
#     4   9  18  36  63  93 121 153 199 253 303 358
#     4  10  21  38  64  92 120 158 204 254 308 364
#     4   9  18  36  64  95 119 150 202 260 309 361
#     4  12  24  39  60  89 122 161 206 250 305 370
#     4  11  25  42  58  86 127 163 201 250 308 369
#
# _framework density 19.489875999999999
#
# number of rings (size 3 to 8) (size 9 to 14) (size 15 to 20)
#    0.000    1.500    2.500    3.000    1.750    3.500 
#    0.000    4.375    0.000    0.750    0.000    0.000 
#    0.000    0.000    0.000    0.000    0.000    0.000 
#
# Total GULP energy -178866.531435 kJ/mol
# GULP energy per Si atom -5589.579107 kJ/mol
# Density = 1.944552 g / cm^3
# Si number density = 19.489876 Si / 1000 Ang^3
#
#
#
# Elastic Constant Matrix: (Units=GPa)
#
#
# Indices 1 2 3 4 5 6 
#
# 1 121.3667 20.3100 61.4524 0.0000 -10.8382 0.0000
# 2 20.3100 37.7666 8.6990 0.0000 0.0197 0.0000
# 3 61.4524 8.6990 122.6531 0.0000 2.2078 0.0000
# 4 0.0000 0.0000 0.0000 24.7144 0.0000 -4.4152
# 5 -10.8382 0.0197 2.2078 0.0000 32.1785 0.0000
# 6 0.0000 0.0000 0.0000 -4.4152 0.0000 20.4347
#
#
#
# Elastic Compliance Matrix: (Units=1/GPa)
#
#
# Indices 1 2 3 4 5 6 
#
# 1 0.012605 -0.005395 -0.006017 0.000000 0.004662 0.000000
# 2 -0.005395 0.029228 0.000664 0.000000 -0.001881 0.000000
# 3 -0.006017 0.000664 0.011171 0.000000 -0.002793 0.000000
# 4 0.000000 0.000000 0.000000 0.042087 0.000000 0.009094
# 5 0.004662 -0.001881 -0.002793 0.000000 0.032840 0.000000
# 6 0.000000 0.000000 0.000000 0.009094 0.000000 0.050901
#
#
# Mechanical properties :
#
#
# Convention : Reuss Voigt Hill
#
# Bulk Modulus (GPa) = 31.73802 51.41212 41.57507
# Shear Modulus (GPa) = 23.71576 28.22053 25.96814
#
# Velocity S-wave (km/s) = 3.49209 3.80933 3.65415
# Velocity P-wave (km/s) = 5.70783 6.76640 6.25953
#
# Compressibility (1/GPa) = 0.03150795
#
# Stress axis : x y z
#
# Youngs Moduli (GPa) = 79.33237 34.21382 89.51893
#
# Poissons Ratio (x) = 0.18460 0.53862
# Poissons Ratio (y) = 0.42803 -0.05945
# Poissons Ratio (z) = 0.47733 -0.02272
#
# Static dielectric constant tensor:
#      x y z
#    x 1.674150 0.000000 0.008690 
#    y 0.000000 1.649760 0.000000 
#    z 0.008690 0.000000 1.670900 
# 
# From -- ./inp_files/187582.got.cif
#   From: 2010.05.17/outbox.cif.g08.bks.cpg/sg12_94_cif.got.tgz:187582.got - 2010.06.03 13:09:07.
