data_PCOD9209010
_publ_section_title
;
Structure prediction by ZEFSAII (Michael W. Deem and Ramdas Pophale) SiO2 
 PCOD9209010
Probable space group: C 2/M
;
_chemical_formula_sum "Si O2"
_cell_formula_units_Z 48
_cell_length_a 12.421724
_cell_length_b 22.632340
_cell_length_c 8.908986
_cell_angle_alpha 90.000000
_cell_angle_beta 60.183952
_cell_angle_gamma 90.000000
_cell_volume 2173.062811
_symmetry_space_group_name_H-M "C 2/M"
_symmetry_group_IT_number 12
_symmetry_cell_setting 'monoclinic'
loop_
_space_group_symop_operation_xyz
x,y,z
-x,y,-z
-x,-y,-z
x,-y,z
1/2+x,1/2+y,z
1/2-x,1/2+y,-z
1/2-x,1/2-y,-z
1/2+x,1/2-y,z
loop_
_atom_site_type_symbol
_atom_site_label
_atom_site_fract_x
_atom_site_fract_y
_atom_site_fract_z
Si Si1 0.874214 0.723236 0.650069
Si Si2 0.217198 0.879376 0.644319
Si Si3 0.684683 0.065807 0.148012
Si Si4 0.947497 0.930314 0.795499
Si Si5 0.106329 0.679197 0.043783
Si Si6 0.686434 0.350370 0.339815
O O1 0.755679 0.684154 0.686337
O O2 0.882690 0.724080 0.825083
O O3 0.870248 0.787251 0.576046
O O4 0.000000 0.693765 0.500000
O O5 0.299512 0.923628 0.686086
O O6 0.245257 0.877643 0.448091
O O7 0.072611 0.897248 0.759968
O O8 0.599118 0.115586 0.132462
O O9 0.644272 0.000000 0.138532
O O10 0.826672 0.073587 0.987216
O O11 0.902282 0.897759 0.676409
O O12 0.974783 0.000000 0.757322
O O13 0.222440 0.670450 0.854698
O O14 0.000000 0.693849 0.000000
#
# Coordination Sequence:
#
# PCOD9209010 Si02
#       6
#     8   8   8   8   8   8
#     4  11  23  41  61  86 120 159 204 250 300 361
#     4  11  21  34  59  87 117 156 198 248 300 355
#     4   9  20  38  60  88 122 161 204 248 298 357
#     4  10  21  38  60  89 125 162 202 249 302 359
#     4  10  22  40  62  86 119 159 202 250 301 360
#     4  11  23  39  59  90 123 158 200 249 305 359
#
# _framework density 22.088639000000001
#
# number of rings (size 3 to 8) (size 9 to 14) (size 15 to 20)
#    0.000    1.667    0.000    4.500    0.000    5.000 
#    0.000    1.667    0.000   25.500    0.000    0.000 
#    0.000    0.000    0.000    0.000    0.000    0.000 
#
# Total GULP energy -133942.356110 kJ/mol
# GULP energy per Si atom -5580.931505 kJ/mol
# Density = 2.203836 g / cm^3
# Si number density = 22.088639 Si / 1000 Ang^3
#
#
#
# Elastic Constant Matrix: (Units=GPa)
#
#
# Indices 1 2 3 4 5 6 
#
# 1 77.8985 25.7570 20.1780 0.0000 28.7572 0.0000
# 2 25.7570 87.2383 6.2543 0.0000 6.1027 0.0000
# 3 20.1780 6.2543 80.6161 0.0000 21.5409 0.0000
# 4 0.0000 0.0000 0.0000 77.3502 0.0000 -45.1748
# 5 28.7572 6.1027 21.5409 0.0000 43.1059 0.0000
# 6 0.0000 0.0000 0.0000 -45.1748 0.0000 39.8895
#
#
#
# Elastic Compliance Matrix: (Units=1/GPa)
#
#
# Indices 1 2 3 4 5 6 
#
# 1 0.018900 -0.004695 -0.001356 0.000000 -0.011266 0.000000
# 2 -0.004695 0.012763 -0.000195 0.000000 0.001423 0.000000
# 3 -0.001356 -0.000195 0.014438 0.000000 -0.006283 0.000000
# 4 0.000000 0.000000 0.000000 0.038183 0.000000 0.043242
# 5 -0.011266 0.001423 -0.006283 0.000000 0.033653 0.000000
# 6 0.000000 0.000000 0.000000 0.043242 0.000000 0.074041
#
#
# Mechanical properties :
#
#
# Convention : Reuss Voigt Hill
#
# Bulk Modulus (GPa) = 29.75380 38.90349 34.32865
# Shear Modulus (GPa) = 23.18325 44.97335 34.07830
#
# Velocity S-wave (km/s) = 3.24320 4.51715 3.93211
# Velocity P-wave (km/s) = 5.24632 6.69752 6.01584
#
# Compressibility (1/GPa) = 0.03360915
#
# Stress axis : x y z
#
# Youngs Moduli (GPa) = 52.91019 78.34852 69.26293
#
# Poissons Ratio (x) = 0.36783 0.09392
# Poissons Ratio (y) = 0.24840 0.01352
# Poissons Ratio (z) = 0.07174 0.01530
#
# Static dielectric constant tensor:
#      x y z
#    x 1.811290 0.000000 -0.054700 
#    y 0.000000 1.815130 0.000000 
#    z -0.054700 0.000000 1.864810 
# 
# From -- ./inp_files/51359.got.cif
#   From: 2010.05.17/outbox.cif.g08.bks.cpg/sg12_26_cif.got.tgz:51359.got - 2010.06.03 13:09:07.
