data_PCOD9209308
_publ_section_title
;
Structure prediction by ZEFSAII (Michael W. Deem and Ramdas Pophale) SiO2 
 PCOD9209308
Probable space group: C 2/M
;
_chemical_formula_sum "Si O2"
_cell_formula_units_Z 40
_cell_length_a 11.816775
_cell_length_b 18.561205
_cell_length_c 14.945488
_cell_angle_alpha 90.000000
_cell_angle_beta 143.678641
_cell_angle_gamma 90.000000
_cell_volume 1941.631998
_symmetry_space_group_name_H-M "C 2/M"
_symmetry_group_IT_number 12
_symmetry_cell_setting 'monoclinic'
loop_
_space_group_symop_operation_xyz
x,y,z
-x,y,-z
-x,-y,-z
x,-y,z
1/2+x,1/2+y,z
1/2-x,1/2+y,-z
1/2-x,1/2-y,-z
1/2+x,1/2-y,z
loop_
_atom_site_type_symbol
_atom_site_label
_atom_site_fract_x
_atom_site_fract_y
_atom_site_fract_z
Si Si1 0.775825 0.420490 0.354510
Si Si2 0.948552 0.768530 0.569355
Si Si3 0.285010 0.418152 0.472994
Si Si4 0.434208 0.180179 0.196719
Si Si5 0.508222 0.304797 0.902612
O O1 0.750392 0.500000 0.298102
O O2 0.722357 0.421940 0.424435
O O3 0.646276 0.363995 0.221592
O O4 0.000000 0.405379 0.500000
O O5 0.750000 0.750000 0.500000
O O6 0.940823 0.855176 0.557970
O O7 0.000000 0.746144 0.500000
O O8 0.087016 0.727136 0.725491
O O9 0.316111 0.500000 0.459499
O O10 0.082878 0.384581 0.309007
O O11 0.518319 0.235966 0.177828
O O12 0.222417 0.162494 0.027023
O O13 0.500000 0.283550 0.000000
#
# Coordination Sequence:
#
# PCOD9209308 Si02
#       5
#     8   8   8   8   8
#     4  10  21  38  61  93 129 168 217 272 330 395
#     4  10  22  39  68  97 128 170 222 278 331 389
#     4  10  21  39  63  90 126 168 216 271 327 390
#     4  10  23  39  58  94 125 168 217 270 327 391
#     4  11  23  37  60  89 128 170 218 269 328 386
#
# _framework density 20.601226
#
# number of rings (size 3 to 8) (size 9 to 14) (size 15 to 20)
#    0.000    1.800    2.000    1.200    5.600    4.800 
#    0.000    0.000    0.000    0.600    0.000    0.000 
#    0.000    0.000    0.000    0.000    0.000    0.000 
#
# Total GULP energy -111498.299395 kJ/mol
# GULP energy per Si atom -5574.914970 kJ/mol
# Density = 2.055434 g / cm^3
# Si number density = 20.601226 Si / 1000 Ang^3
#
#
#
# Elastic Constant Matrix: (Units=GPa)
#
#
# Indices 1 2 3 4 5 6 
#
# 1 95.5604 40.2963 41.3733 0.0009 -23.9629 0.0002
# 2 40.2963 163.9053 55.1901 0.0008 -6.4606 0.0002
# 3 41.3733 55.1901 109.9775 0.0018 -4.6700 0.0004
# 4 0.0009 0.0008 0.0018 -53.5117 0.0012 -10.6172
# 5 -23.9629 -6.4606 -4.6700 0.0012 40.0338 0.0002
# 6 0.0002 0.0002 0.0004 -10.6172 0.0002 16.8405
#
#
#
# Elastic Compliance Matrix: (Units=1/GPa)
#
#
# Indices 1 2 3 4 5 6 
#
# 1 0.015284 -0.001940 -0.004423 0.000000 0.008319 0.000000
# 2 -0.001940 0.007611 -0.003102 0.000000 -0.000295 0.000000
# 3 -0.004423 -0.003102 0.012240 0.000000 -0.001720 0.000000
# 4 0.000000 0.000000 0.000000 -0.016610 0.000001 -0.010472
# 5 0.008319 -0.000295 -0.001720 0.000001 0.029710 0.000000
# 6 0.000000 0.000000 0.000000 -0.010472 0.000000 0.052779
#
#
# Mechanical properties :
#
#
# Convention : Reuss Voigt Hill
#
# Bulk Modulus (GPa) = 61.71004 71.46252 66.58628
# Shear Modulus (GPa) = 39.88953 16.17808 28.03381
#
# Velocity S-wave (km/s) = 4.40508 2.80536 3.69288
# Velocity P-wave (km/s) = 7.47613 6.72734 7.11160
#
# Compressibility (1/GPa) = 0.01620482
#
# Stress axis : x y z
#
# Youngs Moduli (GPa) = 65.42864 131.38872 81.69788
#
# Poissons Ratio (x) = 0.25495 0.36133
# Poissons Ratio (y) = 0.12696 0.25343
# Poissons Ratio (z) = 0.28937 0.40757
#
# Static dielectric constant tensor:
#      x y z
#    x 1.852730 0.000000 0.047930 
#    y 0.000000 1.785810 0.000000 
#    z 0.047930 0.000000 1.775760 
# 
# From -- ./inp_files/206399.got.cif
#   From: 2010.05.17/outbox.cif.g08.bks.cpg/sg12_104_cif.got.tgz:206399.got - 2010.06.03 13:09:07.
