data_PCOD9209479
_publ_section_title
;
Structure prediction by ZEFSAII (Michael W. Deem and Ramdas Pophale) SiO2 
 PCOD9209479
Probable space group: C 2/M
;
_chemical_formula_sum "Si O2"
_cell_formula_units_Z 56
_cell_length_a 19.526920
_cell_length_b 8.650477
_cell_length_c 25.635281
_cell_angle_alpha 90.000000
_cell_angle_beta 135.393682
_cell_angle_gamma 90.000000
_cell_volume 3040.830630
_symmetry_space_group_name_H-M "C 2/M"
_symmetry_group_IT_number 12
_symmetry_cell_setting 'monoclinic'
loop_
_space_group_symop_operation_xyz
x,y,z
-x,y,-z
-x,-y,-z
x,-y,z
1/2+x,1/2+y,z
1/2-x,1/2+y,-z
1/2-x,1/2-y,-z
1/2+x,1/2-y,z
loop_
_atom_site_type_symbol
_atom_site_label
_atom_site_fract_x
_atom_site_fract_y
_atom_site_fract_z
Si Si1 0.502047 0.320550 0.444058
Si Si2 0.909183 0.315511 0.914855
Si Si3 0.814479 0.328175 0.311573
Si Si4 0.990080 0.314719 0.737448
Si Si5 0.906351 0.817361 0.796486
Si Si6 0.205936 0.324103 0.824071
Si Si7 0.642290 0.687247 0.428148
O O1 0.500000 0.246479 0.500000
O O2 0.530009 0.500000 0.464872
O O3 0.392134 0.301597 0.365625
O O4 0.573345 0.257134 0.438603
O O5 0.909564 0.500000 0.909305
O O6 0.919606 0.243398 0.862645
O O7 0.806945 0.266206 0.886219
O O8 0.000000 0.267968 0.000000
O O9 0.848864 0.500000 0.346612
O O10 0.708853 0.298659 0.278078
O O11 0.802513 0.332715 0.243049
O O12 0.988791 0.500000 0.729888
O O13 0.963569 0.269308 0.782050
O O14 0.911477 0.244726 0.653877
O O15 0.101486 0.260825 0.786415
O O16 0.928049 0.000000 0.807024
O O17 0.216724 0.500000 0.850058
O O18 0.644911 0.500000 0.427810
O O19 0.750000 0.750000 0.500000
#
# Coordination Sequence:
#
# PCOD9209479 Si02
#       7
#     8   8   8   8   8   8   8
#     4  10  22  37  53  77 107 142 190 239 286 341
#     4  10  21  38  62  92 122 153 192 236 284 342
#     4   9  18  35  55  78 106 141 185 233 284 339
#     4  11  22  39  61  85 117 155 197 246 295 348
#     4  10  22  38  58  88 119 151 194 237 288 348
#     4   9  19  36  59  85 114 150 191 234 288 346
#     4  11  24  40  57  81 115 156 198 245 300 352
#
# _framework density 18.416021000000001
#
# number of rings (size 3 to 8) (size 9 to 14) (size 15 to 20)
#    0.000    2.000    1.429    2.571    2.000    6.000 
#    0.000    0.714    0.000    0.000    0.000    0.000 
#    0.000    0.000    0.000    0.000    0.000    0.000 
#
# Total GULP energy -156047.447796 kJ/mol
# GULP energy per Si atom -5573.123136 kJ/mol
# Density = 1.837411 g / cm^3
# Si number density = 18.416021 Si / 1000 Ang^3
#
#
#
# Elastic Constant Matrix: (Units=GPa)
#
#
# Indices 1 2 3 4 5 6 
#
# 1 115.7757 28.6777 49.9698 0.0000 10.0495 0.0000
# 2 28.6777 42.0530 36.0797 0.0000 5.9043 0.0000
# 3 49.9698 36.0797 106.3824 0.0000 11.0628 0.0000
# 4 0.0000 0.0000 0.0000 29.2904 0.0000 1.7832
# 5 10.0495 5.9043 11.0628 0.0000 21.0560 0.0000
# 6 0.0000 0.0000 0.0000 1.7832 0.0000 17.5334
#
#
#
# Elastic Compliance Matrix: (Units=1/GPa)
#
#
# Indices 1 2 3 4 5 6 
#
# 1 0.011511 -0.004360 -0.003685 0.000000 -0.002335 0.000000
# 2 -0.004360 0.035454 -0.009688 0.000000 -0.002771 0.000000
# 3 -0.003685 -0.009688 0.014758 0.000000 -0.003278 0.000000
# 4 0.000000 0.000000 0.000000 0.034354 0.000000 -0.003494
# 5 -0.002335 -0.002771 -0.003278 0.000000 0.051106 0.000000
# 6 0.000000 0.000000 0.000000 -0.003494 0.000000 0.057389
#
#
# Mechanical properties :
#
#
# Convention : Reuss Voigt Hill
#
# Bulk Modulus (GPa) = 38.08731 54.85172 46.46952
# Shear Modulus (GPa) = 20.09732 23.54156 21.81944
#
# Velocity S-wave (km/s) = 3.30706 3.57924 3.44584
# Velocity P-wave (km/s) = 5.94211 6.85060 6.41247
#
# Compressibility (1/GPa) = 0.02625546
#
# Stress axis : x y z
#
# Youngs Moduli (GPa) = 86.87634 28.20576 67.76119
#
# Poissons Ratio (x) = 0.12298 0.24972
# Poissons Ratio (y) = 0.37878 0.65648
# Poissons Ratio (z) = 0.32016 0.27326
#
# Static dielectric constant tensor:
#      x y z
#    x 1.637250 0.000000 0.005450 
#    y 0.000000 1.655430 0.000000 
#    z 0.005450 0.000000 1.644930 
# 
# From -- ./inp_files/363135.got.cif
#   From: 2010.05.17/outbox.cif.g08.bks.cpg/sg12_182_cif.got.tgz:363135.got - 2010.06.03 13:09:07.
