data_PCOD9209243
_publ_section_title
;
Structure prediction by ZEFSAII (Michael W. Deem and Ramdas Pophale) SiO2 
 PCOD9209243
Probable space group: C 2/M
;
_chemical_formula_sum "Si O2"
_cell_formula_units_Z 56
_cell_length_a 16.946565
_cell_length_b 15.070575
_cell_length_c 11.713578
_cell_angle_alpha 90.000000
_cell_angle_beta 118.563397
_cell_angle_gamma 90.000000
_cell_volume 2627.473391
_symmetry_space_group_name_H-M "C 2/M"
_symmetry_group_IT_number 12
_symmetry_cell_setting 'monoclinic'
loop_
_space_group_symop_operation_xyz
x,y,z
-x,y,-z
-x,-y,-z
x,-y,z
1/2+x,1/2+y,z
1/2-x,1/2+y,-z
1/2-x,1/2-y,-z
1/2+x,1/2-y,z
loop_
_atom_site_type_symbol
_atom_site_label
_atom_site_fract_x
_atom_site_fract_y
_atom_site_fract_z
Si Si1 0.983561 0.099360 0.624358
Si Si2 0.326989 0.218310 0.784816
Si Si3 0.745594 0.902840 0.793973
Si Si4 0.388515 0.898714 0.490886
Si Si5 0.684605 0.165553 0.973047
Si Si6 0.276665 0.399949 0.449885
Si Si7 0.998014 0.718287 0.735860
O O1 0.876344 0.108361 0.566478
O O2 0.024092 0.181512 0.719164
O O3 0.000000 0.107262 0.500000
O O4 0.012264 0.000000 0.678520
O O5 0.307869 0.320120 0.804484
O O6 0.246202 0.177573 0.653931
O O7 0.417171 0.213975 0.772338
O O8 0.327797 0.159184 0.900020
O O9 0.650799 0.885586 0.662775
O O10 0.730107 0.903706 0.918818
O O11 0.777486 0.000000 0.776929
O O12 0.298003 0.892821 0.504391
O O13 0.458227 0.831434 0.596361
O O14 0.422113 0.000000 0.525719
O O15 0.585637 0.177819 0.853201
O O16 0.750000 0.250000 0.000000
O O17 0.269578 0.500000 0.394593
#
# Coordination Sequence:
#
# PCOD9209243 Si02
#       7
#     8   8   8   8   8   8   8
#     4  10  22  35  54  89 123 152 190 236 294 355
#     4  10  21  39  61  88 114 157 204 240 283 348
#     4  10  21  38  61  90 123 155 188 239 302 357
#     4   9  19  35  59  92 119 146 189 237 295 358
#     4  10  24  40  56  79 114 157 201 243 286 343
#     4   9  18  35  59  87 120 152 187 237 292 349
#     4  11  22  37  63  85 117 158 195 245 297 341
#
# _framework density 21.313251999999999
#
# number of rings (size 3 to 8) (size 9 to 14) (size 15 to 20)
#    0.000    2.143    0.000    2.143    6.000    5.143 
#    0.000    4.286    0.000    8.571    0.000    0.000 
#    0.000    0.000    0.000    0.000    0.000    0.000 
#
# Total GULP energy -156310.479664 kJ/mol
# GULP energy per Si atom -5582.517131 kJ/mol
# Density = 2.126474 g / cm^3
# Si number density = 21.313252 Si / 1000 Ang^3
#
#
#
# Elastic Constant Matrix: (Units=GPa)
#
#
# Indices 1 2 3 4 5 6 
#
# 1 58.3519 3.8200 -1.0837 0.0000 -7.0049 0.0000
# 2 3.8200 64.8688 12.8528 0.0000 -11.3999 0.0000
# 3 -1.0837 12.8528 56.5173 0.0000 -23.1215 0.0000
# 4 0.0000 0.0000 0.0000 17.9585 0.0000 -21.6454
# 5 -7.0049 -11.3999 -23.1215 0.0000 31.9123 0.0000
# 6 0.0000 0.0000 0.0000 -21.6454 0.0000 -16.3363
#
#
#
# Elastic Compliance Matrix: (Units=1/GPa)
#
#
# Indices 1 2 3 4 5 6 
#
# 1 0.017924 -0.000603 0.002846 0.000000 0.005781 0.000000
# 2 -0.000603 0.016613 -0.002012 0.000000 0.004344 0.000000
# 3 0.002846 -0.002012 0.025821 0.000000 0.018614 0.000000
# 4 0.000000 0.000000 0.000000 0.021442 0.000000 -0.028410
# 5 0.005781 0.004344 0.018614 0.000000 0.047643 0.000000
# 6 0.000000 0.000000 0.000000 -0.028410 0.000000 -0.023571
#
#
# Mechanical properties :
#
#
# Convention : Reuss Voigt Hill
#
# Bulk Modulus (GPa) = 16.44254 23.43512 19.93883
# Shear Modulus (GPa) = 39.78208 17.65016 28.71612
#
# Velocity S-wave (km/s) = 4.32504 2.88085 3.67459
# Velocity P-wave (km/s) = 5.71600 4.69948 5.23249
#
# Compressibility (1/GPa) = 0.06081784
#
# Stress axis : x y z
#
# Youngs Moduli (GPa) = 55.79207 60.19216 38.72826
#
# Poissons Ratio (x) = 0.03632 -0.11021
# Poissons Ratio (y) = 0.03367 0.07794
# Poissons Ratio (z) = -0.15877 0.12114
#
# Static dielectric constant tensor:
#      x y z
#    x 1.781690 0.000000 -0.041250 
#    y 0.000000 1.788620 0.000000 
#    z -0.041250 0.000000 1.768670 
# 
# From -- ./inp_files/156743.got.cif
#   From: 2010.05.17/outbox.cif.g08.bks.cpg/sg12_79_cif.got.tgz:156743.got - 2010.06.03 13:09:07.
