data_PCOD9209124
_publ_section_title
;
Structure prediction by ZEFSAII (Michael W. Deem and Ramdas Pophale) SiO2 
 PCOD9209124
Probable space group: C 2/M
;
_chemical_formula_sum "Si O2"
_cell_formula_units_Z 64
_cell_length_a 15.986035
_cell_length_b 13.844474
_cell_length_c 17.085580
_cell_angle_alpha 90.000000
_cell_angle_beta 52.887595
_cell_angle_gamma 90.000000
_cell_volume 3015.450552
_symmetry_space_group_name_H-M "C 2/M"
_symmetry_group_IT_number 12
_symmetry_cell_setting 'monoclinic'
loop_
_space_group_symop_operation_xyz
x,y,z
-x,y,-z
-x,-y,-z
x,-y,z
1/2+x,1/2+y,z
1/2-x,1/2+y,-z
1/2-x,1/2-y,-z
1/2+x,1/2-y,z
loop_
_atom_site_type_symbol
_atom_site_label
_atom_site_fract_x
_atom_site_fract_y
_atom_site_fract_z
Si Si1 0.030744 0.682465 0.221275
Si Si2 0.021843 0.893478 0.771275
Si Si3 0.309976 0.884671 0.402822
Si Si4 0.885417 0.114186 0.602047
Si Si5 0.466457 0.895838 0.110006
Si Si6 0.321427 0.796231 0.730678
Si Si7 0.095980 0.188834 0.885772
Si Si8 0.756539 0.612939 0.602020
O O1 0.054257 0.625391 0.127098
O O2 0.089121 0.654952 0.267676
O O3 0.046918 0.797552 0.200191
O O4 0.908639 0.661999 0.305102
O O5 0.064974 0.885552 0.835738
O O6 0.130318 0.882068 0.662460
O O7 0.976757 0.000000 0.781866
O O8 0.203875 0.870412 0.413550
O O9 0.304516 0.848305 0.494885
O O10 0.326178 0.000000 0.396997
O O11 0.857061 0.186653 0.689103
O O12 0.000000 0.135426 0.500000
O O13 0.884594 0.000000 0.624561
O O14 0.401508 0.797717 0.150185
O O15 0.416799 0.000000 0.156426
O O16 0.500000 0.900217 0.000000
O O17 0.216604 0.818746 0.841077
O O18 0.295548 0.838452 0.659530
O O19 0.000000 0.185101 0.000000
O O20 0.781841 0.500000 0.595077
#
# Coordination Sequence:
#
# PCOD9209124 Si02
#       8
#     8   8   8   8   8   8   8   8
#     4  11  23  35  57  91 123 158 196 253 307 367
#     4   9  19  36  56  80 110 154 204 242 292 359
#     4  10  21  38  61  87 119 164 209 248 299 361
#     4  10  23  40  60  89 125 167 212 257 296 349
#     4   9  18  37  64  87 110 148 196 246 309 373
#     4  11  24  37  57  91 126 161 203 258 308 361
#     4   9  19  39  63  85 112 152 202 254 310 366
#     4   9  20  37  58  82 116 164 209 246 291 356
#
# _framework density 21.224025999999999
#
# number of rings (size 3 to 8) (size 9 to 14) (size 15 to 20)
#    0.000    2.250    0.000    2.625    3.500    4.250 
#    0.000    6.875    0.000    3.000    0.000    0.000 
#    0.000    0.000    0.000    0.000    0.000    0.000 
#
# Total GULP energy -178259.562145 kJ/mol
# GULP energy per Si atom -5570.611317 kJ/mol
# Density = 2.117572 g / cm^3
# Si number density = 21.224026 Si / 1000 Ang^3
#
#
#
# Elastic Constant Matrix: (Units=GPa)
#
#
# Indices 1 2 3 4 5 6 
#
# 1 69.0100 9.5717 34.0904 0.0000 3.3662 0.0000
# 2 9.5717 87.4802 11.5404 0.0000 10.7368 0.0000
# 3 34.0904 11.5404 113.2501 0.0000 4.1843 0.0000
# 4 0.0000 0.0000 0.0000 -172.4935 0.0000 -93.3958
# 5 3.3662 10.7368 4.1843 0.0000 29.3006 0.0000
# 6 0.0000 0.0000 0.0000 -93.3958 0.0000 -37.0903
#
#
#
# Elastic Compliance Matrix: (Units=1/GPa)
#
#
# Indices 1 2 3 4 5 6 
#
# 1 0.017168 -0.001112 -0.005023 0.000000 -0.000848 0.000000
# 2 -0.001112 0.012170 -0.000749 0.000000 -0.004225 0.000000
# 3 -0.005023 -0.000749 0.010442 0.000000 -0.000639 0.000000
# 4 0.000000 0.000000 0.000000 0.015953 0.000000 -0.040171
# 5 -0.000848 -0.004225 -0.000639 0.000000 0.035866 0.000000
# 6 0.000000 0.000000 0.000000 -0.040171 0.000000 0.074193
#
#
# Mechanical properties :
#
#
# Convention : Reuss Voigt Hill
#
# Bulk Modulus (GPa) = 38.44490 42.23837 40.34164
# Shear Modulus (GPa) = 26.56316 -21.75413 2.40451
#
# Velocity S-wave (km/s) = 3.54158 -3.20500 1.06554
# Velocity P-wave (km/s) = 5.90567 2.49968 4.53460
#
# Compressibility (1/GPa) = 0.02601125
#
# Stress axis : x y z
#
# Youngs Moduli (GPa) = 58.24925 82.16795 95.76632
#
# Poissons Ratio (x) = 0.09135 0.48105
# Poissons Ratio (y) = 0.06476 0.07177
# Poissons Ratio (z) = 0.29260 0.06158
#
# Static dielectric constant tensor:
#      x y z
#    x 1.790330 0.000000 0.009890 
#    y 0.000000 1.814300 0.000000 
#    z 0.009890 0.000000 1.807890 
# 
# From -- ./inp_files/270677.got.cif
#   From: 2010.05.17/outbox.cif.g08.bks.cpg/sg12_136_cif.got.tgz:270677.got - 2010.06.03 13:09:07.
