data_PCOD9209195
_publ_section_title
;
Structure prediction by ZEFSAII (Michael W. Deem and Ramdas Pophale) SiO2 
 PCOD9209195
Probable space group: C 2/M
;
_chemical_formula_sum "Si O2"
_cell_formula_units_Z 56
_cell_length_a 18.876076
_cell_length_b 9.041541
_cell_length_c 17.408165
_cell_angle_alpha 90.000000
_cell_angle_beta 81.871318
_cell_angle_gamma 90.000000
_cell_volume 2941.180943
_symmetry_space_group_name_H-M "C 2/M"
_symmetry_group_IT_number 12
_symmetry_cell_setting 'monoclinic'
loop_
_space_group_symop_operation_xyz
x,y,z
-x,y,-z
-x,-y,-z
x,-y,z
1/2+x,1/2+y,z
1/2-x,1/2+y,-z
1/2-x,1/2-y,-z
1/2+x,1/2-y,z
loop_
_atom_site_type_symbol
_atom_site_label
_atom_site_fract_x
_atom_site_fract_y
_atom_site_fract_z
Si Si1 0.540510 0.177329 0.272379
Si Si2 0.875829 0.677337 0.301475
Si Si3 0.653383 0.821447 0.124612
Si Si4 0.416536 0.321940 0.013252
Si Si5 0.678579 0.669979 0.536262
Si Si6 0.942994 0.170522 0.568840
Si Si7 0.309604 0.677721 0.166137
O O1 0.458028 0.217441 0.268188
O O2 0.596144 0.224228 0.198539
O O3 0.560573 0.244586 0.351349
O O4 0.543928 0.000000 0.276850
O O5 0.869898 0.500000 0.305787
O O6 0.857791 0.746481 0.386906
O O7 0.824063 0.742409 0.244313
O O8 0.627547 0.749318 0.049641
O O9 0.733616 0.781270 0.139156
O O10 0.651306 0.000000 0.117402
O O11 0.415344 0.500000 0.005077
O O12 0.500000 0.274552 0.000000
O O13 0.374447 0.285444 0.098054
O O14 0.691114 0.500000 0.557234
O O15 0.750000 0.750000 0.500000
O O16 0.629034 0.669866 0.468663
O O17 0.000000 0.236018 0.500000
O O18 0.964911 0.000000 0.581690
O O19 0.308979 0.500000 0.177842
#
# Coordination Sequence:
#
# PCOD9209195 Si02
#       7
#     8   8   8   8   8   8   8
#     4  10  22  38  58  85 117 153 196 244 294 350
#     4  11  23  39  59  86 117 154 200 243 292 352
#     4  10  22  39  59  87 118 152 193 238 294 351
#     4  10  21  38  61  89 118 153 196 239 290 349
#     4  11  24  41  61  86 119 155 196 245 297 352
#     4  10  21  39  61  86 114 151 198 244 293 347
#     4  10  22  39  59  85 120 156 194 242 295 351
#
# _framework density 19.039971000000001
#
# number of rings (size 3 to 8) (size 9 to 14) (size 15 to 20)
#    0.000    1.714    1.429    2.143    2.000    4.000 
#    0.000    0.000    0.000    0.000    0.000    0.000 
#    0.000    0.000    0.000    0.000    0.000    0.000 
#
# Total GULP energy -156402.776899 kJ/mol
# GULP energy per Si atom -5585.813461 kJ/mol
# Density = 1.899664 g / cm^3
# Si number density = 19.039971 Si / 1000 Ang^3
#
#
#
# Elastic Constant Matrix: (Units=GPa)
#
#
# Indices 1 2 3 4 5 6 
#
# 1 98.4431 28.5735 16.6426 0.0000 2.6485 0.0000
# 2 28.5735 25.6791 17.1469 0.0000 4.3396 0.0000
# 3 16.6426 17.1469 62.5144 0.0000 13.1940 0.0000
# 4 0.0000 0.0000 0.0000 31.9992 0.0000 7.9625
# 5 2.6485 4.3396 13.1940 0.0000 38.0487 0.0000
# 6 0.0000 0.0000 0.0000 7.9625 0.0000 26.2504
#
#
#
# Elastic Compliance Matrix: (Units=1/GPa)
#
#
# Indices 1 2 3 4 5 6 
#
# 1 0.015049 -0.017249 0.000573 0.000000 0.000721 0.000000
# 2 -0.017249 0.067479 -0.013536 0.000000 -0.001802 0.000000
# 3 0.000573 -0.013536 0.020758 0.000000 -0.005694 0.000000
# 4 0.000000 0.000000 0.000000 0.033802 0.000000 -0.010253
# 5 0.000721 -0.001802 -0.005694 0.000000 0.028412 0.000000
# 6 0.000000 0.000000 0.000000 -0.010253 0.000000 0.041205
#
#
# Mechanical properties :
#
#
# Convention : Reuss Voigt Hill
#
# Bulk Modulus (GPa) = 23.33147 34.59583 28.96365
# Shear Modulus (GPa) = 17.76727 27.54454 22.65591
#
# Velocity S-wave (km/s) = 3.05807 3.80764 3.45325
# Velocity P-wave (km/s) = 4.97490 6.12702 5.58077
#
# Compressibility (1/GPa) = 0.04286057
#
# Stress axis : x y z
#
# Youngs Moduli (GPa) = 66.45177 14.81953 48.17310
#
# Poissons Ratio (x) = 0.25562 -0.02759
# Poissons Ratio (y) = 1.14623 0.65208
# Poissons Ratio (z) = -0.03806 0.20060
#
# Static dielectric constant tensor:
#      x y z
#    x 1.623550 0.000000 -0.025830 
#    y 0.000000 1.648620 0.000000 
#    z -0.025830 0.000000 1.629760 
# 
# From -- ./inp_files/275266.got.cif
#   From: 2010.05.17/outbox.cif.g08.bks.cpg/sg12_138_cif.got.tgz:275266.got - 2010.06.03 13:09:07.
