data_PCOD9209090
_publ_section_title
;
Structure prediction by ZEFSAII (Michael W. Deem and Ramdas Pophale) SiO2 
 PCOD9209090
Probable space group: C 2/M
;
_chemical_formula_sum "Si O2"
_cell_formula_units_Z 56
_cell_length_a 25.750841
_cell_length_b 7.722161
_cell_length_c 18.297788
_cell_angle_alpha 90.000000
_cell_angle_beta 41.087574
_cell_angle_gamma 90.000000
_cell_volume 2391.300828
_symmetry_space_group_name_H-M "C 2/M"
_symmetry_group_IT_number 12
_symmetry_cell_setting 'monoclinic'
loop_
_space_group_symop_operation_xyz
x,y,z
-x,y,-z
-x,-y,-z
x,-y,z
1/2+x,1/2+y,z
1/2-x,1/2+y,-z
1/2-x,1/2-y,-z
1/2+x,1/2-y,z
loop_
_atom_site_type_symbol
_atom_site_label
_atom_site_fract_x
_atom_site_fract_y
_atom_site_fract_z
Si Si1 0.544893 0.699549 0.271831
Si Si2 0.867312 0.301175 0.444900
Si Si3 0.124900 0.711339 0.723780
Si Si4 0.187171 0.213019 0.213059
Si Si5 0.343980 0.199591 0.975983
Si Si6 0.242168 0.800220 0.311249
Si Si7 0.535552 0.701947 0.037604
O O1 0.524507 0.500000 0.308164
O O2 0.462313 0.794393 0.349161
O O3 0.601385 0.768050 0.276365
O O4 0.601240 0.706530 0.140822
O O5 0.841373 0.500000 0.477344
O O6 0.845995 0.232379 0.386937
O O7 0.825833 0.205645 0.555430
O O8 0.123407 0.500000 0.725066
O O9 0.180859 0.774520 0.729957
O O10 0.036960 0.777943 0.829623
O O11 0.211338 0.274800 0.267931
O O12 0.186474 0.000000 0.212961
O O13 0.256063 0.267347 0.083751
O O14 0.389063 0.209884 0.006231
O O15 0.340097 0.000000 0.957559
O O16 0.261827 0.000000 0.274648
O O17 0.554352 0.500000 0.006645
O O18 0.500000 0.775279 0.000000
#
# Coordination Sequence:
#
# PCOD9209090 Si02
#       7
#     8   8   8   8   8   8   8
#     4  11  22  39  62  88 118 157 199 246 296 351
#     4  11  23  39  59  89 121 155 199 247 297 353
#     4  10  21  38  61  86 117 156 199 241 293 355
#     4   9  21  39  61  88 118 154 201 246 296 355
#     4  11  21  38  62  88 119 155 197 246 294 352
#     4  10  21  40  63  87 115 156 202 247 296 351
#     4  11  23  36  55  87 124 159 196 239 289 348
#
# _framework density 23.418213999999999
#
# number of rings (size 3 to 8) (size 9 to 14) (size 15 to 20)
#    0.000    1.571    1.429    3.429    0.000    4.000 
#    0.000    7.857    0.000    0.000    0.000    0.000 
#    0.000    0.000    0.000    0.000    0.000    0.000 
#
# Total GULP energy -156623.445574 kJ/mol
# GULP energy per Si atom -5593.694485 kJ/mol
# Density = 2.336491 g / cm^3
# Si number density = 23.418214 Si / 1000 Ang^3
#
#
#
# Elastic Constant Matrix: (Units=GPa)
#
#
# Indices 1 2 3 4 5 6 
#
# 1 119.0632 4.1162 -3.1872 0.0006 6.4550 0.0041
# 2 4.1162 50.8162 -7.2861 0.0046 0.9944 -0.0055
# 3 -3.1872 -7.2861 39.1324 0.0091 5.8754 -0.0020
# 4 0.0006 0.0046 0.0091 18.5206 -0.0009 5.0778
# 5 6.4550 0.9944 5.8754 -0.0009 34.0947 -0.0023
# 6 0.0041 -0.0055 -0.0020 5.0778 -0.0023 7.6432
#
#
#
# Elastic Compliance Matrix: (Units=1/GPa)
#
#
# Indices 1 2 3 4 5 6 
#
# 1 0.008535 -0.000534 0.000858 0.000001 -0.001748 -0.000006
# 2 -0.000534 0.020306 0.003912 -0.000014 -0.001165 0.000025
# 3 0.000858 0.003912 0.027095 -0.000021 -0.004946 0.000022
# 4 0.000001 -0.000014 -0.000021 0.066019 0.000003 -0.043861
# 5 -0.001748 -0.001165 -0.004946 0.000003 0.030547 0.000006
# 6 -0.000006 0.000025 0.000022 -0.043861 0.000006 0.159975
#
#
# Mechanical properties :
#
#
# Convention : Reuss Voigt Hill
#
# Bulk Modulus (GPa) = 15.52586 21.81083 18.66834
# Shear Modulus (GPa) = 15.36216 26.40962 20.88589
#
# Velocity S-wave (km/s) = 2.56401 3.36182 2.98965
# Velocity P-wave (km/s) = 3.92553 4.93994 4.46166
#
# Compressibility (1/GPa) = 0.06440868
#
# Stress axis : x y z
#
# Youngs Moduli (GPa) = 117.16296 49.24705 36.90700
#
# Poissons Ratio (x) = 0.02630 -0.03167
# Poissons Ratio (y) = 0.06258 -0.14439
# Poissons Ratio (z) = -0.10055 -0.19267
#
# Static dielectric constant tensor:
#      x y z
#    x 1.907850 -0.000010 0.031450 
#    y -0.000010 1.848390 0.000000 
#    z 0.031450 0.000000 1.862960 
# 
# From -- ./inp_files/288161.got.cif
#   From: 2010.05.17/outbox.cif.g08.bks.cpg/sg12_145_cif.got.tgz:288161.got - 2010.06.03 13:09:07.
