data_PCOD9209989
_publ_section_title
;
Structure prediction by ZEFSAII (Michael W. Deem and Ramdas Pophale) SiO2 
 PCOD9209989
Probable space group: C 2/M
;
_chemical_formula_sum "Si O2"
_cell_formula_units_Z 52
_cell_length_a 8.572718
_cell_length_b 26.817596
_cell_length_c 21.989812
_cell_angle_alpha 90.000000
_cell_angle_beta 144.938288
_cell_angle_gamma 90.000000
_cell_volume 2904.146214
_symmetry_space_group_name_H-M "C 2/M"
_symmetry_group_IT_number 12
_symmetry_cell_setting 'monoclinic'
loop_
_space_group_symop_operation_xyz
x,y,z
-x,y,-z
-x,-y,-z
x,-y,z
1/2+x,1/2+y,z
1/2-x,1/2+y,-z
1/2-x,1/2-y,-z
1/2+x,1/2-y,z
loop_
_atom_site_type_symbol
_atom_site_label
_atom_site_fract_x
_atom_site_fract_y
_atom_site_fract_z
Si Si1 0.417103 0.322811 0.779389
Si Si2 0.500000 0.360836 0.500000
Si Si3 0.826550 0.283376 0.108569
Si Si4 0.036743 0.631517 0.750774
Si Si5 0.945155 0.640812 0.911295
Si Si6 0.612128 0.803040 0.466821
Si Si7 0.674149 0.057618 0.899085
O O1 0.563419 0.272612 0.849711
O O2 0.304671 0.359064 0.795684
O O3 0.622965 0.352489 0.802126
O O4 0.154217 0.305614 0.659396
O O5 0.338352 0.337901 0.507321
O O6 0.773305 0.377584 0.624508
O O7 0.952552 0.318157 0.203222
O O8 0.927998 0.310990 0.080505
O O9 0.500000 0.284873 0.000000
O O10 0.067206 0.584913 0.804826
O O11 0.064109 0.591749 0.918439
O O12 0.000000 0.640862 0.000000
O O13 0.500000 0.810563 0.500000
O O14 0.750000 0.750000 0.500000
O O15 0.594434 0.000000 0.878538
O O16 0.000000 0.060561 0.000000
#
# Coordination Sequence:
#
# PCOD9209989 Si02
#       7
#     8   4   8   8   8   8   8
#     4  11  23  34  54  83 117 158 194 240 284 342
#     4  10  22  38  59  84 116 156 198 248 297 344
#     4  11  22  34  53  78 120 162 193 227 281 344
#     4  10  21  39  58  84 115 151 195 236 288 353
#     4  11  22  36  55  84 116 148 192 239 289 347
#     4  11  23  35  53  80 116 163 215 250 281 334
#     4  10  22  41  65  86 111 147 188 243 304 362
#
# _framework density 17.905436000000002
#
# number of rings (size 3 to 8) (size 9 to 14) (size 15 to 20)
#    0.000    1.385    0.769    6.000    8.615    2.154 
#    0.000    1.923    0.000    0.000    0.000    2.154 
#    0.000    0.000    0.000    0.000    0.000    0.000 
#
# Total GULP energy -144854.340327 kJ/mol
# GULP energy per Si atom -5571.320782 kJ/mol
# Density = 1.786468 g / cm^3
# Si number density = 17.905436 Si / 1000 Ang^3
#
#
#
# Elastic Constant Matrix: (Units=GPa)
#
#
# Indices 1 2 3 4 5 6 
#
# 1 138.9175 42.3511 17.5305 0.0001 10.4575 0.0000
# 2 42.3511 81.7067 16.8753 0.0000 6.7312 0.0000
# 3 17.5305 16.8753 62.0505 0.0004 12.9413 0.0002
# 4 0.0001 0.0000 0.0004 11.7575 0.0000 7.6796
# 5 10.4575 6.7312 12.9413 0.0000 33.1708 0.0001
# 6 0.0000 0.0000 0.0002 7.6796 0.0001 7.3341
#
#
#
# Elastic Compliance Matrix: (Units=1/GPa)
#
#
# Indices 1 2 3 4 5 6 
#
# 1 0.008715 -0.004185 -0.001010 0.000000 -0.001504 0.000000
# 2 -0.004185 0.015034 -0.002771 0.000000 -0.000651 0.000000
# 3 -0.001010 -0.002771 0.018474 -0.000001 -0.006327 0.000000
# 4 0.000000 0.000000 -0.000001 0.269093 0.000001 -0.281769
# 5 -0.001504 -0.000651 -0.006327 0.000001 0.033222 -0.000001
# 6 0.000000 0.000000 0.000000 -0.281769 -0.000001 0.431391
#
#
# Mechanical properties :
#
#
# Convention : Reuss Voigt Hill
#
# Bulk Modulus (GPa) = 38.03482 48.46540 43.25011
# Shear Modulus (GPa) = 6.24513 24.18034 15.21273
#
# Velocity S-wave (km/s) = 1.86960 3.67883 2.91798
# Velocity P-wave (km/s) = 5.09399 6.72095 5.96322
#
# Compressibility (1/GPa) = 0.02629170
#
# Stress axis : x y z
#
# Youngs Moduli (GPa) = 114.74452 66.51688 54.12900
#
# Poissons Ratio (x) = 0.27835 0.05469
# Poissons Ratio (y) = 0.48017 0.14997
# Poissons Ratio (z) = 0.11594 0.18430
#
# Static dielectric constant tensor:
#      x y z
#    x 1.592990 0.000000 0.003180 
#    y 0.000000 1.594020 0.000000 
#    z 0.003180 0.000000 1.647140 
# 
# From -- ./inp_files/334213.got.cif
#   From: 2010.05.17/outbox.cif.g08.bks.cpg/sg12_168_cif.got.tgz:334213.got - 2010.06.03 13:09:07.
