data_PCOD9209240
_publ_section_title
;
Structure prediction by ZEFSAII (Michael W. Deem and Ramdas Pophale) SiO2 
 PCOD9209240
Probable space group: C 2/M
;
_chemical_formula_sum "Si O2"
_cell_formula_units_Z 56
_cell_length_a 17.268756
_cell_length_b 8.510968
_cell_length_c 22.161025
_cell_angle_alpha 90.000000
_cell_angle_beta 55.506997
_cell_angle_gamma 90.000000
_cell_volume 2684.479029
_symmetry_space_group_name_H-M "C 2/M"
_symmetry_group_IT_number 12
_symmetry_cell_setting 'monoclinic'
loop_
_space_group_symop_operation_xyz
x,y,z
-x,y,-z
-x,-y,-z
x,-y,z
1/2+x,1/2+y,z
1/2-x,1/2+y,-z
1/2-x,1/2-y,-z
1/2+x,1/2-y,z
loop_
_atom_site_type_symbol
_atom_site_label
_atom_site_fract_x
_atom_site_fract_y
_atom_site_fract_z
Si Si1 0.691738 0.687562 0.581989
Si Si2 0.356023 0.191225 0.965941
Si Si3 0.242641 0.172514 0.693234
Si Si4 0.190583 0.824399 0.220805
Si Si5 0.458903 0.751055 0.174493
Si Si6 0.997948 0.329650 0.289755
Si Si7 0.369164 0.685503 0.093765
O O1 0.678909 0.500000 0.583658
O O2 0.750000 0.750000 0.500000
O O3 0.743383 0.718432 0.623112
O O4 0.591286 0.770607 0.633592
O O5 0.431832 0.280363 0.889775
O O6 0.363160 0.000000 0.954997
O O7 0.250000 0.250000 0.000000
O O8 0.382732 0.243137 0.021980
O O9 0.288902 0.295829 0.717684
O O10 0.133561 0.156592 0.762550
O O11 0.286174 0.000000 0.681332
O O12 0.258378 0.702883 0.156831
O O13 0.082771 0.791290 0.256035
O O14 0.217172 0.000000 0.190736
O O15 0.470431 0.844263 0.231591
O O16 0.420742 0.786501 0.123517
O O17 0.029647 0.500000 0.297739
O O18 0.396594 0.500000 0.085265
#
# Coordination Sequence:
#
# PCOD9209240 Si02
#       7
#     8   8   8   8   8   8   8
#     4  10  21  38  61  90 122 156 195 238 287 344
#     4  12  26  41  59  84 117 154 196 246 297 351
#     4   9  20  39  63  88 117 154 192 234 288 349
#     4  11  22  37  60  89 120 153 195 244 291 344
#     4  10  22  38  61  86 111 147 194 240 289 346
#     4  11  22  38  62  89 120 156 194 239 291 348
#     4  11  24  41  61  84 115 155 196 242 296 350
#
# _framework density 20.860658000000001
#
# number of rings (size 3 to 8) (size 9 to 14) (size 15 to 20)
#    0.000    1.429    0.000    6.000    0.000   14.286 
#    0.000    0.714    0.000    4.286    0.000    0.000 
#    0.000    0.000    0.000    0.000    0.000    0.000 
#
# Total GULP energy -155949.736165 kJ/mol
# GULP energy per Si atom -5569.633434 kJ/mol
# Density = 2.081318 g / cm^3
# Si number density = 20.860658 Si / 1000 Ang^3
#
#
#
# Elastic Constant Matrix: (Units=GPa)
#
#
# Indices 1 2 3 4 5 6 
#
# 1 76.9740 28.5048 44.0868 0.0000 -3.8649 0.0001
# 2 28.5048 69.8626 10.4608 -0.0001 8.4641 0.0002
# 3 44.0868 10.4608 156.1501 0.0000 12.2066 0.0000
# 4 0.0000 -0.0001 0.0000 0.0819 0.0000 -24.2247
# 5 -3.8649 8.4641 12.2066 0.0000 28.8566 0.0000
# 6 0.0001 0.0002 0.0000 -24.2247 0.0000 30.1523
#
#
#
# Elastic Compliance Matrix: (Units=1/GPa)
#
#
# Indices 1 2 3 4 5 6 
#
# 1 0.019497 -0.008011 -0.005539 0.000000 0.007304 0.000000
# 2 -0.008011 0.018202 0.001596 0.000000 -0.007087 0.000000
# 3 -0.005539 0.001596 0.008228 0.000000 -0.004690 0.000000
# 4 0.000000 0.000000 0.000000 -0.051598 0.000000 -0.041455
# 5 0.007304 -0.007087 -0.004690 0.000000 0.039695 0.000000
# 6 0.000000 0.000000 0.000000 -0.041455 0.000000 -0.000140
#
#
# Mechanical properties :
#
#
# Convention : Reuss Voigt Hill
#
# Bulk Modulus (GPa) = 45.41337 52.12127 48.76732
# Shear Modulus (GPa) = 76.76953 26.48045 51.62499
#
# Velocity S-wave (km/s) = 6.07297 3.56672 4.98009
# Velocity P-wave (km/s) = 8.42566 6.48087 7.51643
#
# Compressibility (1/GPa) = 0.02201995
#
# Stress axis : x y z
#
# Youngs Moduli (GPa) = 51.28974 54.93962 121.54078
#
# Poissons Ratio (x) = 0.44010 0.67322
# Poissons Ratio (y) = 0.41086 -0.19402
# Poissons Ratio (z) = 0.28410 -0.08770
#
# Static dielectric constant tensor:
#      x y z
#    x 1.761150 0.000000 0.002550 
#    y 0.000000 1.561020 0.000000 
#    z 0.002550 0.000000 1.727100 
# 
# From -- ./inp_files/342344.got.cif
#   From: 2010.05.17/outbox.cif.g08.bks.cpg/sg12_172_cif.got.tgz:342344.got - 2010.06.03 13:09:07.
