data_PCOD9209325
_publ_section_title
;
Structure prediction by ZEFSAII (Michael W. Deem and Ramdas Pophale) SiO2 
 PCOD9209325
Probable space group: C 2/M
;
_chemical_formula_sum "Si O2"
_cell_formula_units_Z 56
_cell_length_a 28.060255
_cell_length_b 11.170342
_cell_length_c 13.393951
_cell_angle_alpha 90.000000
_cell_angle_beta 137.506865
_cell_angle_gamma 90.000000
_cell_volume 2835.915859
_symmetry_space_group_name_H-M "C 2/M"
_symmetry_group_IT_number 12
_symmetry_cell_setting 'monoclinic'
loop_
_space_group_symop_operation_xyz
x,y,z
-x,y,-z
-x,-y,-z
x,-y,z
1/2+x,1/2+y,z
1/2-x,1/2+y,-z
1/2-x,1/2-y,-z
1/2+x,1/2-y,z
loop_
_atom_site_type_symbol
_atom_site_label
_atom_site_fract_x
_atom_site_fract_y
_atom_site_fract_z
Si Si1 0.930531 0.137540 0.821761
Si Si2 0.902509 0.279047 0.125527
Si Si3 0.443255 0.863596 0.693303
Si Si4 0.667119 0.196757 0.647366
Si Si5 0.787385 0.622917 0.069143
Si Si6 0.321978 0.640867 0.829280
Si Si7 0.078671 0.858968 0.641815
O O1 0.929553 0.250006 0.745241
O O2 0.861083 0.146223 0.783613
O O3 0.933139 0.000000 0.782991
O O4 0.000000 0.147430 0.000000
O O5 0.845022 0.374499 0.071624
O O6 0.903887 0.190468 0.222237
O O7 0.977697 0.338500 0.223172
O O8 0.873653 0.205984 0.986862
O O9 0.387396 0.855719 0.516495
O O10 0.439305 0.000000 0.729555
O O11 0.677729 0.125349 0.767516
O O12 0.744829 0.200464 0.718889
O O13 0.632021 0.316602 0.637927
O O14 0.743907 0.500000 0.993785
O O15 0.750000 0.750000 0.000000
O O16 0.313884 0.500000 0.842203
O O17 0.000000 0.810131 0.500000
O O18 0.076045 0.000000 0.639283
#
# Coordination Sequence:
#
# PCOD9209325 Si02
#       7
#     8   8   8   8   8   8   8
#     4  10  23  44  71  99 125 164 223 278 329 394
#     4  11  22  39  61  93 126 169 216 263 321 386
#     4  12  25  43  67  96 132 172 215 271 334 395
#     4  11  24  42  63  95 134 176 215 259 328 395
#     4  11  23  39  62  92 131 172 217 263 312 382
#     4  11  22  42  68  93 125 170 217 269 329 393
#     4  10  21  38  61  95 135 174 220 270 317 379
#
# _framework density 19.746708000000002
#
# number of rings (size 3 to 8) (size 9 to 14) (size 15 to 20)
#    0.000    1.143    4.286    2.143    0.000    4.286 
#    0.000    2.857    0.000    0.000    0.000    0.000 
#    0.000    0.000    0.000    0.000    0.000    0.000 
#
# Total GULP energy -156155.398531 kJ/mol
# GULP energy per Si atom -5576.978519 kJ/mol
# Density = 1.970176 g / cm^3
# Si number density = 19.746708 Si / 1000 Ang^3
#
#
#
# Elastic Constant Matrix: (Units=GPa)
#
#
# Indices 1 2 3 4 5 6 
#
# 1 95.7323 50.8482 24.7821 0.0000 10.7191 0.0000
# 2 50.8482 168.0316 52.0856 0.0000 -9.9445 0.0000
# 3 24.7821 52.0856 96.9799 0.0000 10.4344 0.0000
# 4 0.0000 0.0000 0.0000 20.9064 0.0000 -15.6811
# 5 10.7191 -9.9445 10.4344 0.0000 29.9623 0.0000
# 6 0.0000 0.0000 0.0000 -15.6811 0.0000 48.3879
#
#
#
# Elastic Compliance Matrix: (Units=1/GPa)
#
#
# Indices 1 2 3 4 5 6 
#
# 1 0.013544 -0.004308 -0.000491 0.000000 -0.006104 0.000000
# 2 -0.004308 0.008965 -0.004363 0.000000 0.006036 0.000000
# 3 -0.000491 -0.004363 0.013420 0.000000 -0.005946 0.000000
# 4 0.000000 0.000000 0.000000 0.063193 0.000000 0.020479
# 5 -0.006104 0.006036 -0.005946 0.000000 0.039633 0.000000
# 6 0.000000 0.000000 0.000000 0.020479 0.000000 0.027303
#
#
# Mechanical properties :
#
#
# Convention : Reuss Voigt Hill
#
# Bulk Modulus (GPa) = 56.80080 68.46395 62.63237
# Shear Modulus (GPa) = 26.28118 35.38651 30.83385
#
# Velocity S-wave (km/s) = 3.65213 4.23782 3.95583
# Velocity P-wave (km/s) = 6.82724 7.66106 7.25614
#
# Compressibility (1/GPa) = 0.01760539
#
# Stress axis : x y z
#
# Youngs Moduli (GPa) = 73.83088 111.54966 74.51565
#
# Poissons Ratio (x) = 0.48054 0.03656
# Poissons Ratio (y) = 0.31806 0.32513
# Poissons Ratio (z) = 0.03623 0.48672
#
# Static dielectric constant tensor:
#      x y z
#    x 1.702980 0.000000 0.036740 
#    y 0.000000 1.695320 0.000000 
#    z 0.036740 0.000000 1.717540 
# 
# From -- ./inp_files/250564.got.cif
#   From: 2010.05.17/outbox.cif.g08.bks.cpg/sg12_126_cif.got.tgz:250564.got - 2010.06.03 13:09:07.
