data_PCOD9209265
_publ_section_title
;
Structure prediction by ZEFSAII (Michael W. Deem and Ramdas Pophale) SiO2 
 PCOD9209265
Probable space group: C 2/M
;
_chemical_formula_sum "Si O2"
_cell_formula_units_Z 20
_cell_length_a 6.764285
_cell_length_b 17.923875
_cell_length_c 7.668117
_cell_angle_alpha 90.000000
_cell_angle_beta 57.393025
_cell_angle_gamma 90.000000
_cell_volume 783.166476
_symmetry_space_group_name_H-M "C 2/M"
_symmetry_group_IT_number 12
_symmetry_cell_setting 'monoclinic'
loop_
_space_group_symop_operation_xyz
x,y,z
-x,y,-z
-x,-y,-z
x,-y,z
1/2+x,1/2+y,z
1/2-x,1/2+y,-z
1/2-x,1/2-y,-z
1/2+x,1/2-y,z
loop_
_atom_site_type_symbol
_atom_site_label
_atom_site_fract_x
_atom_site_fract_y
_atom_site_fract_z
Si Si1 0.796136 0.079519 0.743472
Si Si2 0.500000 0.366957 0.000000
Si Si3 0.270381 0.742427 0.665683
O O1 0.682929 0.159874 0.763975
O O2 0.000000 0.078602 0.500000
O O3 0.668762 0.000000 0.779321
O O4 0.899969 0.085197 0.888052
O O5 0.690566 0.311250 0.825454
O O6 0.561445 0.739998 0.603931
#
# Coordination Sequence:
#
# PCOD9209265 Si02
#       3
#     8   4   8
#     4  10  21  38  61  91 124 159 200 250 304 358
#     4  12  21  40  69  86 120 166 206 242 305 360
#     4  11  22  40  64  92 120 160 205 250 296 361
#
# _framework density 25.537355999999999
#
# number of rings (size 3 to 8) (size 9 to 14) (size 15 to 20)
#    0.000    1.200    8.000    1.800    0.000    0.000 
#    0.000    1.000    0.000    6.000    0.000    0.000 
#    0.000    0.000    0.000    0.000    0.000    0.000 
#
# Total GULP energy -55830.333820 kJ/mol
# GULP energy per Si atom -5583.033382 kJ/mol
# Density = 2.547923 g / cm^3
# Si number density = 25.537356 Si / 1000 Ang^3
#
#
#
# Elastic Constant Matrix: (Units=GPa)
#
#
# Indices 1 2 3 4 5 6 
#
# 1 149.2132 45.4487 57.8900 0.0000 23.6837 0.0000
# 2 45.4487 235.7448 20.4157 0.0000 20.8267 0.0000
# 3 57.8900 20.4157 158.9686 0.0000 18.3559 0.0000
# 4 0.0000 0.0000 0.0000 -123.0946 0.0000 10.4944
# 5 23.6837 20.8267 18.3559 0.0000 74.5133 0.0000
# 6 0.0000 0.0000 0.0000 10.4944 0.0000 24.1445
#
#
#
# Elastic Compliance Matrix: (Units=1/GPa)
#
#
# Indices 1 2 3 4 5 6 
#
# 1 0.008391 -0.001237 -0.002706 0.000000 -0.001655 0.000000
# 2 -0.001237 0.004560 -0.000034 0.000000 -0.000873 0.000000
# 3 -0.002706 -0.000034 0.007390 0.000000 -0.000951 0.000000
# 4 0.000000 0.000000 0.000000 -0.007834 0.000000 0.003405
# 5 -0.001655 -0.000873 -0.000951 0.000000 0.014425 0.000000
# 6 0.000000 0.000000 0.000000 0.003405 0.000000 0.039937
#
#
# Mechanical properties :
#
#
# Convention : Reuss Voigt Hill
#
# Bulk Modulus (GPa) = 80.72930 87.93726 84.33328
# Shear Modulus (GPa) = 63.32831 23.12411 43.22621
#
# Velocity S-wave (km/s) = 4.98519 3.01242 4.11867
# Velocity P-wave (km/s) = 8.05090 6.82708 7.46412
#
# Compressibility (1/GPa) = 0.01238708
#
# Stress axis : x y z
#
# Youngs Moduli (GPa) = 119.17488 219.27480 135.31656
#
# Poissons Ratio (x) = 0.27128 0.36613
# Poissons Ratio (y) = 0.14744 0.00465
# Poissons Ratio (z) = 0.32245 0.00753
#
# Static dielectric constant tensor:
#      x y z
#    x 2.250110 0.000000 -0.075810 
#    y 0.000000 1.855040 0.000000 
#    z -0.075810 0.000000 2.027700 
# 
# From -- ./inp_files/32978.got.cif
#   From: 2010.05.17/outbox.cif.g08.bks.cpg/sg12_17_cif.got.tgz:32978.got - 2010.06.03 13:09:07.
