data_PCOD9209870
_publ_section_title
;
Structure prediction by ZEFSAII (Michael W. Deem and Ramdas Pophale) SiO2 
 PCOD9209870
Probable space group: C 2/M
;
_chemical_formula_sum "Si O2"
_cell_formula_units_Z 48
_cell_length_a 8.499671
_cell_length_b 29.278122
_cell_length_c 14.046202
_cell_angle_alpha 90.000000
_cell_angle_beta 43.706099
_cell_angle_gamma 90.000000
_cell_volume 2415.220294
_symmetry_space_group_name_H-M "C 2/M"
_symmetry_group_IT_number 12
_symmetry_cell_setting 'monoclinic'
loop_
_space_group_symop_operation_xyz
x,y,z
-x,y,-z
-x,-y,-z
x,-y,z
1/2+x,1/2+y,z
1/2-x,1/2+y,-z
1/2-x,1/2-y,-z
1/2+x,1/2-y,z
loop_
_atom_site_type_symbol
_atom_site_label
_atom_site_fract_x
_atom_site_fract_y
_atom_site_fract_z
Si Si1 0.753171 0.116482 0.857129
Si Si2 0.981113 0.198684 0.845546
Si Si3 0.490452 0.552161 0.900295
Si Si4 0.873594 0.701106 0.824275
Si Si5 0.248134 0.377675 0.643760
Si Si6 0.490242 0.052578 0.394925
O O1 0.756798 0.101444 0.746285
O O2 0.927055 0.158358 0.796144
O O3 0.834453 0.077924 0.894220
O O4 0.500000 0.130862 0.000000
O O5 0.217250 0.196291 0.799100
O O6 0.957253 0.247161 0.803908
O O7 0.788626 0.193467 0.012567
O O8 0.408222 0.500000 0.947303
O O9 0.748913 0.551813 0.752616
O O10 0.500000 0.575036 0.000000
O O11 0.077455 0.665165 0.728636
O O12 0.500000 0.364109 0.500000
O O13 0.149427 0.414065 0.611914
O O14 0.500000 0.068054 0.500000
O O15 0.403083 0.000000 0.430489
#
# Coordination Sequence:
#
# PCOD9209870 Si02
#       6
#     8   8   8   8   8   8
#     4  12  23  37  62  92 126 167 217 259 321 388
#     4  10  21  38  66  89 119 163 220 263 305 387
#     4  10  22  39  61  91 126 165 212 268 322 373
#     4  10  21  39  63  91 122 164 213 267 317 370
#     4  12  25  40  61  98 134 164 209 270 328 379
#     4  10  22  43  67  90 124 176 224 256 312 391
#
# _framework density 19.873964000000001
#
# number of rings (size 3 to 8) (size 9 to 14) (size 15 to 20)
#    0.000    1.333    1.667    4.000    4.667    1.333 
#    0.000    3.333    0.000    1.000    0.000    0.000 
#    0.000    0.000    0.000    0.000    0.000    0.000 
#
# Total GULP energy -134152.989823 kJ/mol
# GULP energy per Si atom -5589.707909 kJ/mol
# Density = 1.982873 g / cm^3
# Si number density = 19.873964 Si / 1000 Ang^3
#
#
#
# Elastic Constant Matrix: (Units=GPa)
#
#
# Indices 1 2 3 4 5 6 
#
# 1 169.8116 80.1854 52.3395 0.0000 16.3531 0.0000
# 2 80.1854 95.6209 8.1572 0.0000 10.9284 0.0000
# 3 52.3395 8.1572 67.9986 0.0000 17.1018 0.0000
# 4 0.0000 0.0000 0.0000 26.1137 0.0000 -3.1814
# 5 16.3531 10.9284 17.1018 0.0000 37.9208 0.0000
# 6 0.0000 0.0000 0.0000 -3.1814 0.0000 42.8318
#
#
#
# Elastic Compliance Matrix: (Units=1/GPa)
#
#
# Indices 1 2 3 4 5 6 
#
# 1 0.014009 -0.011089 -0.009855 0.000000 0.001599 0.000000
# 2 -0.011089 0.019613 0.007221 0.000000 -0.004126 0.000000
# 3 -0.009855 0.007221 0.023551 0.000000 -0.008452 0.000000
# 4 0.000000 0.000000 0.000000 0.038644 0.000000 0.002870
# 5 0.001599 -0.004126 -0.008452 0.000000 0.030682 0.000000
# 6 0.000000 0.000000 0.000000 0.002870 0.000000 0.023560
#
#
# Mechanical properties :
#
#
# Convention : Reuss Voigt Hill
#
# Bulk Modulus (GPa) = 33.64049 68.31060 50.97555
# Shear Modulus (GPa) = 26.67883 34.22319 30.45101
#
# Velocity S-wave (km/s) = 3.66785 4.15421 3.91859
# Velocity P-wave (km/s) = 5.90772 7.58001 6.79550
#
# Compressibility (1/GPa) = 0.02972608
#
# Stress axis : x y z
#
# Youngs Moduli (GPa) = 71.38391 50.98669 42.46104
#
# Poissons Ratio (x) = 0.56542 0.41844
# Poissons Ratio (y) = 0.79161 -0.30660
# Poissons Ratio (z) = 0.70346 -0.36816
#
# Static dielectric constant tensor:
#      x y z
#    x 1.688030 0.000000 0.012820 
#    y 0.000000 1.706050 0.000000 
#    z 0.012820 0.000000 1.678290 
# 
# From -- ./inp_files/200150.got.cif
#   From: 2010.05.17/outbox.cif.g08.bks.cpg/sg12_101_cif.got.tgz:200150.got - 2010.06.03 13:09:07.
