data_PCOD9209323
_publ_section_title
;
Structure prediction by ZEFSAII (Michael W. Deem and Ramdas Pophale) SiO2 
 PCOD9209323
Probable space group: C 2/M
;
_chemical_formula_sum "Si O2"
_cell_formula_units_Z 56
_cell_length_a 17.902694
_cell_length_b 15.180156
_cell_length_c 12.653750
_cell_angle_alpha 90.000000
_cell_angle_beta 131.254500
_cell_angle_gamma 90.000000
_cell_volume 2585.290046
_symmetry_space_group_name_H-M "C 2/M"
_symmetry_group_IT_number 12
_symmetry_cell_setting 'monoclinic'
loop_
_space_group_symop_operation_xyz
x,y,z
-x,y,-z
-x,-y,-z
x,-y,z
1/2+x,1/2+y,z
1/2-x,1/2+y,-z
1/2-x,1/2-y,-z
1/2+x,1/2-y,z
loop_
_atom_site_type_symbol
_atom_site_label
_atom_site_fract_x
_atom_site_fract_y
_atom_site_fract_z
Si Si1 0.923595 0.393434 0.627293
Si Si2 0.759720 0.329546 0.892417
Si Si3 0.598008 0.105076 0.150018
Si Si4 0.235406 0.104684 0.313531
Si Si5 0.175241 0.858431 0.022978
Si Si6 0.037735 0.102397 0.249243
Si Si7 0.960106 0.239798 0.345070
O O1 0.937657 0.500000 0.633462
O O2 0.896288 0.368467 0.722375
O O3 0.833964 0.364377 0.465779
O O4 0.018585 0.336737 0.681726
O O5 0.809337 0.373732 0.838049
O O6 0.829381 0.247730 0.989875
O O7 0.654010 0.288628 0.762804
O O8 0.736327 0.386588 0.975306
O O9 0.587896 0.000000 0.144165
O O10 0.500000 0.141768 0.000000
O O11 0.227559 0.122146 0.182047
O O12 0.133308 0.134890 0.273339
O O13 0.236767 0.000000 0.328308
O O14 0.063782 0.894697 0.913906
O O15 0.017252 0.167702 0.326915
O O16 0.053078 0.000000 0.295908
O O17 0.000000 0.237274 0.500000
#
# Coordination Sequence:
#
# PCOD9209323 Si02
#       7
#     8   8   8   8   8   8   8
#     4  10  24  45  69 101 135 174 226 275 331 400
#     4  10  24  40  64  98 131 169 228 271 331 399
#     4  10  24  44  69  97 131 177 225 278 334 392
#     4  10  21  39  65  95 130 174 218 271 334 393
#     4  10  21  38  61  94 132 174 216 274 332 394
#     4  10  23  40  62  97 135 176 227 272 325 401
#     4  11  25  43  66  99 135 179 225 270 343 395
#
# _framework density 21.661011999999999
#
# number of rings (size 3 to 8) (size 9 to 14) (size 15 to 20)
#    0.000    1.857    0.000    1.714   10.000    5.143 
#    0.000    1.429    0.000    0.000    0.000    0.000 
#    0.000    0.000    0.000    0.000    0.000    0.000 
#
# Total GULP energy -156457.391502 kJ/mol
# GULP energy per Si atom -5587.763982 kJ/mol
# Density = 2.161171 g / cm^3
# Si number density = 21.661012 Si / 1000 Ang^3
#
#
#
# Elastic Constant Matrix: (Units=GPa)
#
#
# Indices 1 2 3 4 5 6 
#
# 1 130.7477 23.5891 75.2174 0.0000 -1.1779 0.0000
# 2 23.5891 48.8108 26.9901 0.0000 0.2375 0.0000
# 3 75.2174 26.9901 147.0773 0.0000 -21.8272 0.0000
# 4 0.0000 0.0000 0.0000 25.6204 0.0000 -1.4843
# 5 -1.1779 0.2375 -21.8272 0.0000 26.4651 0.0000
# 6 0.0000 0.0000 0.0000 -1.4843 0.0000 40.7361
#
#
#
# Elastic Compliance Matrix: (Units=1/GPa)
#
#
# Indices 1 2 3 4 5 6 
#
# 1 0.011558 -0.002136 -0.006199 0.000000 -0.004579 0.000000
# 2 -0.002136 0.023606 -0.003743 0.000000 -0.003394 0.000000
# 3 -0.006199 -0.003743 0.012101 0.000000 0.009738 0.000000
# 4 0.000000 0.000000 0.000000 0.039114 0.000000 0.001425
# 5 -0.004579 -0.003394 0.009738 0.000000 0.045644 0.000000
# 6 0.000000 0.000000 0.000000 0.001425 0.000000 0.024600
#
#
# Mechanical properties :
#
#
# Convention : Reuss Voigt Hill
#
# Bulk Modulus (GPa) = 43.27161 64.24767 53.75964
# Shear Modulus (GPa) = 26.52755 31.95359 29.24057
#
# Velocity S-wave (km/s) = 3.50332 3.84496 3.67811
# Velocity P-wave (km/s) = 6.03195 7.03111 6.55061
#
# Compressibility (1/GPa) = 0.02310984
#
# Stress axis : x y z
#
# Youngs Moduli (GPa) = 86.51654 42.36228 82.63500
#
# Poissons Ratio (x) = 0.09049 0.51223
# Poissons Ratio (y) = 0.18481 0.30932
# Poissons Ratio (z) = 0.53629 0.15857
#
# Static dielectric constant tensor:
#      x y z
#    x 1.799520 0.000000 -0.003850 
#    y 0.000000 1.816850 0.000000 
#    z -0.003850 0.000000 1.819520 
# 
# From -- ./inp_files/156748.got.cif
#   From: 2010.05.17/outbox.cif.g08.bks.cpg/sg12_79_cif.got.tgz:156748.got - 2010.06.03 13:09:07.
