data_PCOD9209452
_publ_section_title
;
Structure prediction by ZEFSAII (Michael W. Deem and Ramdas Pophale) SiO2 
 PCOD9209452
Probable space group: C 2/M
;
_chemical_formula_sum "Si O2"
_cell_formula_units_Z 50
_cell_length_a 9.480004
_cell_length_b 31.794642
_cell_length_c 11.226674
_cell_angle_alpha 90.000000
_cell_angle_beta 53.245877
_cell_angle_gamma 90.000000
_cell_volume 2711.192423
_symmetry_space_group_name_H-M "C 2/M"
_symmetry_group_IT_number 12
_symmetry_cell_setting 'monoclinic'
loop_
_space_group_symop_operation_xyz
x,y,z
-x,y,-z
-x,-y,-z
x,-y,z
1/2+x,1/2+y,z
1/2-x,1/2+y,-z
1/2-x,1/2-y,-z
1/2+x,1/2-y,z
loop_
_atom_site_type_symbol
_atom_site_label
_atom_site_fract_x
_atom_site_fract_y
_atom_site_fract_z
Si Si1 0.695984 0.209444 0.451759
Si Si2 0.906053 0.107305 0.727710
Si Si3 0.859928 0.578886 0.724018
Si Si4 0.583891 0.655817 0.828850
Si Si5 0.500000 0.000000 0.500000
Si Si6 0.230035 0.376961 0.574364
Si Si7 0.672599 0.950095 0.987585
O O1 0.500000 0.213671 0.500000
O O2 0.750000 0.250000 0.500000
O O3 0.817253 0.195641 0.278455
O O4 0.714197 0.169810 0.531573
O O5 0.771088 0.120953 0.693402
O O6 0.930603 0.142770 0.814896
O O7 0.097292 0.102129 0.571748
O O8 0.837260 0.066420 0.829329
O O9 0.719305 0.615572 0.762096
O O10 0.883726 0.537646 0.629419
O O11 0.822047 0.566221 0.880289
O O12 0.053076 0.599679 0.628964
O O13 0.500000 0.662327 0.000000
O O14 0.668561 0.000000 0.994371
O O15 0.500000 0.936006 0.000000
#
# Coordination Sequence:
#
# PCOD9209452 Si02
#       7
#     8   8   8   8   2   8   8
#     4  11  24  42  69  97 126 165 207 263 325 390
#     4  10  21  38  62  91 120 164 215 256 309 374
#     4  12  22  42  61  89 126 175 213 260 321 374
#     4  11  23  42  67  94 131 167 212 265 321 387
#     4  12  24  36  60  94 124 166 226 264 304 380
#     4  10  22  42  65  89 123 169 213 258 315 386
#     4  11  22  39  59  90 128 168 214 272 321 365
#
# _framework density 18.442070000000001
#
# number of rings (size 3 to 8) (size 9 to 14) (size 15 to 20)
#    0.000    1.120    5.600    1.920    4.480    0.000 
#    5.760    2.800    3.520    0.000    0.000    0.000 
#    0.000    0.000    0.000    0.000    0.000    0.000 
#
# Total GULP energy -139211.461229 kJ/mol
# GULP energy per Si atom -5568.458449 kJ/mol
# Density = 1.840010 g / cm^3
# Si number density = 18.442070 Si / 1000 Ang^3
#
#
#
# Elastic Constant Matrix: (Units=GPa)
#
#
# Indices 1 2 3 4 5 6 
#
# 1 62.8845 39.4053 33.4286 0.0000 5.5705 0.0000
# 2 39.4053 103.0284 66.3358 0.0000 -6.9258 0.0000
# 3 33.4286 66.3358 112.0527 0.0000 20.9981 0.0000
# 4 0.0000 0.0000 0.0000 25.9779 0.0000 4.4442
# 5 5.5705 -6.9258 20.9981 0.0000 28.2104 0.0000
# 6 0.0000 0.0000 0.0000 4.4442 0.0000 4.4424
#
#
#
# Elastic Compliance Matrix: (Units=1/GPa)
#
#
# Indices 1 2 3 4 5 6 
#
# 1 0.022040 -0.008694 -0.000247 0.000000 -0.006303 0.000000
# 2 -0.008694 0.024124 -0.015246 0.000000 0.018987 0.000000
# 3 -0.000247 -0.015246 0.021750 0.000000 -0.019883 0.000000
# 4 0.000000 0.000000 0.000000 0.046443 0.000000 -0.046461
# 5 -0.006303 0.018987 -0.019883 0.000000 0.056154 0.000000
# 6 0.000000 0.000000 0.000000 -0.046461 0.000000 0.271583
#
#
# Mechanical properties :
#
#
# Convention : Reuss Voigt Hill
#
# Bulk Modulus (GPa) = 51.17904 61.81167 56.49535
# Shear Modulus (GPa) = 10.06076 20.97920 15.51998
#
# Velocity S-wave (km/s) = 2.33820 3.37645 2.90410
# Velocity P-wave (km/s) = 5.92461 6.98498 6.47654
#
# Compressibility (1/GPa) = 0.01953925
#
# Stress axis : x y z
#
# Youngs Moduli (GPa) = 45.37239 41.45251 45.97744
#
# Poissons Ratio (x) = 0.36040 0.01136
# Poissons Ratio (y) = 0.39448 0.70097
# Poissons Ratio (z) = 0.01121 0.63198
#
# Static dielectric constant tensor:
#      x y z
#    x 1.660500 0.000000 0.003180 
#    y 0.000000 1.604740 0.000000 
#    z 0.003180 0.000000 1.709070 
# 
# From -- ./inp_files/125140.got.cif
#   From: 2010.05.17/outbox.cif.g08.bks.cpg/sg12_63_cif.got.tgz:125140.got - 2010.06.03 13:09:07.
