data_PCOD9209789
_publ_section_title
;
Structure prediction by ZEFSAII (Michael W. Deem and Ramdas Pophale) SiO2 
 PCOD9209789
Probable space group: C 2/M
;
_chemical_formula_sum "Si O2"
_cell_formula_units_Z 48
_cell_length_a 8.209288
_cell_length_b 20.238238
_cell_length_c 14.044221
_cell_angle_alpha 90.000000
_cell_angle_beta 93.723716
_cell_angle_gamma 90.000000
_cell_volume 2328.402213
_symmetry_space_group_name_H-M "C 2/M"
_symmetry_group_IT_number 12
_symmetry_cell_setting 'monoclinic'
loop_
_space_group_symop_operation_xyz
x,y,z
-x,y,-z
-x,-y,-z
x,-y,z
1/2+x,1/2+y,z
1/2-x,1/2+y,-z
1/2-x,1/2-y,-z
1/2+x,1/2-y,z
loop_
_atom_site_type_symbol
_atom_site_label
_atom_site_fract_x
_atom_site_fract_y
_atom_site_fract_z
Si Si1 0.452710 0.000000 0.390019
Si Si2 0.431580 0.924038 0.893984
Si Si3 0.395824 0.765069 0.576839
Si Si4 0.459166 0.422714 0.109509
Si Si5 0.026242 0.633527 0.709358
Si Si6 0.085448 0.862136 0.303137
Si Si7 0.561972 0.500000 0.394407
O O1 0.500000 0.000000 0.500000
O O2 0.516886 0.064098 0.339749
O O3 0.256771 0.000000 0.384745
O O4 0.236081 0.920868 0.886042
O O5 0.508530 0.875731 0.820328
O O6 0.480622 0.000000 0.873521
O O7 0.500000 0.909085 0.000000
O O8 0.500000 0.802603 0.500000
O O9 0.250000 0.750000 0.500000
O O10 0.397098 0.813891 0.665252
O O11 0.465905 0.698011 0.628378
O O12 0.513634 0.500000 0.129505
O O13 0.534420 0.372382 0.190387
O O14 0.500000 0.408531 0.000000
O O15 0.216115 0.646331 0.690092
O O16 0.015917 0.930142 0.345554
O O17 0.500000 0.500000 0.500000
#
# Coordination Sequence:
#
# PCOD9209789 Si02
#       7
#     4   8   8   8   8   8   4
#     4  10  22  36  61  88 125 160 207 268 311 370
#     4  10  21  38  64  97 130 166 206 259 319 379
#     4  12  26  45  63  89 128 176 216 258 315 379
#     4  10  21  38  64  97 131 165 205 259 322 378
#     4  11  23  41  63  93 125 169 214 259 320 375
#     4  11  23  41  64  91 127 168 212 263 318 375
#     4  10  22  38  59  92 123 160 209 266 315 366
#
# _framework density 20.614995
#
# number of rings (size 3 to 8) (size 9 to 14) (size 15 to 20)
#    0.000    1.333    3.333    2.000    4.667    2.667 
#    0.000    0.833    0.000    4.000    0.000    0.000 
#    0.000    0.000    0.000    0.000    0.000    0.000 
#
# Total GULP energy -133721.382109 kJ/mol
# GULP energy per Si atom -5571.724255 kJ/mol
# Density = 2.056807 g / cm^3
# Si number density = 20.614995 Si / 1000 Ang^3
#
#
#
# Elastic Constant Matrix: (Units=GPa)
#
#
# Indices 1 2 3 4 5 6 
#
# 1 28.9221 4.4500 6.6994 0.0000 10.8195 0.0000
# 2 4.4500 92.4905 52.9891 0.0000 14.6502 0.0000
# 3 6.6994 52.9891 149.1457 0.0000 15.1890 0.0000
# 4 0.0000 0.0000 0.0000 40.0740 0.0000 5.5825
# 5 10.8195 14.6502 15.1890 0.0000 41.9701 0.0000
# 6 0.0000 0.0000 0.0000 5.5825 0.0000 13.9836
#
#
#
# Elastic Compliance Matrix: (Units=1/GPa)
#
#
# Indices 1 2 3 4 5 6 
#
# 1 0.038346 0.000134 -0.000788 0.000000 -0.009647 0.000000
# 2 0.000134 0.013978 -0.004643 0.000000 -0.003233 0.000000
# 3 -0.000788 -0.004643 0.008518 0.000000 -0.001259 0.000000
# 4 0.000000 0.000000 0.000000 0.026423 0.000000 -0.010549
# 5 -0.009647 -0.003233 -0.001259 0.000000 0.027898 0.000000
# 6 0.000000 0.000000 0.000000 -0.010549 0.000000 0.075724
#
#
# Mechanical properties :
#
#
# Convention : Reuss Voigt Hill
#
# Bulk Modulus (GPa) = 19.90061 44.31504 32.10782
# Shear Modulus (GPa) = 22.91176 32.96684 27.93930
#
# Velocity S-wave (km/s) = 3.33740 4.00330 3.68542
# Velocity P-wave (km/s) = 4.95231 6.55070 5.80677
#
# Compressibility (1/GPa) = 0.05024971
#
# Stress axis : x y z
#
# Youngs Moduli (GPa) = 26.07810 71.54350 117.39924
#
# Poissons Ratio (x) = -0.00962 0.09248
# Poissons Ratio (y) = -0.00351 0.54505
# Poissons Ratio (z) = 0.02054 0.33216
#
# Static dielectric constant tensor:
#      x y z
#    x 2.056590 0.000000 0.083940 
#    y 0.000000 1.777340 0.000000 
#    z 0.083940 0.000000 1.745410 
# 
# From -- ./inp_files/196010.got.cif
#   From: 2010.05.17/outbox.cif.g08.bks.cpg/sg12_99_cif.got.tgz:196010.got - 2010.06.03 13:09:07.
