data_PCOD9209366
_publ_section_title
;
Structure prediction by ZEFSAII (Michael W. Deem and Ramdas Pophale) SiO2 
 PCOD9209366
Probable space group: C 2/M
;
_chemical_formula_sum "Si O2"
_cell_formula_units_Z 48
_cell_length_a 24.058870
_cell_length_b 8.976825
_cell_length_c 9.834440
_cell_angle_alpha 90.000000
_cell_angle_beta 82.966174
_cell_angle_gamma 90.000000
_cell_volume 2107.981382
_symmetry_space_group_name_H-M "C 2/M"
_symmetry_group_IT_number 12
_symmetry_cell_setting 'monoclinic'
loop_
_space_group_symop_operation_xyz
x,y,z
-x,y,-z
-x,-y,-z
x,-y,z
1/2+x,1/2+y,z
1/2-x,1/2+y,-z
1/2-x,1/2-y,-z
1/2+x,1/2-y,z
loop_
_atom_site_type_symbol
_atom_site_label
_atom_site_fract_x
_atom_site_fract_y
_atom_site_fract_z
Si Si1 0.582204 0.173667 0.584022
Si Si2 0.714968 0.171401 0.206734
Si Si3 0.064450 0.176070 0.013106
Si Si4 0.461388 0.174952 0.712667
Si Si5 0.173895 0.327723 0.906606
Si Si6 0.191407 0.824719 0.478245
O O1 0.526834 0.220158 0.682498
O O2 0.563164 0.184061 0.431434
O O3 0.639017 0.264373 0.579646
O O4 0.592794 0.000000 0.609756
O O5 0.690338 0.178472 0.062270
O O6 0.683708 0.274279 0.323950
O O7 0.711576 0.000000 0.253762
O O8 0.779025 0.227511 0.178537
O O9 0.069455 0.224475 0.168902
O O10 0.111235 0.265663 0.916006
O O11 0.072795 0.000000 0.992454
O O12 0.000000 0.214263 0.000000
O O13 0.458015 0.000000 0.754620
O O14 0.178131 0.500000 0.861917
O O15 0.250000 0.750000 0.500000
O O16 0.195370 0.000000 0.488824
#
# Coordination Sequence:
#
# PCOD9209366 Si02
#       6
#     8   8   8   8   8   8
#     4   9  19  38  61  86 114 143 182 233 285 335
#     4  10  21  39  62  87 115 146 186 236 285 336
#     4  11  24  38  53  79 117 155 189 232 282 329
#     4   9  19  37  62  86 110 145 186 230 281 338
#     4  10  21  38  62  88 113 147 190 234 282 337
#     4  12  25  39  57  83 116 154 192 232 283 338
#
# _framework density 22.770598
#
# number of rings (size 3 to 8) (size 9 to 14) (size 15 to 20)
#    0.000    1.833    0.000    5.000    0.000   10.000 
#    0.000    5.000    0.000    0.000    0.000    0.000 
#    0.000    0.000    0.000    0.000    0.000    0.000 
#
# Total GULP energy -134352.384461 kJ/mol
# GULP energy per Si atom -5598.016019 kJ/mol
# Density = 2.271877 g / cm^3
# Si number density = 22.770598 Si / 1000 Ang^3
#
#
#
# Elastic Constant Matrix: (Units=GPa)
#
#
# Indices 1 2 3 4 5 6 
#
# 1 135.1317 55.8376 8.2673 0.0000 -23.3923 0.0000
# 2 55.8376 84.8891 0.4113 0.0000 -24.6221 0.0000
# 3 8.2673 0.4113 47.4008 0.0000 -8.4718 0.0000
# 4 0.0000 0.0000 0.0000 27.4179 0.0000 -4.9496
# 5 -23.3923 -24.6221 -8.4718 0.0000 41.1531 0.0000
# 6 0.0000 0.0000 0.0000 -4.9496 0.0000 28.2249
#
#
#
# Elastic Compliance Matrix: (Units=1/GPa)
#
#
# Indices 1 2 3 4 5 6 
#
# 1 0.010414 -0.006306 -0.001431 0.000000 0.001852 0.000000
# 2 -0.006306 0.018169 0.002330 0.000000 0.007766 0.000000
# 3 -0.001431 0.002330 0.022248 0.000000 0.005161 0.000000
# 4 0.000000 0.000000 0.000000 0.037665 0.000000 0.006605
# 5 0.001852 0.007766 0.005161 0.000000 0.031061 0.000000
# 6 0.000000 0.000000 0.000000 0.006605 0.000000 0.036588
#
#
# Mechanical properties :
#
#
# Convention : Reuss Voigt Hill
#
# Bulk Modulus (GPa) = 24.98817 44.05044 34.51931
# Shear Modulus (GPa) = 27.73189 32.88620 30.30904
#
# Velocity S-wave (km/s) = 3.49360 3.80444 3.65233
# Velocity P-wave (km/s) = 5.22220 6.21978 5.74269
#
# Compressibility (1/GPa) = 0.04001894
#
# Stress axis : x y z
#
# Youngs Moduli (GPa) = 96.02477 55.03841 44.94706
#
# Poissons Ratio (x) = 0.34706 0.06430
# Poissons Ratio (y) = 0.60552 -0.10473
# Poissons Ratio (z) = 0.13737 -0.12825
#
# Static dielectric constant tensor:
#      x y z
#    x 1.884600 0.000000 0.050540 
#    y 0.000000 1.759160 0.000000 
#    z 0.050540 0.000000 1.902800 
# 
# From -- ./inp_files/172172.got.cif
#   From: 2010.05.17/outbox.cif.g08.bks.cpg/sg12_87_cif.got.tgz:172172.got - 2010.06.03 13:09:07.
