data_PCOD9209486
_publ_section_title
;
Structure prediction by ZEFSAII (Michael W. Deem and Ramdas Pophale) SiO2 
 PCOD9209486
Probable space group: C 2/M
;
_chemical_formula_sum "Si O2"
_cell_formula_units_Z 56
_cell_length_a 29.774517
_cell_length_b 16.091533
_cell_length_c 12.310698
_cell_angle_alpha 90.000000
_cell_angle_beta 30.178335
_cell_angle_gamma 90.000000
_cell_volume 2965.020855
_symmetry_space_group_name_H-M "C 2/M"
_symmetry_group_IT_number 12
_symmetry_cell_setting 'monoclinic'
loop_
_space_group_symop_operation_xyz
x,y,z
-x,y,-z
-x,-y,-z
x,-y,z
1/2+x,1/2+y,z
1/2-x,1/2+y,-z
1/2-x,1/2-y,-z
1/2+x,1/2-y,z
loop_
_atom_site_type_symbol
_atom_site_label
_atom_site_fract_x
_atom_site_fract_y
_atom_site_fract_z
Si Si1 0.731061 0.845095 0.571783
Si Si2 0.343240 0.214179 0.047826
Si Si3 0.417330 0.592503 0.255270
Si Si4 0.458863 0.256889 0.327193
Si Si5 0.104643 0.403630 0.260120
Si Si6 0.074405 0.405071 0.749693
Si Si7 0.697628 0.211444 0.211291
O O1 0.750000 0.750000 0.500000
O O2 0.683910 0.836359 0.787911
O O3 0.823983 0.892734 0.389622
O O4 0.666960 0.886956 0.617936
O O5 0.263327 0.274946 0.175915
O O6 0.435814 0.262243 0.872636
O O7 0.362608 0.150041 0.910195
O O8 0.417326 0.500000 0.304870
O O9 0.428022 0.667837 0.316157
O O10 0.500000 0.597608 0.000000
O O11 0.442261 0.167738 0.302681
O O12 0.394744 0.257631 0.565758
O O13 0.113659 0.500000 0.217440
O O14 0.163864 0.377655 0.240518
O O15 0.000000 0.385632 0.500000
O O16 0.070782 0.500000 0.714622
O O17 0.000000 0.397319 0.000000
O O18 0.750000 0.250000 0.000000
#
# Coordination Sequence:
#
# PCOD9209486 Si02
#       7
#     8   8   8   8   8   8   8
#     4  12  21  39  62  87 121 164 206 251 305 358
#     4  11  22  37  64  90 115 164 202 243 308 367
#     4  11  24  40  60  85 119 165 211 250 293 354
#     4  12  21  40  62  87 125 164 202 256 301 361
#     4  10  21  38  62  92 124 153 192 250 312 369
#     4  11  23  36  57  92 127 158 197 249 309 367
#     4  10  22  40  58  89 118 155 200 245 306 362
#
# _framework density 18.886882
#
# number of rings (size 3 to 8) (size 9 to 14) (size 15 to 20)
#    0.000    1.000    5.714    1.714    0.000    2.286 
#    0.000    0.714    0.000    0.000    0.000    4.000 
#    0.000    0.000    0.000    0.000    0.000    0.000 
#
# Total GULP energy -156331.311824 kJ/mol
# GULP energy per Si atom -5583.261137 kJ/mol
# Density = 1.884389 g / cm^3
# Si number density = 18.886882 Si / 1000 Ang^3
#
#
#
# Elastic Constant Matrix: (Units=GPa)
#
#
# Indices 1 2 3 4 5 6 
#
# 1 53.1934 14.4758 5.7065 0.0000 -22.4918 0.0000
# 2 14.4758 109.8054 15.4280 0.0000 1.8850 0.0000
# 3 5.7065 15.4280 87.3420 0.0000 -12.2687 0.0000
# 4 0.0000 0.0000 0.0000 13.3936 0.0000 -5.7065
# 5 -22.4918 1.8850 -12.2687 0.0000 41.8862 0.0000
# 6 0.0000 0.0000 0.0000 -5.7065 0.0000 9.8559
#
#
#
# Elastic Compliance Matrix: (Units=1/GPa)
#
#
# Indices 1 2 3 4 5 6 
#
# 1 0.025767 -0.003782 0.000993 0.000000 0.014297 0.000000
# 2 -0.003782 0.009930 -0.001934 0.000000 -0.003044 0.000000
# 3 0.000993 -0.001934 0.012320 0.000000 0.004229 0.000000
# 4 0.000000 0.000000 0.000000 0.099112 0.000000 0.057385
# 5 0.014297 -0.003044 0.004229 0.000000 0.032927 0.000000
# 6 0.000000 0.000000 0.000000 0.057385 0.000000 0.134688
#
#
# Mechanical properties :
#
#
# Convention : Reuss Voigt Hill
#
# Bulk Modulus (GPa) = 25.92686 35.72904 30.82795
# Shear Modulus (GPa) = 14.83469 27.34251 21.08860
#
# Velocity S-wave (km/s) = 2.80563 3.80899 3.34514
# Velocity P-wave (km/s) = 4.92470 6.18894 5.59266
#
# Compressibility (1/GPa) = 0.03857004
#
# Stress axis : x y z
#
# Youngs Moduli (GPa) = 38.80873 100.70844 81.16827
#
# Poissons Ratio (x) = 0.38087 -0.08059
# Poissons Ratio (y) = 0.14677 0.15702
# Poissons Ratio (z) = -0.03853 0.19482
#
# Static dielectric constant tensor:
#      x y z
#    x 1.679690 0.000000 0.005330 
#    y 0.000000 1.634520 0.000000 
#    z 0.005330 0.000000 1.666670 
# 
# From -- ./inp_files/189600.got.cif
#   From: 2010.05.17/outbox.cif.g08.bks.cpg/sg12_95_cif.got.tgz:189600.got - 2010.06.03 13:09:07.
