data_PCOD9209510
_publ_section_title
;
Structure prediction by ZEFSAII (Michael W. Deem and Ramdas Pophale) SiO2 
 PCOD9209510
Probable space group: C 2/M
;
_chemical_formula_sum "Si O2"
_cell_formula_units_Z 52
_cell_length_a 19.905634
_cell_length_b 20.071725
_cell_length_c 5.920502
_cell_angle_alpha 90.000000
_cell_angle_beta 97.644788
_cell_angle_gamma 90.000000
_cell_volume 2344.455073
_symmetry_space_group_name_H-M "C 2/M"
_symmetry_group_IT_number 12
_symmetry_cell_setting 'monoclinic'
loop_
_space_group_symop_operation_xyz
x,y,z
-x,y,-z
-x,-y,-z
x,-y,z
1/2+x,1/2+y,z
1/2-x,1/2+y,-z
1/2-x,1/2-y,-z
1/2+x,1/2-y,z
loop_
_atom_site_type_symbol
_atom_site_label
_atom_site_fract_x
_atom_site_fract_y
_atom_site_fract_z
Si Si1 0.188664 0.928270 0.250318
Si Si2 0.884842 0.422382 0.651435
Si Si3 0.777269 0.366813 0.935834
Si Si4 0.392059 0.810433 0.280269
Si Si5 0.000000 0.644723 0.000000
Si Si6 0.145620 0.169512 0.611421
Si Si7 0.440165 0.575252 0.135915
O O1 0.253601 0.916495 0.123184
O O2 0.175142 0.866252 0.405127
O O3 0.125180 0.930732 0.053544
O O4 0.192576 0.000000 0.373960
O O5 0.888529 0.500000 0.597821
O O6 0.891754 0.375171 0.438085
O O7 0.944816 0.400918 0.849283
O O8 0.815274 0.404735 0.750757
O O9 0.831064 0.317339 0.072837
O O10 0.709013 0.333061 0.813166
O O11 0.379692 0.744610 0.420826
O O12 0.460821 0.811078 0.166982
O O13 0.084130 0.124025 0.678006
O O14 0.457767 0.500000 0.223229
O O15 0.500000 0.599985 0.000000
#
# Coordination Sequence:
#
# PCOD9209510 Si02
#       7
#     8   8   8   8   4   8   8
#     4  10  21  38  62  93 124 160 208 256 306 364
#     4  11  24  44  69  95 124 162 210 265 320 378
#     4  10  23  41  64  91 125 168 206 256 309 375
#     4  11  25  42  64  93 126 164 211 255 312 376
#     4  10  25  46  64  90 127 166 210 260 315 382
#     4  11  23  39  62  91 128 168 205 255 311 369
#     4   9  20  39  60  86 121 165 211 255 301 356
#
# _framework density 22.179995999999999
#
# number of rings (size 3 to 8) (size 9 to 14) (size 15 to 20)
#    0.000    1.692    0.000    3.000    1.077   15.385 
#    2.769    2.308    0.000    0.000    0.000    0.000 
#    0.000    0.000    0.000    0.000    0.000    0.000 
#
# Total GULP energy -145402.032326 kJ/mol
# GULP energy per Si atom -5592.385859 kJ/mol
# Density = 2.212951 g / cm^3
# Si number density = 22.179996 Si / 1000 Ang^3
#
#
#
# Elastic Constant Matrix: (Units=GPa)
#
#
# Indices 1 2 3 4 5 6 
#
# 1 104.4251 19.1676 12.5195 0.0000 -30.2984 0.0000
# 2 19.1676 117.9499 30.2177 0.0000 -11.3002 0.0000
# 3 12.5195 30.2177 64.3557 0.0000 -22.9894 0.0000
# 4 0.0000 0.0000 0.0000 15.8020 0.0000 7.0544
# 5 -30.2984 -11.3002 -22.9894 0.0000 32.2021 0.0000
# 6 0.0000 0.0000 0.0000 7.0544 0.0000 -3.5153
#
#
#
# Elastic Compliance Matrix: (Units=1/GPa)
#
#
# Indices 1 2 3 4 5 6 
#
# 1 0.013770 -0.001692 0.003398 0.000000 0.014789 0.000000
# 2 -0.001692 0.009846 -0.004871 0.000000 -0.001613 0.000000
# 3 0.003398 -0.004871 0.023754 0.000000 0.018446 0.000000
# 4 0.000000 0.000000 0.000000 0.033380 0.000000 0.066984
# 5 0.014789 -0.001613 0.018446 0.000000 0.057571 0.000000
# 6 0.000000 0.000000 0.000000 0.066984 0.000000 -0.150047
#
#
# Mechanical properties :
#
#
# Convention : Reuss Voigt Hill
#
# Bulk Modulus (GPa) = 24.36478 45.61558 34.99018
# Shear Modulus (GPa) = 603.65873 23.88615 313.77244
#
# Velocity S-wave (km/s) = 16.51528 3.28521 11.90687
# Velocity P-wave (km/s) = 19.35669 5.91615 14.31227
#
# Compressibility (1/GPa) = 0.04104285
#
# Stress axis : x y z
#
# Youngs Moduli (GPa) = 72.62091 101.56135 42.09821
#
# Poissons Ratio (x) = 0.17179 -0.14306
# Poissons Ratio (y) = 0.12284 0.20504
# Poissons Ratio (z) = -0.24679 0.49466
#
# Static dielectric constant tensor:
#      x y z
#    x 1.817970 0.000000 0.018300 
#    y 0.000000 1.792740 0.000000 
#    z 0.018300 0.000000 1.815010 
# 
# From -- ./inp_files/21213.got.cif
#   From: 2010.05.17/outbox.cif.g08.bks.cpg/sg12_11_cif.got.tgz:21213.got - 2010.06.03 13:09:07.
