data_PCOD9209619
_publ_section_title
;
Structure prediction by ZEFSAII (Michael W. Deem and Ramdas Pophale) SiO2 
 PCOD9209619
Probable space group: C 2/M
;
_chemical_formula_sum "Si O2"
_cell_formula_units_Z 56
_cell_length_a 13.197694
_cell_length_b 20.331623
_cell_length_c 12.387769
_cell_angle_alpha 90.000000
_cell_angle_beta 54.152009
_cell_angle_gamma 90.000000
_cell_volume 2694.360120
_symmetry_space_group_name_H-M "C 2/M"
_symmetry_group_IT_number 12
_symmetry_cell_setting 'monoclinic'
loop_
_space_group_symop_operation_xyz
x,y,z
-x,y,-z
-x,-y,-z
x,-y,z
1/2+x,1/2+y,z
1/2-x,1/2+y,-z
1/2-x,1/2-y,-z
1/2+x,1/2-y,z
loop_
_atom_site_type_symbol
_atom_site_label
_atom_site_fract_x
_atom_site_fract_y
_atom_site_fract_z
Si Si1 0.144916 0.074868 0.885436
Si Si2 0.009280 0.284872 0.616960
Si Si3 0.071549 0.138150 0.358219
Si Si4 0.298936 0.866025 0.367452
Si Si5 0.705585 0.818210 0.082509
Si Si6 0.388739 0.422074 0.335311
Si Si7 0.032510 0.572375 0.104493
O O1 0.193074 0.131954 0.933226
O O2 0.156386 0.099035 0.754653
O O3 0.199461 0.000000 0.861033
O O4 0.000000 0.067822 0.000000
O O5 0.127382 0.308349 0.614297
O O6 0.000000 0.311947 0.500000
O O7 0.002200 0.206528 0.610398
O O8 0.886443 0.302466 0.760811
O O9 0.210028 0.149953 0.318808
O O10 0.000000 0.100505 0.500000
O O11 0.030783 0.100529 0.276121
O O12 0.209162 0.897865 0.513376
O O13 0.409664 0.912128 0.252898
O O14 0.624298 0.865755 0.057324
O O15 0.750000 0.750000 0.000000
O O16 0.389516 0.500000 0.333776
O O17 0.082355 0.500000 0.105475
O O18 0.000000 0.568671 0.000000
#
# Coordination Sequence:
#
# PCOD9209619 Si02
#       7
#     8   8   8   8   8   8   8
#     4  10  23  42  64  90 125 168 209 259 320 378
#     4  10  22  40  61  90 125 166 204 252 319 375
#     4   9  21  36  57  90 126 161 202 251 312 371
#     4  10  21  38  63  92 124 161 209 259 310 374
#     4  11  25  41  64  94 125 164 214 264 310 374
#     4  10  21  38  63  93 122 160 208 259 313 370
#     4  10  23  42  63  89 125 166 207 258 319 377
#
# _framework density 20.784154999999998
#
# number of rings (size 3 to 8) (size 9 to 14) (size 15 to 20)
#    0.000    2.000    0.000    1.714    4.000   10.000 
#    0.000    2.857    0.000    6.857    0.000    0.000 
#    0.000    0.000    0.000    0.000    0.000    0.000 
#
# Total GULP energy -155965.928403 kJ/mol
# GULP energy per Si atom -5570.211729 kJ/mol
# Density = 2.073685 g / cm^3
# Si number density = 20.784155 Si / 1000 Ang^3
#
#
#
# Elastic Constant Matrix: (Units=GPa)
#
#
# Indices 1 2 3 4 5 6 
#
# 1 132.5968 66.5340 43.2174 0.0000 10.6327 0.0000
# 2 66.5340 114.0705 39.5537 0.0000 14.8351 0.0000
# 3 43.2174 39.5537 96.3307 0.0000 12.8563 0.0000
# 4 0.0000 0.0000 0.0000 23.9805 0.0000 -14.5536
# 5 10.6327 14.8351 12.8563 0.0000 19.8832 0.0000
# 6 0.0000 0.0000 0.0000 -14.5536 0.0000 47.9899
#
#
#
# Elastic Compliance Matrix: (Units=1/GPa)
#
#
# Indices 1 2 3 4 5 6 
#
# 1 0.011252 -0.005605 -0.002738 0.000000 -0.000065 0.000000
# 2 -0.005605 0.013568 -0.002304 0.000000 -0.005636 0.000000
# 3 -0.002738 -0.002304 0.013276 0.000000 -0.005401 0.000000
# 4 0.000000 0.000000 0.000000 0.051107 0.000000 0.015499
# 5 -0.000065 -0.005636 -0.005401 0.000000 0.058025 0.000000
# 6 0.000000 0.000000 0.000000 0.015499 0.000000 0.025538
#
#
# Mechanical properties :
#
#
# Convention : Reuss Voigt Hill
#
# Bulk Modulus (GPa) = 59.51883 71.28982 65.40433
# Shear Modulus (GPa) = 25.04257 31.28357 28.16307
#
# Velocity S-wave (km/s) = 3.47491 3.88385 3.68506
# Velocity P-wave (km/s) = 6.69319 7.38153 7.04577
#
# Compressibility (1/GPa) = 0.01680141
#
# Stress axis : x y z
#
# Youngs Moduli (GPa) = 88.87584 73.70469 75.32331
#
# Poissons Ratio (x) = 0.41312 0.20622
# Poissons Ratio (y) = 0.49815 0.17356
# Poissons Ratio (z) = 0.24333 0.16983
#
# Static dielectric constant tensor:
#      x y z
#    x 1.806810 0.000000 -0.001620 
#    y 0.000000 1.781690 0.000000 
#    z -0.001620 0.000000 1.832930 
# 
# From -- ./inp_files/133873.got.cif
#   From: 2010.05.17/outbox.cif.g08.bks.cpg/sg12_67_cif.got.tgz:133873.got - 2010.06.03 13:09:07.
