data_PCOD9209435
_publ_section_title
;
Structure prediction by ZEFSAII (Michael W. Deem and Ramdas Pophale) SiO2 
 PCOD9209435
Probable space group: C 2/M
;
_chemical_formula_sum "Si O2"
_cell_formula_units_Z 64
_cell_length_a 30.868450
_cell_length_b 8.679703
_cell_length_c 16.554446
_cell_angle_alpha 90.000000
_cell_angle_beta 46.856506
_cell_angle_gamma 90.000000
_cell_volume 3236.271793
_symmetry_space_group_name_H-M "C 2/M"
_symmetry_group_IT_number 12
_symmetry_cell_setting 'monoclinic'
loop_
_space_group_symop_operation_xyz
x,y,z
-x,y,-z
-x,-y,-z
x,-y,z
1/2+x,1/2+y,z
1/2-x,1/2+y,-z
1/2-x,1/2-y,-z
1/2+x,1/2-y,z
loop_
_atom_site_type_symbol
_atom_site_label
_atom_site_fract_x
_atom_site_fract_y
_atom_site_fract_z
Si Si1 0.776284 0.818865 0.048248
Si Si2 0.163778 0.320017 0.307419
Si Si3 0.390200 0.182718 0.988336
Si Si4 0.495194 0.686182 0.750536
Si Si5 0.287771 0.316946 0.598445
Si Si6 0.377115 0.312434 0.349835
Si Si7 0.950309 0.814905 0.630952
Si Si8 0.843097 0.184408 0.214947
O O1 0.725603 0.801944 0.180750
O O2 0.835419 0.734304 0.001552
O O3 0.789164 0.000000 0.021616
O O4 0.750000 0.750000 0.000000
O O5 0.156448 0.500000 0.336720
O O6 0.168685 0.221180 0.382510
O O7 0.110436 0.264283 0.318843
O O8 0.374603 0.242184 0.097566
O O9 0.395006 0.000000 0.982410
O O10 0.449345 0.255990 0.875986
O O11 0.495359 0.500000 0.750338
O O12 0.561661 0.738756 0.687135
O O13 0.473117 0.735591 0.689915
O O14 0.277372 0.500000 0.608114
O O15 0.320581 0.263771 0.475074
O O16 0.225799 0.232875 0.693221
O O17 0.376831 0.500000 0.351671
O O18 0.371593 0.265887 0.263823
O O19 0.000000 0.782415 0.500000
O O20 0.941216 0.000000 0.644663
O O21 0.846689 0.000000 0.203043
#
# Coordination Sequence:
#
# PCOD9209435 Si02
#       8
#     8   8   8   8   8   8   8   8
#     4  11  23  39  60  87 120 156 201 249 302 364
#     4  11  23  37  57  87 122 159 200 246 300 361
#     4  12  25  41  61  88 124 164 207 257 311 365
#     4  10  21  41  65  89 121 163 210 256 307 366
#     4  11  21  38  64  94 126 159 202 253 309 373
#     4   9  21  40  65  93 121 160 207 255 309 375
#     4  10  21  38  62  90 122 162 207 252 301 363
#     4  11  22  40  64  92 125 161 205 255 313 371
#
# _framework density 19.775841
#
# number of rings (size 3 to 8) (size 9 to 14) (size 15 to 20)
#    0.000    1.375    1.250    4.500    0.000    6.750 
#    0.000    8.125    0.000    0.000    0.000    0.000 
#    0.000    0.000    0.000    0.000    0.000    0.000 
#
# Total GULP energy -178963.682524 kJ/mol
# GULP energy per Si atom -5592.615079 kJ/mol
# Density = 1.973083 g / cm^3
# Si number density = 19.775841 Si / 1000 Ang^3
#
#
#
# Elastic Constant Matrix: (Units=GPa)
#
#
# Indices 1 2 3 4 5 6 
#
# 1 71.6954 -1.5815 11.8082 0.0001 6.7959 0.0000
# 2 -1.5815 25.8374 5.6353 0.0007 -0.0870 -0.0004
# 3 11.8082 5.6353 89.1494 0.0000 6.9285 0.0000
# 4 0.0001 0.0007 0.0000 24.4043 -0.0001 -4.1589
# 5 6.7959 -0.0870 6.9285 -0.0001 37.4762 0.0001
# 6 0.0000 -0.0004 0.0000 -4.1589 0.0001 23.0101
#
#
#
# Elastic Compliance Matrix: (Units=1/GPa)
#
#
# Indices 1 2 3 4 5 6 
#
# 1 0.014493 0.001277 -0.001823 0.000000 -0.002288 0.000000
# 2 0.001277 0.039369 -0.002685 -0.000001 0.000356 0.000001
# 3 -0.001823 -0.002685 0.011772 0.000000 -0.001852 0.000000
# 4 0.000000 -0.000001 0.000000 0.042279 0.000000 0.007641
# 5 -0.002288 0.000356 -0.001852 0.000000 0.027442 0.000000
# 6 0.000000 0.000001 0.000000 0.007641 0.000000 0.044840
#
#
# Mechanical properties :
#
#
# Convention : Reuss Voigt Hill
#
# Bulk Modulus (GPa) = 16.89987 24.26735 20.58361
# Shear Modulus (GPa) = 24.22704 28.36612 26.29658
#
# Velocity S-wave (km/s) = 3.50392 3.79143 3.65051
# Velocity P-wave (km/s) = 4.99341 5.60932 5.31030
#
# Compressibility (1/GPa) = 0.05917205
#
# Stress axis : x y z
#
# Youngs Moduli (GPa) = 68.99821 25.40087 84.94570
#
# Poissons Ratio (x) = -0.03244 0.15482
# Poissons Ratio (y) = -0.08811 0.22811
# Poissons Ratio (z) = 0.12575 0.06821
#
# Static dielectric constant tensor:
#      x y z
#    x 1.684610 0.000000 0.006430 
#    y 0.000000 1.668980 0.000000 
#    z 0.006430 0.000000 1.697260 
# 
# From -- ./inp_files/249760.got.cif
#   From: 2010.05.17/outbox.cif.g08.bks.cpg/sg12_125_cif.got.tgz:249760.got - 2010.06.03 13:09:07.
