data_PCOD9209073
_publ_section_title
;
Structure prediction by ZEFSAII (Michael W. Deem and Ramdas Pophale) SiO2 
 PCOD9209073
Probable space group: C 2/M
;
_chemical_formula_sum "Si O2"
_cell_formula_units_Z 48
_cell_length_a 26.269681
_cell_length_b 13.427892
_cell_length_c 10.185997
_cell_angle_alpha 90.000000
_cell_angle_beta 39.492543
_cell_angle_gamma 90.000000
_cell_volume 2285.115367
_symmetry_space_group_name_H-M "C 2/M"
_symmetry_group_IT_number 12
_symmetry_cell_setting 'monoclinic'
loop_
_space_group_symop_operation_xyz
x,y,z
-x,y,-z
-x,-y,-z
x,-y,z
1/2+x,1/2+y,z
1/2-x,1/2+y,-z
1/2-x,1/2-y,-z
1/2+x,1/2-y,z
loop_
_atom_site_type_symbol
_atom_site_label
_atom_site_fract_x
_atom_site_fract_y
_atom_site_fract_z
Si Si1 0.842187 0.312419 0.955674
Si Si2 0.322321 0.887247 0.715055
Si Si3 0.962285 0.178787 0.210600
Si Si4 0.780209 0.774768 0.585949
Si Si5 0.504720 0.889978 0.738057
Si Si6 0.939326 0.886647 0.739057
O O1 0.803346 0.344316 0.895852
O O2 0.923133 0.373353 0.822004
O O3 0.871327 0.197293 0.886198
O O4 0.785256 0.330012 0.194139
O O5 0.293551 0.823645 0.648332
O O6 0.418939 0.884359 0.509567
O O7 0.294746 0.000000 0.759205
O O8 0.866401 0.172050 0.406143
O O9 0.984719 0.295921 0.186979
O O10 0.005876 0.122358 0.241235
O O11 0.000000 0.144691 0.000000
O O12 0.750000 0.750000 0.500000
O O13 0.505765 0.000000 0.797828
O O14 0.000000 0.861508 0.500000
O O15 0.910346 0.000000 0.779454
#
# Coordination Sequence:
#
# PCOD9209073 Si02
#       6
#     8   8   8   8   8   8
#     4  11  20  36  62  89 120 149 186 244 298 344
#     4  10  21  38  62  89 118 155 195 235 286 349
#     4  10  21  40  61  81 112 153 195 238 285 343
#     4  11  23  39  57  83 120 160 196 239 295 344
#     4   9  18  34  60  91 118 147 186 233 289 351
#     4  10  21  38  61  86 112 150 198 239 281 341
#
# _framework density 21.005504999999999
#
# number of rings (size 3 to 8) (size 9 to 14) (size 15 to 20)
#    0.000    1.833    0.000    6.500    0.000    2.667 
#    0.000    9.167    0.000    1.000    0.000    0.000 
#    0.000    0.000    0.000    0.000    0.000    0.000 
#
# Total GULP energy -134079.521657 kJ/mol
# GULP energy per Si atom -5586.646736 kJ/mol
# Density = 2.095770 g / cm^3
# Si number density = 21.005505 Si / 1000 Ang^3
#
#
#
# Elastic Constant Matrix: (Units=GPa)
#
#
# Indices 1 2 3 4 5 6 
#
# 1 97.2575 -12.8827 47.9601 0.0000 16.8266 0.0000
# 2 -12.8827 24.6616 3.4123 0.0000 -9.5320 0.0000
# 3 47.9601 3.4123 117.8339 0.0000 24.2030 0.0000
# 4 0.0000 0.0000 0.0000 78.9676 0.0000 -3.7648
# 5 16.8266 -9.5320 24.2030 0.0000 41.6972 0.0000
# 6 0.0000 0.0000 0.0000 -3.7648 0.0000 -0.6323
#
#
#
# Elastic Compliance Matrix: (Units=1/GPa)
#
#
# Indices 1 2 3 4 5 6 
#
# 1 0.014407 0.008180 -0.006007 0.000000 -0.000457 0.000000
# 2 0.008180 0.050703 -0.007380 0.000000 0.012574 0.000000
# 3 -0.006007 -0.007380 0.012482 0.000000 -0.006508 0.000000
# 4 0.000000 0.000000 0.000000 0.009864 0.000000 -0.058725
# 5 -0.000457 0.012574 -0.006508 0.000000 0.030819 0.000000
# 6 0.000000 0.000000 0.000000 -0.058725 0.000000 -1.231773
#
#
# Mechanical properties :
#
#
# Convention : Reuss Voigt Hill
#
# Bulk Modulus (GPa) = 14.88586 35.19249 25.03917
# Shear Modulus (GPa) = -4.62666 37.42404 16.39869
#
# Velocity S-wave (km/s) = -1.48572 4.22552 2.79711
# Velocity P-wave (km/s) = 2.03933 6.37157 4.73053
#
# Compressibility (1/GPa) = 0.06717785
#
# Stress axis : x y z
#
# Youngs Moduli (GPa) = 69.41221 19.72268 80.11625
#
# Poissons Ratio (x) = -0.16134 0.48124
# Poissons Ratio (y) = -0.56781 0.59129
# Poissons Ratio (z) = 0.41694 0.14556
#
# Static dielectric constant tensor:
#      x y z
#    x 1.752780 0.000000 -0.035370 
#    y 0.000000 1.768730 0.000000 
#    z -0.035370 0.000000 1.754840 
# 
# From -- ./inp_files/104949.got.cif
#   From: 2010.05.17/outbox.cif.g08.bks.cpg/sg12_53_cif.got.tgz:104949.got - 2010.06.03 13:09:07.
