data_PCOD9209206
_publ_section_title
;
Structure prediction by ZEFSAII (Michael W. Deem and Ramdas Pophale) SiO2 
 PCOD9209206
Probable space group: C 2/M
;
_chemical_formula_sum "Si O2"
_cell_formula_units_Z 56
_cell_length_a 18.507740
_cell_length_b 13.819525
_cell_length_c 11.354898
_cell_angle_alpha 90.000000
_cell_angle_beta 63.450868
_cell_angle_gamma 90.000000
_cell_volume 2597.975482
_symmetry_space_group_name_H-M "C 2/M"
_symmetry_group_IT_number 12
_symmetry_cell_setting 'monoclinic'
loop_
_space_group_symop_operation_xyz
x,y,z
-x,y,-z
-x,-y,-z
x,-y,z
1/2+x,1/2+y,z
1/2-x,1/2+y,-z
1/2-x,1/2-y,-z
1/2+x,1/2-y,z
loop_
_atom_site_type_symbol
_atom_site_label
_atom_site_fract_x
_atom_site_fract_y
_atom_site_fract_z
Si Si1 0.872908 0.392831 0.655580
Si Si2 0.366286 0.387596 0.805865
Si Si3 0.218638 0.312094 0.769548
Si Si4 0.202804 0.892056 0.879352
Si Si5 0.646870 0.115165 0.596989
Si Si6 0.578835 0.894007 0.024791
Si Si7 0.481579 0.769806 0.725033
O O1 0.908951 0.500000 0.626050
O O2 0.800082 0.392876 0.801981
O O3 0.834677 0.375117 0.554858
O O4 0.941236 0.319274 0.641478
O O5 0.365766 0.500000 0.773086
O O6 0.306112 0.328273 0.763972
O O7 0.455989 0.341728 0.738419
O O8 0.329760 0.380221 0.964750
O O9 0.184649 0.203404 0.815862
O O10 0.213836 0.347602 0.639093
O O11 0.157135 0.378963 0.888391
O O12 0.176714 0.000000 0.856213
O O13 0.569988 0.185187 0.674549
O O14 0.629618 0.000000 0.631593
O O15 0.568423 0.811919 0.128235
O O16 0.580538 0.000000 0.080738
O O17 0.500000 0.890287 0.000000
#
# Coordination Sequence:
#
# PCOD9209206 Si02
#       7
#     8   8   8   8   8   8   8
#     4  10  21  38  61  89 120 157 202 247 297 355
#     4  11  23  39  62  91 122 159 201 245 299 364
#     4  12  21  39  60  89 125 156 195 250 308 354
#     4  10  21  39  61  90 122 156 202 246 296 361
#     4  11  24  39  62  92 122 158 201 251 303 354
#     4  11  21  33  57  93 125 153 189 248 315 362
#     4  12  21  38  60  88 123 158 197 247 301 356
#
# _framework density 21.555246
#
# number of rings (size 3 to 8) (size 9 to 14) (size 15 to 20)
#    0.000    1.000    4.286    4.286    0.000    2.857 
#    0.000    0.714    0.000    4.286    0.000    0.000 
#    0.000    0.000    0.000    0.000    0.000    0.000 
#
# Total GULP energy -156365.913235 kJ/mol
# GULP energy per Si atom -5584.496901 kJ/mol
# Density = 2.150618 g / cm^3
# Si number density = 21.555246 Si / 1000 Ang^3
#
#
#
# Elastic Constant Matrix: (Units=GPa)
#
#
# Indices 1 2 3 4 5 6 
#
# 1 49.3049 30.3127 11.0776 0.0000 6.5505 0.0000
# 2 30.3127 134.3775 15.5936 0.0000 15.7736 0.0000
# 3 11.0776 15.5936 45.4689 0.0000 9.9367 0.0000
# 4 0.0000 0.0000 0.0000 13.9230 0.0000 4.8727
# 5 6.5505 15.7736 9.9367 0.0000 28.8985 0.0000
# 6 0.0000 0.0000 0.0000 4.8727 0.0000 19.8329
#
#
#
# Elastic Compliance Matrix: (Units=1/GPa)
#
#
# Indices 1 2 3 4 5 6 
#
# 1 0.024355 -0.004859 -0.003936 0.000000 -0.001515 0.000000
# 2 -0.004859 0.009079 -0.001176 0.000000 -0.003450 0.000000
# 3 -0.003936 -0.001176 0.024890 0.000000 -0.007025 0.000000
# 4 0.000000 0.000000 0.000000 0.078581 0.000000 -0.019306
# 5 -0.001515 -0.003450 -0.007025 0.000000 0.039246 0.000000
# 6 0.000000 0.000000 0.000000 -0.019306 0.000000 0.055165
#
#
# Mechanical properties :
#
#
# Convention : Reuss Voigt Hill
#
# Bulk Modulus (GPa) = 26.05383 38.12435 32.08909
# Shear Modulus (GPa) = 18.93561 24.00869 21.47215
#
# Velocity S-wave (km/s) = 2.96711 3.34102 3.15960
# Velocity P-wave (km/s) = 4.88381 5.71038 5.31319
#
# Compressibility (1/GPa) = 0.03838208
#
# Stress axis : x y z
#
# Youngs Moduli (GPa) = 41.05905 110.14036 40.17607
#
# Poissons Ratio (x) = 0.53522 0.15814
# Poissons Ratio (y) = 0.19952 0.04724
# Poissons Ratio (z) = 0.16161 0.12951
#
# Static dielectric constant tensor:
#      x y z
#    x 1.782620 0.000000 0.011610 
#    y 0.000000 1.808650 0.000000 
#    z 0.011610 0.000000 1.799280 
# 
# From -- ./inp_files/155994.got.cif
#   From: 2010.05.17/outbox.cif.g08.bks.cpg/sg12_78_cif.got.tgz:155994.got - 2010.06.03 13:09:07.
