data_PCOD9209936
_publ_section_title
;
Structure prediction by ZEFSAII (Michael W. Deem and Ramdas Pophale) SiO2 
 PCOD9209936
Probable space group: C 2/M
;
_chemical_formula_sum "Si O2"
_cell_formula_units_Z 52
_cell_length_a 18.843278
_cell_length_b 9.446410
_cell_length_c 18.992168
_cell_angle_alpha 90.000000
_cell_angle_beta 131.390703
_cell_angle_gamma 90.000000
_cell_volume 2536.211585
_symmetry_space_group_name_H-M "C 2/M"
_symmetry_group_IT_number 12
_symmetry_cell_setting 'monoclinic'
loop_
_space_group_symop_operation_xyz
x,y,z
-x,y,-z
-x,-y,-z
x,-y,z
1/2+x,1/2+y,z
1/2-x,1/2+y,-z
1/2-x,1/2-y,-z
1/2+x,1/2-y,z
loop_
_atom_site_type_symbol
_atom_site_label
_atom_site_fract_x
_atom_site_fract_y
_atom_site_fract_z
Si Si1 0.248086 0.661076 0.895092
Si Si2 0.249821 0.165498 0.267122
Si Si3 0.941962 0.837828 0.389245
Si Si4 0.591919 0.838705 0.246510
Si Si5 0.119471 0.261299 0.422744
Si Si6 0.899188 0.165429 0.117855
Si Si7 0.745307 0.000000 0.531397
O O1 0.211333 0.500000 0.881457
O O2 0.277184 0.674196 0.833346
O O3 0.166920 0.770238 0.864319
O O4 0.335921 0.678822 0.005672
O O5 0.352109 0.237285 0.337934
O O6 0.174794 0.252269 0.263221
O O7 0.248955 0.000000 0.287685
O O8 0.000000 0.839817 0.500000
O O9 0.015821 0.781657 0.380119
O O10 0.912639 0.000000 0.354253
O O11 0.613661 0.839882 0.343883
O O12 0.494245 0.754805 0.173146
O O13 0.586461 0.000000 0.217300
O O14 0.171260 0.373231 0.506770
O O15 0.182047 0.122833 0.451374
O O16 0.920169 0.000000 0.143656
#
# Coordination Sequence:
#
# PCOD9209936 Si02
#       7
#     8   8   8   8   8   8   4
#     4   9  20  42  65  94 129 160 201 254 312 369
#     4  11  26  42  64  91 124 163 208 260 309 369
#     4  11  26  43  63  91 128 165 202 253 310 365
#     4  12  26  42  62  90 128 165 207 261 313 363
#     4  11  24  42  66  92 125 165 208 260 305 372
#     4  10  21  38  68  96 123 164 206 250 305 376
#     4  10  24  40  68  92 120 164 214 258 310 360
#
# _framework density 20.503021
#
# number of rings (size 3 to 8) (size 9 to 14) (size 15 to 20)
#    0.000    1.385    1.538    2.308    7.538    5.231 
#    0.000    3.077    0.000    0.000    0.000    0.000 
#    0.000    0.000    0.000    0.000    0.000    0.000 
#
# Total GULP energy -144932.657646 kJ/mol
# GULP energy per Si atom -5574.332986 kJ/mol
# Density = 2.045636 g / cm^3
# Si number density = 20.503021 Si / 1000 Ang^3
#
#
#
# Elastic Constant Matrix: (Units=GPa)
#
#
# Indices 1 2 3 4 5 6 
#
# 1 114.6559 70.1389 27.8693 0.0000 15.9469 0.0000
# 2 70.1389 195.8451 35.4840 0.0000 22.2940 0.0000
# 3 27.8693 35.4840 39.7063 0.0000 1.5862 0.0000
# 4 0.0000 0.0000 0.0000 20.9614 0.0000 -2.8341
# 5 15.9469 22.2940 1.5862 0.0000 32.1053 0.0000
# 6 0.0000 0.0000 0.0000 -2.8341 0.0000 21.3907
#
#
#
# Elastic Compliance Matrix: (Units=1/GPa)
#
#
# Indices 1 2 3 4 5 6 
#
# 1 0.012528 -0.002960 -0.005993 0.000000 -0.003871 0.000000
# 2 -0.002960 0.007343 -0.004348 0.000000 -0.003414 0.000000
# 3 -0.005993 -0.004348 0.033102 0.000000 0.004360 0.000000
# 4 0.000000 0.000000 0.000000 0.048577 0.000000 0.006436
# 5 -0.003871 -0.003414 0.004360 0.000000 0.035225 0.000000
# 6 0.000000 0.000000 0.000000 0.006436 0.000000 0.047602
#
#
# Mechanical properties :
#
#
# Convention : Reuss Voigt Hill
#
# Bulk Modulus (GPa) = 37.92036 68.57683 53.24859
# Shear Modulus (GPa) = 22.75119 29.33915 26.04517
#
# Velocity S-wave (km/s) = 3.33476 3.78692 3.56801
# Velocity P-wave (km/s) = 5.77604 7.25540 6.55757
#
# Compressibility (1/GPa) = 0.02637106
#
# Stress axis : x y z
#
# Youngs Moduli (GPa) = 79.82343 136.19337 30.20920
#
# Poissons Ratio (x) = 0.40315 0.18104
# Poissons Ratio (y) = 0.23629 0.13134
# Poissons Ratio (z) = 0.47838 0.59213
#
# Static dielectric constant tensor:
#      x y z
#    x 1.691360 0.000000 -0.039050 
#    y 0.000000 1.703910 0.000000 
#    z -0.039050 0.000000 1.794010 
# 
# From -- ./inp_files/314881.got.cif
#   From: 2010.05.17/outbox.cif.g08.bks.cpg/sg12_158_cif.got.tgz:314881.got - 2010.06.03 13:09:07.
