data_PCOD9209730
_publ_section_title
;
Structure prediction by ZEFSAII (Michael W. Deem and Ramdas Pophale) SiO2 
 PCOD9209730
Probable space group: C 2/M
;
_chemical_formula_sum "Si O2"
_cell_formula_units_Z 48
_cell_length_a 17.395046
_cell_length_b 12.683459
_cell_length_c 13.173670
_cell_angle_alpha 90.000000
_cell_angle_beta 121.593253
_cell_angle_gamma 90.000000
_cell_volume 2475.722197
_symmetry_space_group_name_H-M "C 2/M"
_symmetry_group_IT_number 12
_symmetry_cell_setting 'monoclinic'
loop_
_space_group_symop_operation_xyz
x,y,z
-x,y,-z
-x,-y,-z
x,-y,z
1/2+x,1/2+y,z
1/2-x,1/2+y,-z
1/2-x,1/2-y,-z
1/2+x,1/2-y,z
loop_
_atom_site_type_symbol
_atom_site_label
_atom_site_fract_x
_atom_site_fract_y
_atom_site_fract_z
Si Si1 0.228402 0.298311 0.093201
Si Si2 0.094505 0.881413 0.678774
Si Si3 0.596925 0.817333 0.533337
Si Si4 0.709112 0.621593 0.253017
Si Si5 0.539627 0.115445 0.915364
Si Si6 0.940007 0.779746 0.701963
O O1 0.313744 0.360343 0.196043
O O2 0.204439 0.204624 0.156395
O O3 0.250000 0.250000 0.000000
O O4 0.144641 0.371958 0.010227
O O5 0.096375 0.795364 0.591056
O O6 0.009839 0.857255 0.693365
O O7 0.091331 0.000000 0.638047
O O8 0.500000 0.866315 0.500000
O O9 0.688059 0.872997 0.633575
O O10 0.598629 0.794040 0.414880
O O11 0.689174 0.500000 0.211034
O O12 0.638244 0.662245 0.288979
O O13 0.498854 0.206258 0.817177
O O14 0.518999 0.000000 0.857081
O O15 0.500000 0.123387 0.000000
#
# Coordination Sequence:
#
# PCOD9209730 Si02
#       6
#     8   8   8   8   8   8
#     4  11  22  42  59  88 124 156 199 251 291 355
#     4  10  21  38  64  91 120 161 201 243 296 349
#     4   9  22  41  61  88 123 155 199 249 291 353
#     4  11  24  40  62  89 120 158 197 247 305 354
#     4  11  23  41  64  87 119 159 200 246 298 355
#     4  11  21  41  62  90 125 155 197 250 296 353
#
# _framework density 19.388280999999999
#
# number of rings (size 3 to 8) (size 9 to 14) (size 15 to 20)
#    0.000    1.500    3.333    1.500    0.000    6.000 
#    0.000    0.833    0.000    0.000    0.000    0.000 
#    0.000    0.000    0.000    0.000    0.000    0.000 
#
# Total GULP energy -133968.428830 kJ/mol
# GULP energy per Si atom -5582.017868 kJ/mol
# Density = 1.934415 g / cm^3
# Si number density = 19.388281 Si / 1000 Ang^3
#
#
#
# Elastic Constant Matrix: (Units=GPa)
#
#
# Indices 1 2 3 4 5 6 
#
# 1 97.6506 19.8885 23.8536 0.0000 -6.0097 0.0000
# 2 19.8885 80.4300 16.2259 0.0000 -3.3290 0.0000
# 3 23.8536 16.2259 77.5543 0.0000 3.5408 0.0000
# 4 0.0000 0.0000 0.0000 6.9580 0.0000 0.1451
# 5 -6.0097 -3.3290 3.5408 0.0000 35.6721 0.0000
# 6 0.0000 0.0000 0.0000 0.1451 0.0000 12.6659
#
#
#
# Elastic Compliance Matrix: (Units=1/GPa)
#
#
# Indices 1 2 3 4 5 6 
#
# 1 0.011587 -0.002131 -0.003213 0.000000 0.002072 0.000000
# 2 -0.002131 0.013452 -0.002210 0.000000 0.001116 0.000000
# 3 -0.003213 -0.002210 0.014444 0.000000 -0.002181 0.000000
# 4 0.000000 0.000000 0.000000 0.143755 0.000000 -0.001647
# 5 0.002072 0.001116 -0.002181 0.000000 0.028703 0.000000
# 6 0.000000 0.000000 0.000000 -0.001647 0.000000 0.078971
#
#
# Mechanical properties :
#
#
# Convention : Reuss Voigt Hill
#
# Bulk Modulus (GPa) = 41.02409 41.73009 41.37709
# Shear Modulus (GPa) = 15.91623 24.10365 20.00994
#
# Velocity S-wave (km/s) = 2.86828 3.52974 3.21606
# Velocity P-wave (km/s) = 5.67226 6.17917 5.93113
#
# Compressibility (1/GPa) = 0.02437592
#
# Stress axis : x y z
#
# Youngs Moduli (GPa) = 86.30407 74.33734 69.23196
#
# Poissons Ratio (x) = 0.15844 0.22241
# Poissons Ratio (y) = 0.18394 0.15299
# Poissons Ratio (z) = 0.27725 0.16428
#
# Static dielectric constant tensor:
#      x y z
#    x 1.651150 0.000000 0.019220 
#    y 0.000000 1.627180 0.000000 
#    z 0.019220 0.000000 1.660230 
# 
# From -- ./inp_files/154300.got.cif
#   From: 2010.05.17/outbox.cif.g08.bks.cpg/sg12_78_cif.got.tgz:154300.got - 2010.06.03 13:09:07.
