data_PCOD9209478
_publ_section_title
;
Structure prediction by ZEFSAII (Michael W. Deem and Ramdas Pophale) SiO2 
 PCOD9209478
Probable space group: C 2/M
;
_chemical_formula_sum "Si O2"
_cell_formula_units_Z 56
_cell_length_a 19.390489
_cell_length_b 9.039667
_cell_length_c 19.635374
_cell_angle_alpha 90.000000
_cell_angle_beta 115.259073
_cell_angle_gamma 90.000000
_cell_volume 3112.683502
_symmetry_space_group_name_H-M "C 2/M"
_symmetry_group_IT_number 12
_symmetry_cell_setting 'monoclinic'
loop_
_space_group_symop_operation_xyz
x,y,z
-x,y,-z
-x,-y,-z
x,-y,z
1/2+x,1/2+y,z
1/2-x,1/2+y,-z
1/2-x,1/2-y,-z
1/2+x,1/2-y,z
loop_
_atom_site_type_symbol
_atom_site_label
_atom_site_fract_x
_atom_site_fract_y
_atom_site_fract_z
Si Si1 0.841727 0.838292 0.689158
Si Si2 0.619534 0.178513 0.739535
Si Si3 0.948989 0.325296 0.911754
Si Si4 0.575387 0.320646 0.576161
Si Si5 0.725688 0.671782 0.558379
Si Si6 0.795631 0.832395 0.827629
Si Si7 0.009946 0.173363 0.800183
O O1 0.795324 0.706187 0.637608
O O2 0.819975 0.842410 0.758982
O O3 0.931962 0.820743 0.723267
O O4 0.820112 0.000000 0.650391
O O5 0.586135 0.247700 0.655211
O O6 0.708382 0.221279 0.789147
O O7 0.572327 0.237734 0.784043
O O8 0.616593 0.000000 0.733230
O O9 0.945527 0.500000 0.895215
O O10 0.863115 0.265130 0.887651
O O11 0.987613 0.242655 0.863722
O O12 0.000000 0.301732 0.000000
O O13 0.500000 0.283921 0.500000
O O14 0.576472 0.500000 0.585310
O O15 0.648589 0.273683 0.562039
O O16 0.715110 0.500000 0.541533
O O17 0.750000 0.750000 0.500000
O O18 0.797284 0.000000 0.856766
O O19 0.029927 0.000000 0.816512
#
# Coordination Sequence:
#
# PCOD9209478 Si02
#       7
#     8   8   8   8   8   8   8
#     4   9  18  36  56  76 106 143 186 234 282 335
#     4  11  22  38  60  87 118 151 194 245 290 340
#     4  10  21  38  62  92 122 150 188 237 282 334
#     4  10  23  41  57  78 112 156 198 239 293 349
#     4  11  23  36  54  78 107 144 189 239 289 341
#     4   9  19  36  59  85 114 151 188 229 283 342
#     4  10  22  38  59  86 117 154 192 231 284 345
#
# _framework density 17.990907
#
# number of rings (size 3 to 8) (size 9 to 14) (size 15 to 20)
#    0.000    2.000    1.429    2.571    2.000    6.000 
#    0.000    0.714    0.000    0.000    0.000    0.000 
#    0.000    0.000    0.000    0.000    0.000    0.000 
#
# Total GULP energy -156107.082404 kJ/mol
# GULP energy per Si atom -5575.252943 kJ/mol
# Density = 1.794996 g / cm^3
# Si number density = 17.990907 Si / 1000 Ang^3
#
#
#
# Elastic Constant Matrix: (Units=GPa)
#
#
# Indices 1 2 3 4 5 6 
#
# 1 118.5315 42.9626 43.7197 0.0000 9.9048 0.0000
# 2 42.9626 61.2008 46.0611 0.0000 4.0787 0.0000
# 3 43.7197 46.0611 83.7315 0.0000 12.0036 0.0000
# 4 0.0000 0.0000 0.0000 31.6445 0.0000 1.6174
# 5 9.9048 4.0787 12.0036 0.0000 21.8050 0.0000
# 6 0.0000 0.0000 0.0000 1.6174 0.0000 24.8220
#
#
#
# Elastic Compliance Matrix: (Units=1/GPa)
#
#
# Indices 1 2 3 4 5 6 
#
# 1 0.011836 -0.006450 -0.002208 0.000000 -0.002954 0.000000
# 2 -0.006450 0.031648 -0.014780 0.000000 0.005146 0.000000
# 3 -0.002208 -0.014780 0.022459 0.000000 -0.008596 0.000000
# 4 0.000000 0.000000 0.000000 0.031707 0.000000 -0.002066
# 5 -0.002954 0.005146 -0.008596 0.000000 0.050972 0.000000
# 6 0.000000 0.000000 0.000000 -0.002066 0.000000 0.040421
#
#
# Mechanical properties :
#
#
# Convention : Reuss Voigt Hill
#
# Bulk Modulus (GPa) = 52.44758 58.77231 55.60995
# Shear Modulus (GPa) = 20.63780 24.36899 22.50339
#
# Velocity S-wave (km/s) = 3.39060 3.68437 3.54053
# Velocity P-wave (km/s) = 6.67411 7.13009 6.90586
#
# Compressibility (1/GPa) = 0.01906666
#
# Stress axis : x y z
#
# Youngs Moduli (GPa) = 84.48998 31.59771 44.52605
#
# Poissons Ratio (x) = 0.20379 0.09833
# Poissons Ratio (y) = 0.54493 0.65809
# Poissons Ratio (z) = 0.18659 0.46701
#
# Static dielectric constant tensor:
#      x y z
#    x 1.626570 0.000000 -0.085340 
#    y 0.000000 1.651450 0.000000 
#    z -0.085340 0.000000 2.329820 
# 
# From -- ./inp_files/275618.got.cif
#   From: 2010.05.17/outbox.cif.g08.bks.cpg/sg12_138_cif.got.tgz:275618.got - 2010.06.03 13:09:07.
