data_PCOD9209802
_publ_section_title
;
Structure prediction by ZEFSAII (Michael W. Deem and Ramdas Pophale) SiO2 
 PCOD9209802
Probable space group: C 2/M
;
_chemical_formula_sum "Si O2"
_cell_formula_units_Z 48
_cell_length_a 12.408842
_cell_length_b 26.491106
_cell_length_c 10.391222
_cell_angle_alpha 90.000000
_cell_angle_beta 141.961785
_cell_angle_gamma 90.000000
_cell_volume 2104.798116
_symmetry_space_group_name_H-M "C 2/M"
_symmetry_group_IT_number 12
_symmetry_cell_setting 'monoclinic'
loop_
_space_group_symop_operation_xyz
x,y,z
-x,y,-z
-x,-y,-z
x,-y,z
1/2+x,1/2+y,z
1/2-x,1/2+y,-z
1/2-x,1/2-y,-z
1/2+x,1/2-y,z
loop_
_atom_site_type_symbol
_atom_site_label
_atom_site_fract_x
_atom_site_fract_y
_atom_site_fract_z
Si Si1 0.838447 0.196606 0.563007
Si Si2 0.948745 0.367305 0.816238
Si Si3 0.200744 0.161534 0.929311
Si Si4 0.816822 0.557101 0.488221
Si Si5 0.796405 0.353809 0.305935
Si Si6 0.047128 0.056117 0.695325
O O1 0.750000 0.250000 0.500000
O O2 0.733225 0.163010 0.359834
O O3 0.803277 0.168379 0.665145
O O4 0.044525 0.196316 0.732329
O O5 0.939853 0.408090 0.693836
O O6 0.000000 0.391262 0.000000
O O7 0.103909 0.327737 0.934425
O O8 0.156608 0.104451 0.842006
O O9 0.210385 0.161372 0.092285
O O10 0.876902 0.500000 0.531884
O O11 0.795475 0.586134 0.333454
O O12 0.631680 0.556942 0.389894
O O13 0.000000 0.337383 0.500000
O O14 0.000000 0.061019 0.500000
O O15 0.127552 0.000000 0.788348
#
# Coordination Sequence:
#
# PCOD9209802 Si02
#       6
#     8   8   8   8   8   8
#     4  11  26  47  68  99 128 166 223 279 339 407
#     4  11  24  43  65  98 135 175 224 272 332 400
#     4  12  23  42  74  93 132 183 212 275 340 389
#     4  10  21  40  64  96 138 177 223 272 320 391
#     4  11  22  46  67  95 138 171 216 277 332 394
#     4  10  21  38  64  99 136 178 225 270 326 394
#
# _framework density 22.805038
#
# number of rings (size 3 to 8) (size 9 to 14) (size 15 to 20)
#    0.000    1.167    6.667    1.500    0.000    4.000 
#    3.000    1.667    0.000    0.000    0.000    0.000 
#    0.000    0.000    0.000    0.000    0.000    0.000 
#
# Total GULP energy -134186.868088 kJ/mol
# GULP energy per Si atom -5591.119504 kJ/mol
# Density = 2.275313 g / cm^3
# Si number density = 22.805038 Si / 1000 Ang^3
#
#
#
# Elastic Constant Matrix: (Units=GPa)
#
#
# Indices 1 2 3 4 5 6 
#
# 1 42.6663 -29.8719 7.4218 0.0000 10.1408 0.0000
# 2 -29.8719 79.0341 14.1979 0.0000 3.9143 0.0000
# 3 7.4218 14.1979 106.3823 0.0000 10.0415 0.0000
# 4 0.0000 0.0000 0.0000 12.8104 0.0000 5.4333
# 5 10.1408 3.9143 10.0415 0.0000 42.8836 0.0000
# 6 0.0000 0.0000 0.0000 5.4333 0.0000 12.4230
#
#
#
# Elastic Compliance Matrix: (Units=1/GPa)
#
#
# Indices 1 2 3 4 5 6 
#
# 1 0.036790 0.015026 -0.003703 0.000000 -0.009204 0.000000
# 2 0.015026 0.019127 -0.003171 0.000000 -0.004557 0.000000
# 3 -0.003703 -0.003171 0.010197 0.000000 -0.001223 0.000000
# 4 0.000000 0.000000 0.000000 0.095839 0.000000 -0.041916
# 5 -0.009204 -0.004557 -0.001223 0.000000 0.026198 0.000000
# 6 0.000000 0.000000 0.000000 -0.041916 0.000000 0.098829
#
#
# Mechanical properties :
#
#
# Convention : Reuss Voigt Hill
#
# Bulk Modulus (GPa) = 12.13318 23.50868 17.82093
# Shear Modulus (GPa) = 16.77015 29.37905 23.07460
#
# Velocity S-wave (km/s) = 2.71471 3.59314 3.18436
# Velocity P-wave (km/s) = 3.89335 5.24835 4.62079
#
# Compressibility (1/GPa) = 0.08241862
#
# Stress axis : x y z
#
# Youngs Moduli (GPa) = 27.18134 52.28078 98.06791
#
# Poissons Ratio (x) = -0.78559 0.36317
# Poissons Ratio (y) = -0.40844 0.31097
# Poissons Ratio (z) = 0.10066 0.16578
#
# Static dielectric constant tensor:
#      x y z
#    x 1.883310 0.000000 0.045190 
#    y 0.000000 1.872810 0.000000 
#    z 0.045190 0.000000 1.854760 
# 
# From -- ./inp_files/149616.got.cif
#   From: 2010.05.17/outbox.cif.g08.bks.cpg/sg12_75_cif.got.tgz:149616.got - 2010.06.03 13:09:07.
