data_PCOD9209991
_publ_section_title
;
Structure prediction by ZEFSAII (Michael W. Deem and Ramdas Pophale) SiO2 
 PCOD9209991
Probable space group: C 2/M
;
_chemical_formula_sum "Si O2"
_cell_formula_units_Z 56
_cell_length_a 9.317367
_cell_length_b 16.584564
_cell_length_c 23.724078
_cell_angle_alpha 90.000000
_cell_angle_beta 47.867195
_cell_angle_gamma 90.000000
_cell_volume 2718.639108
_symmetry_space_group_name_H-M "C 2/M"
_symmetry_group_IT_number 12
_symmetry_cell_setting 'monoclinic'
loop_
_space_group_symop_operation_xyz
x,y,z
-x,y,-z
-x,-y,-z
x,-y,z
1/2+x,1/2+y,z
1/2-x,1/2+y,-z
1/2-x,1/2-y,-z
1/2+x,1/2-y,z
loop_
_atom_site_type_symbol
_atom_site_label
_atom_site_fract_x
_atom_site_fract_y
_atom_site_fract_z
Si Si1 0.708567 0.283622 0.447588
Si Si2 0.209541 0.590868 0.869831
Si Si3 0.817431 0.590850 0.842698
Si Si4 0.627294 0.231243 0.349017
Si Si5 0.880595 0.308113 0.929447
Si Si6 0.270335 0.592113 0.719143
Si Si7 0.073382 0.174077 0.818003
O O1 0.750000 0.250000 0.500000
O O2 0.663745 0.224257 0.406626
O O3 0.000000 0.169025 0.500000
O O4 0.929957 0.311608 0.378802
O O5 0.230878 0.500000 0.884155
O O6 0.271203 0.592195 0.787148
O O7 0.357044 0.647951 0.862587
O O8 0.989579 0.620348 0.932571
O O9 0.798145 0.500000 0.868932
O O10 0.773845 0.652583 0.904426
O O11 0.682246 0.608055 0.825884
O O12 0.041638 0.601745 0.765827
O O13 0.624911 0.328168 0.333938
O O14 0.807403 0.193784 0.269041
O O15 0.057323 0.255036 0.858474
O O16 0.750000 0.250000 0.000000
O O17 0.330671 0.500000 0.685540
#
# Coordination Sequence:
#
# PCOD9209991 Si02
#       7
#     8   8   8   8   8   8   8
#     4   9  20  34  52  85 122 159 195 248 311 358
#     4  10  21  39  58  84 125 159 198 254 315 369
#     4  10  21  39  58  84 124 157 199 258 314 368
#     4  11  18  32  60  86 120 154 203 258 299 353
#     4  11  24  41  60  82 116 161 208 251 300 365
#     4   9  18  33  56  85 117 158 200 246 306 365
#     4  12  22  34  61  97 115 149 210 257 304 358
#
# _framework density 20.598541999999998
#
# number of rings (size 3 to 8) (size 9 to 14) (size 15 to 20)
#    0.000    1.714    2.857    4.286    0.000    2.286 
#    0.000    4.286    0.000    4.286    0.000    8.000 
#    0.000    0.000    0.000    0.000    0.000    0.000 
#
# Total GULP energy -155985.350742 kJ/mol
# GULP energy per Si atom -5570.905384 kJ/mol
# Density = 2.055166 g / cm^3
# Si number density = 20.598542 Si / 1000 Ang^3
#
#
#
# Elastic Constant Matrix: (Units=GPa)
#
#
# Indices 1 2 3 4 5 6 
#
# 1 100.2235 13.6052 13.7757 0.0000 11.4318 0.0002
# 2 13.6052 84.3675 25.3199 -0.0004 2.4251 0.0002
# 3 13.7757 25.3199 71.8065 -0.0013 1.9642 0.0006
# 4 0.0000 -0.0004 -0.0013 6.9070 0.0003 2.3903
# 5 11.4318 2.4251 1.9642 0.0003 18.2591 -0.0002
# 6 0.0002 0.0002 0.0006 2.3903 -0.0002 24.6040
#
#
#
# Elastic Compliance Matrix: (Units=1/GPa)
#
#
# Indices 1 2 3 4 5 6 
#
# 1 0.011101 -0.001135 -0.001548 0.000000 -0.006633 0.000000
# 2 -0.001135 0.013401 -0.004492 0.000000 -0.000586 0.000000
# 3 -0.001548 -0.004492 0.015811 0.000003 -0.000135 -0.000001
# 4 0.000000 0.000000 0.000003 0.149818 -0.000003 -0.014555
# 5 -0.006633 -0.000586 -0.000135 -0.000003 0.059012 0.000001
# 6 0.000000 0.000000 -0.000001 -0.014555 0.000001 0.042058
#
#
# Mechanical properties :
#
#
# Convention : Reuss Voigt Hill
#
# Bulk Modulus (GPa) = 38.51540 40.19989 39.35765
# Shear Modulus (GPa) = 15.91319 23.53378 19.72349
#
# Velocity S-wave (km/s) = 2.78248 3.38375 3.09774
# Velocity P-wave (km/s) = 5.39088 5.90124 5.65182
#
# Compressibility (1/GPa) = 0.02596364
#
# Stress axis : x y z
#
# Youngs Moduli (GPa) = 90.08095 74.62270 63.24800
#
# Poissons Ratio (x) = 0.08469 0.09791
# Poissons Ratio (y) = 0.10223 0.28408
# Poissons Ratio (z) = 0.13945 0.33517
#
# Static dielectric constant tensor:
#      x y z
#    x 1.742100 0.000000 -0.021800 
#    y 0.000000 1.763910 0.000000 
#    z -0.021800 0.000000 1.822310 
# 
# From -- ./inp_files/300663.got.cif
#   From: 2010.05.17/outbox.cif.g08.bks.cpg/sg12_151_cif.got.tgz:300663.got - 2010.06.03 13:09:07.
