data_PCOD9209461
_publ_section_title
;
Structure prediction by ZEFSAII (Michael W. Deem and Ramdas Pophale) SiO2 
 PCOD9209461
Probable space group: C 2/M
;
_chemical_formula_sum "Si O2"
_cell_formula_units_Z 64
_cell_length_a 31.522856
_cell_length_b 19.706111
_cell_length_c 15.511801
_cell_angle_alpha 90.000000
_cell_angle_beta 159.888557
_cell_angle_gamma 90.000000
_cell_volume 3313.250349
_symmetry_space_group_name_H-M "C 2/M"
_symmetry_group_IT_number 12
_symmetry_cell_setting 'monoclinic'
loop_
_space_group_symop_operation_xyz
x,y,z
-x,y,-z
-x,-y,-z
x,-y,z
1/2+x,1/2+y,z
1/2-x,1/2+y,-z
1/2-x,1/2-y,-z
1/2+x,1/2-y,z
loop_
_atom_site_type_symbol
_atom_site_label
_atom_site_fract_x
_atom_site_fract_y
_atom_site_fract_z
Si Si1 0.285196 0.213533 0.979584
Si Si2 0.454203 0.891127 0.659346
Si Si3 0.175332 0.081242 0.405534
Si Si4 0.443694 0.253249 0.575886
Si Si5 0.904711 0.426473 0.239573
Si Si6 0.526106 0.684467 0.907621
Si Si7 0.798385 0.928050 0.750086
Si Si8 0.414333 0.164798 0.919671
O O1 0.165654 0.216463 0.690063
O O2 0.250000 0.250000 0.000000
O O3 0.414805 0.245608 0.190351
O O4 0.314131 0.135994 0.057914
O O5 0.404863 0.823787 0.518878
O O6 0.526365 0.927972 0.721115
O O7 0.340653 0.929372 0.483594
O O8 0.536269 0.865365 0.896054
O O9 0.196897 0.079399 0.344078
O O10 0.287348 0.125121 0.659515
O O11 0.057671 0.129356 0.201263
O O12 0.167255 0.000000 0.416138
O O13 0.451199 0.289937 0.682157
O O14 0.847065 0.500000 0.145886
O O15 0.000000 0.413780 0.500000
O O16 0.638485 0.638129 0.091316
O O17 0.578081 0.752473 0.054359
O O18 0.859773 0.000000 0.890032
O O19 0.500000 0.149897 0.000000
#
# Coordination Sequence:
#
# PCOD9209461 Si02
#       8
#     8   8   8   8   8   8   8   8
#     4  11  21  41  68  95 124 163 203 259 322 380
#     4  10  21  38  62  91 123 159 205 265 315 368
#     4  11  25  41  60  87 126 172 218 265 319 385
#     4  10  23  38  63  96 125 158 213 261 310 385
#     4  10  22  40  63  95 128 162 206 255 316 384
#     4  11  25  38  61  87 128 167 211 264 318 377
#     4  11  22  39  60  85 123 169 213 256 315 381
#     4  11  23  39  63  91 119 164 219 271 315 371
#
# _framework density 19.316379000000001
#
# number of rings (size 3 to 8) (size 9 to 14) (size 15 to 20)
#    0.000    1.375    1.250    4.500    8.750    3.250 
#    0.000    0.625    0.000    2.250    0.000    0.000 
#    0.000    0.000    0.000    0.000    0.000    0.000 
#
# Total GULP energy -178356.321699 kJ/mol
# GULP energy per Si atom -5573.635053 kJ/mol
# Density = 1.927241 g / cm^3
# Si number density = 19.316379 Si / 1000 Ang^3
#
#
#
# Elastic Constant Matrix: (Units=GPa)
#
#
# Indices 1 2 3 4 5 6 
#
# 1 76.6799 34.5073 13.4754 0.0000 8.6618 0.0000
# 2 34.5073 157.7796 62.9982 0.0000 -5.5494 0.0000
# 3 13.4754 62.9982 90.1222 0.0000 2.1473 0.0000
# 4 0.0000 0.0000 0.0000 34.3456 0.0000 -25.0877
# 5 8.6618 -5.5494 2.1473 0.0000 31.9632 0.0000
# 6 0.0000 0.0000 0.0000 -25.0877 0.0000 10.3329
#
#
#
# Elastic Compliance Matrix: (Units=1/GPa)
#
#
# Indices 1 2 3 4 5 6 
#
# 1 0.015147 -0.003636 0.000390 0.000000 -0.004762 0.000000
# 2 -0.003636 0.009787 -0.006372 0.000000 0.003113 0.000000
# 3 0.000390 -0.006372 0.015545 0.000000 -0.002256 0.000000
# 4 0.000000 0.000000 0.000000 -0.037643 0.000000 -0.091394
# 5 -0.004762 0.003113 -0.002256 0.000000 0.033268 0.000000
# 6 0.000000 0.000000 0.000000 -0.091394 0.000000 -0.125120
#
#
# Mechanical properties :
#
#
# Convention : Reuss Voigt Hill
#
# Bulk Modulus (GPa) = 47.07155 60.72704 53.89929
# Shear Modulus (GPa) = -79.74655 29.56841 -25.08907
#
# Velocity S-wave (km/s) = -6.43227 3.91672 -3.60787
# Velocity P-wave (km/s) = 5.54471 7.20837 3.25705
#
# Compressibility (1/GPa) = 0.02124426
#
# Stress axis : x y z
#
# Youngs Moduli (GPa) = 66.02030 102.17881 64.32743
#
# Poissons Ratio (x) = 0.37153 -0.02511
# Poissons Ratio (y) = 0.24005 0.40988
# Poissons Ratio (z) = -0.02577 0.65106
#
# Static dielectric constant tensor:
#      x y z
#    x 1.703770 0.000000 0.031190 
#    y 0.000000 1.664920 0.000000 
#    z 0.031190 0.000000 1.722210 
# 
# From -- ./inp_files/251951.got.cif
#   From: 2010.05.17/outbox.cif.g08.bks.cpg/sg12_126_cif.got.tgz:251951.got - 2010.06.03 13:09:07.
