data_PCOD9209979
_publ_section_title
;
Structure prediction by ZEFSAII (Michael W. Deem and Ramdas Pophale) SiO2 
 PCOD9209979
Probable space group: C 2/M
;
_chemical_formula_sum "Si O2"
_cell_formula_units_Z 50
_cell_length_a 26.222431
_cell_length_b 8.254512
_cell_length_c 14.784920
_cell_angle_alpha 90.000000
_cell_angle_beta 126.332210
_cell_angle_gamma 90.000000
_cell_volume 2578.103095
_symmetry_space_group_name_H-M "C 2/M"
_symmetry_group_IT_number 12
_symmetry_cell_setting 'monoclinic'
loop_
_space_group_symop_operation_xyz
x,y,z
-x,y,-z
-x,-y,-z
x,-y,z
1/2+x,1/2+y,z
1/2-x,1/2+y,-z
1/2-x,1/2-y,-z
1/2+x,1/2-y,z
loop_
_atom_site_type_symbol
_atom_site_label
_atom_site_fract_x
_atom_site_fract_y
_atom_site_fract_z
Si Si1 0.902711 0.319588 0.771624
Si Si2 0.190750 0.691760 0.997030
Si Si3 0.452276 0.807098 0.634379
Si Si4 0.352780 0.303710 0.381992
Si Si5 0.500000 0.000000 0.000000
Si Si6 0.592531 0.691380 0.753868
Si Si7 0.707238 0.198714 0.218914
O O1 0.878912 0.500000 0.716499
O O2 0.929701 0.243349 0.708778
O O3 0.958529 0.361544 0.900938
O O4 0.844689 0.241088 0.764328
O O5 0.196580 0.500000 0.010227
O O6 0.127038 0.732068 0.876344
O O7 0.250000 0.750000 0.000000
O O8 0.192731 0.755994 0.101539
O O9 0.398750 0.770588 0.504680
O O10 0.518467 0.728370 0.675467
O O11 0.463772 0.000000 0.653395
O O12 0.358028 0.500000 0.391342
O O13 0.375090 0.251232 0.305283
O O14 0.279369 0.260560 0.318081
O O15 0.603391 0.500000 0.770500
O O16 0.702177 0.000000 0.212175
#
# Coordination Sequence:
#
# PCOD9209979 Si02
#       7
#     8   8   8   8   2   8   8
#     4   8  18  32  56  86 114 145 189 234 283 345
#     4  11  21  35  60  89 119 150 191 239 291 347
#     4  11  23  37  57  88 114 146 195 249 297 340
#     4  10  21  39  58  79 113 157 197 236 290 358
#     4   8  16  32  56  84 120 144 182 240 280 342
#     4  11  23  39  58  84 115 156 198 240 291 354
#     4   9  18  35  58  84 114 156 195 229 284 356
#
# _framework density 19.394106000000001
#
# number of rings (size 3 to 8) (size 9 to 14) (size 15 to 20)
#    0.480    1.600    1.600    1.920    2.240    3.840 
#    0.000    0.000    0.000    5.760    0.000    0.000 
#    0.000    0.000    0.000    0.000    0.000    0.000 
#
# Total GULP energy -139174.764172 kJ/mol
# GULP energy per Si atom -5566.990567 kJ/mol
# Density = 1.934996 g / cm^3
# Si number density = 19.394106 Si / 1000 Ang^3
#
#
#
# Elastic Constant Matrix: (Units=GPa)
#
#
# Indices 1 2 3 4 5 6 
#
# 1 75.9961 -2.5185 8.2128 0.0000 3.3680 0.0000
# 2 -2.5185 11.2712 -8.6263 0.0000 -1.6682 0.0000
# 3 8.2128 -8.6263 60.9965 0.0000 22.4876 0.0000
# 4 0.0000 0.0000 0.0000 27.6851 0.0000 5.5621
# 5 3.3680 -1.6682 22.4876 0.0000 17.2035 0.0000
# 6 0.0000 0.0000 0.0000 5.5621 0.0000 18.6794
#
#
#
# Elastic Compliance Matrix: (Units=1/GPa)
#
#
# Indices 1 2 3 4 5 6 
#
# 1 0.013392 0.001934 -0.001220 0.000000 -0.000839 0.000000
# 2 0.001934 0.102376 0.020648 0.000000 -0.017442 0.000000
# 3 -0.001220 0.020648 0.036002 0.000000 -0.044819 0.000000
# 4 0.000000 0.000000 0.000000 0.038419 0.000000 -0.011440
# 5 -0.000839 -0.017442 -0.044819 0.000000 0.115186 0.000000
# 6 0.000000 0.000000 0.000000 -0.011440 0.000000 0.056941
#
#
# Mechanical properties :
#
#
# Convention : Reuss Voigt Hill
#
# Bulk Modulus (GPa) = 5.14153 15.82219 10.48186
# Shear Modulus (GPa) = 13.00651 22.79334 17.89992
#
# Velocity S-wave (km/s) = 2.59249 3.43194 3.04132
# Velocity P-wave (km/s) = 3.40854 4.88674 4.21298
#
# Compressibility (1/GPa) = 0.19449454
#
# Stress axis : x y z
#
# Youngs Moduli (GPa) = 74.67300 9.76794 27.77596
#
# Poissons Ratio (x) = -0.01889 0.03389
# Poissons Ratio (y) = -0.14444 -0.57352
# Poissons Ratio (z) = 0.09111 -0.20169
#
# Static dielectric constant tensor:
#      x y z
#    x 1.701980 0.000000 -0.030970 
#    y 0.000000 1.696020 0.000000 
#    z -0.030970 0.000000 1.660870 
# 
# From -- ./inp_files/237981.got.cif
#   From: 2010.05.17/outbox.cif.g08.bks.cpg/sg12_119_cif.got.tgz:237981.got - 2010.06.03 13:09:07.
