data_PCOD9209131
_publ_section_title
;
Structure prediction by ZEFSAII (Michael W. Deem and Ramdas Pophale) SiO2 
 PCOD9209131
Probable space group: C 2/M
;
_chemical_formula_sum "Si O2"
_cell_formula_units_Z 64
_cell_length_a 25.620211
_cell_length_b 19.412970
_cell_length_c 19.939919
_cell_angle_alpha 90.000000
_cell_angle_beta 161.442037
_cell_angle_gamma 90.000000
_cell_volume 3156.351797
_symmetry_space_group_name_H-M "C 2/M"
_symmetry_group_IT_number 12
_symmetry_cell_setting 'monoclinic'
loop_
_space_group_symop_operation_xyz
x,y,z
-x,y,-z
-x,-y,-z
x,-y,z
1/2+x,1/2+y,z
1/2-x,1/2+y,-z
1/2-x,1/2-y,-z
1/2+x,1/2-y,z
loop_
_atom_site_type_symbol
_atom_site_label
_atom_site_fract_x
_atom_site_fract_y
_atom_site_fract_z
Si Si1 0.371707 0.919161 0.047856
Si Si2 0.874518 0.714596 0.964028
Si Si3 0.837313 0.330464 0.257492
Si Si4 0.189345 0.359600 0.242558
Si Si5 0.336709 0.580205 0.841140
Si Si6 0.446791 0.871737 0.600568
Si Si7 0.488803 0.419795 0.412555
Si Si8 0.271349 0.750286 0.605449
O O1 0.414408 0.860147 0.044991
O O2 0.484874 0.908757 0.250204
O O3 0.384714 0.000000 0.041584
O O4 0.180174 0.900426 0.829757
O O5 0.034962 0.761151 0.147954
O O6 0.753827 0.758171 0.862640
O O7 0.797922 0.700673 0.797987
O O8 0.721294 0.378733 0.162852
O O9 0.000000 0.319572 0.500000
O O10 0.901870 0.358563 0.265563
O O11 0.334341 0.411239 0.404148
O O12 0.238200 0.325189 0.372079
O O13 0.000000 0.383120 0.000000
O O14 0.360846 0.500000 0.888233
O O15 0.187811 0.587547 0.606730
O O16 0.500000 0.603931 0.000000
O O17 0.353241 0.802422 0.511553
O O18 0.500000 0.385772 0.500000
O O19 0.463901 0.500000 0.392017
O O20 0.250000 0.750000 0.500000
#
# Coordination Sequence:
#
# PCOD9209131 Si02
#       8
#     8   8   8   8   8   8   8   8
#     4  11  24  39  62  92 127 171 219 273 343 400
#     4  11  22  40  62  92 126 166 213 277 327 396
#     4  10  23  37  63 100 125 164 217 269 325 396
#     4  10  22  37  62  90 121 163 211 269 325 383
#     4  10  21  41  69  99 134 176 218 265 329 410
#     4  11  23  40  64  94 132 174 217 276 336 402
#     4  10  21  38  61  87 120 164 213 266 319 389
#     4  11  23  40  59  89 125 165 213 270 333 387
#
# _framework density 20.276572999999999
#
# number of rings (size 3 to 8) (size 9 to 14) (size 15 to 20)
#    0.000    1.500    2.500    2.625    3.500    5.500 
#    0.000    1.875    0.000    1.500    0.000    0.000 
#    0.000    0.000    0.000    0.000    0.000    0.000 
#
# Total GULP energy -178250.871986 kJ/mol
# GULP energy per Si atom -5570.339750 kJ/mol
# Density = 2.023042 g / cm^3
# Si number density = 20.276573 Si / 1000 Ang^3
#
#
#
# Elastic Constant Matrix: (Units=GPa)
#
#
# Indices 1 2 3 4 5 6 
#
# 1 109.0469 44.9466 27.3857 -0.0010 7.6943 -0.0009
# 2 44.9466 76.1579 32.4646 -0.0004 8.4325 -0.0004
# 3 27.3857 32.4646 66.5966 -0.0026 11.0525 -0.0019
# 4 -0.0010 -0.0004 -0.0026 26.8917 -0.0008 7.9545
# 5 7.6943 8.4325 11.0525 -0.0008 43.4061 -0.0007
# 6 -0.0009 -0.0004 -0.0019 7.9545 -0.0007 24.0205
#
#
#
# Elastic Compliance Matrix: (Units=1/GPa)
#
#
# Indices 1 2 3 4 5 6 
#
# 1 0.012318 -0.006428 -0.001855 0.000000 -0.000462 0.000000
# 2 -0.006428 0.019991 -0.006940 -0.000001 -0.000977 0.000000
# 3 -0.001855 -0.006940 0.019717 0.000001 -0.003343 0.000001
# 4 0.000000 -0.000001 0.000001 0.041224 0.000000 -0.013651
# 5 -0.000462 -0.000977 -0.003343 0.000000 0.024161 0.000000
# 6 0.000000 0.000000 0.000001 -0.013651 0.000000 0.046152
#
#
# Mechanical properties :
#
#
# Convention : Reuss Voigt Hill
#
# Bulk Modulus (GPa) = 46.33953 51.26612 48.80283
# Shear Modulus (GPa) = 24.85067 28.66397 26.75732
#
# Velocity S-wave (km/s) = 3.50463 3.76393 3.63660
# Velocity P-wave (km/s) = 6.26737 6.65041 6.46173
#
# Compressibility (1/GPa) = 0.02157985
#
# Stress axis : x y z
#
# Youngs Moduli (GPa) = 81.17954 50.02344 50.71891
#
# Poissons Ratio (x) = 0.32155 0.09410
# Poissons Ratio (y) = 0.52182 0.35197
# Poissons Ratio (z) = 0.15061 0.34714
#
# Static dielectric constant tensor:
#      x y z
#    x 1.754550 0.000000 0.032610 
#    y 0.000000 1.737610 0.000000 
#    z 0.032610 0.000000 1.764520 
# 
# From -- ./inp_files/290970.got.cif
#   From: 2010.05.17/outbox.cif.g08.bks.cpg/sg12_146_cif.got.tgz:290970.got - 2010.06.03 13:09:07.
