data_PCOD9209171
_publ_section_title
;
Structure prediction by ZEFSAII (Michael W. Deem and Ramdas Pophale) SiO2 
 PCOD9209171
Probable space group: C 2/M
;
_chemical_formula_sum "Si O2"
_cell_formula_units_Z 56
_cell_length_a 29.606750
_cell_length_b 7.647350
_cell_length_c 11.440101
_cell_angle_alpha 90.000000
_cell_angle_beta 67.967374
_cell_angle_gamma 90.000000
_cell_volume 2401.029107
_symmetry_space_group_name_H-M "C 2/M"
_symmetry_group_IT_number 12
_symmetry_cell_setting 'monoclinic'
loop_
_space_group_symop_operation_xyz
x,y,z
-x,y,-z
-x,-y,-z
x,-y,z
1/2+x,1/2+y,z
1/2-x,1/2+y,-z
1/2-x,1/2-y,-z
1/2+x,1/2-y,z
loop_
_atom_site_type_symbol
_atom_site_label
_atom_site_fract_x
_atom_site_fract_y
_atom_site_fract_z
Si Si1 0.980322 0.700533 0.397266
Si Si2 0.984810 0.296958 0.887376
Si Si3 0.327757 0.713857 0.256032
Si Si4 0.779517 0.300873 0.621395
Si Si5 0.619454 0.699839 0.577963
Si Si6 0.372912 0.287876 0.970029
Si Si7 0.706387 0.291384 0.130796
O O1 0.998773 0.500000 0.377405
O O2 0.921736 0.702253 0.453413
O O3 0.000000 0.779698 0.500000
O O4 0.994934 0.778080 0.255730
O O5 0.001103 0.500000 0.874068
O O6 0.926676 0.284927 0.932193
O O7 0.000000 0.220798 0.000000
O O8 0.326240 0.500000 0.261003
O O9 0.274438 0.773304 0.349629
O O10 0.370583 0.770524 0.301542
O O11 0.340327 0.766281 0.112856
O O12 0.781963 0.500000 0.576971
O O13 0.826942 0.203930 0.529534
O O14 0.783681 0.299718 0.757209
O O15 0.603115 0.500000 0.600784
O O16 0.375999 0.500000 0.968815
O O17 0.344087 0.237049 0.881493
O O18 0.704784 0.500000 0.151896
O O19 0.750000 0.250000 0.000000
#
# Coordination Sequence:
#
# PCOD9209171 Si02
#       7
#     8   8   8   8   8   8   8
#     4  10  23  43  62  84 118 160 202 249 310 370
#     4  10  22  40  62  90 120 152 201 255 301 360
#     4   9  19  38  60  87 123 160 195 241 295 357
#     4  11  22  39  61  85 123 165 201 242 297 356
#     4  11  23  39  62  90 119 153 203 252 298 357
#     4  10  21  38  61  88 120 156 197 242 299 358
#     4  11  22  38  59  88 123 160 202 248 295 354
#
# _framework density 23.323333000000002
#
# number of rings (size 3 to 8) (size 9 to 14) (size 15 to 20)
#    0.000    1.714    1.429    2.571    2.000    2.286 
#    0.000    2.857    0.000    0.000    0.000    0.000 
#    0.000    0.000    0.000    0.000    0.000    0.000 
#
# Total GULP energy -156488.038009 kJ/mol
# GULP energy per Si atom -5588.858500 kJ/mol
# Density = 2.327025 g / cm^3
# Si number density = 23.323333 Si / 1000 Ang^3
#
#
#
# Elastic Constant Matrix: (Units=GPa)
#
#
# Indices 1 2 3 4 5 6 
#
# 1 154.3182 8.9301 40.9129 0.0000 19.3193 0.0000
# 2 8.9301 60.9166 12.0468 0.0000 6.6345 0.0000
# 3 40.9129 12.0468 109.3862 0.0000 18.8789 0.0000
# 4 0.0000 0.0000 0.0000 16.0619 0.0000 -5.7667
# 5 19.3193 6.6345 18.8789 0.0000 47.2069 0.0000
# 6 0.0000 0.0000 0.0000 -5.7667 0.0000 23.6656
#
#
#
# Elastic Compliance Matrix: (Units=1/GPa)
#
#
# Indices 1 2 3 4 5 6 
#
# 1 0.007384 -0.000394 -0.002370 0.000000 -0.002019 0.000000
# 2 -0.000394 0.016936 -0.001434 0.000000 -0.001646 0.000000
# 3 -0.002370 -0.001434 0.010724 0.000000 -0.003117 0.000000
# 4 0.000000 0.000000 0.000000 0.068228 0.000000 0.016625
# 5 -0.002019 -0.001646 -0.003117 0.000000 0.023487 0.000000
# 6 0.000000 0.000000 0.000000 0.016625 0.000000 0.046307
#
#
# Mechanical properties :
#
#
# Convention : Reuss Voigt Hill
#
# Bulk Modulus (GPa) = 37.52467 49.82229 43.67348
# Shear Modulus (GPa) = 26.26801 34.90229 30.58515
#
# Velocity S-wave (km/s) = 3.35961 3.87260 3.62519
# Velocity P-wave (km/s) = 5.58329 6.43459 6.02400
#
# Compressibility (1/GPa) = 0.02664913
#
# Stress axis : x y z
#
# Youngs Moduli (GPa) = 135.42857 59.04435 93.24620
#
# Poissons Ratio (x) = 0.02326 0.22099
# Poissons Ratio (y) = 0.05335 0.13370
# Poissons Ratio (z) = 0.32096 0.08466
#
# Static dielectric constant tensor:
#      x y z
#    x 1.844450 0.000000 0.016300 
#    y 0.000000 1.902290 0.000000 
#    z 0.016300 0.000000 1.899140 
# 
# From -- ./inp_files/180733.got.cif
#   From: 2010.05.17/outbox.cif.g08.bks.cpg/sg12_91_cif.got.tgz:180733.got - 2010.06.03 13:09:07.
