data_PCOD9209393
_publ_section_title
;
Structure prediction by ZEFSAII (Michael W. Deem and Ramdas Pophale) SiO2 
 PCOD9209393
Probable space group: C 2/M
;
_chemical_formula_sum "Si O2"
_cell_formula_units_Z 48
_cell_length_a 24.232248
_cell_length_b 8.823988
_cell_length_c 12.185277
_cell_angle_alpha 90.000000
_cell_angle_beta 91.330946
_cell_angle_gamma 90.000000
_cell_volume 2604.814710
_symmetry_space_group_name_H-M "C 2/M"
_symmetry_group_IT_number 12
_symmetry_cell_setting 'monoclinic'
loop_
_space_group_symop_operation_xyz
x,y,z
-x,y,-z
-x,-y,-z
x,-y,z
1/2+x,1/2+y,z
1/2-x,1/2+y,-z
1/2-x,1/2-y,-z
1/2+x,1/2-y,z
loop_
_atom_site_type_symbol
_atom_site_label
_atom_site_fract_x
_atom_site_fract_y
_atom_site_fract_z
Si Si1 0.985300 0.682061 0.665550
Si Si2 0.229880 0.681019 0.828055
Si Si3 0.663776 0.680901 0.020683
Si Si4 0.547869 0.817612 0.087796
Si Si5 0.082651 0.181841 0.535439
Si Si6 0.290120 0.318678 0.410690
O O1 0.987547 0.500000 0.655353
O O2 0.970194 0.721642 0.789358
O O3 0.940367 0.747452 0.578409
O O4 0.043306 0.751749 0.628577
O O5 0.225460 0.500000 0.819615
O O6 0.288466 0.718135 0.888309
O O7 0.224780 0.754377 0.709105
O O8 0.183178 0.743553 0.908022
O O9 0.662659 0.500000 0.007231
O O10 0.605173 0.741085 0.057752
O O11 0.554652 0.000000 0.083092
O O12 0.500000 0.774943 0.000000
O O13 0.146305 0.219508 0.558745
O O14 0.076470 0.000000 0.531271
O O15 0.285060 0.500000 0.410086
O O16 0.250000 0.250000 0.500000
#
# Coordination Sequence:
#
# PCOD9209393 Si02
#       6
#     8   8   8   8   8   8
#     4  10  21  38  62  89 117 156 201 241 295 358
#     4  10  22  41  64  89 121 159 198 246 299 354
#     4  10  22  40  63  91 120 157 201 245 298 356
#     4  10  23  40  59  89 123 157 198 246 297 353
#     4  10  22  40  61  86 119 155 196 247 298 349
#     4  11  25  41  61  91 123 158 201 246 298 355
#
# _framework density 18.427415
#
# number of rings (size 3 to 8) (size 9 to 14) (size 15 to 20)
#    0.000    1.833    0.000    3.500    4.667    6.333 
#    0.000    0.000    0.000    0.000    0.000    0.000 
#    0.000    0.000    0.000    0.000    0.000    0.000 
#
# Total GULP energy -134140.789741 kJ/mol
# GULP energy per Si atom -5589.199573 kJ/mol
# Density = 1.838547 g / cm^3
# Si number density = 18.427415 Si / 1000 Ang^3
#
#
#
# Elastic Constant Matrix: (Units=GPa)
#
#
# Indices 1 2 3 4 5 6 
#
# 1 157.9951 69.3749 114.8901 0.0000 -16.7260 0.0000
# 2 69.3749 62.0694 70.2375 0.0000 -5.7863 0.0000
# 3 114.8901 70.2375 187.0723 0.0000 -21.1122 0.0000
# 4 0.0000 0.0000 0.0000 28.0562 0.0000 -2.5717
# 5 -16.7260 -5.7863 -21.1122 0.0000 14.3406 0.0000
# 6 0.0000 0.0000 0.0000 -2.5717 0.0000 36.2718
#
#
#
# Elastic Compliance Matrix: (Units=1/GPa)
#
#
# Indices 1 2 3 4 5 6 
#
# 1 0.015210 -0.011591 -0.004216 0.000000 0.006857 0.000000
# 2 -0.011591 0.037149 -0.007991 0.000000 -0.010294 0.000000
# 3 -0.004216 -0.007991 0.012012 0.000000 0.009543 0.000000
# 4 0.000000 0.000000 0.000000 0.035876 0.000000 0.002544
# 5 0.006857 -0.010294 0.009543 0.000000 0.087625 0.000000
# 6 0.000000 0.000000 0.000000 0.002544 0.000000 0.027750
#
#
# Mechanical properties :
#
#
# Convention : Reuss Voigt Hill
#
# Bulk Modulus (GPa) = 59.60893 101.79353 80.70123
# Shear Modulus (GPa) = 18.60055 25.90934 22.25495
#
# Velocity S-wave (km/s) = 3.18055 3.75376 3.47898
# Velocity P-wave (km/s) = 6.77540 8.61091 7.74770
#
# Compressibility (1/GPa) = 0.01677601
#
# Stress axis : x y z
#
# Youngs Moduli (GPa) = 65.74544 26.91854 83.25157
#
# Poissons Ratio (x) = 0.31201 0.35095
# Poissons Ratio (y) = 0.76204 0.66528
# Poissons Ratio (z) = 0.27715 0.21511
#
# Static dielectric constant tensor:
#      x y z
#    x 1.609290 0.000000 0.009750 
#    y 0.000000 1.617990 0.000000 
#    z 0.009750 0.000000 1.604490 
# 
# From -- ./inp_files/172321.got.cif
#   From: 2010.05.17/outbox.cif.g08.bks.cpg/sg12_87_cif.got.tgz:172321.got - 2010.06.03 13:09:07.
