data_PCOD9209051
_publ_section_title
;
Structure prediction by ZEFSAII (Michael W. Deem and Ramdas Pophale) SiO2 
 PCOD9209051
Probable space group: C 2/M
;
_chemical_formula_sum "Si O2"
_cell_formula_units_Z 56
_cell_length_a 20.019702
_cell_length_b 16.752626
_cell_length_c 23.937158
_cell_angle_alpha 90.000000
_cell_angle_beta 158.647889
_cell_angle_gamma 90.000000
_cell_volume 2923.020973
_symmetry_space_group_name_H-M "C 2/M"
_symmetry_group_IT_number 12
_symmetry_cell_setting 'monoclinic'
loop_
_space_group_symop_operation_xyz
x,y,z
-x,y,-z
-x,-y,-z
x,-y,z
1/2+x,1/2+y,z
1/2-x,1/2+y,-z
1/2-x,1/2-y,-z
1/2+x,1/2-y,z
loop_
_atom_site_type_symbol
_atom_site_label
_atom_site_fract_x
_atom_site_fract_y
_atom_site_fract_z
Si Si1 0.187219 0.500000 0.678545
Si Si2 0.396546 0.691904 0.472499
Si Si3 0.082288 0.589495 0.286753
Si Si4 0.719841 0.345689 0.053675
Si Si5 0.814265 0.000000 0.893017
Si Si6 0.186074 0.857665 0.295388
Si Si7 0.957439 0.773013 0.300861
Si Si8 0.755273 0.869688 0.535936
O O1 0.164083 0.500000 0.726880
O O2 0.283952 0.419700 0.731611
O O3 0.000000 0.500000 0.500000
O O4 0.500000 0.657404 0.500000
O O5 0.226462 0.640654 0.363426
O O6 0.314482 0.779406 0.392669
O O7 0.545935 0.696543 0.638709
O O8 0.055670 0.500000 0.244475
O O9 0.170018 0.583702 0.417538
O O10 0.888543 0.634100 0.143815
O O11 0.703097 0.422304 0.081915
O O12 0.781903 0.269884 0.138682
O O13 0.526904 0.333412 0.873256
O O14 0.000000 0.000000 0.000000
O O15 0.228873 0.899234 0.388439
O O16 0.045740 0.838364 0.328759
O O17 0.116246 0.705436 0.429663
#
# Coordination Sequence:
#
# PCOD9209051 Si02
#       8
#     4   8   8   8   4   8   8   8
#     4  12  28  36  52  84 120 163 194 222 275 337
#     4  10  22  39  58  84 114 144 196 245 284 342
#     4  10  21  38  61  84 109 153 189 237 300 336
#     4  11  21  35  59  81 118 154 188 228 281 348
#     4  12  24  40  48  82 127 157 184 227 271 345
#     4  11  22  36  56  85 116 152 193 231 279 335
#     4   8  17  33  54  77 107 142 179 231 283 324
#     4   8  17  33  53  80 106 138 189 230 267 334
#
# _framework density 19.158262000000001
#
# number of rings (size 3 to 8) (size 9 to 14) (size 15 to 20)
#    0.000    2.000    2.143    3.000    9.000    2.571 
#    0.000    0.000    0.000    0.000    0.000    0.000 
#    0.000    6.857    0.000    0.000    0.000    0.000 
#
# Total GULP energy -156140.893509 kJ/mol
# GULP energy per Si atom -5576.460482 kJ/mol
# Density = 1.911466 g / cm^3
# Si number density = 19.158262 Si / 1000 Ang^3
#
#
#
# Elastic Constant Matrix: (Units=GPa)
#
#
# Indices 1 2 3 4 5 6 
#
# 1 84.9449 2.2159 8.9014 -0.0063 7.7542 -0.0043
# 2 2.2159 24.5036 -7.8312 -0.0019 6.6254 -0.0022
# 3 8.9014 -7.8312 92.2383 0.0236 5.2398 0.0031
# 4 -0.0063 -0.0019 0.0236 9.5930 -0.0016 -8.2794
# 5 7.7542 6.6254 5.2398 -0.0016 24.2886 -0.0002
# 6 -0.0043 -0.0022 0.0031 -8.2794 -0.0002 -4.6840
#
#
#
# Elastic Compliance Matrix: (Units=1/GPa)
#
#
# Indices 1 2 3 4 5 6 
#
# 1 0.012215 -0.000469 -0.001017 0.000000 -0.003553 -0.000011
# 2 -0.000469 0.045984 0.004711 -0.000008 -0.013410 -0.000003
# 3 -0.001017 0.004711 0.011536 -0.000009 -0.003449 0.000023
# 4 0.000000 -0.000008 -0.000009 0.041275 0.000006 -0.072958
# 5 -0.003553 -0.013410 -0.003449 0.000006 0.046708 -0.000006
# 6 -0.000011 -0.000003 0.000023 -0.072958 -0.000006 -0.084533
#
#
# Mechanical properties :
#
#
# Convention : Reuss Voigt Hill
#
# Bulk Modulus (GPa) = 13.12583 23.13991 18.13287
# Shear Modulus (GPa) = 54.27089 19.06622 36.66855
#
# Velocity S-wave (km/s) = 5.32815 3.15809 4.37965
# Velocity P-wave (km/s) = 6.68718 5.04010 5.92119
#
# Compressibility (1/GPa) = 0.07618565
#
# Stress axis : x y z
#
# Youngs Moduli (GPa) = 81.86368 21.74657 86.68870
#
# Poissons Ratio (x) = 0.01020 0.08815
# Poissons Ratio (y) = 0.03840 -0.40841
# Poissons Ratio (z) = 0.08324 -0.10245
#
# Static dielectric constant tensor:
#      x y z
#    x 1.694540 -0.000010 -0.005120 
#    y -0.000010 1.756590 -0.000030 
#    z -0.005120 -0.000030 1.684830 
# 
# From -- ./inp_files/366764.got.cif
#   From: 2010.05.17/outbox.cif.g08.bks.cpg/sg12_184_cif.got.tgz:366764.got - 2010.06.03 13:09:07.
