data_PCOD9209282
_publ_section_title
;
Structure prediction by ZEFSAII (Michael W. Deem and Ramdas Pophale) SiO2 
 PCOD9209282
Probable space group: C 2/M
;
_chemical_formula_sum "Si O2"
_cell_formula_units_Z 56
_cell_length_a 23.994596
_cell_length_b 18.167561
_cell_length_c 8.948555
_cell_angle_alpha 90.000000
_cell_angle_beta 45.432024
_cell_angle_gamma 90.000000
_cell_volume 2779.061127
_symmetry_space_group_name_H-M "C 2/M"
_symmetry_group_IT_number 12
_symmetry_cell_setting 'monoclinic'
loop_
_space_group_symop_operation_xyz
x,y,z
-x,y,-z
-x,-y,-z
x,-y,z
1/2+x,1/2+y,z
1/2-x,1/2+y,-z
1/2-x,1/2-y,-z
1/2+x,1/2-y,z
loop_
_atom_site_type_symbol
_atom_site_label
_atom_site_fract_x
_atom_site_fract_y
_atom_site_fract_z
Si Si1 0.311534 0.081602 0.517544
Si Si2 0.175936 0.086871 0.000652
Si Si3 0.942531 0.829371 0.971004
Si Si4 0.010648 0.579027 0.800956
Si Si5 0.534344 0.772900 0.597524
Si Si6 0.308706 0.206454 0.284002
Si Si7 0.198555 0.795687 0.211963
O O1 0.253404 0.107574 0.757335
O O2 0.398518 0.074046 0.415625
O O3 0.324144 0.133559 0.351227
O O4 0.283714 0.000000 0.523293
O O5 0.178666 0.000000 0.028782
O O6 0.107799 0.106716 0.010744
O O7 0.169402 0.135704 0.163907
O O8 0.999098 0.799039 0.737910
O O9 0.881547 0.762466 0.124661
O O10 0.000000 0.847710 0.000000
O O11 0.973284 0.500000 0.823919
O O12 0.995693 0.658877 0.761440
O O13 0.000000 0.582115 0.000000
O O14 0.500000 0.782907 0.500000
O O15 0.626975 0.754464 0.410194
O O16 0.250000 0.250000 0.500000
O O17 0.259828 0.185855 0.228298
O O18 0.250000 0.750000 0.000000
#
# Coordination Sequence:
#
# PCOD9209282 Si02
#       7
#     8   8   8   8   8   8   8
#     4  10  21  38  61  92 126 163 213 264 320 387
#     4  11  24  44  65  94 133 174 218 271 329 386
#     4  12  24  41  65  96 129 169 219 271 323 383
#     4  10  21  38  61  91 130 167 203 260 325 382
#     4  12  23  38  61  92 127 164 217 267 309 383
#     4  12  21  38  67  95 124 165 219 265 317 384
#     4  12  23  42  65  92 128 169 215 264 323 384
#
# _framework density 20.150690999999998
#
# number of rings (size 3 to 8) (size 9 to 14) (size 15 to 20)
#    0.000    0.714    4.286    4.714    0.000    1.143 
#    0.000    1.429    0.000    8.571    0.000    0.000 
#    0.000    0.000    0.000    0.000    0.000    0.000 
#
# Total GULP energy -156017.952696 kJ/mol
# GULP energy per Si atom -5572.069739 kJ/mol
# Density = 2.010483 g / cm^3
# Si number density = 20.150691 Si / 1000 Ang^3
#
#
#
# Elastic Constant Matrix: (Units=GPa)
#
#
# Indices 1 2 3 4 5 6 
#
# 1 64.9242 10.4014 -12.5493 0.0000 7.4379 0.0000
# 2 10.4014 76.2889 3.4173 0.0000 11.9367 0.0000
# 3 -12.5493 3.4173 70.9358 0.0000 -8.5217 0.0000
# 4 0.0000 0.0000 0.0000 -75.4126 0.0000 -11.3145
# 5 7.4379 11.9367 -8.5217 0.0000 32.6412 0.0000
# 6 0.0000 0.0000 0.0000 -11.3145 0.0000 24.0386
#
#
#
# Elastic Compliance Matrix: (Units=1/GPa)
#
#
# Indices 1 2 3 4 5 6 
#
# 1 0.016520 -0.002013 0.002742 0.000000 -0.002312 0.000000
# 2 -0.002013 0.014270 -0.001668 0.000000 -0.005195 0.000000
# 3 0.002742 -0.001668 0.015136 0.000000 0.003937 0.000000
# 4 0.000000 0.000000 0.000000 -0.012386 0.000000 -0.005830
# 5 -0.002312 -0.005195 0.003937 0.000000 0.034091 0.000000
# 6 0.000000 0.000000 0.000000 -0.005830 0.000000 0.038856
#
#
# Mechanical properties :
#
#
# Convention : Reuss Voigt Hill
#
# Bulk Modulus (GPa) = 22.70301 23.85416 23.27859
# Shear Modulus (GPa) = 40.63471 10.31206 25.47339
#
# Velocity S-wave (km/s) = 4.49546 2.26464 3.55934
# Velocity P-wave (km/s) = 6.18358 4.32455 5.33565
#
# Compressibility (1/GPa) = 0.04404703
#
# Stress axis : x y z
#
# Youngs Moduli (GPa) = 60.53263 70.07638 66.06952
#
# Poissons Ratio (x) = 0.14109 -0.18115
# Poissons Ratio (y) = 0.12188 0.11019
# Poissons Ratio (z) = -0.16597 0.11687
#
# Static dielectric constant tensor:
#      x y z
#    x 1.761590 0.000000 -0.028410 
#    y 0.000000 1.888140 0.000000 
#    z -0.028410 0.000000 1.702610 
# 
# From -- ./inp_files/98034.got.cif
#   From: 2010.05.17/outbox.cif.g08.bks.cpg/sg12_50_cif.got.tgz:98034.got - 2010.06.03 13:09:07.
