data_PCOD9209276
_publ_section_title
;
Structure prediction by ZEFSAII (Michael W. Deem and Ramdas Pophale) SiO2 
 PCOD9209276
Probable space group: C 2/M
;
_chemical_formula_sum "Si O2"
_cell_formula_units_Z 56
_cell_length_a 20.860233
_cell_length_b 17.505164
_cell_length_c 16.040541
_cell_angle_alpha 90.000000
_cell_angle_beta 152.366857
_cell_angle_gamma 90.000000
_cell_volume 2716.709082
_symmetry_space_group_name_H-M "C 2/M"
_symmetry_group_IT_number 12
_symmetry_cell_setting 'monoclinic'
loop_
_space_group_symop_operation_xyz
x,y,z
-x,y,-z
-x,-y,-z
x,-y,z
1/2+x,1/2+y,z
1/2-x,1/2+y,-z
1/2-x,1/2-y,-z
1/2+x,1/2-y,z
loop_
_atom_site_type_symbol
_atom_site_label
_atom_site_fract_x
_atom_site_fract_y
_atom_site_fract_z
Si Si1 0.035967 0.409828 0.728941
Si Si2 0.765017 0.636411 0.706353
Si Si3 0.088125 0.173797 0.017210
Si Si4 0.982341 0.914640 0.387238
Si Si5 0.356119 0.409760 0.077692
Si Si6 0.545620 0.148259 0.928149
Si Si7 0.875033 0.299818 0.420950
O O1 0.001102 0.500000 0.680846
O O2 0.041924 0.385039 0.832188
O O3 0.934292 0.354281 0.561356
O O4 0.192859 0.398958 0.877671
O O5 0.639506 0.583276 0.536195
O O6 0.694658 0.720879 0.626808
O O7 0.898062 0.633246 0.801171
O O8 0.828204 0.616483 0.870154
O O9 0.246353 0.161248 0.226275
O O10 0.060688 0.122933 0.904583
O O11 0.067804 0.260682 0.962256
O O12 0.000000 0.162494 0.000000
O O13 0.000000 0.880236 0.500000
O O14 0.896904 0.875139 0.215234
O O15 0.925825 0.000000 0.335325
O O16 0.383069 0.500000 0.114602
O O17 0.000000 0.287123 0.500000
#
# Coordination Sequence:
#
# PCOD9209276 Si02
#       7
#     8   8   8   8   8   8   8
#     4  11  25  41  63  95 128 167 216 265 324 386
#     4  10  21  40  62  91 125 163 209 263 316 381
#     4  11  22  44  66  92 130 171 214 264 323 383
#     4  10  21  38  61  91 128 168 211 263 320 382
#     4  10  23  41  63  95 129 167 214 265 321 385
#     4  10  22  41  63  88 127 166 209 261 321 382
#     4  11  22  40  65  96 122 164 216 262 319 378
#
# _framework density 20.613174999999998
#
# number of rings (size 3 to 8) (size 9 to 14) (size 15 to 20)
#    0.000    1.571    4.286    1.286    2.000    6.857 
#    0.000    2.857    0.000    0.000    0.000    0.000 
#    0.000    0.000    0.000    0.000    0.000    0.000 
#
# Total GULP energy -156213.712688 kJ/mol
# GULP energy per Si atom -5579.061167 kJ/mol
# Density = 2.056626 g / cm^3
# Si number density = 20.613175 Si / 1000 Ang^3
#
#
#
# Elastic Constant Matrix: (Units=GPa)
#
#
# Indices 1 2 3 4 5 6 
#
# 1 90.5771 35.8518 23.7506 0.0000 -10.9355 0.0000
# 2 35.8518 49.2764 37.3397 0.0000 -15.2891 0.0000
# 3 23.7506 37.3397 83.8911 0.0000 -0.4640 0.0000
# 4 0.0000 0.0000 0.0000 19.7379 0.0000 0.1920
# 5 -10.9355 -15.2891 -0.4640 0.0000 36.7443 0.0000
# 6 0.0000 0.0000 0.0000 0.1920 0.0000 23.3450
#
#
#
# Elastic Compliance Matrix: (Units=1/GPa)
#
#
# Indices 1 2 3 4 5 6 
#
# 1 0.015562 -0.012258 0.001047 0.000000 -0.000456 0.000000
# 2 -0.012258 0.047440 -0.017557 0.000000 0.015870 0.000000
# 3 0.001047 -0.017557 0.019401 0.000000 -0.006749 0.000000
# 4 0.000000 0.000000 0.000000 0.050668 0.000000 -0.000417
# 5 -0.000456 0.015870 -0.006749 0.000000 0.033598 0.000000
# 6 0.000000 0.000000 0.000000 -0.000417 0.000000 0.042839
#
#
# Mechanical properties :
#
#
# Convention : Reuss Voigt Hill
#
# Bulk Modulus (GPa) = 40.21177 46.40321 43.30749
# Shear Modulus (GPa) = 18.15978 24.41893 21.28936
#
# Velocity S-wave (km/s) = 2.97135 3.44558 3.21721
# Velocity P-wave (km/s) = 5.59661 6.19594 5.90388
#
# Compressibility (1/GPa) = 0.02486834
#
# Stress axis : x y z
#
# Youngs Moduli (GPa) = 64.25703 21.07912 51.54353
#
# Poissons Ratio (x) = 0.25838 -0.05399
# Poissons Ratio (y) = 0.78765 0.90497
# Poissons Ratio (z) = -0.06731 0.37009
#
# Static dielectric constant tensor:
#      x y z
#    x 1.756300 0.000000 -0.015200 
#    y 0.000000 1.763770 0.000000 
#    z -0.015200 0.000000 1.751640 
# 
# From -- ./inp_files/234698.got.cif
#   From: 2010.05.17/outbox.cif.g08.bks.cpg/sg12_118_cif.got.tgz:234698.got - 2010.06.03 13:09:07.
