data_PCOD9209298
_publ_section_title
;
Structure prediction by ZEFSAII (Michael W. Deem and Ramdas Pophale) SiO2 
 PCOD9209298
Probable space group: C 2/M
;
_chemical_formula_sum "Si O2"
_cell_formula_units_Z 40
_cell_length_a 15.889395
_cell_length_b 8.832940
_cell_length_c 14.942301
_cell_angle_alpha 90.000000
_cell_angle_beta 105.843839
_cell_angle_gamma 90.000000
_cell_volume 2017.480889
_symmetry_space_group_name_H-M "C 2/M"
_symmetry_group_IT_number 12
_symmetry_cell_setting 'monoclinic'
loop_
_space_group_symop_operation_xyz
x,y,z
-x,y,-z
-x,-y,-z
x,-y,z
1/2+x,1/2+y,z
1/2-x,1/2+y,-z
1/2-x,1/2-y,-z
1/2+x,1/2-y,z
loop_
_atom_site_type_symbol
_atom_site_label
_atom_site_fract_x
_atom_site_fract_y
_atom_site_fract_z
Si Si1 0.787345 0.819635 0.786036
Si Si2 0.017310 0.178627 0.400913
Si Si3 0.302096 0.179346 0.597982
Si Si4 0.613922 0.679268 0.795782
Si Si5 0.973480 0.677589 0.888797
O O1 0.773206 0.754535 0.682288
O O2 0.706978 0.761205 0.822307
O O3 0.880227 0.755568 0.845410
O O4 0.789785 0.000000 0.784583
O O5 0.096425 0.278993 0.387539
O O6 0.000000 0.210226 0.500000
O O7 0.933107 0.202211 0.314200
O O8 0.041825 0.000000 0.400108
O O9 0.250000 0.250000 0.500000
O O10 0.288610 0.000000 0.597928
O O11 0.625470 0.500000 0.812186
O O12 0.547068 0.744804 0.849095
O O13 0.966677 0.500000 0.863056
O O14 0.000000 0.690072 0.000000
#
# Coordination Sequence:
#
# PCOD9209298 Si02
#       5
#     8   8   8   8   8
#     4  12  25  43  68  98 135 176 223 275 332 398
#     4  10  21  38  61  92 131 172 217 268 328 393
#     4  12  24  39  62  92 132 175 223 274 328 393
#     4  11  23  41  68  99 135 176 220 275 334 396
#     4  11  25  46  71  99 133 174 223 280 339 398
#
# _framework density 19.826706000000001
#
# number of rings (size 3 to 8) (size 9 to 14) (size 15 to 20)
#    0.000    0.800    2.000    6.000    0.000    5.200 
#    0.000    0.000    0.000    0.000    0.000    0.000 
#    0.000    0.000    0.000    0.000    0.000    0.000 
#
# Total GULP energy -111967.226939 kJ/mol
# GULP energy per Si atom -5598.361347 kJ/mol
# Density = 1.978158 g / cm^3
# Si number density = 19.826706 Si / 1000 Ang^3
#
#
#
# Elastic Constant Matrix: (Units=GPa)
#
#
# Indices 1 2 3 4 5 6 
#
# 1 156.6519 79.9409 47.8793 0.0000 7.8621 0.0000
# 2 79.9409 159.1226 57.1855 0.0000 8.6878 0.0000
# 3 47.8793 57.1855 72.3831 0.0000 -1.9451 0.0000
# 4 0.0000 0.0000 0.0000 26.3475 0.0000 8.6415
# 5 7.8621 8.6878 -1.9451 0.0000 22.2045 0.0000
# 6 0.0000 0.0000 0.0000 8.6415 0.0000 25.5397
#
#
#
# Elastic Compliance Matrix: (Units=1/GPa)
#
#
# Indices 1 2 3 4 5 6 
#
# 1 0.009254 -0.003210 -0.003648 0.000000 -0.002340 0.000000
# 2 -0.003210 0.010269 -0.006081 0.000000 -0.003414 0.000000
# 3 -0.003648 -0.006081 0.021181 0.000000 0.005527 0.000000
# 4 0.000000 0.000000 0.000000 0.042692 0.000000 -0.014445
# 5 -0.002340 -0.003414 0.005527 0.000000 0.047684 0.000000
# 6 0.000000 0.000000 0.000000 -0.014445 0.000000 0.044042
#
#
# Mechanical properties :
#
#
# Convention : Reuss Voigt Hill
#
# Bulk Modulus (GPa) = 67.45092 84.24102 75.84597
# Shear Modulus (GPa) = 24.27835 28.36178 26.32007
#
# Velocity S-wave (km/s) = 3.50312 3.78628 3.64745
# Velocity P-wave (km/s) = 7.10328 7.85464 7.48839
#
# Compressibility (1/GPa) = 0.01482559
#
# Stress axis : x y z
#
# Youngs Moduli (GPa) = 108.05751 97.37843 47.21143
#
# Poissons Ratio (x) = 0.31263 0.17223
# Poissons Ratio (y) = 0.34692 0.28710
# Poissons Ratio (z) = 0.39419 0.59218
#
# Static dielectric constant tensor:
#      x y z
#    x 1.682980 0.000000 -0.000490 
#    y 0.000000 1.661960 0.000000 
#    z -0.000490 0.000000 1.698600 
# 
# From -- ./inp_files/211186.got.cif
#   From: 2010.05.17/outbox.cif.g08.bks.cpg/sg12_106_cif.got.tgz:211186.got - 2010.06.03 13:09:07.
