data_PCOD9209132
_publ_section_title
;
Structure prediction by ZEFSAII (Michael W. Deem and Ramdas Pophale) SiO2 
 PCOD9209132
Probable space group: C 2/M
;
_chemical_formula_sum "Si O2"
_cell_formula_units_Z 40
_cell_length_a 26.524759
_cell_length_b 10.374129
_cell_length_c 10.113034
_cell_angle_alpha 90.000000
_cell_angle_beta 46.031990
_cell_angle_gamma 90.000000
_cell_volume 2002.869613
_symmetry_space_group_name_H-M "C 2/M"
_symmetry_group_IT_number 12
_symmetry_cell_setting 'monoclinic'
loop_
_space_group_symop_operation_xyz
x,y,z
-x,y,-z
-x,-y,-z
x,-y,z
1/2+x,1/2+y,z
1/2-x,1/2+y,-z
1/2-x,1/2-y,-z
1/2+x,1/2-y,z
loop_
_atom_site_type_symbol
_atom_site_label
_atom_site_fract_x
_atom_site_fract_y
_atom_site_fract_z
Si Si1 0.072095 0.646576 0.793253
Si Si2 0.942172 0.147010 0.402542
Si Si3 0.218676 0.353557 0.655955
Si Si4 0.784762 0.646892 0.032455
Si Si5 0.566251 0.236704 0.312265
O O1 0.068531 0.500000 0.744872
O O2 0.083251 0.750665 0.658254
O O3 0.135532 0.649685 0.780805
O O4 0.000000 0.673200 0.000000
O O5 0.909726 0.176080 0.606535
O O6 0.024851 0.176684 0.280633
O O7 0.930791 0.000000 0.384437
O O8 0.242618 0.500000 0.582594
O O9 0.250000 0.250000 0.500000
O O10 0.233910 0.326712 0.781089
O O11 0.764825 0.500000 0.036741
O O12 0.750000 0.750000 0.000000
O O13 0.868923 0.660840 0.862225
O O14 0.500000 0.160846 0.500000
#
# Coordination Sequence:
#
# PCOD9209132 Si02
#       5
#     8   8   8   8   8
#     4  10  21  38  61  87 121 159 205 259 315 372
#     4   9  19  35  60  91 123 157 201 256 311 365
#     4  10  24  44  63  89 127 168 209 257 312 374
#     4  11  25  44  66  94 127 167 213 264 316 375
#     4   8  20  38  61  91 125 157 203 254 316 367
#
# _framework density 19.971344999999999
#
# number of rings (size 3 to 8) (size 9 to 14) (size 15 to 20)
#    1.200    1.000    0.000    2.400    2.800    7.200 
#    0.000    2.000    0.000    0.000    0.000    0.000 
#    0.000    0.000    0.000    0.000    0.000    0.000 
#
# Total GULP energy -111473.921796 kJ/mol
# GULP energy per Si atom -5573.696090 kJ/mol
# Density = 1.992589 g / cm^3
# Si number density = 19.971345 Si / 1000 Ang^3
#
#
#
# Elastic Constant Matrix: (Units=GPa)
#
#
# Indices 1 2 3 4 5 6 
#
# 1 83.4448 62.2992 19.3616 0.0000 23.0123 0.0000
# 2 62.2992 137.2147 52.8487 0.0000 30.8994 0.0000
# 3 19.3616 52.8487 76.1423 0.0000 -1.2927 0.0000
# 4 0.0000 0.0000 0.0000 22.3340 0.0000 1.1987
# 5 23.0123 30.8994 -1.2927 0.0000 26.4267 0.0000
# 6 0.0000 0.0000 0.0000 1.1987 0.0000 27.9640
#
#
#
# Elastic Compliance Matrix: (Units=1/GPa)
#
#
# Indices 1 2 3 4 5 6 
#
# 1 0.019620 -0.006542 -0.000609 0.000000 -0.009466 0.000000
# 2 -0.006542 0.018247 -0.011276 0.000000 -0.016190 0.000000
# 3 -0.000609 -0.011276 0.021365 0.000000 0.014760 0.000000
# 4 0.000000 0.000000 0.000000 0.044878 0.000000 -0.001924
# 5 -0.009466 -0.016190 0.014760 0.000000 0.065736 0.000000
# 6 0.000000 0.000000 0.000000 -0.001924 0.000000 0.035843
#
#
# Mechanical properties :
#
#
# Convention : Reuss Voigt Hill
#
# Bulk Modulus (GPa) = 44.68708 62.86899 53.77803
# Shear Modulus (GPa) = 19.99980 26.16442 23.08211
#
# Velocity S-wave (km/s) = 3.16796 3.62345 3.40334
# Velocity P-wave (km/s) = 5.98377 7.00384 6.51381
#
# Compressibility (1/GPa) = 0.02237783
#
# Stress axis : x y z
#
# Youngs Moduli (GPa) = 50.96909 54.80380 46.80454
#
# Poissons Ratio (x) = 0.35850 0.02852
# Poissons Ratio (y) = 0.33342 0.52778
# Poissons Ratio (z) = 0.03105 0.61798
#
# Static dielectric constant tensor:
#      x y z
#    x 1.725550 0.000000 -0.040510 
#    y 0.000000 1.683410 0.000000 
#    z -0.040510 0.000000 1.723490 
# 
# From -- ./inp_files/186196.got.cif
#   From: 2010.05.17/outbox.cif.g08.bks.cpg/sg12_94_cif.got.tgz:186196.got - 2010.06.03 13:09:07.
