data_PCOD9209639
_publ_section_title
;
Structure prediction by ZEFSAII (Michael W. Deem and Ramdas Pophale) SiO2 
 PCOD9209639
Probable space group: C 2/M
;
_chemical_formula_sum "Si O2"
_cell_formula_units_Z 46
_cell_length_a 17.665252
_cell_length_b 17.935238
_cell_length_c 7.921129
_cell_angle_alpha 90.000000
_cell_angle_beta 113.575702
_cell_angle_gamma 90.000000
_cell_volume 2300.180421
_symmetry_space_group_name_H-M "C 2/M"
_symmetry_group_IT_number 12
_symmetry_cell_setting 'monoclinic'
loop_
_space_group_symop_operation_xyz
x,y,z
-x,y,-z
-x,-y,-z
x,-y,z
1/2+x,1/2+y,z
1/2-x,1/2+y,-z
1/2-x,1/2-y,-z
1/2+x,1/2-y,z
loop_
_atom_site_type_symbol
_atom_site_label
_atom_site_fract_x
_atom_site_fract_y
_atom_site_fract_z
Si Si1 0.813491 0.240738 0.795445
Si Si2 0.000000 0.500000 0.000000
Si Si3 0.000000 0.337889 0.500000
Si Si4 0.612092 0.115718 0.304688
Si Si5 0.640432 0.734941 0.779576
Si Si6 0.205181 0.917284 0.393607
Si Si7 0.404343 0.579710 0.367453
O O1 0.867313 0.299494 0.736926
O O2 0.715419 0.257990 0.712755
O O3 0.817888 0.154907 0.739313
O O4 0.836606 0.255960 0.010360
O O5 0.067837 0.565410 0.123047
O O6 0.951764 0.384704 0.596830
O O7 0.933604 0.285451 0.350169
O O8 0.700798 0.088340 0.453490
O O9 0.616630 0.648978 0.765219
O O10 0.146933 0.914711 0.505668
O O11 0.195084 0.000000 0.304948
O O12 0.500000 0.582488 0.500000
O O13 0.385093 0.500000 0.269892
#
# Coordination Sequence:
#
# PCOD9209639 Si02
#       7
#     8   2   4   8   8   8   8
#     4  11  24  42  66  98 130 177 234 277 340 406
#     4  12  28  46  68 104 144 174 232 278 350 386
#     4  12  24  41  67  96 134 184 232 278 343 402
#     4  12  24  45  66  98 137 187 223 282 331 418
#     4  11  22  39  66  95 128 174 229 281 336 406
#     4  11  22  43  69  94 131 181 226 278 348 406
#     4  10  21  38  63  93 124 166 219 277 344 407
#
# _framework density 19.998431
#
# number of rings (size 3 to 8) (size 9 to 14) (size 15 to 20)
#    0.000    0.870    5.217    2.609    0.000    1.043 
#    0.000    0.000    0.000    3.130    0.000    0.000 
#    0.000    0.000    0.000    0.000    0.000    0.000 
#
# Total GULP energy -128105.095293 kJ/mol
# GULP energy per Si atom -5569.786752 kJ/mol
# Density = 1.995291 g / cm^3
# Si number density = 19.998431 Si / 1000 Ang^3
#
#
#
# Elastic Constant Matrix: (Units=GPa)
#
#
# Indices 1 2 3 4 5 6 
#
# 1 118.8393 13.8968 16.3662 0.0000 11.2017 0.0000
# 2 13.8968 114.1627 15.4229 0.0000 5.5374 0.0000
# 3 16.3662 15.4229 48.4617 0.0000 13.3449 0.0000
# 4 0.0000 0.0000 0.0000 26.8234 0.0000 -3.7299
# 5 11.2017 5.5374 13.3449 0.0000 23.0247 0.0000
# 6 0.0000 0.0000 0.0000 -3.7299 0.0000 22.5519
#
#
#
# Elastic Compliance Matrix: (Units=1/GPa)
#
#
# Indices 1 2 3 4 5 6 
#
# 1 0.009060 -0.000684 -0.001991 0.000000 -0.003089 0.000000
# 2 -0.000684 0.009212 -0.002597 0.000000 -0.000378 0.000000
# 3 -0.001991 -0.002597 0.025815 0.000000 -0.013369 0.000000
# 4 0.000000 0.000000 0.000000 0.038158 0.000000 0.006311
# 5 -0.003089 -0.000378 -0.013369 0.000000 0.052774 0.000000
# 6 0.000000 0.000000 0.000000 0.006311 0.000000 0.045386
#
#
# Mechanical properties :
#
#
# Convention : Reuss Voigt Hill
#
# Bulk Modulus (GPa) = 29.81250 41.42616 35.61933
# Shear Modulus (GPa) = 24.73652 30.19854 27.46753
#
# Velocity S-wave (km/s) = 3.52081 3.89015 3.71008
# Velocity P-wave (km/s) = 5.60963 6.39823 6.01686
#
# Compressibility (1/GPa) = 0.03354298
#
# Stress axis : x y z
#
# Youngs Moduli (GPa) = 110.37356 108.55633 38.73689
#
# Poissons Ratio (x) = 0.07425 0.07714
# Poissons Ratio (y) = 0.07550 0.10059
# Poissons Ratio (z) = 0.21980 0.28188
#
# Static dielectric constant tensor:
#      x y z
#    x 1.693430 0.000000 0.021310 
#    y 0.000000 1.633910 0.000000 
#    z 0.021310 0.000000 1.655870 
# 
# From -- ./inp_files/75479.got.cif
#   From: 2010.05.17/outbox.cif.g08.bks.cpg/sg12_38_cif.got.tgz:75479.got - 2010.06.03 13:09:07.
