data_PCOD9209975
_publ_section_title
;
Structure prediction by ZEFSAII (Michael W. Deem and Ramdas Pophale) SiO2 
 PCOD9209975
Probable space group: C 2/M
;
_chemical_formula_sum "Si O2"
_cell_formula_units_Z 48
_cell_length_a 13.807358
_cell_length_b 11.184155
_cell_length_c 16.879329
_cell_angle_alpha 90.000000
_cell_angle_beta 103.545642
_cell_angle_gamma 90.000000
_cell_volume 2534.062098
_symmetry_space_group_name_H-M "C 2/M"
_symmetry_group_IT_number 12
_symmetry_cell_setting 'monoclinic'
loop_
_space_group_symop_operation_xyz
x,y,z
-x,y,-z
-x,-y,-z
x,-y,z
1/2+x,1/2+y,z
1/2-x,1/2+y,-z
1/2-x,1/2-y,-z
1/2+x,1/2-y,z
loop_
_atom_site_type_symbol
_atom_site_label
_atom_site_fract_x
_atom_site_fract_y
_atom_site_fract_z
Si Si1 0.596939 0.142304 0.842274
Si Si2 0.005566 0.860716 0.591022
Si Si3 0.378970 0.863331 0.983234
Si Si4 0.311702 0.776429 0.300949
Si Si5 0.868860 0.644729 0.806234
Si Si6 0.276821 0.365090 0.559884
O O1 0.661625 0.163198 0.777167
O O2 0.482170 0.183265 0.808230
O O3 0.589726 0.000000 0.854048
O O4 0.639187 0.193261 0.933874
O O5 0.893901 0.852871 0.602154
O O6 0.000000 0.812648 0.500000
O O7 0.090138 0.796155 0.656088
O O8 0.033385 0.000000 0.591001
O O9 0.346759 0.812530 0.892338
O O10 0.340664 0.000000 0.977051
O O11 0.500000 0.868546 0.000000
O O12 0.215243 0.694347 0.267316
O O13 0.285252 0.857554 0.371134
O O14 0.866599 0.500000 0.805191
O O15 0.263984 0.500000 0.521580
O O16 0.250000 0.250000 0.500000
#
# Coordination Sequence:
#
# PCOD9209975 Si02
#       6
#     8   8   8   8   8   8
#     4   9  18  33  51  75 111 144 173 220 277 321
#     4  10  21  39  58  76 106 146 182 222 285 349
#     4   7  12  27  49  72 104 145 178 211 261 318
#     4  12  21  33  56  84 108 137 181 234 277 321
#     4   9  18  32  53  80 108 142 185 221 258 319
#     4  11  24  42  61  82 109 144 187 231 284 344
#
# _framework density 18.941918000000001
#
# number of rings (size 3 to 8) (size 9 to 14) (size 15 to 20)
#    0.000    2.333    1.667    4.000    0.000    1.333 
#    0.000    2.500    0.000    0.000    0.000    0.000 
#    0.000   21.333    0.000    0.000    0.000    0.000 
#
# Total GULP energy -133640.120108 kJ/mol
# GULP energy per Si atom -5568.338338 kJ/mol
# Density = 1.889881 g / cm^3
# Si number density = 18.941918 Si / 1000 Ang^3
#
#
#
# Elastic Constant Matrix: (Units=GPa)
#
#
# Indices 1 2 3 4 5 6 
#
# 1 63.3930 22.5702 18.4945 0.0000 -10.1195 0.0000
# 2 22.5702 55.8939 28.0298 0.0000 5.5493 0.0000
# 3 18.4945 28.0298 80.1476 0.0000 -10.9641 0.0000
# 4 0.0000 0.0000 0.0000 18.8501 0.0000 1.4808
# 5 -10.1195 5.5493 -10.9641 0.0000 42.8281 0.0000
# 6 0.0000 0.0000 0.0000 1.4808 0.0000 14.9661
#
#
#
# Elastic Compliance Matrix: (Units=1/GPa)
#
#
# Indices 1 2 3 4 5 6 
#
# 1 0.019801 -0.008029 -0.001014 0.000000 0.005459 0.000000
# 2 -0.008029 0.026003 -0.008251 0.000000 -0.007379 0.000000
# 3 -0.001014 -0.008251 0.016280 0.000000 0.004997 0.000000
# 4 0.000000 0.000000 0.000000 0.053466 0.000000 -0.005290
# 5 0.005459 -0.007379 0.004997 0.000000 0.026874 0.000000
# 6 0.000000 0.000000 0.000000 -0.005290 0.000000 0.067341
#
#
# Mechanical properties :
#
#
# Convention : Reuss Voigt Hill
#
# Bulk Modulus (GPa) = 36.36881 37.51372 36.94126
# Shear Modulus (GPa) = 19.72244 24.01820 21.87032
#
# Velocity S-wave (km/s) = 3.23027 3.56475 3.40163
# Velocity P-wave (km/s) = 5.75802 6.06555 5.91378
#
# Compressibility (1/GPa) = 0.02749609
#
# Stress axis : x y z
#
# Youngs Moduli (GPa) = 50.50361 38.45668 61.42452
#
# Poissons Ratio (x) = 0.30876 0.06231
# Poissons Ratio (y) = 0.40549 0.50680
# Poissons Ratio (z) = 0.05123 0.31730
#
# Static dielectric constant tensor:
#      x y z
#    x 1.664520 0.000000 -0.031570 
#    y 0.000000 1.650600 0.000000 
#    z -0.031570 0.000000 1.715710 
# 
# From -- ./inp_files/212526.got.cif
#   From: 2010.05.17/outbox.cif.g08.bks.cpg/sg12_107_cif.got.tgz:212526.got - 2010.06.03 13:09:07.
