data_PCOD9209188
_publ_section_title
;
Structure prediction by ZEFSAII (Michael W. Deem and Ramdas Pophale) SiO2 
 PCOD9209188
Probable space group: C 2/M
;
_chemical_formula_sum "Si O2"
_cell_formula_units_Z 40
_cell_length_a 12.499013
_cell_length_b 15.026701
_cell_length_c 11.531710
_cell_angle_alpha 90.000000
_cell_angle_beta 64.993155
_cell_angle_gamma 90.000000
_cell_volume 1962.838603
_symmetry_space_group_name_H-M "C 2/M"
_symmetry_group_IT_number 12
_symmetry_cell_setting 'monoclinic'
loop_
_space_group_symop_operation_xyz
x,y,z
-x,y,-z
-x,-y,-z
x,-y,z
1/2+x,1/2+y,z
1/2-x,1/2+y,-z
1/2-x,1/2-y,-z
1/2+x,1/2-y,z
loop_
_atom_site_type_symbol
_atom_site_label
_atom_site_fract_x
_atom_site_fract_y
_atom_site_fract_z
Si Si1 0.990201 0.660173 0.313974
Si Si2 0.081717 0.839502 0.785824
Si Si3 0.672227 0.102426 0.411778
Si Si4 0.096340 0.600298 0.036847
Si Si5 0.155244 0.104868 0.001359
O O1 0.952493 0.749655 0.265201
O O2 0.880337 0.623368 0.437815
O O3 0.098331 0.664359 0.356434
O O4 0.039067 0.598592 0.189558
O O5 0.188638 0.883276 0.665413
O O6 0.957846 0.889569 0.863784
O O7 0.132038 0.839736 0.894884
O O8 0.643708 0.000000 0.395551
O O9 0.114252 0.500000 0.982680
O O10 0.226526 0.638677 0.990939
O O11 0.000000 0.646696 0.000000
O O12 0.172095 0.000000 0.960200
#
# Coordination Sequence:
#
# PCOD9209188 Si02
#       5
#     8   8   8   8   8
#     4  11  23  36  60  94 125 159 214 265 315 356
#     4  11  22  36  62  95 128 157 207 268 315 362
#     4  11  22  43  67  86 125 178 220 252 303 391
#     4  10  21  38  61  88 124 165 211 259 310 378
#     4  10  21  40  63  91 127 174 217 246 311 398
#
# _framework density 20.37865
#
# number of rings (size 3 to 8) (size 9 to 14) (size 15 to 20)
#    0.000    1.400    2.000    5.400    2.800    2.400 
#    0.000    0.000    0.000    0.000    0.000   26.600 
#    0.000    0.000    0.000    0.000    0.000    0.000 
#
# Total GULP energy -111545.468486 kJ/mol
# GULP energy per Si atom -5577.273424 kJ/mol
# Density = 2.033227 g / cm^3
# Si number density = 20.378650 Si / 1000 Ang^3
#
#
#
# Elastic Constant Matrix: (Units=GPa)
#
#
# Indices 1 2 3 4 5 6 
#
# 1 168.7858 37.8770 62.2751 0.0000 -16.8329 0.0000
# 2 37.8770 84.9589 6.4333 0.0000 3.1146 0.0000
# 3 62.2751 6.4333 97.7715 0.0000 -31.8458 0.0000
# 4 0.0000 0.0000 0.0000 34.2815 0.0000 5.3352
# 5 -16.8329 3.1146 -31.8458 0.0000 38.0188 0.0000
# 6 0.0000 0.0000 0.0000 5.3352 0.0000 19.4868
#
#
#
# Elastic Compliance Matrix: (Units=1/GPa)
#
#
# Indices 1 2 3 4 5 6 
#
# 1 0.008654 -0.003431 -0.005428 0.000000 -0.000434 0.000000
# 2 -0.003431 0.013329 0.000630 0.000000 -0.002084 0.000000
# 3 -0.005428 0.000630 0.017663 0.000000 0.012341 0.000000
# 4 0.000000 0.000000 0.000000 0.030468 0.000000 -0.008342
# 5 -0.000434 -0.002084 0.012341 0.000000 0.036618 0.000000
# 6 0.000000 0.000000 0.000000 -0.008342 0.000000 0.053601
#
#
# Mechanical properties :
#
#
# Convention : Reuss Voigt Hill
#
# Bulk Modulus (GPa) = 43.12597 62.74299 52.93448
# Shear Modulus (GPa) = 27.09724 34.68615 30.89169
#
# Velocity S-wave (km/s) = 3.65044 4.13011 3.89766
# Velocity P-wave (km/s) = 6.24307 7.32114 6.80349
#
# Compressibility (1/GPa) = 0.02318789
#
# Stress axis : x y z
#
# Youngs Moduli (GPa) = 115.55367 75.02520 56.61530
#
# Poissons Ratio (x) = 0.25743 0.30728
# Poissons Ratio (y) = 0.39650 -0.03566
# Poissons Ratio (z) = 0.62718 -0.04726
#
# Static dielectric constant tensor:
#      x y z
#    x 1.761620 0.000000 -0.001390 
#    y 0.000000 1.753790 0.000000 
#    z -0.001390 0.000000 1.717340 
# 
# From -- ./inp_files/129603.got.cif
#   From: 2010.05.17/outbox.cif.g08.bks.cpg/sg12_65_cif.got.tgz:129603.got - 2010.06.03 13:09:07.
