data_PCOD9209081
_publ_section_title
;
Structure prediction by ZEFSAII (Michael W. Deem and Ramdas Pophale) SiO2 
 PCOD9209081
Probable space group: C 2/M
;
_chemical_formula_sum "Si O2"
_cell_formula_units_Z 40
_cell_length_a 14.257192
_cell_length_b 18.476710
_cell_length_c 12.117912
_cell_angle_alpha 90.000000
_cell_angle_beta 31.026314
_cell_angle_gamma 90.000000
_cell_volume 1645.347176
_symmetry_space_group_name_H-M "C 2/M"
_symmetry_group_IT_number 12
_symmetry_cell_setting 'monoclinic'
loop_
_space_group_symop_operation_xyz
x,y,z
-x,y,-z
-x,-y,-z
x,-y,z
1/2+x,1/2+y,z
1/2-x,1/2+y,-z
1/2-x,1/2-y,-z
1/2+x,1/2-y,z
loop_
_atom_site_type_symbol
_atom_site_label
_atom_site_fract_x
_atom_site_fract_y
_atom_site_fract_z
Si Si1 0.698186 0.795704 0.346728
Si Si2 0.924564 0.918581 0.203625
Si Si3 0.205822 0.871691 0.328751
Si Si4 0.267893 0.327086 0.039615
Si Si5 0.531856 0.916108 0.138168
O O1 0.500000 0.813613 0.500000
O O2 0.775649 0.855592 0.348940
O O3 0.697397 0.711778 0.378605
O O4 0.811605 0.802843 0.119706
O O5 0.865083 0.000000 0.292569
O O6 0.000000 0.925194 0.000000
O O7 0.075362 0.887041 0.135707
O O8 0.325752 0.910954 0.301119
O O9 0.000000 0.892599 0.500000
O O10 0.333605 0.882221 0.091586
O O11 0.086273 0.370201 0.190322
O O12 0.250000 0.250000 0.000000
O O13 0.576970 0.000000 0.107307
#
# Coordination Sequence:
#
# PCOD9209081 Si02
#       5
#     8   8   8   8   8
#     4  10  21  38  61  86 115 155 198 240 294 357
#     4   9  19  35  57  81 113 156 194 235 290 350
#     4  10  21  40  61  89 119 159 201 240 297 360
#     4  11  20  37  61  85 115 151 198 245 289 348
#     4  11  23  38  62  90 119 158 197 246 303 351
#
# _framework density 24.310977999999999
#
# number of rings (size 3 to 8) (size 9 to 14) (size 15 to 20)
#    0.000    1.800    2.000    3.000    5.600    2.800 
#    3.600    3.000    0.000    0.000    0.000    0.000 
#    0.000    0.000    0.000    0.000    0.000    0.000 
#
# Total GULP energy -111587.765366 kJ/mol
# GULP energy per Si atom -5579.388268 kJ/mol
# Density = 2.425565 g / cm^3
# Si number density = 24.310978 Si / 1000 Ang^3
#
#
#
# Elastic Constant Matrix: (Units=GPa)
#
#
# Indices 1 2 3 4 5 6 
#
# 1 102.7334 69.4759 31.0800 -0.0076 -27.5661 -0.0037
# 2 69.4759 164.9705 37.6451 -0.0249 -34.5878 -0.0026
# 3 31.0800 37.6451 88.7953 -0.0028 -32.2391 0.0029
# 4 -0.0076 -0.0249 -0.0028 5.4383 0.0078 -15.3697
# 5 -27.5661 -34.5878 -32.2391 0.0078 41.7016 0.0017
# 6 -0.0037 -0.0026 0.0029 -15.3697 0.0017 31.5609
#
#
#
# Elastic Compliance Matrix: (Units=1/GPa)
#
#
# Indices 1 2 3 4 5 6 
#
# 1 0.014708 -0.004918 -0.001410 0.000015 0.004554 0.000009
# 2 -0.004918 0.009084 -0.000799 -0.000078 0.003666 -0.000038
# 3 -0.001410 -0.000799 0.016008 0.000051 0.010781 0.000023
# 4 0.000015 -0.000078 0.000051 -0.488625 0.000086 -0.237954
# 5 0.004554 0.003666 0.010781 0.000086 0.038365 0.000040
# 6 0.000009 -0.000038 0.000023 -0.237954 0.000040 -0.084196
#
#
# Mechanical properties :
#
#
# Convention : Reuss Voigt Hill
#
# Bulk Modulus (GPa) = 39.14310 70.32237 54.73273
# Shear Modulus (GPa) = -10.59576 30.29337 9.84880
#
# Velocity S-wave (km/s) = -2.08995 3.53381 2.01494
# Velocity P-wave (km/s) = 3.21125 6.75569 5.28921
#
# Compressibility (1/GPa) = 0.02554729
#
# Stress axis : x y z
#
# Youngs Moduli (GPa) = 67.98983 110.08891 62.46705
#
# Poissons Ratio (x) = 0.54139 0.08807
# Poissons Ratio (y) = 0.33435 0.04990
# Poissons Ratio (z) = 0.09586 0.08794
#
# Static dielectric constant tensor:
#      x y z
#    x 1.978990 0.000000 0.157230 
#    y 0.000000 1.884520 0.000050 
#    z 0.157230 0.000050 2.415840 
# 
# From -- ./inp_files/216625.got.cif
#   From: 2010.05.17/outbox.cif.g08.bks.cpg/sg12_109_cif.got.tgz:216625.got - 2010.06.03 13:09:07.
