data_PCOD9209755
_publ_section_title
;
Structure prediction by ZEFSAII (Michael W. Deem and Ramdas Pophale) SiO2 
 PCOD9209755
Probable space group: C 2/M
;
_chemical_formula_sum "Si O2"
_cell_formula_units_Z 32
_cell_length_a 7.373923
_cell_length_b 13.034134
_cell_length_c 18.682974
_cell_angle_alpha 90.000000
_cell_angle_beta 39.932263
_cell_angle_gamma 90.000000
_cell_volume 1152.608080
_symmetry_space_group_name_H-M "C 2/M"
_symmetry_group_IT_number 12
_symmetry_cell_setting 'monoclinic'
loop_
_space_group_symop_operation_xyz
x,y,z
-x,y,-z
-x,-y,-z
x,-y,z
1/2+x,1/2+y,z
1/2-x,1/2+y,-z
1/2-x,1/2-y,-z
1/2+x,1/2-y,z
loop_
_atom_site_type_symbol
_atom_site_label
_atom_site_fract_x
_atom_site_fract_y
_atom_site_fract_z
Si Si1 0.231821 0.891302 0.867614
Si Si2 0.691850 0.339044 0.129392
Si Si3 0.086580 0.837282 0.649389
Si Si4 0.140978 0.386413 0.572644
O O1 0.369235 0.782412 0.843848
O O2 0.047647 0.882092 0.850422
O O3 0.386747 0.000000 0.820824
O O4 0.000000 0.896949 0.000000
O O5 0.657203 0.372799 0.222123
O O6 0.000000 0.354937 0.000000
O O7 0.121227 0.713860 0.628270
O O8 0.361186 0.876322 0.608752
O O9 0.106324 0.876124 0.562076
O O10 0.150718 0.500000 0.600819
#
# Coordination Sequence:
#
# PCOD9209755 Si02
#       4
#     8   8   8   8
#     4  10  22  40  60  84 120 167 208 242 294 360
#     4  11  22  38  62  92 128 162 198 251 305 364
#     4  10  21  38  64  94 119 159 211 247 302 372
#     4  10  22  43  66  87 121 162 204 260 306 349
#
# _framework density 27.763124000000001
#
# number of rings (size 3 to 8) (size 9 to 14) (size 15 to 20)
#    0.000    1.750    0.000    6.000    0.000    5.500 
#    0.000   12.500    0.000   21.750    0.000    0.000 
#    0.000    0.000    0.000    0.000    0.000    0.000 
#
# Total GULP energy -89532.232407 kJ/mol
# GULP energy per Si atom -5595.764525 kJ/mol
# Density = 2.769993 g / cm^3
# Si number density = 27.763124 Si / 1000 Ang^3
#
#
#
# Elastic Constant Matrix: (Units=GPa)
#
#
# Indices 1 2 3 4 5 6 
#
# 1 88.8320 27.3495 25.2396 -0.0040 -7.4954 0.0036
# 2 27.3495 222.4461 16.0855 -0.0040 8.2831 -0.0004
# 3 25.2396 16.0855 238.3117 -0.0168 60.5971 0.0115
# 4 -0.0040 -0.0040 -0.0168 -45.6810 0.0079 -55.0058
# 5 -7.4954 8.2831 60.5971 0.0079 42.0180 -0.0090
# 6 0.0036 -0.0004 0.0115 -55.0058 -0.0090 -7.7177
#
#
#
# Elastic Compliance Matrix: (Units=1/GPa)
#
#
# Indices 1 2 3 4 5 6 
#
# 1 0.013267 -0.001673 -0.003123 -0.000001 0.007201 0.000002
# 2 -0.001673 0.004742 0.000270 0.000000 -0.001622 -0.000001
# 3 -0.003123 0.000270 0.007365 0.000004 -0.011231 -0.000007
# 4 -0.000001 0.000000 0.000004 0.002887 -0.000011 -0.020578
# 5 0.007201 -0.001622 -0.011231 -0.000011 0.041601 0.000018
# 6 0.000002 -0.000001 -0.000007 -0.020578 0.000018 0.017089
#
#
# Mechanical properties :
#
#
# Convention : Reuss Voigt Hill
#
# Bulk Modulus (GPa) = 61.27410 76.32655 68.80033
# Shear Modulus (GPa) = 49.28740 29.78487 39.53614
#
# Velocity S-wave (km/s) = 4.21798 3.27895 3.77776
# Velocity P-wave (km/s) = 6.77053 6.47202 6.62296
#
# Compressibility (1/GPa) = 0.01632011
#
# Stress axis : x y z
#
# Youngs Moduli (GPa) = 75.37271 210.87555 135.78427
#
# Poissons Ratio (x) = 0.35290 0.42408
# Poissons Ratio (y) = 0.12614 -0.03662
# Poissons Ratio (z) = 0.23540 -0.05686
#
# Static dielectric constant tensor:
#      x y z
#    x 2.064570 0.000000 -0.028970 
#    y 0.000000 2.159220 0.000000 
#    z -0.028970 0.000000 2.237140 
# 
# From -- ./inp_files/299494.got.cif
#   From: 2010.05.17/outbox.cif.g08.bks.cpg/sg12_150_cif.got.tgz:299494.got - 2010.06.03 13:09:07.
