data_PCOD9209938
_publ_section_title
;
Structure prediction by ZEFSAII (Michael W. Deem and Ramdas Pophale) SiO2 
 PCOD9209938
Probable space group: C 2/M
;
_chemical_formula_sum "Si O2"
_cell_formula_units_Z 58
_cell_length_a 20.699234
_cell_length_b 15.819969
_cell_length_c 11.276681
_cell_angle_alpha 90.000000
_cell_angle_beta 43.531960
_cell_angle_gamma 90.000000
_cell_volume 2543.364115
_symmetry_space_group_name_H-M "C 2/M"
_symmetry_group_IT_number 12
_symmetry_cell_setting 'monoclinic'
loop_
_space_group_symop_operation_xyz
x,y,z
-x,y,-z
-x,-y,-z
x,-y,z
1/2+x,1/2+y,z
1/2-x,1/2+y,-z
1/2-x,1/2-y,-z
1/2+x,1/2-y,z
loop_
_atom_site_type_symbol
_atom_site_label
_atom_site_fract_x
_atom_site_fract_y
_atom_site_fract_z
Si Si1 0.164257 0.899671 0.133960
Si Si2 0.811666 0.103185 0.416761
Si Si3 0.860314 0.398671 0.757973
Si Si4 0.132477 0.601883 0.520588
Si Si5 0.731424 0.099480 0.774408
Si Si6 0.500000 0.500000 0.000000
Si Si7 0.549743 0.163509 0.123681
Si Si8 0.975486 0.150187 0.865178
O O1 0.204823 0.863617 0.203621
O O2 0.069568 0.865105 0.204023
O O3 0.151475 0.000000 0.165272
O O4 0.249086 0.887550 0.927347
O O5 0.738381 0.126259 0.412704
O O6 0.760976 0.128137 0.606131
O O7 0.912490 0.144825 0.284832
O O8 0.829789 0.000000 0.385409
O O9 0.880488 0.500000 0.749247
O O10 0.888274 0.375067 0.587859
O O11 0.909651 0.346710 0.796463
O O12 0.128110 0.500000 0.533102
O O13 0.057201 0.635926 0.714775
O O14 0.750902 0.000000 0.748261
O O15 0.622309 0.109594 0.950336
O O16 0.551789 0.574499 0.011014
O O17 0.555523 0.256413 0.061891
#
# Coordination Sequence:
#
# PCOD9209938 Si02
#       8
#     8   8   8   8   8   2   8   8
#     4   9  18  38  65  93 122 175 226 272 331 397
#     4  10  22  42  65  96 127 174 231 273 329 403
#     4   9  19  37  68 102 137 175 223 272 333 405
#     4  10  21  38  68  98 139 183 221 272 339 402
#     4   9  20  40  68  96 136 175 218 272 335 413
#     4  12  28  48  72  86 130 180 228 282 320 428
#     4  11  23  41  61 101 134 172 224 280 340 394
#     4  12  26  42  67  94 130 174 229 282 332 396
#
# _framework density 22.804442999999999
#
# number of rings (size 3 to 8) (size 9 to 14) (size 15 to 20)
#    0.000    1.931    1.379    2.483    1.931    6.069 
#    7.448    4.138    0.000    0.000    0.000    0.000 
#    0.000    0.000    0.000    0.000    0.000    0.000 
#
# Total GULP energy -161772.783376 kJ/mol
# GULP energy per Si atom -5578.371841 kJ/mol
# Density = 2.275254 g / cm^3
# Si number density = 22.804443 Si / 1000 Ang^3
#
#
#
# Elastic Constant Matrix: (Units=GPa)
#
#
# Indices 1 2 3 4 5 6 
#
# 1 83.2568 29.8416 28.7339 0.0000 -17.1055 0.0000
# 2 29.8416 29.2064 10.1369 0.0000 8.7097 0.0000
# 3 28.7339 10.1369 42.1416 0.0000 0.8694 0.0000
# 4 0.0000 0.0000 0.0000 38.9828 0.0000 -102.7790
# 5 -17.1055 8.7097 0.8694 0.0000 36.2444 0.0000
# 6 0.0000 0.0000 0.0000 -102.7790 0.0000 165.7673
#
#
#
# Elastic Compliance Matrix: (Units=1/GPa)
#
#
# Indices 1 2 3 4 5 6 
#
# 1 0.039353 -0.043022 -0.017089 0.000000 0.029321 0.000000
# 2 -0.043022 0.087399 0.009168 0.000000 -0.041527 0.000000
# 3 -0.017089 0.009168 0.033405 0.000000 -0.011070 0.000000
# 4 0.000000 0.000000 0.000000 -0.040417 0.000000 -0.025059
# 5 0.029321 -0.041527 -0.011070 0.000000 0.051673 0.000000
# 6 0.000000 0.000000 0.000000 -0.025059 0.000000 -0.009505
#
#
# Mechanical properties :
#
#
# Convention : Reuss Voigt Hill
#
# Bulk Modulus (GPa) = 17.16141 32.44775 24.80458
# Shear Modulus (GPa) = 17.65420 53.92506 35.78963
#
# Velocity S-wave (km/s) = 2.78538 4.86807 3.96588
# Velocity P-wave (km/s) = 4.22922 6.77178 5.64550
#
# Compressibility (1/GPa) = 0.05827026
#
# Stress axis : x y z
#
# Youngs Moduli (GPa) = 25.41076 11.44179 29.93593
#
# Poissons Ratio (x) = 0.49225 0.51158
# Poissons Ratio (y) = 1.09323 -0.27445
# Poissons Ratio (z) = 0.43425 -0.10490
#
# Static dielectric constant tensor:
#      x y z
#    x 1.868810 0.000000 0.003110 
#    y 0.000000 1.824770 0.000000 
#    z 0.003110 0.000000 1.897640 
# 
# From -- ./inp_files/168963.got.cif
#   From: 2010.05.17/outbox.cif.g08.bks.cpg/sg12_85_cif.got.tgz:168963.got - 2010.06.03 13:09:07.
