data_PCOD9209390
_publ_section_title
;
Structure prediction by ZEFSAII (Michael W. Deem and Ramdas Pophale) SiO2 
 PCOD9209390
Probable space group: C 2/M
;
_chemical_formula_sum "Si O2"
_cell_formula_units_Z 56
_cell_length_a 17.468064
_cell_length_b 12.903252
_cell_length_c 14.000751
_cell_angle_alpha 90.000000
_cell_angle_beta 80.673143
_cell_angle_gamma 90.000000
_cell_volume 3113.978152
_symmetry_space_group_name_H-M "C 2/M"
_symmetry_group_IT_number 12
_symmetry_cell_setting 'monoclinic'
loop_
_space_group_symop_operation_xyz
x,y,z
-x,y,-z
-x,-y,-z
x,-y,z
1/2+x,1/2+y,z
1/2-x,1/2+y,-z
1/2-x,1/2-y,-z
1/2+x,1/2-y,z
loop_
_atom_site_type_symbol
_atom_site_label
_atom_site_fract_x
_atom_site_fract_y
_atom_site_fract_z
Si Si1 0.558233 0.117903 0.399582
Si Si2 0.705781 0.219343 0.913649
Si Si3 0.024940 0.228575 0.233254
Si Si4 0.356247 0.625223 0.232263
Si Si5 0.724927 0.788600 0.400655
Si Si6 0.928072 0.614194 0.944732
Si Si7 0.178017 0.880990 0.258282
O O1 0.500000 0.127180 0.500000
O O2 0.529313 0.196016 0.323931
O O3 0.646397 0.142884 0.414305
O O4 0.555617 0.000000 0.364115
O O5 0.675671 0.316905 0.856876
O O6 0.762510 0.154367 0.835147
O O7 0.750000 0.250000 0.000000
O O8 0.637937 0.149868 0.969408
O O9 0.052754 0.299927 0.138897
O O10 0.091588 0.144141 0.239312
O O11 0.940961 0.176128 0.235374
O O12 0.360589 0.500000 0.221928
O O13 0.295287 0.655580 0.329014
O O14 0.750000 0.750000 0.500000
O O15 0.699665 0.688911 0.344191
O O16 0.910991 0.500000 0.905706
O O17 0.000000 0.606081 0.000000
O O18 0.186569 0.000000 0.279670
#
# Coordination Sequence:
#
# PCOD9209390 Si02
#       7
#     8   8   8   8   8   8   8
#     4  10  21  38  62  89 117 153 195 242 297 350
#     4  11  22  41  58  86 120 156 198 247 292 351
#     4  11  21  40  59  85 121 152 200 243 294 347
#     4  11  24  40  62  88 119 157 198 243 298 356
#     4  10  22  41  62  88 122 154 194 244 292 355
#     4  11  22  38  60  84 116 157 201 245 293 346
#     4  10  22  38  60  87 117 153 195 242 294 348
#
# _framework density 17.983428
#
# number of rings (size 3 to 8) (size 9 to 14) (size 15 to 20)
#    0.000    1.429    2.857    2.571    0.000    2.286 
#    0.000    2.857    0.000    4.714    0.000    0.000 
#    0.000    0.000    0.000    0.000    0.000    0.000 
#
# Total GULP energy -156221.506300 kJ/mol
# GULP energy per Si atom -5579.339511 kJ/mol
# Density = 1.794250 g / cm^3
# Si number density = 17.983428 Si / 1000 Ang^3
#
#
#
# Elastic Constant Matrix: (Units=GPa)
#
#
# Indices 1 2 3 4 5 6 
#
# 1 136.7230 51.4536 54.3566 0.0000 -15.0903 0.0000
# 2 51.4536 117.8133 30.3933 0.0000 -14.1815 0.0000
# 3 54.3566 30.3933 88.7030 0.0000 -7.7432 0.0000
# 4 0.0000 0.0000 0.0000 9.4680 0.0000 -0.0932
# 5 -15.0903 -14.1815 -7.7432 0.0000 30.9648 0.0000
# 6 0.0000 0.0000 0.0000 -0.0932 0.0000 15.2338
#
#
#
# Elastic Compliance Matrix: (Units=1/GPa)
#
#
# Indices 1 2 3 4 5 6 
#
# 1 0.010896 -0.003056 -0.005407 0.000000 0.002558 0.000000
# 2 -0.003056 0.010565 -0.001487 0.000000 0.002977 0.000000
# 3 -0.005407 -0.001487 0.015137 0.000000 0.000469 0.000000
# 4 0.000000 0.000000 0.000000 0.105626 0.000000 0.000646
# 5 0.002558 0.002977 0.000469 0.000000 0.035022 0.000000
# 6 0.000000 0.000000 0.000000 0.000646 0.000000 0.065647
#
#
# Mechanical properties :
#
#
# Convention : Reuss Voigt Hill
#
# Bulk Modulus (GPa) = 59.88637 68.40513 64.14575
# Shear Modulus (GPa) = 18.63173 24.93569 21.78371
#
# Velocity S-wave (km/s) = 3.22226 3.72774 3.48418
# Velocity P-wave (km/s) = 6.87147 7.52652 7.20644
#
# Compressibility (1/GPa) = 0.01669829
#
# Stress axis : x y z
#
# Youngs Moduli (GPa) = 91.77707 94.65435 66.06212
#
# Poissons Ratio (x) = 0.28926 0.35717
# Poissons Ratio (y) = 0.28047 0.09826
# Poissons Ratio (z) = 0.49620 0.14078
#
# Static dielectric constant tensor:
#      x y z
#    x 1.588360 0.000000 0.003550 
#    y 0.000000 1.622390 0.000000 
#    z 0.003550 0.000000 1.590830 
# 
# From -- ./inp_files/223124.got.cif
#   From: 2010.05.17/outbox.cif.g08.bks.cpg/sg12_112_cif.got.tgz:223124.got - 2010.06.03 13:09:07.
