data_PCOD9209117
_publ_section_title
;
Structure prediction by ZEFSAII (Michael W. Deem and Ramdas Pophale) SiO2 
 PCOD9209117
Probable space group: C 2/M
;
_chemical_formula_sum "Si O2"
_cell_formula_units_Z 24
_cell_length_a 25.288569
_cell_length_b 5.303975
_cell_length_c 7.857063
_cell_angle_alpha 90.000000
_cell_angle_beta 81.135906
_cell_angle_gamma 90.000000
_cell_volume 1041.280638
_symmetry_space_group_name_H-M "C 2/M"
_symmetry_group_IT_number 12
_symmetry_cell_setting 'monoclinic'
loop_
_space_group_symop_operation_xyz
x,y,z
-x,y,-z
-x,-y,-z
x,-y,z
1/2+x,1/2+y,z
1/2-x,1/2+y,-z
1/2-x,1/2-y,-z
1/2+x,1/2-y,z
loop_
_atom_site_type_symbol
_atom_site_label
_atom_site_fract_x
_atom_site_fract_y
_atom_site_fract_z
Si Si1 0.806593 0.000000 0.330518
Si Si2 0.971086 0.500000 0.243523
Si Si3 0.085065 0.500000 0.361790
Si Si4 0.420238 0.500000 0.135933
Si Si5 0.251633 0.500000 0.730342
Si Si6 0.362581 0.500000 0.800922
O O1 0.784394 0.748609 0.252113
O O2 0.870298 0.000000 0.291078
O O3 0.783327 0.000000 0.533339
O O4 0.937467 0.500000 0.436333
O O5 0.954416 0.249244 0.152756
O O6 0.032951 0.500000 0.266113
O O7 0.119111 0.748466 0.305977
O O8 0.392860 0.500000 0.965469
O O9 0.298495 0.500000 0.845303
#
# Coordination Sequence:
#
# PCOD9209117 Si02
#       6
#     4   4   4   4   4   4
#     4  10  21  38  61  87 118 160 206 249 296 358
#     4  11  24  43  66  90 121 165 212 253 298 363
#     4  11  24  43  66  90 121 165 212 253 298 363
#     4  12  25  40  63  95 129 161 198 255 316 365
#     4  10  21  38  61  87 118 160 206 249 296 358
#     4  12  25  40  63  95 129 161 198 255 316 365
#
# _framework density 23.048539999999999
#
# number of rings (size 3 to 8) (size 9 to 14) (size 15 to 20)
#    0.000    1.000    0.000    7.000    0.000   10.667 
#    0.000    0.000    0.000    0.000    0.000    0.000 
#    0.000    0.000    0.000    0.000    0.000    0.000 
#
# Total GULP energy -67312.309262 kJ/mol
# GULP energy per Si atom -5609.359105 kJ/mol
# Density = 2.299608 g / cm^3
# Si number density = 23.048540 Si / 1000 Ang^3
#
#
#
# Elastic Constant Matrix: (Units=GPa)
#
#
# Indices 1 2 3 4 5 6 
#
# 1 113.3776 67.9306 12.3182 0.0000 16.3281 0.0000
# 2 67.9306 227.9866 31.5624 0.0000 18.9366 0.0000
# 3 12.3182 31.5624 73.1253 0.0000 15.3689 0.0000
# 4 0.0000 0.0000 0.0000 44.8386 0.0000 -54.3840
# 5 16.3281 18.9366 15.3689 0.0000 46.0351 0.0000
# 6 0.0000 0.0000 0.0000 -54.3840 0.0000 90.3930
#
#
#
# Elastic Compliance Matrix: (Units=1/GPa)
#
#
# Indices 1 2 3 4 5 6 
#
# 1 0.011041 -0.003072 0.000025 0.000000 -0.002661 0.000000
# 2 -0.003072 0.005598 -0.001768 0.000000 -0.000623 0.000000
# 3 0.000025 -0.001768 0.015361 0.000000 -0.004410 0.000000
# 4 0.000000 0.000000 0.000000 0.082515 0.000000 0.049644
# 5 -0.002661 -0.000623 -0.004410 0.000000 0.024395 0.000000
# 6 0.000000 0.000000 0.000000 0.049644 0.000000 0.040931
#
#
# Mechanical properties :
#
#
# Convention : Reuss Voigt Hill
#
# Bulk Modulus (GPa) = 44.70137 70.90133 57.80135
# Shear Modulus (GPa) = 25.39004 56.43188 40.91096
#
# Velocity S-wave (km/s) = 3.32262 4.95349 4.21764
# Velocity P-wave (km/s) = 5.84434 7.97149 6.98931
#
# Compressibility (1/GPa) = 0.02237068
#
# Stress axis : x y z
#
# Youngs Moduli (GPa) = 90.56858 178.63098 65.10091
#
# Poissons Ratio (x) = 0.54882 -0.00165
# Poissons Ratio (y) = 0.27826 0.11509
# Poissons Ratio (z) = -0.00230 0.31578
#
# Static dielectric constant tensor:
#      x y z
#    x 1.798250 0.000000 -0.000480 
#    y 0.000000 1.780850 0.000000 
#    z -0.000480 0.000000 1.891270 
# 
# From -- ./inp_files/91803.got.cif
#   From: 2010.05.17/outbox.cif.g08.bks.cpg/sg12_46_cif.got.tgz:91803.got - 2010.06.03 13:09:07.
