data_PCOD9209399
_publ_section_title
;
Structure prediction by ZEFSAII (Michael W. Deem and Ramdas Pophale) SiO2 
 PCOD9209399
Probable space group: C 2/M
;
_chemical_formula_sum "Si O2"
_cell_formula_units_Z 56
_cell_length_a 29.891014
_cell_length_b 8.256991
_cell_length_c 11.385668
_cell_angle_alpha 90.000000
_cell_angle_beta 66.084774
_cell_angle_gamma 90.000000
_cell_volume 2568.837671
_symmetry_space_group_name_H-M "C 2/M"
_symmetry_group_IT_number 12
_symmetry_cell_setting 'monoclinic'
loop_
_space_group_symop_operation_xyz
x,y,z
-x,y,-z
-x,-y,-z
x,-y,z
1/2+x,1/2+y,z
1/2-x,1/2+y,-z
1/2-x,1/2-y,-z
1/2+x,1/2-y,z
loop_
_atom_site_type_symbol
_atom_site_label
_atom_site_fract_x
_atom_site_fract_y
_atom_site_fract_z
Si Si1 0.363376 0.806239 0.821031
Si Si2 0.530342 0.197751 0.352700
Si Si3 0.885981 0.182041 0.278593
Si Si4 0.225432 0.813451 0.222838
Si Si5 0.799074 0.683721 0.507910
Si Si6 0.161365 0.309316 0.900006
Si Si7 0.509906 0.187505 0.857205
O O1 0.412220 0.760920 0.699229
O O2 0.314910 0.715105 0.832470
O O3 0.355283 0.000000 0.817639
O O4 0.370677 0.775334 0.951412
O O5 0.500000 0.252523 0.500000
O O6 0.512380 0.254374 0.242049
O O7 0.526847 0.000000 0.354447
O O8 0.847228 0.218866 0.421356
O O9 0.855213 0.206197 0.192363
O O10 0.931962 0.300162 0.224429
O O11 0.904897 0.000000 0.267349
O O12 0.210259 0.697981 0.344874
O O13 0.281640 0.781906 0.130445
O O14 0.223321 0.000000 0.266129
O O15 0.806456 0.500000 0.460999
O O16 0.750000 0.750000 0.500000
O O17 0.156110 0.500000 0.876256
O O18 0.493222 0.000000 0.881058
O O19 0.500000 0.257019 0.000000
#
# Coordination Sequence:
#
# PCOD9209399 Si02
#       7
#     8   8   8   8   8   8   8
#     4  10  21  38  62  89 119 161 210 255 306 369
#     4   9  19  36  59  88 118 155 209 263 310 367
#     4  12  25  39  62  94 127 163 206 257 317 376
#     4  11  23  38  59  89 125 163 204 250 305 371
#     4  12  24  41  63  89 123 163 206 255 310 371
#     4  10  21  39  61  87 123 165 207 252 304 372
#     4  10  21  40  66  92 122 164 213 264 319 380
#
# _framework density 21.799742999999999
#
# number of rings (size 3 to 8) (size 9 to 14) (size 15 to 20)
#    0.000    1.429    1.429    4.286    2.000    3.714 
#    0.000    0.714    0.000    0.857    0.000    0.000 
#    0.000    0.000    0.000    0.000    0.000    0.000 
#
# Total GULP energy -156411.904824 kJ/mol
# GULP energy per Si atom -5586.139458 kJ/mol
# Density = 2.175013 g / cm^3
# Si number density = 21.799743 Si / 1000 Ang^3
#
#
#
# Elastic Constant Matrix: (Units=GPa)
#
#
# Indices 1 2 3 4 5 6 
#
# 1 66.9011 0.1397 5.7480 0.0000 -3.6594 0.0000
# 2 0.1397 21.7616 3.5078 0.0000 6.0847 0.0000
# 3 5.7480 3.5078 93.4428 0.0000 -4.2261 0.0000
# 4 0.0000 0.0000 0.0000 13.7767 0.0000 -1.2412
# 5 -3.6594 6.0847 -4.2261 0.0000 34.7596 0.0000
# 6 0.0000 0.0000 0.0000 -1.2412 0.0000 22.0731
#
#
#
# Elastic Compliance Matrix: (Units=1/GPa)
#
#
# Indices 1 2 3 4 5 6 
#
# 1 0.015106 -0.000396 -0.000844 0.000000 0.001557 0.000000
# 2 -0.000396 0.048785 -0.002207 0.000000 -0.008850 0.000000
# 3 -0.000844 -0.002207 0.010910 0.000000 0.001624 0.000000
# 4 0.000000 0.000000 0.000000 0.072956 0.000000 0.004103
# 5 0.001557 -0.008850 0.001624 0.000000 0.030680 0.000000
# 6 0.000000 0.000000 0.000000 0.004103 0.000000 0.045535
#
#
# Mechanical properties :
#
#
# Convention : Reuss Voigt Hill
#
# Bulk Modulus (GPa) = 14.72618 22.32185 18.52401
# Shear Modulus (GPa) = 19.72371 25.63588 22.67980
#
# Velocity S-wave (km/s) = 3.01120 3.43296 3.22898
# Velocity P-wave (km/s) = 4.34277 5.09661 4.73471
#
# Compressibility (1/GPa) = 0.06790629
#
# Stress axis : x y z
#
# Youngs Moduli (GPa) = 66.19916 20.49792 91.65939
#
# Poissons Ratio (x) = 0.00812 0.07735
# Poissons Ratio (y) = 0.02624 0.20232
# Poissons Ratio (z) = 0.05587 0.04524
#
# Static dielectric constant tensor:
#      x y z
#    x 1.826550 0.000000 0.032360 
#    y 0.000000 1.781500 0.000000 
#    z 0.032360 0.000000 1.809310 
# 
# From -- ./inp_files/180628.got.cif
#   From: 2010.05.17/outbox.cif.g08.bks.cpg/sg12_91_cif.got.tgz:180628.got - 2010.06.03 13:09:07.
