data_PCOD9209590
_publ_section_title
;
Structure prediction by ZEFSAII (Michael W. Deem and Ramdas Pophale) SiO2 
 PCOD9209590
Probable space group: C 2/M
;
_chemical_formula_sum "Si O2"
_cell_formula_units_Z 56
_cell_length_a 9.198512
_cell_length_b 17.889930
_cell_length_c 24.296233
_cell_angle_alpha 90.000000
_cell_angle_beta 137.772598
_cell_angle_gamma 90.000000
_cell_volume 2687.093508
_symmetry_space_group_name_H-M "C 2/M"
_symmetry_group_IT_number 12
_symmetry_cell_setting 'monoclinic'
loop_
_space_group_symop_operation_xyz
x,y,z
-x,y,-z
-x,-y,-z
x,-y,z
1/2+x,1/2+y,z
1/2-x,1/2+y,-z
1/2-x,1/2-y,-z
1/2+x,1/2-y,z
loop_
_atom_site_type_symbol
_atom_site_label
_atom_site_fract_x
_atom_site_fract_y
_atom_site_fract_z
Si Si1 0.066410 0.414280 0.581982
Si Si2 0.352560 0.582037 0.013769
Si Si3 0.973593 0.345277 0.845219
Si Si4 0.017601 0.309417 0.342718
Si Si5 0.313468 0.310578 0.841589
Si Si6 0.509288 0.630465 0.670200
Si Si7 0.865988 0.081478 0.406541
O O1 0.007379 0.500000 0.580091
O O2 0.973568 0.351659 0.596686
O O3 0.325257 0.403068 0.657102
O O4 0.000000 0.401009 0.500000
O O5 0.350143 0.500000 0.038250
O O6 0.476919 0.640241 0.086827
O O7 0.500000 0.579790 0.000000
O O8 0.117846 0.605193 0.926262
O O9 0.134322 0.321149 0.839879
O O10 0.891588 0.273959 0.856387
O O11 0.754857 0.381176 0.759567
O O12 0.801719 0.329722 0.248360
O O13 0.029347 0.219838 0.347330
O O14 0.209971 0.347410 0.362433
O O15 0.485264 0.590726 0.604725
O O16 0.000000 0.083133 0.500000
O O17 0.754243 0.000000 0.371923
#
# Coordination Sequence:
#
# PCOD9209590 Si02
#       7
#     8   8   8   8   8   8   8
#     4  11  25  43  61  86 123 164 201 247 314 371
#     4   9  19  36  59  91 124 157 200 244 289 352
#     4  10  21  38  63  90 120 159 199 245 300 356
#     4  11  23  39  62  90 119 156 205 253 298 359
#     4  10  21  38  63  90 120 159 199 245 300 356
#     4  11  23  39  62  90 119 156 205 253 298 359
#     4  11  23  39  59  86 119 156 199 249 304 361
#
# _framework density 20.840361000000001
#
# number of rings (size 3 to 8) (size 9 to 14) (size 15 to 20)
#    0.000    1.571    1.429    3.000    6.000    8.000 
#    0.000    0.000    0.000    0.857    0.000    0.000 
#    0.000    0.000    0.000    0.000    0.000    0.000 
#
# Total GULP energy -156373.936326 kJ/mol
# GULP energy per Si atom -5584.783440 kJ/mol
# Density = 2.079293 g / cm^3
# Si number density = 20.840361 Si / 1000 Ang^3
#
#
#
# Elastic Constant Matrix: (Units=GPa)
#
#
# Indices 1 2 3 4 5 6 
#
# 1 32.8533 -6.4642 -8.9286 0.0002 9.0208 0.0000
# 2 -6.4642 55.9096 26.1385 0.0006 -6.7723 -0.0002
# 3 -8.9286 26.1385 68.1212 0.0018 7.2693 -0.0007
# 4 0.0002 0.0006 0.0018 111.6142 0.0002 -27.4942
# 5 9.0208 -6.7723 7.2693 0.0002 30.0425 -0.0001
# 6 0.0000 -0.0002 -0.0007 -27.4942 -0.0001 -15.6246
#
#
#
# Elastic Compliance Matrix: (Units=1/GPa)
#
#
# Indices 1 2 3 4 5 6 
#
# 1 0.035357 -0.000182 0.005996 0.000000 -0.012108 0.000000
# 2 -0.000182 0.023389 -0.009821 0.000000 0.007703 0.000000
# 3 0.005996 -0.009821 0.020183 0.000000 -0.008898 0.000000
# 4 0.000000 0.000000 0.000000 0.006250 0.000000 -0.010998
# 5 -0.012108 0.007703 -0.008898 0.000000 0.040812 0.000000
# 6 0.000000 0.000000 0.000000 -0.010998 0.000000 -0.044648
#
#
# Mechanical properties :
#
#
# Convention : Reuss Voigt Hill
#
# Bulk Modulus (GPa) = 14.10105 19.81949 16.96027
# Shear Modulus (GPa) = 44.24990 34.94897 39.59944
#
# Velocity S-wave (km/s) = 4.61290 4.09954 4.36378
# Velocity P-wave (km/s) = 5.92898 5.65147 5.79189
#
# Compressibility (1/GPa) = 0.07091668
#
# Stress axis : x y z
#
# Youngs Moduli (GPa) = 28.28308 42.75459 49.54585
#
# Poissons Ratio (x) = 0.00778 -0.29709
# Poissons Ratio (y) = 0.00515 0.48657
# Poissons Ratio (z) = -0.16959 0.41987
#
# Static dielectric constant tensor:
#      x y z
#    x 1.768760 0.000000 0.026740 
#    y 0.000000 1.729180 0.000000 
#    z 0.026740 0.000000 1.774020 
# 
# From -- ./inp_files/356723.got.cif
#   From: 2010.05.17/outbox.cif.g08.bks.cpg/sg12_179_cif.got.tgz:356723.got - 2010.06.03 13:09:07.
