data_PCOD9209898
_publ_section_title
;
Structure prediction by ZEFSAII (Michael W. Deem and Ramdas Pophale) SiO2 
 PCOD9209898
Probable space group: C 2/M
;
_chemical_formula_sum "Si O2"
_cell_formula_units_Z 64
_cell_length_a 24.150038
_cell_length_b 28.255797
_cell_length_c 9.088898
_cell_angle_alpha 90.000000
_cell_angle_beta 149.973584
_cell_angle_gamma 90.000000
_cell_volume 3103.510634
_symmetry_space_group_name_H-M "C 2/M"
_symmetry_group_IT_number 12
_symmetry_cell_setting 'monoclinic'
loop_
_space_group_symop_operation_xyz
x,y,z
-x,y,-z
-x,-y,-z
x,-y,z
1/2+x,1/2+y,z
1/2-x,1/2+y,-z
1/2-x,1/2-y,-z
1/2+x,1/2-y,z
loop_
_atom_site_type_symbol
_atom_site_label
_atom_site_fract_x
_atom_site_fract_y
_atom_site_fract_z
Si Si1 0.278842 0.946279 0.816845
Si Si2 0.711830 0.811404 0.741938
Si Si3 0.545898 0.324770 0.769326
Si Si4 0.015198 0.444913 0.201120
Si Si5 0.598550 0.629826 0.334856
Si Si6 0.620398 0.888679 0.698999
Si Si7 0.519309 0.216281 0.724217
Si Si8 0.251560 0.719921 0.350128
O O1 0.189600 0.910404 0.548938
O O2 0.238791 0.000000 0.728447
O O3 0.393338 0.944704 0.990906
O O4 0.314569 0.927111 0.057923
O O5 0.698525 0.842273 0.861036
O O6 0.579015 0.808932 0.412264
O O7 0.735453 0.755919 0.760423
O O8 0.821469 0.833740 0.919685
O O9 0.500000 0.322017 0.500000
O O10 0.467240 0.361674 0.666300
O O11 0.526687 0.271543 0.785981
O O12 0.053983 0.500000 0.291162
O O13 0.093132 0.411845 0.478659
O O14 0.000000 0.428604 0.000000
O O15 0.656456 0.679771 0.428275
O O16 0.500000 0.618129 0.000000
O O17 0.500000 0.880206 0.500000
O O18 0.500000 0.216267 0.500000
O O19 0.634738 0.195177 0.044515
O O20 0.250000 0.750000 0.500000
#
# Coordination Sequence:
#
# PCOD9209898 Si02
#       8
#     8   8   8   8   8   8   8   8
#     4  10  23  43  69  96 124 170 225 281 339 397
#     4  11  22  38  61  91 131 168 219 260 315 388
#     4  10  22  38  59  89 125 173 216 268 314 380
#     4   9  19  37  63  99 136 165 200 261 340 405
#     4  12  25  44  65  88 128 177 226 272 330 388
#     4  10  21  38  66  99 134 168 213 271 332 396
#     4  10  22  36  62  92 124 167 218 268 317 376
#     4  11  26  42  62  91 137 182 219 264 323 395
#
# _framework density 20.621807
#
# number of rings (size 3 to 8) (size 9 to 14) (size 15 to 20)
#    0.000    1.625    1.250    3.000    7.000    5.250 
#    0.000    0.000    0.000    4.125    0.000    0.000 
#    0.000    0.000    0.000    0.000    0.000    0.000 
#
# Total GULP energy -178211.575769 kJ/mol
# GULP energy per Si atom -5569.111743 kJ/mol
# Density = 2.057487 g / cm^3
# Si number density = 20.621807 Si / 1000 Ang^3
#
#
#
# Elastic Constant Matrix: (Units=GPa)
#
#
# Indices 1 2 3 4 5 6 
#
# 1 54.5932 32.1309 28.8843 0.0000 -0.4511 0.0000
# 2 32.1309 95.4131 24.6358 0.0000 -7.4925 0.0000
# 3 28.8843 24.6358 104.3869 0.0000 2.3767 0.0000
# 4 0.0000 0.0000 0.0000 26.0215 0.0000 4.5552
# 5 -0.4511 -7.4925 2.3767 0.0000 35.4912 0.0000
# 6 0.0000 0.0000 0.0000 4.5552 0.0000 25.1291
#
#
#
# Elastic Compliance Matrix: (Units=1/GPa)
#
#
# Indices 1 2 3 4 5 6 
#
# 1 0.025374 -0.007246 -0.005292 0.000000 -0.000853 0.000000
# 2 -0.007246 0.013463 -0.001237 0.000000 0.002833 0.000000
# 3 -0.005292 -0.001237 0.011361 0.000000 -0.001089 0.000000
# 4 0.000000 0.000000 0.000000 0.039689 0.000000 -0.007195
# 5 -0.000853 0.002833 -0.001089 0.000000 0.028836 0.000000
# 6 0.000000 0.000000 0.000000 -0.007195 0.000000 0.041099
#
#
# Mechanical properties :
#
#
# Convention : Reuss Voigt Hill
#
# Bulk Modulus (GPa) = 44.15160 47.29945 45.72553
# Shear Modulus (GPa) = 25.65155 28.57784 27.11470
#
# Velocity S-wave (km/s) = 3.53073 3.72668 3.63003
# Velocity P-wave (km/s) = 6.17074 6.44236 6.30801
#
# Compressibility (1/GPa) = 0.02264924
#
# Stress axis : x y z
#
# Youngs Moduli (GPa) = 39.40966 74.28015 88.02273
#
# Poissons Ratio (x) = 0.53820 0.46580
# Poissons Ratio (y) = 0.28555 0.10887
# Poissons Ratio (z) = 0.20855 0.09187
#
# Static dielectric constant tensor:
#      x y z
#    x 1.765970 0.000000 0.030710 
#    y 0.000000 1.771730 0.000000 
#    z 0.030710 0.000000 1.701040 
# 
# From -- ./inp_files/100255.got.cif
#   From: 2010.05.17/outbox.cif.g08.bks.cpg/sg12_51_cif.got.tgz:100255.got - 2010.06.03 13:09:07.
