data_PCOD9209535
_publ_section_title
;
Structure prediction by ZEFSAII (Michael W. Deem and Ramdas Pophale) SiO2 
 PCOD9209535
Probable space group: C 2/M
;
_chemical_formula_sum "Si O2"
_cell_formula_units_Z 48
_cell_length_a 14.784107
_cell_length_b 15.320820
_cell_length_c 12.660878
_cell_angle_alpha 90.000000
_cell_angle_beta 55.050248
_cell_angle_gamma 90.000000
_cell_volume 2350.562981
_symmetry_space_group_name_H-M "C 2/M"
_symmetry_group_IT_number 12
_symmetry_cell_setting 'monoclinic'
loop_
_space_group_symop_operation_xyz
x,y,z
-x,y,-z
-x,-y,-z
x,-y,z
1/2+x,1/2+y,z
1/2-x,1/2+y,-z
1/2-x,1/2-y,-z
1/2+x,1/2-y,z
loop_
_atom_site_type_symbol
_atom_site_label
_atom_site_fract_x
_atom_site_fract_y
_atom_site_fract_z
Si Si1 0.704067 0.319044 0.615089
Si Si2 0.448791 0.782553 0.140263
Si Si3 0.756789 0.599430 0.221599
Si Si4 0.382950 0.898029 0.632863
Si Si5 0.656637 0.242615 0.154781
Si Si6 0.587219 0.598820 0.517018
O O1 0.750000 0.250000 0.500000
O O2 0.653718 0.271695 0.748632
O O3 0.795396 0.384212 0.596859
O O4 0.605318 0.363350 0.618537
O O5 0.384452 0.871154 0.148961
O O6 0.543238 0.776854 0.165818
O O7 0.500000 0.744523 0.000000
O O8 0.748990 0.500000 0.186400
O O9 0.684663 0.667660 0.200361
O O10 0.700533 0.599408 0.375355
O O11 0.500000 0.874685 0.500000
O O12 0.348458 0.834463 0.752824
O O13 0.386464 0.000000 0.662894
O O14 0.750000 0.250000 0.000000
O O15 0.500000 0.646111 0.500000
O O16 0.548834 0.500000 0.558005
#
# Coordination Sequence:
#
# PCOD9209535 Si02
#       6
#     8   8   8   8   8   8
#     4  12  21  39  66  95 132 178 221 275 342 406
#     4  12  24  43  68  98 134 178 230 285 346 414
#     4  11  24  44  69 103 137 181 237 287 345 413
#     4  11  25  43  68 105 142 182 230 286 355 424
#     4  12  24  46  70  97 142 185 233 289 361 421
#     4  10  21  38  62  94 129 167 220 277 333 400
#
# _framework density 20.420641
#
# number of rings (size 3 to 8) (size 9 to 14) (size 15 to 20)
#    0.000    0.667    5.000    2.500    0.000    3.000 
#    0.000    0.833    0.000    3.500    0.000    0.000 
#    0.000    0.000    0.000    0.000    0.000    0.000 
#
# Total GULP energy -133740.752858 kJ/mol
# GULP energy per Si atom -5572.531369 kJ/mol
# Density = 2.037416 g / cm^3
# Si number density = 20.420641 Si / 1000 Ang^3
#
#
#
# Elastic Constant Matrix: (Units=GPa)
#
#
# Indices 1 2 3 4 5 6 
#
# 1 141.0557 43.6686 12.7519 0.0000 11.0422 0.0000
# 2 43.6686 130.1325 43.2842 0.0000 11.9571 0.0000
# 3 12.7519 43.2842 111.2962 0.0000 -0.2584 0.0000
# 4 0.0000 0.0000 0.0000 11.6904 0.0000 7.2864
# 5 11.0422 11.9571 -0.2584 0.0000 39.4766 0.0000
# 6 0.0000 0.0000 0.0000 7.2864 0.0000 20.5506
#
#
#
# Elastic Compliance Matrix: (Units=1/GPa)
#
#
# Indices 1 2 3 4 5 6 
#
# 1 0.007993 -0.002576 0.000083 0.000000 -0.001455 0.000000
# 2 -0.002576 0.009953 -0.003581 0.000000 -0.002318 0.000000
# 3 0.000083 -0.003581 0.010371 0.000000 0.001129 0.000000
# 4 0.000000 0.000000 0.000000 0.109806 0.000000 -0.038933
# 5 -0.001455 -0.002318 0.001129 0.000000 0.026448 0.000000
# 6 0.000000 0.000000 0.000000 -0.038933 0.000000 0.062464
#
#
# Mechanical properties :
#
#
# Convention : Reuss Voigt Hill
#
# Bulk Modulus (GPa) = 61.84972 64.65487 63.25230
# Shear Modulus (GPa) = 20.44371 33.19548 26.81960
#
# Velocity S-wave (km/s) = 3.16750 4.03623 3.62796
# Velocity P-wave (km/s) = 6.61294 7.31107 6.97075
#
# Compressibility (1/GPa) = 0.01616822
#
# Stress axis : x y z
#
# Youngs Moduli (GPa) = 125.10389 100.47208 96.42373
#
# Poissons Ratio (x) = 0.25883 -0.00797
# Poissons Ratio (y) = 0.32228 0.34530
# Poissons Ratio (z) = -0.01034 0.35980
#
# Static dielectric constant tensor:
#      x y z
#    x -0.352610 0.000000 -0.824810 
#    y 0.000000 1.811140 0.000000 
#    z -0.824810 0.000000 1.441050 
# 
# From -- ./inp_files/143564.got.cif
#   From: 2010.05.17/outbox.cif.g08.bks.cpg/sg12_72_cif.got.tgz:143564.got - 2010.06.03 13:09:07.
