data_PCOD9209829
_publ_section_title
;
Structure prediction by ZEFSAII (Michael W. Deem and Ramdas Pophale) SiO2 
 PCOD9209829
Probable space group: C 2/M
;
_chemical_formula_sum "Si O2"
_cell_formula_units_Z 48
_cell_length_a 17.857219
_cell_length_b 17.931755
_cell_length_c 7.230051
_cell_angle_alpha 90.000000
_cell_angle_beta 75.047187
_cell_angle_gamma 90.000000
_cell_volume 2236.749970
_symmetry_space_group_name_H-M "C 2/M"
_symmetry_group_IT_number 12
_symmetry_cell_setting 'monoclinic'
loop_
_space_group_symop_operation_xyz
x,y,z
-x,y,-z
-x,-y,-z
x,-y,z
1/2+x,1/2+y,z
1/2-x,1/2+y,-z
1/2-x,1/2-y,-z
1/2+x,1/2-y,z
loop_
_atom_site_type_symbol
_atom_site_label
_atom_site_fract_x
_atom_site_fract_y
_atom_site_fract_z
Si Si1 0.774719 0.331564 0.177553
Si Si2 0.483032 0.703007 0.817070
Si Si3 0.107842 0.084182 0.609307
Si Si4 0.210405 0.412070 0.455465
Si Si5 0.136368 0.081823 0.149256
Si Si6 0.647013 0.791127 0.236526
O O1 0.806378 0.371023 0.338792
O O2 0.724535 0.391903 0.094544
O O3 0.711300 0.268079 0.269366
O O4 0.834196 0.298720 0.993564
O O5 0.553421 0.653271 0.695809
O O6 0.418485 0.640678 0.910830
O O7 0.438325 0.756205 0.702825
O O8 0.500000 0.742709 0.000000
O O9 0.195667 0.094389 0.627479
O O10 0.113926 0.082260 0.381560
O O11 0.079558 0.000000 0.679503
O O12 0.193549 0.500000 0.473677
O O13 0.163014 0.367204 0.332384
O O14 0.127220 0.000000 0.078640
#
# Coordination Sequence:
#
# PCOD9209829 Si02
#       6
#     8   8   8   8   8   8
#     4   9  19  36  58  85 123 157 198 246 294 350
#     4  11  23  35  49  81 124 160 196 233 289 357
#     4   9  19  35  56  86 122 156 190 234 293 363
#     4  10  21  38  65  93 117 154 201 249 303 355
#     4   9  18  34  55  84 120 157 193 233 293 359
#     4  10  22  38  56  86 123 162 199 245 292 358
#
# _framework density 21.459707000000002
#
# number of rings (size 3 to 8) (size 9 to 14) (size 15 to 20)
#    0.000    2.333    0.000    3.000    7.000    4.000 
#    3.000    0.000    0.000    0.500    0.000    1.167 
#    0.000    0.000    0.000    0.000    0.000    0.000 
#
# Total GULP energy -134080.129762 kJ/mol
# GULP energy per Si atom -5586.672073 kJ/mol
# Density = 2.141086 g / cm^3
# Si number density = 21.459707 Si / 1000 Ang^3
#
#
#
# Elastic Constant Matrix: (Units=GPa)
#
#
# Indices 1 2 3 4 5 6 
#
# 1 54.2629 35.9300 31.8465 0.0000 4.4668 0.0000
# 2 35.9300 119.4742 44.6271 0.0000 4.9011 0.0000
# 3 31.8465 44.6271 55.4930 0.0000 -0.9601 0.0000
# 4 0.0000 0.0000 0.0000 14.3070 0.0000 -1.2657
# 5 4.4668 4.9011 -0.9601 0.0000 20.8597 0.0000
# 6 0.0000 0.0000 0.0000 -1.2657 0.0000 26.7298
#
#
#
# Elastic Compliance Matrix: (Units=1/GPa)
#
#
# Indices 1 2 3 4 5 6 
#
# 1 0.029584 -0.003229 -0.014489 0.000000 -0.006243 0.000000
# 2 -0.003229 0.012541 -0.008278 0.000000 -0.002636 0.000000
# 3 -0.014489 -0.008278 0.033107 0.000000 0.006572 0.000000
# 4 0.000000 0.000000 0.000000 0.070190 0.000000 0.003324
# 5 -0.006243 -0.002636 0.006572 0.000000 0.050198 0.000000
# 6 0.000000 0.000000 0.000000 0.003324 0.000000 0.037569
#
#
# Mechanical properties :
#
#
# Convention : Reuss Voigt Hill
#
# Bulk Modulus (GPa) = 43.03062 50.44859 46.73961
# Shear Modulus (GPa) = 17.06898 20.16772 18.61835
#
# Velocity S-wave (km/s) = 2.82334 3.06893 2.94869
# Velocity P-wave (km/s) = 5.54289 6.00977 5.78105
#
# Compressibility (1/GPa) = 0.02323926
#
# Stress axis : x y z
#
# Youngs Moduli (GPa) = 33.80166 79.73612 30.20533
#
# Poissons Ratio (x) = 0.25744 0.43766
# Poissons Ratio (y) = 0.10913 0.25005
# Poissons Ratio (z) = 0.48977 0.66009
#
# Static dielectric constant tensor:
#      x y z
#    x 1.781400 0.000000 -0.008790 
#    y 0.000000 1.776390 0.000000 
#    z -0.008790 0.000000 1.829840 
# 
# From -- ./inp_files/86805.got.cif
#   From: 2010.05.17/outbox.cif.g08.bks.cpg/sg12_44_cif.got.tgz:86805.got - 2010.06.03 13:09:07.
