data_PCOD9209350
_publ_section_title
;
Structure prediction by ZEFSAII (Michael W. Deem and Ramdas Pophale) SiO2 
 PCOD9209350
Probable space group: C 2/M
;
_chemical_formula_sum "Si O2"
_cell_formula_units_Z 58
_cell_length_a 16.964331
_cell_length_b 14.400475
_cell_length_c 12.213749
_cell_angle_alpha 90.000000
_cell_angle_beta 81.473101
_cell_angle_gamma 90.000000
_cell_volume 2950.769480
_symmetry_space_group_name_H-M "C 2/M"
_symmetry_group_IT_number 12
_symmetry_cell_setting 'monoclinic'
loop_
_space_group_symop_operation_xyz
x,y,z
-x,y,-z
-x,-y,-z
x,-y,z
1/2+x,1/2+y,z
1/2-x,1/2+y,-z
1/2-x,1/2-y,-z
1/2+x,1/2-y,z
loop_
_atom_site_type_symbol
_atom_site_label
_atom_site_fract_x
_atom_site_fract_y
_atom_site_fract_z
Si Si1 0.462315 0.108045 0.886487
Si Si2 0.856762 0.783675 0.691914
Si Si3 0.865613 0.854512 0.458978
Si Si4 0.241341 0.400489 0.301585
Si Si5 0.392873 0.607922 0.118343
Si Si6 0.500000 0.500000 0.500000
Si Si7 0.163745 0.772599 0.066647
Si Si8 0.035695 0.752654 0.719710
O O1 0.386213 0.177291 0.905362
O O2 0.522645 0.156507 0.787393
O O3 0.445114 0.000000 0.865068
O O4 0.500000 0.111557 0.000000
O O5 0.835330 0.838926 0.587765
O O6 0.819135 0.682825 0.686350
O O7 0.827769 0.819509 0.815837
O O8 0.951599 0.775943 0.681783
O O9 0.797061 0.895209 0.396921
O O10 0.896760 0.763176 0.386895
O O11 0.941929 0.920467 0.455989
O O12 0.200934 0.500000 0.303356
O O13 0.304057 0.391741 0.188974
O O14 0.418168 0.500000 0.105395
O O15 0.444507 0.668931 0.192563
O O16 0.385537 0.661309 0.005168
O O17 0.250000 0.750000 0.000000
#
# Coordination Sequence:
#
# PCOD9209350 Si02
#       8
#     8   8   8   8   8   2   8   8
#     4  10  21  39  63  87 119 163 208 252 307 369
#     4  11  22  36  60  89 123 159 199 250 306 364
#     4  11  22  40  63  91 124 160 206 251 310 369
#     4  10  21  38  62  86 118 163 203 246 303 370
#     4  10  21  39  62  91 124 163 205 253 315 371
#     4  12  20  40  68  88 124 168 206 242 310 390
#     4  11  22  40  61  90 128 163 203 255 308 377
#     4  10  21  38  63  90 122 159 207 260 305 368
#
# _framework density 19.655888999999998
#
# number of rings (size 3 to 8) (size 9 to 14) (size 15 to 20)
#    0.000    1.517    4.828    0.414    0.966    2.759 
#    1.241    5.517    0.000    5.793    0.000    0.000 
#    0.000    0.000    0.000    0.000    0.000    0.000 
#
# Total GULP energy -161560.032912 kJ/mol
# GULP energy per Si atom -5571.035618 kJ/mol
# Density = 1.961115 g / cm^3
# Si number density = 19.655889 Si / 1000 Ang^3
#
#
#
# Elastic Constant Matrix: (Units=GPa)
#
#
# Indices 1 2 3 4 5 6 
#
# 1 56.0851 26.6616 13.0386 0.0000 8.6484 0.0000
# 2 26.6616 114.6820 34.4038 0.0000 5.8374 0.0000
# 3 13.0386 34.4038 129.9371 0.0000 7.8864 0.0000
# 4 0.0000 0.0000 0.0000 -2.9643 0.0000 22.5011
# 5 8.6484 5.8374 7.8864 0.0000 28.7986 0.0000
# 6 0.0000 0.0000 0.0000 22.5011 0.0000 23.3916
#
#
#
# Elastic Compliance Matrix: (Units=1/GPa)
#
#
# Indices 1 2 3 4 5 6 
#
# 1 0.020868 -0.004403 -0.000612 0.000000 -0.005207 0.000000
# 2 -0.004403 0.010446 -0.002314 0.000000 -0.000161 0.000000
# 3 -0.000612 -0.002314 0.008471 0.000000 -0.001667 0.000000
# 4 0.000000 0.000000 0.000000 -0.040636 0.000000 0.039089
# 5 -0.005207 -0.000161 -0.001667 0.000000 0.036777 0.000000
# 6 0.000000 0.000000 0.000000 0.039089 0.000000 0.005150
#
#
# Mechanical properties :
#
#
# Convention : Reuss Voigt Hill
#
# Bulk Modulus (GPa) = 39.79791 49.87913 44.83852
# Shear Modulus (GPa) = 77.99075 24.95186 51.47130
#
# Velocity S-wave (km/s) = 6.30589 3.56678 5.12280
# Velocity P-wave (km/s) = 8.56214 6.51105 7.60605
#
# Compressibility (1/GPa) = 0.02512695
#
# Stress axis : x y z
#
# Youngs Moduli (GPa) = 47.91963 95.73231 118.04464
#
# Poissons Ratio (x) = 0.42149 0.07227
# Poissons Ratio (y) = 0.21098 0.27318
# Poissons Ratio (z) = 0.02934 0.22154
#
# Static dielectric constant tensor:
#      x y z
#    x 1.683130 0.000000 -0.004870 
#    y 0.000000 1.676810 0.000000 
#    z -0.004870 0.000000 1.733470 
# 
# From -- ./inp_files/156083.got.cif
#   From: 2010.05.17/outbox.cif.g08.bks.cpg/sg12_79_cif.got.tgz:156083.got - 2010.06.03 13:09:07.
