data_PCOD9209009
_publ_section_title
;
Structure prediction by ZEFSAII (Michael W. Deem and Ramdas Pophale) SiO2 
 PCOD9209009
Probable space group: C 2/M
;
_chemical_formula_sum "Si O2"
_cell_formula_units_Z 56
_cell_length_a 22.222807
_cell_length_b 8.281228
_cell_length_c 15.120766
_cell_angle_alpha 90.000000
_cell_angle_beta 112.383327
_cell_angle_gamma 90.000000
_cell_volume 2573.049001
_symmetry_space_group_name_H-M "C 2/M"
_symmetry_group_IT_number 12
_symmetry_cell_setting 'monoclinic'
loop_
_space_group_symop_operation_xyz
x,y,z
-x,y,-z
-x,-y,-z
x,-y,z
1/2+x,1/2+y,z
1/2-x,1/2+y,-z
1/2-x,1/2-y,-z
1/2+x,1/2-y,z
loop_
_atom_site_type_symbol
_atom_site_label
_atom_site_fract_x
_atom_site_fract_y
_atom_site_fract_z
Si Si1 0.654236 0.190429 0.247421
Si Si2 0.574922 0.690386 0.043603
Si Si3 0.213486 0.309055 0.660196
Si Si4 0.175014 0.691567 0.949911
Si Si5 0.838455 0.312978 0.550824
Si Si6 0.109036 0.808915 0.733818
Si Si7 0.525759 0.312490 0.414468
O O1 0.603766 0.279330 0.157009
O O2 0.728140 0.218966 0.257263
O O3 0.658514 0.258984 0.349441
O O4 0.639081 0.000000 0.240377
O O5 0.573338 0.500000 0.022294
O O6 0.500000 0.750890 0.000000
O O7 0.627234 0.768372 0.005588
O O8 0.226976 0.500000 0.664344
O O9 0.202964 0.243503 0.554129
O O10 0.148564 0.280579 0.679327
O O11 0.176906 0.500000 0.939321
O O12 0.141407 0.769485 0.845153
O O13 0.250000 0.750000 0.000000
O O14 0.819158 0.500000 0.549104
O O15 0.912520 0.299701 0.560552
O O16 0.033022 0.766440 0.683573
O O17 0.113164 0.000000 0.718018
O O18 0.500000 0.305576 0.500000
O O19 0.544776 0.500000 0.408119
#
# Coordination Sequence:
#
# PCOD9209009 Si02
#       7
#     8   8   8   8   8   8   8
#     4  11  24  42  64  92 126 166 211 260 317 376
#     4  11  26  48  71  97 131 171 219 273 331 394
#     4  11  22  39  62  93 129 169 212 257 312 373
#     4  12  26  46  72 100 132 170 218 274 332 392
#     4  10  23  39  60  91 127 166 210 257 309 372
#     4  11  23  40  64  94 129 167 210 259 316 378
#     4  10  21  38  60  89 124 166 209 253 309 372
#
# _framework density 21.764064000000001
#
# number of rings (size 3 to 8) (size 9 to 14) (size 15 to 20)
#    0.000    1.143    1.429    4.286    2.000    4.286 
#    0.000    0.000    0.000    0.000    0.000    0.000 
#    0.000    0.000    0.000    0.000    0.000    0.000 
#
# Total GULP energy -156512.827042 kJ/mol
# GULP energy per Si atom -5589.743823 kJ/mol
# Density = 2.171453 g / cm^3
# Si number density = 21.764064 Si / 1000 Ang^3
#
#
#
# Elastic Constant Matrix: (Units=GPa)
#
#
# Indices 1 2 3 4 5 6 
#
# 1 83.2948 7.5015 36.0849 0.0000 17.3090 0.0000
# 2 7.5015 36.2237 -5.8248 0.0000 5.8324 0.0000
# 3 36.0849 -5.8248 133.8658 0.0000 24.5888 0.0000
# 4 0.0000 0.0000 0.0000 20.4073 0.0000 -2.2514
# 5 17.3090 5.8324 24.5888 0.0000 40.7438 0.0000
# 6 0.0000 0.0000 0.0000 -2.2514 0.0000 24.6352
#
#
#
# Elastic Compliance Matrix: (Units=1/GPa)
#
#
# Indices 1 2 3 4 5 6 
#
# 1 0.014495 -0.002943 -0.003353 0.000000 -0.003713 0.000000
# 2 -0.002943 0.029453 0.002946 0.000000 -0.004744 0.000000
# 3 -0.003353 0.002946 0.009355 0.000000 -0.004643 0.000000
# 4 0.000000 0.000000 0.000000 0.049501 0.000000 0.004524
# 5 -0.003713 -0.004744 -0.004643 0.000000 0.029602 0.000000
# 6 0.000000 0.000000 0.000000 0.004524 0.000000 0.041006
#
#
# Mechanical properties :
#
#
# Convention : Reuss Voigt Hill
#
# Bulk Modulus (GPa) = 21.45784 36.54526 29.00155
# Shear Modulus (GPa) = 25.55625 31.53210 28.54417
#
# Velocity S-wave (km/s) = 3.43044 3.81046 3.62543
# Velocity P-wave (km/s) = 5.05680 6.01560 5.55692
#
# Compressibility (1/GPa) = 0.04660302
#
# Stress axis : x y z
#
# Youngs Moduli (GPa) = 68.98997 33.95206 106.89315
#
# Poissons Ratio (x) = 0.09993 0.35845
# Poissons Ratio (y) = 0.20305 -0.31494
# Poissons Ratio (z) = 0.23135 -0.10003
#
# Static dielectric constant tensor:
#      x y z
#    x 1.839320 0.000000 -0.014160 
#    y 0.000000 1.756630 0.000000 
#    z -0.014160 0.000000 1.792760 
# 
# From -- ./inp_files/239049.got.cif
#   From: 2010.05.17/outbox.cif.g08.bks.cpg/sg12_120_cif.got.tgz:239049.got - 2010.06.03 13:09:07.
