data_PCOD9209039
_publ_section_title
;
Structure prediction by ZEFSAII (Michael W. Deem and Ramdas Pophale) SiO2 
 PCOD9209039
Probable space group: C 2/M
;
_chemical_formula_sum "Si O2"
_cell_formula_units_Z 44
_cell_length_a 9.071424
_cell_length_b 21.771847
_cell_length_c 12.109948
_cell_angle_alpha 90.000000
_cell_angle_beta 122.360242
_cell_angle_gamma 90.000000
_cell_volume 2020.297258
_symmetry_space_group_name_H-M "C 2/M"
_symmetry_group_IT_number 12
_symmetry_cell_setting 'monoclinic'
loop_
_space_group_symop_operation_xyz
x,y,z
-x,y,-z
-x,-y,-z
x,-y,z
1/2+x,1/2+y,z
1/2-x,1/2+y,-z
1/2-x,1/2-y,-z
1/2+x,1/2-y,z
loop_
_atom_site_type_symbol
_atom_site_label
_atom_site_fract_x
_atom_site_fract_y
_atom_site_fract_z
Si Si1 0.893381 0.569907 0.852203
Si Si2 0.339374 0.825020 0.679776
Si Si3 0.519128 0.430501 0.812457
Si Si4 0.318280 0.767003 0.238283
Si Si5 0.000000 0.168237 0.000000
Si Si6 0.195138 0.630805 0.575243
O O1 0.951318 0.500000 0.855234
O O2 0.921265 0.612504 0.758892
O O3 0.691353 0.569645 0.805922
O O4 0.000000 0.594134 0.000000
O O5 0.492694 0.774639 0.738983
O O6 0.206645 0.799117 0.716928
O O7 0.270329 0.838917 0.530478
O O8 0.504617 0.500000 0.853052
O O9 0.536065 0.377875 0.912231
O O10 0.347943 0.414345 0.672922
O O11 0.316404 0.815056 0.339114
O O12 0.165403 0.788979 0.095530
O O13 0.000000 0.602518 0.500000
#
# Coordination Sequence:
#
# PCOD9209039 Si02
#       6
#     8   8   8   8   4   8
#     4  10  23  42  63  89 125 164 210 259 314 374
#     4  11  23  40  63  90 126 169 207 259 312 368
#     4  10  21  39  64  92 123 166 212 261 311 370
#     4  10  23  38  61  92 126 165 206 254 319 374
#     4  10  21  38  60  92 129 158 208 258 318 382
#     4   9  21  41  58  89 129 163 211 253 310 375
#
# _framework density 21.778974999999999
#
# number of rings (size 3 to 8) (size 9 to 14) (size 15 to 20)
#    0.000    2.000    0.000    1.909    6.364    2.545 
#    0.000   10.909    0.000    0.000    0.000    0.000 
#    0.000    0.000    0.000    0.000    0.000    0.000 
#
# Total GULP energy -123001.407964 kJ/mol
# GULP energy per Si atom -5590.973089 kJ/mol
# Density = 2.172940 g / cm^3
# Si number density = 21.778975 Si / 1000 Ang^3
#
#
#
# Elastic Constant Matrix: (Units=GPa)
#
#
# Indices 1 2 3 4 5 6 
#
# 1 45.3614 17.1367 28.3143 0.0000 10.9421 0.0000
# 2 17.1367 32.0176 9.0858 0.0000 -8.0268 0.0000
# 3 28.3143 9.0858 106.8975 0.0000 13.7257 0.0000
# 4 0.0000 0.0000 0.0000 24.9274 0.0000 0.2002
# 5 10.9421 -8.0268 13.7257 0.0000 21.6319 0.0000
# 6 0.0000 0.0000 0.0000 0.2002 0.0000 29.3161
#
#
#
# Elastic Compliance Matrix: (Units=1/GPa)
#
#
# Indices 1 2 3 4 5 6 
#
# 1 0.043435 -0.029144 -0.005245 0.000000 -0.029457 0.000000
# 2 -0.029144 0.056603 -0.001830 0.000000 0.036907 0.000000
# 3 -0.005245 -0.001830 0.011591 0.000000 -0.005380 0.000000
# 4 0.000000 0.000000 0.000000 0.040119 0.000000 -0.000274
# 5 -0.029457 0.036907 -0.005380 0.000000 0.078237 0.000000
# 6 0.000000 0.000000 0.000000 -0.000274 0.000000 0.034113
#
#
# Mechanical properties :
#
#
# Convention : Reuss Voigt Hill
#
# Bulk Modulus (GPa) = 25.51710 32.59446 29.05578
# Shear Modulus (GPa) = 14.30211 23.82439 19.06325
#
# Velocity S-wave (km/s) = 2.56538 3.31103 2.96177
# Velocity P-wave (km/s) = 4.52954 5.44203 5.00662
#
# Compressibility (1/GPa) = 0.03918941
#
# Stress axis : x y z
#
# Youngs Moduli (GPa) = 23.02302 17.66686 86.27736
#
# Poissons Ratio (x) = 0.51488 0.45256
# Poissons Ratio (y) = 0.67098 0.15792
# Poissons Ratio (z) = 0.12077 0.03234
#
# Static dielectric constant tensor:
#      x y z
#    x 1.821320 0.000000 0.005270 
#    y 0.000000 1.781780 0.000000 
#    z 0.005270 0.000000 1.778170 
# 
# From -- ./inp_files/122121.got.cif
#   From: 2010.05.17/outbox.cif.g08.bks.cpg/sg12_62_cif.got.tgz:122121.got - 2010.06.03 13:09:07.
