data_PCOD9209014
_publ_section_title
;
Structure prediction by ZEFSAII (Michael W. Deem and Ramdas Pophale) SiO2 
 PCOD9209014
Probable space group: C 2/M
;
_chemical_formula_sum "Si O2"
_cell_formula_units_Z 42
_cell_length_a 14.742252
_cell_length_b 17.673251
_cell_length_c 9.502404
_cell_angle_alpha 90.000000
_cell_angle_beta 64.837223
_cell_angle_gamma 90.000000
_cell_volume 2240.845938
_symmetry_space_group_name_H-M "C 2/M"
_symmetry_group_IT_number 12
_symmetry_cell_setting 'monoclinic'
loop_
_space_group_symop_operation_xyz
x,y,z
-x,y,-z
-x,-y,-z
x,-y,z
1/2+x,1/2+y,z
1/2-x,1/2+y,-z
1/2-x,1/2-y,-z
1/2+x,1/2-y,z
loop_
_atom_site_type_symbol
_atom_site_label
_atom_site_fract_x
_atom_site_fract_y
_atom_site_fract_z
Si Si1 0.942971 0.206806 0.807095
Si Si2 0.866121 0.632865 0.969150
Si Si3 0.225564 0.186740 0.310719
Si Si4 0.328724 0.337315 0.353305
Si Si5 0.169440 0.086050 0.931326
Si Si6 0.000000 0.500000 0.000000
O O1 0.916769 0.289988 0.881941
O O2 0.875735 0.192111 0.713302
O O3 0.059774 0.196154 0.703004
O O4 0.905425 0.145797 0.946964
O O5 0.778775 0.607569 0.919560
O O6 0.808534 0.651559 0.153232
O O7 0.943234 0.566434 0.945209
O O8 0.260615 0.270542 0.332637
O O9 0.210850 0.142303 0.466108
O O10 0.331987 0.402224 0.234836
O O11 0.144805 0.000000 0.986220
#
# Coordination Sequence:
#
# PCOD9209014 Si02
#       6
#     8   8   8   8   8   2
#     4  11  21  39  66  91 118 164 214 254 298 376
#     4  11  21  41  63  91 122 159 209 254 304 366
#     4  10  21  38  60  89 126 161 201 251 310 365
#     4  11  21  36  61  90 123 161 200 255 310 364
#     4  11  22  40  61  89 123 161 204 259 310 358
#     4  12  24  36  72  94 118 160 212 254 304 368
#
# _framework density 18.742920999999999
#
# number of rings (size 3 to 8) (size 9 to 14) (size 15 to 20)
#    0.000    1.143    4.762    3.429    0.000    1.524 
#    1.714    0.000    0.000    4.571    0.000    0.000 
#    0.000    0.000    0.000    0.000    0.000    0.000 
#
# Total GULP energy -117078.076701 kJ/mol
# GULP energy per Si atom -5575.146510 kJ/mol
# Density = 1.870026 g / cm^3
# Si number density = 18.742921 Si / 1000 Ang^3
#
#
#
# Elastic Constant Matrix: (Units=GPa)
#
#
# Indices 1 2 3 4 5 6 
#
# 1 56.0803 3.8153 2.2601 0.0000 9.2550 0.0000
# 2 3.8153 97.7530 12.8394 0.0000 16.2240 0.0000
# 3 2.2601 12.8394 58.3658 0.0000 20.0742 0.0000
# 4 0.0000 0.0000 0.0000 -1.7979 0.0000 -7.8212
# 5 9.2550 16.2240 20.0742 0.0000 20.9358 0.0000
# 6 0.0000 0.0000 0.0000 -7.8212 0.0000 1.8723
#
#
#
# Elastic Compliance Matrix: (Units=1/GPa)
#
#
# Indices 1 2 3 4 5 6 
#
# 1 0.019724 0.000886 0.003396 0.000000 -0.012662 0.000000
# 2 0.000886 0.011806 0.000970 0.000000 -0.010470 0.000000
# 3 0.003396 0.000970 0.026205 0.000000 -0.027380 0.000000
# 4 0.000000 0.000000 0.000000 -0.029011 0.000000 -0.121190
# 5 -0.012662 -0.010470 -0.027380 0.000000 0.087730 0.000000
# 6 0.000000 0.000000 0.000000 -0.121190 0.000000 0.027859
#
#
# Mechanical properties :
#
#
# Convention : Reuss Voigt Hill
#
# Bulk Modulus (GPa) = 14.65441 27.78099 21.21770
# Shear Modulus (GPa) = 31.93758 17.08764 24.51261
#
# Velocity S-wave (km/s) = 4.13241 3.02269 3.62032
# Velocity P-wave (km/s) = 5.53215 5.19966 5.36848
#
# Compressibility (1/GPa) = 0.06823884
#
# Stress axis : x y z
#
# Youngs Moduli (GPa) = 50.69928 84.70537 38.15996
#
# Poissons Ratio (x) = -0.07502 -0.12961
# Poissons Ratio (y) = -0.04490 -0.03700
# Poissons Ratio (z) = -0.17220 -0.08214
#
# Static dielectric constant tensor:
#      x y z
#    x 1.655040 0.000000 0.008140 
#    y 0.000000 1.625900 0.000000 
#    z 0.008140 0.000000 1.658220 
# 
# From -- ./inp_files/60992.got.cif
#   From: 2010.05.17/outbox.cif.g08.bks.cpg/sg12_31_cif.got.tgz:60992.got - 2010.06.03 13:09:07.
