data_PCOD9209310
_publ_section_title
;
Structure prediction by ZEFSAII (Michael W. Deem and Ramdas Pophale) SiO2 
 PCOD9209310
Probable space group: C 2/M
;
_chemical_formula_sum "Si O2"
_cell_formula_units_Z 56
_cell_length_a 15.676009
_cell_length_b 21.308201
_cell_length_c 8.478623
_cell_angle_alpha 90.000000
_cell_angle_beta 70.439972
_cell_angle_gamma 90.000000
_cell_volume 2668.657085
_symmetry_space_group_name_H-M "C 2/M"
_symmetry_group_IT_number 12
_symmetry_cell_setting 'monoclinic'
loop_
_space_group_symop_operation_xyz
x,y,z
-x,y,-z
-x,-y,-z
x,-y,z
1/2+x,1/2+y,z
1/2-x,1/2+y,-z
1/2-x,1/2-y,-z
1/2+x,1/2-y,z
loop_
_atom_site_type_symbol
_atom_site_label
_atom_site_fract_x
_atom_site_fract_y
_atom_site_fract_z
Si Si1 0.390920 0.871319 0.912900
Si Si2 0.774502 0.928550 0.512891
Si Si3 0.349925 0.227636 0.484257
Si Si4 0.753321 0.146272 0.220437
Si Si5 0.909370 0.221038 0.952571
Si Si6 0.909699 0.152239 0.615059
Si Si7 0.586819 0.886411 0.736994
O O1 0.297611 0.889715 0.887562
O O2 0.396468 0.794929 0.923059
O O3 0.481032 0.896642 0.770115
O O4 0.396986 0.894781 0.087936
O O5 0.795861 0.895792 0.332006
O O6 0.822304 0.888541 0.621574
O O7 0.665757 0.923675 0.600210
O O8 0.803702 0.000000 0.498839
O O9 0.250000 0.250000 0.500000
O O10 0.329768 0.182885 0.644312
O O11 0.405198 0.287149 0.503207
O O12 0.394316 0.186239 0.321761
O O13 0.824951 0.195000 0.106244
O O14 0.911071 0.179162 0.791321
O O15 0.000000 0.213218 0.000000
O O16 0.000000 0.117302 0.500000
#
# Coordination Sequence:
#
# PCOD9209310 Si02
#       7
#     8   8   8   8   8   8   8
#     4  11  21  35  62  98 136 162 191 256 330 394
#     4  11  26  47  65  83 122 176 231 274 301 355
#     4  11  20  33  57  90 128 160 197 251 317 392
#     4  11  23  37  60  93 128 167 209 257 319 379
#     4  12  23  36  61 100 141 163 192 250 328 404
#     4  12  24  38  64  95 127 168 212 257 323 387
#     4  10  21  38  61  93 131 166 204 253 319 386
#
# _framework density 20.984338000000001
#
# number of rings (size 3 to 8) (size 9 to 14) (size 15 to 20)
#    0.000    0.857    5.714    3.857    0.000    2.000 
#    0.000    5.714    0.000    1.714    0.000    0.000 
#    0.000    0.000    0.000    0.000    0.000    0.000 
#
# Total GULP energy -156417.542110 kJ/mol
# GULP energy per Si atom -5586.340790 kJ/mol
# Density = 2.093658 g / cm^3
# Si number density = 20.984338 Si / 1000 Ang^3
#
#
#
# Elastic Constant Matrix: (Units=GPa)
#
#
# Indices 1 2 3 4 5 6 
#
# 1 82.0025 -5.1682 10.8692 0.0000 13.6590 0.0000
# 2 -5.1682 46.2555 -1.1216 0.0000 10.3387 0.0000
# 3 10.8692 -1.1216 66.9183 0.0000 1.1839 0.0000
# 4 0.0000 0.0000 0.0000 8.0857 0.0000 -2.8063
# 5 13.6590 10.3387 1.1839 0.0000 42.4916 0.0000
# 6 0.0000 0.0000 0.0000 -2.8063 0.0000 3.5761
#
#
#
# Elastic Compliance Matrix: (Units=1/GPa)
#
#
# Indices 1 2 3 4 5 6 
#
# 1 0.013440 0.002543 -0.002054 0.000000 -0.004882 0.000000
# 2 0.002543 0.023359 0.000094 0.000000 -0.006504 0.000000
# 3 -0.002054 0.000094 0.015275 0.000000 0.000212 0.000000
# 4 0.000000 0.000000 0.000000 0.169965 0.000000 0.133377
# 5 -0.004882 -0.006504 0.000212 0.000000 0.026680 0.000000
# 6 0.000000 0.000000 0.000000 0.133377 0.000000 0.384298
#
#
# Mechanical properties :
#
#
# Convention : Reuss Voigt Hill
#
# Bulk Modulus (GPa) = 18.78297 22.70390 20.74343
# Shear Modulus (GPa) = 7.69706 23.53716 15.61711
#
# Velocity S-wave (km/s) = 1.91728 3.35274 2.73101
# Velocity P-wave (km/s) = 3.72447 5.08240 4.45547
#
# Compressibility (1/GPa) = 0.05323972
#
# Stress axis : x y z
#
# Youngs Moduli (GPa) = 74.40220 42.80984 65.46630
#
# Poissons Ratio (x) = -0.10887 0.13447
# Poissons Ratio (y) = -0.18921 -0.00612
# Poissons Ratio (z) = 0.15283 -0.00400
#
# Static dielectric constant tensor:
#      x y z
#    x 1.800130 0.000000 0.010520 
#    y 0.000000 1.758480 0.000000 
#    z 0.010520 0.000000 1.815540 
# 
# From -- ./inp_files/65284.got.cif
#   From: 2010.05.17/outbox.cif.g08.bks.cpg/sg12_33_cif.got.tgz:65284.got - 2010.06.03 13:09:07.
