data_PCOD9209563
_publ_section_title
;
Structure prediction by ZEFSAII (Michael W. Deem and Ramdas Pophale) SiO2 
 PCOD9209563
Probable space group: C 2/M
;
_chemical_formula_sum "Si O2"
_cell_formula_units_Z 56
_cell_length_a 21.142295
_cell_length_b 25.020583
_cell_length_c 9.135171
_cell_angle_alpha 90.000000
_cell_angle_beta 148.427903
_cell_angle_gamma 90.000000
_cell_volume 2530.124326
_symmetry_space_group_name_H-M "C 2/M"
_symmetry_group_IT_number 12
_symmetry_cell_setting 'monoclinic'
loop_
_space_group_symop_operation_xyz
x,y,z
-x,y,-z
-x,-y,-z
x,-y,z
1/2+x,1/2+y,z
1/2-x,1/2+y,-z
1/2-x,1/2-y,-z
1/2+x,1/2-y,z
loop_
_atom_site_type_symbol
_atom_site_label
_atom_site_fract_x
_atom_site_fract_y
_atom_site_fract_z
Si Si1 0.791044 0.405192 0.297300
Si Si2 0.902917 0.000000 0.577622
Si Si3 0.173834 0.000000 0.232947
Si Si4 0.822670 0.274974 0.775863
Si Si5 0.270772 0.922137 0.928423
Si Si6 0.836957 0.190149 0.289371
Si Si7 0.957792 0.611386 0.072999
Si Si8 0.906873 0.187202 0.117418
O O1 0.749246 0.448255 0.334381
O O2 0.919942 0.379770 0.592936
O O3 0.795259 0.435082 0.146959
O O4 0.689342 0.358957 0.100670
O O5 0.845655 0.951046 0.371208
O O6 0.853726 0.000000 0.648059
O O7 0.047466 0.000000 0.889367
O O8 0.750000 0.250000 0.500000
O O9 0.722756 0.274118 0.707186
O O10 0.883720 0.333572 0.888374
O O11 0.918891 0.231247 0.016658
O O12 0.252592 0.858792 0.908434
O O13 0.375538 0.926546 0.013273
O O14 0.868687 0.214730 0.195923
O O15 0.960771 0.164762 0.593079
O O16 0.000000 0.588602 0.000000
#
# Coordination Sequence:
#
# PCOD9209563 Si02
#       8
#     8   4   4   8   8   8   8   8
#     4  11  23  42  67  98 130 172 223 273 334 385
#     4  11  23  42  69 100 137 169 221 261 336 389
#     4  11  25  42  69 104 137 175 211 269 326 407
#     4  11  24  38  60  88 123 166 214 264 321 391
#     4  10  22  42  66  94 128 171 221 277 321 390
#     4   9  21  40  57  88 119 161 212 263 321 374
#     4  11  24  42  62  91 134 173 216 269 333 398
#     4  10  21  38  63  85 122 163 211 270 317 381
#
# _framework density 22.133299999999998
#
# number of rings (size 3 to 8) (size 9 to 14) (size 15 to 20)
#    0.000    1.571    0.000    3.857    4.000    4.000 
#    5.143    2.857    0.000    0.000    0.000    0.000 
#    0.000    0.000    0.000    0.000    0.000    0.000 
#
# Total GULP energy -156152.947279 kJ/mol
# GULP energy per Si atom -5576.890974 kJ/mol
# Density = 2.208292 g / cm^3
# Si number density = 22.133300 Si / 1000 Ang^3
#
#
#
# Elastic Constant Matrix: (Units=GPa)
#
#
# Indices 1 2 3 4 5 6 
#
# 1 71.7776 11.7540 12.2635 0.0000 -9.0902 0.0000
# 2 11.7540 47.8863 11.6156 0.0000 -9.2560 0.0000
# 3 12.2635 11.6156 113.0279 0.0000 -2.8683 0.0000
# 4 0.0000 0.0000 0.0000 32.9574 0.0000 -2.1709
# 5 -9.0902 -9.2560 -2.8683 0.0000 37.0548 0.0000
# 6 0.0000 0.0000 0.0000 -2.1709 0.0000 21.9240
#
#
#
# Elastic Compliance Matrix: (Units=1/GPa)
#
#
# Indices 1 2 3 4 5 6 
#
# 1 0.014972 -0.002814 -0.001262 0.000000 0.002872 0.000000
# 2 -0.002814 0.022990 -0.001933 0.000000 0.004903 0.000000
# 3 -0.001262 -0.001933 0.009181 0.000000 -0.000082 0.000000
# 4 0.000000 0.000000 0.000000 0.030541 0.000000 0.003024
# 5 0.002872 0.004903 -0.000082 0.000000 0.028910 0.000000
# 6 0.000000 0.000000 0.000000 0.003024 0.000000 0.045912
#
#
# Mechanical properties :
#
#
# Convention : Reuss Voigt Hill
#
# Bulk Modulus (GPa) = 28.46966 33.77310 31.12138
# Shear Modulus (GPa) = 28.37165 31.52449 29.94807
#
# Velocity S-wave (km/s) = 3.58418 3.77809 3.68241
# Velocity P-wave (km/s) = 5.47898 5.85867 5.67200
#
# Compressibility (1/GPa) = 0.03512511
#
# Stress axis : x y z
#
# Youngs Moduli (GPa) = 66.79078 43.49729 108.92164
#
# Poissons Ratio (x) = 0.12238 0.13751
# Poissons Ratio (y) = 0.18792 0.21054
# Poissons Ratio (z) = 0.08432 0.08408
#
# Static dielectric constant tensor:
#      x y z
#    x 1.856310 0.000000 -0.019180 
#    y 0.000000 1.833270 0.000000 
#    z -0.019180 0.000000 1.850590 
# 
# From -- ./inp_files/91662.got.cif
#   From: 2010.05.17/outbox.cif.g08.bks.cpg/sg12_46_cif.got.tgz:91662.got - 2010.06.03 13:09:07.
