data_PCOD9209731
_publ_section_title
;
Structure prediction by ZEFSAII (Michael W. Deem and Ramdas Pophale) SiO2 
 PCOD9209731
Probable space group: C 2/M
;
_chemical_formula_sum "Si O2"
_cell_formula_units_Z 50
_cell_length_a 18.335970
_cell_length_b 7.816070
_cell_length_c 19.562283
_cell_angle_alpha 90.000000
_cell_angle_beta 58.509221
_cell_angle_gamma 90.000000
_cell_volume 2390.674655
_symmetry_space_group_name_H-M "C 2/M"
_symmetry_group_IT_number 12
_symmetry_cell_setting 'monoclinic'
loop_
_space_group_symop_operation_xyz
x,y,z
-x,y,-z
-x,-y,-z
x,-y,z
1/2+x,1/2+y,z
1/2-x,1/2+y,-z
1/2-x,1/2-y,-z
1/2+x,1/2-y,z
loop_
_atom_site_type_symbol
_atom_site_label
_atom_site_fract_x
_atom_site_fract_y
_atom_site_fract_z
Si Si1 0.176107 0.199784 0.722860
Si Si2 0.174284 0.705671 0.252468
Si Si3 0.661153 0.294838 0.578547
Si Si4 0.009288 0.297583 0.417836
Si Si5 0.178160 0.797763 0.091296
Si Si6 0.001170 0.799566 0.889056
Si Si7 0.000000 0.500000 0.000000
O O1 0.245849 0.271115 0.741507
O O2 0.169441 0.276597 0.651158
O O3 0.082233 0.200579 0.800162
O O4 0.201382 0.000000 0.700824
O O5 0.172650 0.500000 0.256778
O O6 0.187052 0.740864 0.165599
O O7 0.086965 0.770038 0.331884
O O8 0.649979 0.500000 0.586377
O O9 0.750000 0.250000 0.500000
O O10 0.579890 0.224923 0.577622
O O11 0.026601 0.500000 0.417269
O O12 0.000000 0.226770 0.500000
O O13 0.085961 0.747103 0.106736
O O14 0.179559 0.000000 0.093850
O O15 0.250000 0.750000 0.000000
O O16 0.018721 0.653413 0.935135
O O17 0.990983 0.000000 0.918206
#
# Coordination Sequence:
#
# PCOD9209731 Si02
#       7
#     8   8   8   8   8   8   2
#     4   9  20  41  64  87 125 167 207 257 321 376
#     4  10  21  38  64  91 120 164 210 256 308 377
#     4  11  22  39  63  91 126 166 209 258 314 372
#     4  10  21  39  63  92 127 164 206 252 310 377
#     4  11  25  42  63  90 128 167 210 264 323 379
#     4  10  24  44  65  94 129 169 213 268 325 384
#     4  12  26  40  72  94 128 164 220 268 324 394
#
# _framework density 20.914598999999999
#
# number of rings (size 3 to 8) (size 9 to 14) (size 15 to 20)
#    0.000    1.760    0.000    3.120    4.480    4.800 
#    2.880    1.600    0.000    0.000    0.000    0.000 
#    0.000    0.000    0.000    0.000    0.000    0.000 
#
# Total GULP energy -139233.964113 kJ/mol
# GULP energy per Si atom -5569.358565 kJ/mol
# Density = 2.086700 g / cm^3
# Si number density = 20.914599 Si / 1000 Ang^3
#
#
#
# Elastic Constant Matrix: (Units=GPa)
#
#
# Indices 1 2 3 4 5 6 
#
# 1 415.8793 90.7389 167.5086 0.0001 108.8899 0.0005
# 2 90.7389 78.4219 42.7252 0.0001 49.4354 0.0015
# 3 167.5086 42.7252 194.6793 0.0000 49.1340 0.0001
# 4 0.0001 0.0001 0.0000 21.6991 0.0000 5.9746
# 5 108.8899 49.4354 49.1340 0.0000 84.4715 -0.0001
# 6 0.0005 0.0015 0.0001 5.9746 -0.0001 27.0618
#
#
#
# Elastic Compliance Matrix: (Units=1/GPa)
#
#
# Indices 1 2 3 4 5 6 
#
# 1 0.004919 -0.001858 -0.002929 0.000000 -0.003550 0.000000
# 2 -0.001858 0.021399 -0.000634 0.000000 -0.009759 -0.000001
# 3 -0.002929 -0.000634 0.007911 0.000000 -0.000455 0.000000
# 4 0.000000 0.000000 0.000000 0.049067 0.000000 -0.010833
# 5 -0.003550 -0.009759 -0.000455 0.000000 0.022390 0.000001
# 6 0.000000 -0.000001 0.000000 -0.010833 0.000001 0.039344
#
#
# Mechanical properties :
#
#
# Convention : Reuss Voigt Hill
#
# Bulk Modulus (GPa) = 42.76062 143.43621 93.09841
# Shear Modulus (GPa) = 30.54941 52.51369 41.53155
#
# Velocity S-wave (km/s) = 3.82602 5.01629 4.46103
# Velocity P-wave (km/s) = 6.32516 10.11344 8.43473
#
# Compressibility (1/GPa) = 0.02338601
#
# Stress axis : x y z
#
# Youngs Moduli (GPa) = 203.28579 46.73085 126.41140
#
# Poissons Ratio (x) = 0.08684 0.37024
# Poissons Ratio (y) = 0.37775 0.08020
# Poissons Ratio (z) = 0.59539 0.02965
#
# Static dielectric constant tensor:
#      x y z
#    x 1.739160 0.000000 0.044580 
#    y 0.000000 1.776500 0.000000 
#    z 0.044580 0.000000 1.681930 
# 
# From -- ./inp_files/274919.got.cif
#   From: 2010.05.17/outbox.cif.g08.bks.cpg/sg12_138_cif.got.tgz:274919.got - 2010.06.03 13:09:07.
