data_PCOD9209288
_publ_section_title
;
Structure prediction by ZEFSAII (Michael W. Deem and Ramdas Pophale) SiO2 
 PCOD9209288
Probable space group: C 2/M
;
_chemical_formula_sum "Si O2"
_cell_formula_units_Z 50
_cell_length_a 17.618479
_cell_length_b 14.759128
_cell_length_c 11.465832
_cell_angle_alpha 90.000000
_cell_angle_beta 55.371484
_cell_angle_gamma 90.000000
_cell_volume 2453.337444
_symmetry_space_group_name_H-M "C 2/M"
_symmetry_group_IT_number 12
_symmetry_cell_setting 'monoclinic'
loop_
_space_group_symop_operation_xyz
x,y,z
-x,y,-z
-x,-y,-z
x,-y,z
1/2+x,1/2+y,z
1/2-x,1/2+y,-z
1/2-x,1/2-y,-z
1/2+x,1/2-y,z
loop_
_atom_site_type_symbol
_atom_site_label
_atom_site_fract_x
_atom_site_fract_y
_atom_site_fract_z
Si Si1 0.401255 0.399240 0.206010
Si Si2 0.599386 0.820092 0.512354
Si Si3 0.299188 0.321596 0.718353
Si Si4 0.096136 0.274583 0.962676
Si Si5 0.757590 0.600754 0.466799
Si Si6 0.453453 0.309736 0.756768
Si Si7 0.500000 0.000000 0.500000
O O1 0.408786 0.500000 0.149494
O O2 0.399893 0.321019 0.110869
O O3 0.309293 0.395550 0.363946
O O4 0.483451 0.378770 0.225440
O O5 0.663646 0.777126 0.355588
O O6 0.660626 0.830041 0.576396
O O7 0.518529 0.750392 0.616139
O O8 0.562095 0.918109 0.507913
O O9 0.193309 0.321623 0.851695
O O10 0.299624 0.376725 0.598050
O O11 0.371077 0.352053 0.753587
O O12 0.087319 0.255823 0.107503
O O13 0.000000 0.318280 0.000000
O O14 0.795424 0.500000 0.421131
#
# Coordination Sequence:
#
# PCOD9209288 Si02
#       7
#     8   8   8   8   8   8   2
#     4  10  21  38  61  92 122 163 205 251 302 360
#     4  12  22  41  64  93 121 160 208 260 311 361
#     4  12  22  40  64  89 124 164 205 250 310 379
#     4  10  22  39  61  88 120 164 207 252 305 363
#     4  11  22  36  62  91 123 160 204 251 304 366
#     4  11  23  38  61  91 125 162 200 254 313 369
#     4  12  24  40  68  96 126 150 208 282 298 346
#
# _framework density 20.380400999999999
#
# number of rings (size 3 to 8) (size 9 to 14) (size 15 to 20)
#    0.000    0.960    5.600    2.880    0.000    3.520 
#    0.000    1.600    1.760    1.440    0.000    0.000 
#    0.000    0.000    0.000    0.000    0.000    0.000 
#
# Total GULP energy -139328.145647 kJ/mol
# GULP energy per Si atom -5573.125826 kJ/mol
# Density = 2.033401 g / cm^3
# Si number density = 20.380401 Si / 1000 Ang^3
#
#
#
# Elastic Constant Matrix: (Units=GPa)
#
#
# Indices 1 2 3 4 5 6 
#
# 1 115.1872 0.4603 6.8035 0.0000 2.6506 0.0000
# 2 0.4603 30.6732 -12.1292 0.0000 -9.3437 0.0000
# 3 6.8035 -12.1292 76.2620 0.0000 -11.2396 0.0000
# 4 0.0000 0.0000 0.0000 6.4657 0.0000 -3.6656
# 5 2.6506 -9.3437 -11.2396 0.0000 34.9880 0.0000
# 6 0.0000 0.0000 0.0000 -3.6656 0.0000 24.6046
#
#
#
# Elastic Compliance Matrix: (Units=1/GPa)
#
#
# Indices 1 2 3 4 5 6 
#
# 1 0.008782 -0.000969 -0.001127 0.000000 -0.001286 0.000000
# 2 -0.000969 0.040064 0.008446 0.000000 0.013486 0.000000
# 3 -0.001127 0.008446 0.015642 0.000000 0.007366 0.000000
# 4 0.000000 0.000000 0.000000 0.168929 0.000000 0.025167
# 5 -0.001286 0.013486 0.007366 0.000000 0.034646 0.000000
# 6 0.000000 0.000000 0.000000 0.025167 0.000000 0.044392
#
#
# Mechanical properties :
#
#
# Convention : Reuss Voigt Hill
#
# Bulk Modulus (GPa) = 12.95547 23.59906 18.27727
# Shear Modulus (GPa) = 15.36168 28.34419 21.85294
#
# Velocity S-wave (km/s) = 2.74843 3.73333 3.27808
# Velocity P-wave (km/s) = 4.05493 5.49437 4.82859
#
# Compressibility (1/GPa) = 0.07718745
#
# Stress axis : x y z
#
# Youngs Moduli (GPa) = 113.87490 24.95988 63.92973
#
# Poissons Ratio (x) = 0.02419 0.07206
# Poissons Ratio (y) = 0.11038 -0.53996
# Poissons Ratio (z) = 0.12835 -0.21082
#
# Static dielectric constant tensor:
#      x y z
#    x 1.789500 0.000000 -0.015580 
#    y 0.000000 1.726230 0.000000 
#    z -0.015580 0.000000 1.740030 
# 
# From -- ./inp_files/155887.got.cif
#   From: 2010.05.17/outbox.cif.g08.bks.cpg/sg12_78_cif.got.tgz:155887.got - 2010.06.03 13:09:07.
