data_PCOD9209862
_publ_section_title
;
Structure prediction by ZEFSAII (Michael W. Deem and Ramdas Pophale) SiO2 
 PCOD9209862
Probable space group: C 2/M
;
_chemical_formula_sum "Si O2"
_cell_formula_units_Z 50
_cell_length_a 25.712142
_cell_length_b 16.852092
_cell_length_c 8.883351
_cell_angle_alpha 90.000000
_cell_angle_beta 39.667170
_cell_angle_gamma 90.000000
_cell_volume 2457.038810
_symmetry_space_group_name_H-M "C 2/M"
_symmetry_group_IT_number 12
_symmetry_cell_setting 'monoclinic'
loop_
_space_group_symop_operation_xyz
x,y,z
-x,y,-z
-x,-y,-z
x,-y,z
1/2+x,1/2+y,z
1/2-x,1/2+y,-z
1/2-x,1/2-y,-z
1/2+x,1/2-y,z
loop_
_atom_site_type_symbol
_atom_site_label
_atom_site_fract_x
_atom_site_fract_y
_atom_site_fract_z
Si Si1 0.051005 0.414709 0.039555
Si Si2 0.445385 0.230629 0.333112
Si Si3 0.331257 0.697858 0.350155
Si Si4 0.163439 0.715206 0.149897
Si Si5 0.280126 0.090558 0.218159
Si Si6 0.928201 0.848370 0.839858
Si Si7 0.000000 0.000000 0.500000
O O1 0.036224 0.500000 0.152941
O O2 0.016089 0.334738 0.185473
O O3 0.148590 0.409010 0.813521
O O4 0.000000 0.419245 0.000000
O O5 0.400451 0.247931 0.275356
O O6 0.380472 0.198236 0.596058
O O7 0.486187 0.312572 0.292951
O O8 0.250000 0.750000 0.500000
O O9 0.299489 0.633805 0.541958
O O10 0.368561 0.655397 0.119604
O O11 0.111786 0.783253 0.181556
O O12 0.250000 0.750000 0.000000
O O13 0.180164 0.640500 0.005513
O O14 0.263337 0.000000 0.213413
O O15 0.948448 0.929528 0.708817
#
# Coordination Sequence:
#
# PCOD9209862 Si02
#       7
#     8   8   8   8   8   8   2
#     4  10  21  38  66 100 136 170 218 282 340 408
#     4  12  22  42  72  97 133 180 227 276 340 421
#     4  12  23  43  73 102 134 184 232 279 351 412
#     4  12  23  45  67  93 136 180 219 281 353 413
#     4  11  24  42  65 103 141 173 229 292 345 413
#     4  12  25  46  69 100 134 182 232 282 341 417
#     4  12  28  48  70 104 146 188 242 296 348 408
#
# _framework density 20.349699000000001
#
# number of rings (size 3 to 8) (size 9 to 14) (size 15 to 20)
#    0.000    0.480    6.400    2.400    1.120    0.640 
#    5.760    2.400    3.520    0.000    0.000    0.000 
#    0.000    0.000    0.000    0.000    0.000    0.000 
#
# Total GULP energy -139238.578330 kJ/mol
# GULP energy per Si atom -5569.543133 kJ/mol
# Density = 2.030338 g / cm^3
# Si number density = 20.349699 Si / 1000 Ang^3
#
#
#
# Elastic Constant Matrix: (Units=GPa)
#
#
# Indices 1 2 3 4 5 6 
#
# 1 70.2662 15.5402 -1.7797 0.0000 -12.1587 0.0000
# 2 15.5402 161.5940 44.0147 0.0000 5.5496 0.0000
# 3 -1.7797 44.0147 126.5629 0.0000 10.3009 0.0000
# 4 0.0000 0.0000 0.0000 38.2333 0.0000 -1.4100
# 5 -12.1587 5.5496 10.3009 0.0000 31.9868 0.0000
# 6 0.0000 0.0000 0.0000 -1.4100 0.0000 15.5536
#
#
#
# Elastic Compliance Matrix: (Units=1/GPa)
#
#
# Indices 1 2 3 4 5 6 
#
# 1 0.015711 -0.001819 0.000351 0.000000 0.006175 0.000000
# 2 -0.001819 0.007052 -0.002385 0.000000 -0.001147 0.000000
# 3 0.000351 -0.002385 0.008925 0.000000 -0.002327 0.000000
# 4 0.000000 0.000000 0.000000 0.026243 0.000000 0.002379
# 5 0.006175 -0.001147 -0.002327 0.000000 0.034558 0.000000
# 6 0.000000 0.000000 0.000000 0.002379 0.000000 0.064509
#
#
# Mechanical properties :
#
#
# Convention : Reuss Voigt Hill
#
# Bulk Modulus (GPa) = 41.69581 52.66371 47.17976
# Shear Modulus (GPa) = 28.95224 37.19793 33.07509
#
# Velocity S-wave (km/s) = 3.77601 4.28007 4.03592
# Velocity P-wave (km/s) = 6.28849 7.09654 6.70470
#
# Compressibility (1/GPa) = 0.02398322
#
# Stress axis : x y z
#
# Youngs Moduli (GPa) = 63.64923 141.80024 112.04625
#
# Poissons Ratio (x) = 0.25787 -0.03931
# Poissons Ratio (y) = 0.11575 0.26720
# Poissons Ratio (z) = -0.02233 0.33816
#
# Static dielectric constant tensor:
#      x y z
#    x 1.739780 0.000000 -0.018630 
#    y 0.000000 1.756510 0.000000 
#    z -0.018630 0.000000 1.465430 
# 
# From -- ./inp_files/105769.got.cif
#   From: 2010.05.17/outbox.cif.g08.bks.cpg/sg12_53_cif.got.tgz:105769.got - 2010.06.03 13:09:07.
