data_PCOD9209330
_publ_section_title
;
Structure prediction by ZEFSAII (Michael W. Deem and Ramdas Pophale) SiO2 
 PCOD9209330
Probable space group: C 2/M
;
_chemical_formula_sum "Si O2"
_cell_formula_units_Z 48
_cell_length_a 11.412250
_cell_length_b 19.331272
_cell_length_c 14.637085
_cell_angle_alpha 90.000000
_cell_angle_beta 42.146520
_cell_angle_gamma 90.000000
_cell_volume 2166.843181
_symmetry_space_group_name_H-M "C 2/M"
_symmetry_group_IT_number 12
_symmetry_cell_setting 'monoclinic'
loop_
_space_group_symop_operation_xyz
x,y,z
-x,y,-z
-x,-y,-z
x,-y,z
1/2+x,1/2+y,z
1/2-x,1/2+y,-z
1/2-x,1/2-y,-z
1/2+x,1/2-y,z
loop_
_atom_site_type_symbol
_atom_site_label
_atom_site_fract_x
_atom_site_fract_y
_atom_site_fract_z
Si Si1 0.775819 0.500000 0.675481
Si Si2 0.510435 0.877741 0.346979
Si Si3 0.749470 0.240416 0.285689
Si Si4 0.137463 0.111244 0.352270
Si Si5 0.000000 0.313227 0.000000
Si Si6 0.465965 0.921819 0.873720
Si Si7 0.631220 0.373837 0.649322
O O1 0.651189 0.438928 0.704546
O O2 0.905829 0.440054 0.643655
O O3 0.595305 0.807636 0.336143
O O4 0.559225 0.893038 0.213996
O O5 0.304139 0.877564 0.485045
O O6 0.681403 0.312206 0.365309
O O7 0.853119 0.195679 0.300203
O O8 0.871881 0.265315 0.132132
O O9 0.323705 0.075610 0.235388
O O10 0.000000 0.077238 0.500000
O O11 0.038830 0.121328 0.314052
O O12 0.906751 0.365310 0.981982
O O13 0.396136 0.000000 0.923910
#
# Coordination Sequence:
#
# PCOD9209330 Si02
#       7
#     4   8   8   8   4   8   8
#     4  10  21  38  61  97 126 169 202 244 322 392
#     4  11  20  39  68  96 127 165 207 262 322 389
#     4  10  24  41  64  91 123 171 221 259 317 368
#     4  11  23  37  60  99 135 164 200 258 327 389
#     4  10  25  48  62  87 124 172 228 268 306 367
#     4  11  24  42  66  93 127 169 216 260 318 380
#     4  11  22  38  65  96 138 163 201 264 321 390
#
# _framework density 22.15204
#
# number of rings (size 3 to 8) (size 9 to 14) (size 15 to 20)
#    0.000    1.333    2.500    4.250    5.833    2.333 
#    3.000    0.000    0.000    8.000    0.000    0.000 
#    0.000    0.000    0.000    0.000    0.000    0.000 
#
# Total GULP energy -133734.508445 kJ/mol
# GULP energy per Si atom -5572.271185 kJ/mol
# Density = 2.210162 g / cm^3
# Si number density = 22.152040 Si / 1000 Ang^3
#
#
#
# Elastic Constant Matrix: (Units=GPa)
#
#
# Indices 1 2 3 4 5 6 
#
# 1 116.9176 22.7246 -5.8089 0.0003 16.2969 -0.0004
# 2 22.7246 142.6362 -0.1688 -0.0002 9.5442 -0.0003
# 3 -5.8089 -0.1688 43.4461 0.0006 10.1962 -0.0002
# 4 0.0003 -0.0002 0.0006 -87.8243 -0.0002 -9.7213
# 5 16.2969 9.5442 10.1962 -0.0002 30.0965 -0.0001
# 6 -0.0004 -0.0003 -0.0002 -9.7213 -0.0001 -7.8367
#
#
#
# Elastic Compliance Matrix: (Units=1/GPa)
#
#
# Indices 1 2 3 4 5 6 
#
# 1 0.009718 -0.001157 0.002655 0.000000 -0.005794 -0.000001
# 2 -0.001157 0.007316 0.000294 0.000000 -0.001793 0.000000
# 3 0.002655 0.000294 0.025782 0.000000 -0.010265 -0.000001
# 4 0.000000 0.000000 0.000000 -0.013199 0.000000 0.016373
# 5 -0.005794 -0.001793 -0.010265 0.000000 0.040410 0.000001
# 6 -0.000001 0.000000 -0.000001 0.016373 0.000001 -0.147915
#
#
# Mechanical properties :
#
#
# Convention : Reuss Voigt Hill
#
# Bulk Modulus (GPa) = 21.55230 37.38820 29.47025
# Shear Modulus (GPa) = -75.75193 5.97062 -34.89065
#
# Velocity S-wave (km/s) = -5.85411 1.64352 -3.97300
# Velocity P-wave (km/s) = 5.99531 4.52948 2.77737
#
# Compressibility (1/GPa) = 0.04639876
#
# Stress axis : x y z
#
# Youngs Moduli (GPa) = 102.90701 136.69512 38.78637
#
# Poissons Ratio (x) = 0.15820 -0.10296
# Poissons Ratio (y) = 0.11910 -0.01142
# Poissons Ratio (z) = -0.27318 -0.04025
#
# Static dielectric constant tensor:
#      x y z
#    x 1.807700 0.000000 0.017250 
#    y 0.000000 1.792910 0.000000 
#    z 0.017250 0.000000 1.870950 
# 
# From -- ./inp_files/207954.got.cif
#   From: 2010.05.17/outbox.cif.g08.bks.cpg/sg12_104_cif.got.tgz:207954.got - 2010.06.03 13:09:07.
