data_PCOD9209787
_publ_section_title
;
Structure prediction by ZEFSAII (Michael W. Deem and Ramdas Pophale) SiO2 
 PCOD9209787
Probable space group: C 2/M
;
_chemical_formula_sum "Si O2"
_cell_formula_units_Z 58
_cell_length_a 7.858615
_cell_length_b 18.817039
_cell_length_c 20.705245
_cell_angle_alpha 90.000000
_cell_angle_beta 58.297142
_cell_angle_gamma 90.000000
_cell_volume 2604.938314
_symmetry_space_group_name_H-M "C 2/M"
_symmetry_group_IT_number 12
_symmetry_cell_setting 'monoclinic'
loop_
_space_group_symop_operation_xyz
x,y,z
-x,y,-z
-x,-y,-z
x,-y,z
1/2+x,1/2+y,z
1/2-x,1/2+y,-z
1/2-x,1/2-y,-z
1/2+x,1/2-y,z
loop_
_atom_site_type_symbol
_atom_site_label
_atom_site_fract_x
_atom_site_fract_y
_atom_site_fract_z
Si Si1 0.387446 0.879138 0.627724
Si Si2 0.968520 0.416819 0.262968
Si Si3 0.263564 0.800010 0.133866
Si Si4 0.471401 0.726132 0.440206
Si Si5 0.943648 0.856322 0.706764
Si Si6 0.000000 0.500000 0.500000
Si Si7 0.258333 0.078772 0.037270
Si Si8 0.189526 0.648945 0.103328
O O1 0.502103 0.879549 0.673557
O O2 0.408762 0.799884 0.593739
O O3 0.471901 0.937315 0.561624
O O4 0.150145 0.894322 0.685126
O O5 0.985405 0.500000 0.271232
O O6 0.755309 0.401468 0.270286
O O7 0.139517 0.391303 0.179309
O O8 0.114580 0.801451 0.224617
O O9 0.186244 0.858192 0.098067
O O10 0.295098 0.723199 0.096982
O O11 0.475185 0.826350 0.117840
O O12 0.500000 0.681052 0.500000
O O13 0.250000 0.750000 0.500000
O O14 0.509479 0.682009 0.369475
O O15 0.180507 0.000000 0.067989
O O16 0.500000 0.076167 0.000000
O O17 0.222153 0.100358 0.970528
#
# Coordination Sequence:
#
# PCOD9209787 Si02
#       8
#     8   8   8   8   8   2   8   8
#     4  12  25  45  68  92 137 173 221 274 345 397
#     4  11  25  43  66  98 132 177 227 275 332 409
#     4  10  22  37  64  97 129 170 222 272 333 397
#     4  12  22  41  67  94 124 166 219 273 329 401
#     4  11  26  42  68  99 130 174 222 285 334 401
#     4  12  24  48  66  96 128 192 214 272 354 408
#     4   9  18  37  63  93 131 177 220 268 325 393
#     4  10  21  38  64  96 132 174 219 273 332 392
#
# _framework density 22.265402999999999
#
# number of rings (size 3 to 8) (size 9 to 14) (size 15 to 20)
#    0.000    1.241    2.759    2.483    6.759    3.310 
#    0.000    0.690    0.000    0.828    0.000    0.000 
#    0.000    0.000    0.000    0.000    0.000    0.000 
#
# Total GULP energy -161705.768638 kJ/mol
# GULP energy per Si atom -5576.060988 kJ/mol
# Density = 2.221473 g / cm^3
# Si number density = 22.265403 Si / 1000 Ang^3
#
#
#
# Elastic Constant Matrix: (Units=GPa)
#
#
# Indices 1 2 3 4 5 6 
#
# 1 60.6182 1.2354 23.5887 0.0000 -0.0343 0.0000
# 2 1.2354 63.3076 0.0157 0.0000 7.6658 0.0000
# 3 23.5887 0.0157 70.2960 0.0000 23.1788 0.0000
# 4 0.0000 0.0000 0.0000 33.0619 0.0000 6.4018
# 5 -0.0343 7.6658 23.1788 0.0000 22.2209 0.0000
# 6 0.0000 0.0000 0.0000 6.4018 0.0000 15.9859
#
#
#
# Elastic Compliance Matrix: (Units=1/GPa)
#
#
# Indices 1 2 3 4 5 6 
#
# 1 0.020818 -0.001874 -0.010988 0.000000 0.012141 0.000000
# 2 -0.001874 0.017037 0.003908 0.000000 -0.009957 0.000000
# 3 -0.010988 0.003908 0.027989 0.000000 -0.030560 0.000000
# 4 0.000000 0.000000 0.000000 0.032789 0.000000 -0.013131
# 5 0.012141 -0.009957 -0.030560 0.000000 0.080334 0.000000
# 6 0.000000 0.000000 0.000000 -0.013131 0.000000 0.067814
#
#
# Mechanical properties :
#
#
# Convention : Reuss Voigt Hill
#
# Bulk Modulus (GPa) = 20.86137 27.10017 23.98077
# Shear Modulus (GPa) = 17.81475 25.54588 21.68032
#
# Velocity S-wave (km/s) = 2.83169 3.39091 3.12384
# Velocity P-wave (km/s) = 4.48119 5.24680 4.87903
#
# Compressibility (1/GPa) = 0.04793550
#
# Stress axis : x y z
#
# Youngs Moduli (GPa) = 48.03601 58.69540 35.72882
#
# Poissons Ratio (x) = 0.10997 0.39260
# Poissons Ratio (y) = 0.09000 -0.13963
# Poissons Ratio (z) = 0.52784 -0.22938
#
# Static dielectric constant tensor:
#      x y z
#    x 1.884380 0.000000 -0.015480 
#    y 0.000000 1.816740 0.000000 
#    z -0.015480 0.000000 1.800160 
# 
# From -- ./inp_files/301100.got.cif
#   From: 2010.05.17/outbox.cif.g08.bks.cpg/sg12_151_cif.got.tgz:301100.got - 2010.06.03 13:09:07.
