data_PCOD9209816
_publ_section_title
;
Structure prediction by ZEFSAII (Michael W. Deem and Ramdas Pophale) SiO2 
 PCOD9209816
Probable space group: C 2/M
;
_chemical_formula_sum "Si O2"
_cell_formula_units_Z 44
_cell_length_a 11.145197
_cell_length_b 22.894670
_cell_length_c 11.566579
_cell_angle_alpha 90.000000
_cell_angle_beta 44.076802
_cell_angle_gamma 90.000000
_cell_volume 2053.053961
_symmetry_space_group_name_H-M "C 2/M"
_symmetry_group_IT_number 12
_symmetry_cell_setting 'monoclinic'
loop_
_space_group_symop_operation_xyz
x,y,z
-x,y,-z
-x,-y,-z
x,-y,z
1/2+x,1/2+y,z
1/2-x,1/2+y,-z
1/2-x,1/2-y,-z
1/2+x,1/2-y,z
loop_
_atom_site_type_symbol
_atom_site_label
_atom_site_fract_x
_atom_site_fract_y
_atom_site_fract_z
Si Si1 0.014975 0.398953 0.220112
Si Si2 0.839490 0.500000 0.031781
Si Si3 0.284870 0.797642 0.313931
Si Si4 0.121959 0.873709 0.014635
Si Si5 0.011389 0.000000 0.175983
Si Si6 0.025304 0.208878 0.289500
Si Si7 0.876072 0.500000 0.476330
O O1 0.886436 0.358881 0.236682
O O2 0.914963 0.441660 0.375996
O O3 0.123561 0.442072 0.065296
O O4 0.178530 0.366118 0.163692
O O5 0.639277 0.500000 0.199362
O O6 0.000000 0.500000 0.000000
O O7 0.187795 0.777590 0.263335
O O8 0.430800 0.755817 0.270337
O O9 0.131588 0.806349 0.514245
O O10 0.089432 0.841473 0.158668
O O11 0.057956 0.940950 0.075455
O O12 0.000000 0.847773 0.000000
O O13 0.816589 0.000000 0.346473
O O14 0.000000 0.500000 0.500000
#
# Coordination Sequence:
#
# PCOD9209816 Si02
#       7
#     8   4   8   8   4   8   4
#     4  10  23  38  62  94 129 160 216 258 319 378
#     4   9  21  39  58  88 125 166 200 260 317 374
#     4  10  23  45  66  94 122 171 214 276 313 389
#     4  11  23  40  63  98 131 171 208 267 323 394
#     4  10  21  38  65  89 130 170 215 254 317 380
#     4  10  24  44  67  91 130 164 221 262 332 376
#     4  11  21  41  64  99 129 173 212 265 314 390
#
# _framework density 21.431487000000001
#
# number of rings (size 3 to 8) (size 9 to 14) (size 15 to 20)
#    0.000    1.818    0.000    3.000    7.636    0.727 
#    3.273    0.909    0.000    0.000    0.000    0.000 
#    0.000    0.000    0.000    0.000    0.000    0.000 
#
# Total GULP energy -122523.452573 kJ/mol
# GULP energy per Si atom -5569.247844 kJ/mol
# Density = 2.138271 g / cm^3
# Si number density = 21.431487 Si / 1000 Ang^3
#
#
#
# Elastic Constant Matrix: (Units=GPa)
#
#
# Indices 1 2 3 4 5 6 
#
# 1 203.4153 46.4117 61.1712 0.0000 -29.4384 0.0000
# 2 46.4117 84.6647 38.3011 0.0000 -6.8293 0.0000
# 3 61.1712 38.3011 57.7721 0.0000 -20.8716 0.0000
# 4 0.0000 0.0000 0.0000 37.3960 0.0000 -13.0577
# 5 -29.4384 -6.8293 -20.8716 0.0000 41.7514 0.0000
# 6 0.0000 0.0000 0.0000 -13.0577 0.0000 28.9709
#
#
#
# Elastic Compliance Matrix: (Units=1/GPa)
#
#
# Indices 1 2 3 4 5 6 
#
# 1 0.007346 -0.000935 -0.006520 0.000000 0.001767 0.000000
# 2 -0.000935 0.017409 -0.011913 0.000000 -0.003767 0.000000
# 3 -0.006520 -0.011913 0.036302 0.000000 0.011602 0.000000
# 4 0.000000 0.000000 0.000000 0.031735 0.000000 0.014304
# 5 0.001767 -0.003767 0.011602 0.000000 0.030381 0.000000
# 6 0.000000 0.000000 0.000000 0.014304 0.000000 0.040964
#
#
# Mechanical properties :
#
#
# Convention : Reuss Voigt Hill
#
# Bulk Modulus (GPa) = 44.79823 70.84668 57.82246
# Shear Modulus (GPa) = 23.77420 34.95486 29.36453
#
# Velocity S-wave (km/s) = 3.33425 4.04295 3.70558
# Velocity P-wave (km/s) = 5.98091 7.41100 6.73403
#
# Compressibility (1/GPa) = 0.02232231
#
# Stress axis : x y z
#
# Youngs Moduli (GPa) = 136.13404 57.44157 27.54689
#
# Poissons Ratio (x) = 0.05370 0.17960
# Poissons Ratio (y) = 0.12726 0.32815
# Poissons Ratio (z) = 0.88755 0.68428
#
# Static dielectric constant tensor:
#      x y z
#    x 2.267840 0.000000 -0.072780 
#    y 0.000000 1.914850 0.000000 
#    z -0.072780 0.000000 1.739930 
# 
# From -- ./inp_files/135815.got.cif
#   From: 2010.05.17/outbox.cif.g08.bks.cpg/sg12_68_cif.got.tgz:135815.got - 2010.06.03 13:09:07.
