data_PCOD9209905
_publ_section_title
;
Structure prediction by ZEFSAII (Michael W. Deem and Ramdas Pophale) SiO2 
 PCOD9209905
Probable space group: C 2/M
;
_chemical_formula_sum "Si O2"
_cell_formula_units_Z 28
_cell_length_a 13.818558
_cell_length_b 17.898923
_cell_length_c 5.822360
_cell_angle_alpha 90.000000
_cell_angle_beta 114.536120
_cell_angle_gamma 90.000000
_cell_volume 1310.046507
_symmetry_space_group_name_H-M "C 2/M"
_symmetry_group_IT_number 12
_symmetry_cell_setting 'monoclinic'
loop_
_space_group_symop_operation_xyz
x,y,z
-x,y,-z
-x,-y,-z
x,-y,z
1/2+x,1/2+y,z
1/2-x,1/2+y,-z
1/2-x,1/2-y,-z
1/2+x,1/2-y,z
loop_
_atom_site_type_symbol
_atom_site_label
_atom_site_fract_x
_atom_site_fract_y
_atom_site_fract_z
Si Si1 0.702591 0.637493 0.361192
Si Si2 0.942639 0.000000 0.690394
Si Si3 0.167869 0.718432 0.108979
Si Si4 0.397178 0.915536 0.235628
O O1 0.629512 0.572932 0.380528
O O2 0.768673 0.674915 0.631025
O O3 0.630726 0.703771 0.182573
O O4 0.789041 0.601779 0.271338
O O5 0.000000 0.000000 0.500000
O O6 0.000000 0.000000 0.000000
O O7 0.250000 0.750000 0.000000
O O8 0.094091 0.655785 0.922897
O O9 0.500000 0.915276 0.500000
O O10 0.389497 0.000000 0.126211
#
# Coordination Sequence:
#
# PCOD9209905 Si02
#       4
#     8   4   8   8
#     4  10  22  45  65  96 139 180 233 298 348 421
#     4  12  30  48  75 109 139 195 248 294 356 423
#     4   9  21  41  67  93 136 183 226 287 362 411
#     4  10  21  38  67 101 134 176 229 283 362 428
#
# _framework density 21.373286
#
# number of rings (size 3 to 8) (size 9 to 14) (size 15 to 20)
#    0.000    2.000    1.429    0.000   10.000    1.143 
#   15.429    2.857    0.000    0.000    0.000    0.000 
#    0.000    0.000    0.000    0.000    0.000    0.000 
#
# Total GULP energy -78086.537837 kJ/mol
# GULP energy per Si atom -5577.609845 kJ/mol
# Density = 2.132464 g / cm^3
# Si number density = 21.373286 Si / 1000 Ang^3
#
#
#
# Elastic Constant Matrix: (Units=GPa)
#
#
# Indices 1 2 3 4 5 6 
#
# 1 97.5780 57.2727 17.4481 0.0000 -11.7412 0.0000
# 2 57.2727 231.7582 43.0237 0.0000 2.3270 0.0000
# 3 17.4481 43.0237 35.9678 0.0000 -1.9957 0.0000
# 4 0.0000 0.0000 0.0000 23.3876 0.0000 36.6509
# 5 -11.7412 2.3270 -1.9957 0.0000 26.2887 0.0000
# 6 0.0000 0.0000 0.0000 36.6509 0.0000 -40.1722
#
#
#
# Elastic Compliance Matrix: (Units=1/GPa)
#
#
# Indices 1 2 3 4 5 6 
#
# 1 0.013074 -0.002793 -0.002674 0.000000 0.005883 0.000000
# 2 -0.002793 0.006170 -0.006150 0.000000 -0.002261 0.000000
# 3 -0.002674 -0.006150 0.036575 0.000000 0.002127 0.000000
# 4 0.000000 0.000000 0.000000 0.017598 0.000000 0.016055
# 5 0.005883 -0.002261 0.002127 0.000000 0.041028 0.000000
# 6 0.000000 0.000000 0.000000 0.016055 0.000000 -0.010245
#
#
# Mechanical properties :
#
#
# Convention : Reuss Voigt Hill
#
# Bulk Modulus (GPa) = 30.69158 66.75479 48.72318
# Shear Modulus (GPa) = 36.15438 18.40478 27.27958
#
# Velocity S-wave (km/s) = 4.11733 2.93765 3.57647
# Velocity P-wave (km/s) = 6.08228 6.54271 6.31669
#
# Compressibility (1/GPa) = 0.03258222
#
# Stress axis : x y z
#
# Youngs Moduli (GPa) = 76.48792 162.08497 27.34135
#
# Poissons Ratio (x) = 0.45278 0.07312
# Poissons Ratio (y) = 0.21367 0.16816
# Poissons Ratio (z) = 0.20455 0.99686
#
# Static dielectric constant tensor:
#      x y z
#    x 1.947020 0.000000 -0.068890 
#    y 0.000000 1.781850 0.000000 
#    z -0.068890 0.000000 1.839520 
# 
# From -- ./inp_files/9839.got.cif
#   From: 2010.05.17/outbox.cif.g08.bks.cpg/sg12_5_cif.got.tgz:9839.got - 2010.06.03 13:09:07.
