data_PCOD9209688
_publ_section_title
;
Structure prediction by ZEFSAII (Michael W. Deem and Ramdas Pophale) SiO2 
 PCOD9209688
Probable space group: C 2/M
;
_chemical_formula_sum "Si O2"
_cell_formula_units_Z 48
_cell_length_a 6.906026
_cell_length_b 20.150771
_cell_length_c 16.460478
_cell_angle_alpha 90.000000
_cell_angle_beta 118.393790
_cell_angle_gamma 90.000000
_cell_volume 2015.101701
_symmetry_space_group_name_H-M "C 2/M"
_symmetry_group_IT_number 12
_symmetry_cell_setting 'monoclinic'
loop_
_space_group_symop_operation_xyz
x,y,z
-x,y,-z
-x,-y,-z
x,-y,z
1/2+x,1/2+y,z
1/2-x,1/2+y,-z
1/2-x,1/2-y,-z
1/2+x,1/2-y,z
loop_
_atom_site_type_symbol
_atom_site_label
_atom_site_fract_x
_atom_site_fract_y
_atom_site_fract_z
Si Si1 0.139177 0.774276 0.895456
Si Si2 0.737000 0.098110 0.712118
Si Si3 0.530245 0.426053 0.909198
Si Si4 0.025647 0.125544 0.633052
Si Si5 0.796502 0.428095 0.543711
Si Si6 0.723195 0.247363 0.753069
O O1 0.004919 0.755881 0.780104
O O2 0.135939 0.855938 0.900208
O O3 0.858656 0.749203 0.872356
O O4 0.250000 0.750000 0.000000
O O5 0.797997 0.073147 0.813784
O O6 0.959902 0.092405 0.704634
O O7 0.548631 0.070062 0.618002
O O8 0.670576 0.174211 0.710680
O O9 0.632086 0.500000 0.915141
O O10 0.500000 0.419436 0.000000
O O11 0.801148 0.128226 0.534729
O O12 0.181122 0.083025 0.607091
O O13 0.142364 0.193825 0.678265
O O14 0.735498 0.500000 0.497060
#
# Coordination Sequence:
#
# PCOD9209688 Si02
#       6
#     8   8   8   8   8   8
#     4  11  21  38  65  94 129 172 217 275 332 404
#     4  11  23  43  69  95 132 178 220 283 341 409
#     4  10  21  38  63  96 130 171 222 276 337 405
#     4  11  23  43  63  97 134 168 222 286 328 403
#     4  11  26  44  66  96 130 180 233 275 342 413
#     4  11  21  40  62  97 127 165 222 267 343 400
#
# _framework density 23.820138
#
# number of rings (size 3 to 8) (size 9 to 14) (size 15 to 20)
#    0.000    1.167    3.333    5.500    0.000    4.000 
#    3.000    0.000    0.000    3.000    0.000    0.000 
#    0.000    0.000    0.000    0.000    0.000    0.000 
#
# Total GULP energy -133656.014087 kJ/mol
# GULP energy per Si atom -5569.000587 kJ/mol
# Density = 2.376592 g / cm^3
# Si number density = 23.820138 Si / 1000 Ang^3
#
#
#
# Elastic Constant Matrix: (Units=GPa)
#
#
# Indices 1 2 3 4 5 6 
#
# 1 105.7787 48.3636 48.2539 0.0000 -15.7422 0.0000
# 2 48.3636 180.4771 72.8695 0.0000 14.2361 0.0000
# 3 48.2539 72.8695 144.8816 0.0000 12.8173 0.0000
# 4 0.0000 0.0000 0.0000 78.8793 0.0000 -22.0056
# 5 -15.7422 14.2361 12.8173 0.0000 51.6954 0.0000
# 6 0.0000 0.0000 0.0000 -22.0056 0.0000 28.8563
#
#
#
# Elastic Compliance Matrix: (Units=1/GPa)
#
#
# Indices 1 2 3 4 5 6 
#
# 1 0.013053 -0.002487 -0.003587 0.000000 0.005549 0.000000
# 2 -0.002487 0.007485 -0.002747 0.000000 -0.002138 0.000000
# 3 -0.003587 -0.002747 0.009722 0.000000 -0.002746 0.000000
# 4 0.000000 0.000000 0.000000 0.016104 0.000000 0.012280
# 5 0.005549 -0.002138 -0.002746 0.000000 0.022304 0.000000
# 6 0.000000 0.000000 0.000000 0.012280 0.000000 0.044019
#
#
# Mechanical properties :
#
#
# Convention : Reuss Voigt Hill
#
# Bulk Modulus (GPa) = 79.26232 85.56795 82.41514
# Shear Modulus (GPa) = 37.16473 49.32957 43.24715
#
# Velocity S-wave (km/s) = 3.95425 4.55567 4.26557
# Velocity P-wave (km/s) = 7.36177 7.97952 7.67686
#
# Compressibility (1/GPa) = 0.01261633
#
# Stress axis : x y z
#
# Youngs Moduli (GPa) = 76.60907 133.59618 102.86228
#
# Poissons Ratio (x) = 0.33229 0.36901
# Poissons Ratio (y) = 0.19054 0.28259
# Poissons Ratio (z) = 0.27483 0.36702
#
# Static dielectric constant tensor:
#      x y z
#    x 2.417500 0.000000 0.019260 
#    y 0.000000 1.925570 0.000000 
#    z 0.019260 0.000000 1.840340 
# 
# From -- ./inp_files/256740.got.cif
#   From: 2010.05.17/outbox.cif.g08.bks.cpg/sg12_129_cif.got.tgz:256740.got - 2010.06.03 13:09:07.
