data_PCOD9209663
_publ_section_title
;
Structure prediction by ZEFSAII (Michael W. Deem and Ramdas Pophale) SiO2 
 PCOD9209663
Probable space group: C 2/M
;
_chemical_formula_sum "Si O2"
_cell_formula_units_Z 32
_cell_length_a 12.507265
_cell_length_b 15.320121
_cell_length_c 8.288001
_cell_angle_alpha 90.000000
_cell_angle_beta 50.892562
_cell_angle_gamma 90.000000
_cell_volume 1232.299324
_symmetry_space_group_name_H-M "C 2/M"
_symmetry_group_IT_number 12
_symmetry_cell_setting 'monoclinic'
loop_
_space_group_symop_operation_xyz
x,y,z
-x,y,-z
-x,-y,-z
x,-y,z
1/2+x,1/2+y,z
1/2-x,1/2+y,-z
1/2-x,1/2-y,-z
1/2+x,1/2-y,z
loop_
_atom_site_type_symbol
_atom_site_label
_atom_site_fract_x
_atom_site_fract_y
_atom_site_fract_z
Si Si1 0.583063 0.099866 0.774737
Si Si2 0.411888 0.335283 0.738828
Si Si3 0.828732 0.634067 0.821364
Si Si4 0.335977 0.398008 0.344743
O O1 0.476680 0.096563 0.727053
O O2 0.726483 0.138767 0.579965
O O3 0.614212 0.000000 0.791535
O O4 0.500000 0.143383 0.000000
O O5 0.500000 0.365592 0.500000
O O6 0.362326 0.236312 0.765137
O O7 0.524263 0.344183 0.774719
O O8 0.274575 0.383219 0.929728
O O9 0.746187 0.603966 0.744036
O O10 0.369279 0.500000 0.346111
#
# Coordination Sequence:
#
# PCOD9209663 Si02
#       4
#     8   8   8   8
#     4  10  21  38  63  94 127 165 210 260 314 372
#     4  11  25  42  63  93 128 166 209 259 316 375
#     4  11  24  41  65  93 126 167 211 260 314 373
#     4  11  24  43  67  94 127 168 212 259 312 373
#
# _framework density 25.967715999999999
#
# number of rings (size 3 to 8) (size 9 to 14) (size 15 to 20)
#    0.000    1.250    0.000    5.250    0.000   13.500 
#    0.000    0.000    0.000    0.000    0.000    0.000 
#    0.000    0.000    0.000    0.000    0.000    0.000 
#
# Total GULP energy -89563.654950 kJ/mol
# GULP energy per Si atom -5597.728434 kJ/mol
# Density = 2.590861 g / cm^3
# Si number density = 25.967716 Si / 1000 Ang^3
#
#
#
# Elastic Constant Matrix: (Units=GPa)
#
#
# Indices 1 2 3 4 5 6 
#
# 1 118.3098 11.9107 14.6826 0.0000 -18.8492 0.0000
# 2 11.9107 61.5679 -1.2122 0.0000 -1.6512 0.0000
# 3 14.6826 -1.2122 133.3707 0.0000 -17.8768 0.0000
# 4 0.0000 0.0000 0.0000 14.8512 0.0000 2.6077
# 5 -18.8492 -1.6512 -17.8768 0.0000 53.4238 0.0000
# 6 0.0000 0.0000 0.0000 2.6077 0.0000 33.8694
#
#
#
# Elastic Compliance Matrix: (Units=1/GPa)
#
#
# Indices 1 2 3 4 5 6 
#
# 1 0.009176 -0.001708 -0.000627 0.000000 0.002975 0.000000
# 2 -0.001708 0.016580 0.000342 0.000000 0.000024 0.000000
# 3 -0.000627 0.000342 0.007896 0.000000 0.002432 0.000000
# 4 0.000000 0.000000 0.000000 0.068257 0.000000 -0.005255
# 5 0.002975 0.000024 0.002432 0.000000 0.020582 0.000000
# 6 0.000000 0.000000 0.000000 -0.005255 0.000000 0.029930
#
#
# Mechanical properties :
#
#
# Convention : Reuss Voigt Hill
#
# Bulk Modulus (GPa) = 33.70796 40.44562 37.07679
# Shear Modulus (GPa) = 30.06689 39.62003 34.84346
#
# Velocity S-wave (km/s) = 3.40642 3.91031 3.66703
# Velocity P-wave (km/s) = 5.33671 5.99971 5.67790
#
# Compressibility (1/GPa) = 0.02966659
#
# Stress axis : x y z
#
# Youngs Moduli (GPa) = 108.97887 60.31372 126.64731
#
# Poissons Ratio (x) = 0.10300 0.07940
# Poissons Ratio (y) = 0.18611 -0.04331
# Poissons Ratio (z) = 0.06832 -0.02063
#
# Static dielectric constant tensor:
#      x y z
#    x 2.037350 0.000000 0.103390 
#    y 0.000000 1.979140 0.000000 
#    z 0.103390 0.000000 2.096160 
# 
# From -- ./inp_files/48292.got.cif
#   From: 2010.05.17/outbox.cif.g08.bks.cpg/sg12_25_cif.got.tgz:48292.got - 2010.06.03 13:09:07.
