data_PCOD9209001
_publ_section_title
;
Structure prediction by ZEFSAII (Michael W. Deem and Ramdas Pophale) SiO2 
 PCOD9209001
Probable space group: C 2/M
;
_chemical_formula_sum "Si O2"
_cell_formula_units_Z 48
_cell_length_a 14.040635
_cell_length_b 12.401490
_cell_length_c 13.927225
_cell_angle_alpha 90.000000
_cell_angle_beta 123.637655
_cell_angle_gamma 90.000000
_cell_volume 2019.014223
_symmetry_space_group_name_H-M "C 2/M"
_symmetry_group_IT_number 12
_symmetry_cell_setting 'monoclinic'
loop_
_space_group_symop_operation_xyz
x,y,z
-x,y,-z
-x,-y,-z
x,-y,z
1/2+x,1/2+y,z
1/2-x,1/2+y,-z
1/2-x,1/2-y,-z
1/2+x,1/2-y,z
loop_
_atom_site_type_symbol
_atom_site_label
_atom_site_fract_x
_atom_site_fract_y
_atom_site_fract_z
Si Si1 0.223307 0.286172 0.341163
Si Si2 0.107906 0.614561 0.760757
Si Si3 0.797756 0.159067 0.186791
Si Si4 0.578078 0.831892 0.954858
Si Si5 0.124502 0.621121 0.478080
Si Si6 0.009956 0.875267 0.181971
O O1 0.248723 0.362415 0.264626
O O2 0.192187 0.355327 0.417013
O O3 0.333804 0.214458 0.428647
O O4 0.122753 0.196866 0.266626
O O5 0.165052 0.500000 0.780513
O O6 0.194761 0.711397 0.806834
O O7 0.050996 0.621091 0.835169
O O8 0.007059 0.626277 0.627575
O O9 0.923809 0.122545 0.226219
O O10 0.705332 0.132866 0.054405
O O11 0.559810 0.702622 0.930476
O O12 0.500000 0.865611 0.000000
O O13 0.148928 0.500000 0.526612
O O14 0.031306 0.000000 0.166569
#
# Coordination Sequence:
#
# PCOD9209001 Si02
#       6
#     8   8   8   8   8   8
#     4  11  22  42  65  88 130 166 202 260 315 368
#     4  10  21  38  60  89 122 160 208 256 306 368
#     4  11  23  40  62  90 129 165 207 258 315 367
#     4  11  21  40  61  89 125 165 207 258 312 371
#     4  10  21  40  65  91 122 163 209 255 309 372
#     4  11  23  41  63  94 126 164 211 257 312 376
#
# _framework density 23.773976999999999
#
# number of rings (size 3 to 8) (size 9 to 14) (size 15 to 20)
#    0.000    1.333    5.000    2.500    0.000    6.000 
#    0.000    1.667    0.000    3.000    0.000    0.000 
#    0.000    0.000    0.000    0.000    0.000    0.000 
#
# Total GULP energy -134114.521835 kJ/mol
# GULP energy per Si atom -5588.105076 kJ/mol
# Density = 2.371987 g / cm^3
# Si number density = 23.773977 Si / 1000 Ang^3
#
#
#
# Elastic Constant Matrix: (Units=GPa)
#
#
# Indices 1 2 3 4 5 6 
#
# 1 102.4579 -6.0852 9.5005 0.0000 -15.8990 0.0000
# 2 -6.0852 109.1977 4.3881 0.0000 6.0554 0.0000
# 3 9.5005 4.3881 81.5284 0.0000 -3.9286 0.0000
# 4 0.0000 0.0000 0.0000 3.4633 0.0000 7.4574
# 5 -15.8990 6.0554 -3.9286 0.0000 28.1110 0.0000
# 6 0.0000 0.0000 0.0000 7.4574 0.0000 -6.1600
#
#
#
# Elastic Compliance Matrix: (Units=1/GPa)
#
#
# Indices 1 2 3 4 5 6 
#
# 1 0.010785 0.000314 -0.000990 0.000000 0.005894 0.000000
# 2 0.000314 0.009307 -0.000630 0.000000 -0.001915 0.000000
# 3 -0.000990 -0.000630 0.012478 0.000000 0.001320 0.000000
# 4 0.000000 0.000000 0.000000 0.080055 0.000000 0.096916
# 5 0.005894 -0.001915 0.001320 0.000000 0.039504 0.000000
# 6 0.000000 0.000000 0.000000 0.096916 0.000000 -0.045009
#
#
# Mechanical properties :
#
#
# Convention : Reuss Voigt Hill
#
# Bulk Modulus (GPa) = 33.37865 34.31010 33.84437
# Shear Modulus (GPa) = 41.76516 24.10825 32.93670
#
# Velocity S-wave (km/s) = 4.19592 3.18789 3.72615
# Velocity P-wave (km/s) = 6.12738 5.29276 5.72530
#
# Compressibility (1/GPa) = 0.02995927
#
# Stress axis : x y z
#
# Youngs Moduli (GPa) = 92.72045 107.44940 80.13790
#
# Poissons Ratio (x) = -0.03373 0.07931
# Poissons Ratio (y) = -0.02911 0.05047
# Poissons Ratio (z) = 0.09176 0.06767
#
# Static dielectric constant tensor:
#      x y z
#    x 1.966240 0.000000 -0.039950 
#    y 0.000000 1.908710 0.000000 
#    z -0.039950 0.000000 1.888270 
# 
# From -- ./inp_files/215020.got.cif
#   From: 2010.05.17/outbox.cif.g08.bks.cpg/sg12_108_cif.got.tgz:215020.got - 2010.06.03 13:09:07.
