data_PCOD9209322
_publ_section_title
;
Structure prediction by ZEFSAII (Michael W. Deem and Ramdas Pophale) SiO2 
 PCOD9209322
Probable space group: C 2/M
;
_chemical_formula_sum "Si O2"
_cell_formula_units_Z 64
_cell_length_a 17.046880
_cell_length_b 18.244073
_cell_length_c 14.836256
_cell_angle_alpha 90.000000
_cell_angle_beta 41.792536
_cell_angle_gamma 90.000000
_cell_volume 3075.027822
_symmetry_space_group_name_H-M "C 2/M"
_symmetry_group_IT_number 12
_symmetry_cell_setting 'monoclinic'
loop_
_space_group_symop_operation_xyz
x,y,z
-x,y,-z
-x,-y,-z
x,-y,z
1/2+x,1/2+y,z
1/2-x,1/2+y,-z
1/2-x,1/2-y,-z
1/2+x,1/2-y,z
loop_
_atom_site_type_symbol
_atom_site_label
_atom_site_fract_x
_atom_site_fract_y
_atom_site_fract_z
Si Si1 0.795981 0.661330 0.624506
Si Si2 0.058924 0.684184 0.330782
Si Si3 0.246567 0.579884 0.859828
Si Si4 0.368342 0.079691 0.232130
Si Si5 0.808517 0.083451 0.453822
Si Si6 0.564689 0.756118 0.852047
Si Si7 0.979766 0.146914 0.623116
Si Si8 0.636024 0.797154 0.076265
O O1 0.854248 0.644617 0.672299
O O2 0.730243 0.605284 0.613792
O O3 0.694531 0.722986 0.727626
O O4 0.919069 0.678497 0.468055
O O5 0.076211 0.771707 0.327518
O O6 0.093109 0.661156 0.201870
O O7 0.214322 0.500000 0.923865
O O8 0.222258 0.579158 0.773625
O O9 0.384338 0.594540 0.749932
O O10 0.175475 0.645542 0.966355
O O11 0.303347 0.084782 0.383220
O O12 0.432345 0.155761 0.159782
O O13 0.430798 0.000000 0.173621
O O14 0.901328 0.138143 0.421317
O O15 0.854046 0.000000 0.416862
O O16 0.467840 0.739836 0.859128
O O17 0.500000 0.734781 0.000000
O O18 0.000000 0.129101 0.500000
O O19 0.750000 0.750000 0.000000
#
# Coordination Sequence:
#
# PCOD9209322 Si02
#       8
#     8   8   8   8   8   8   8   8
#     4  11  24  44  66  97 131 169 231 285 327 384
#     4  11  23  43  68  97 129 171 227 283 332 391
#     4  11  23  39  60  93 137 174 210 261 329 402
#     4  10  21  38  61  94 132 167 205 257 327 405
#     4  11  24  40  64  97 134 178 226 273 333 398
#     4  12  23  39  65  97 131 171 212 271 341 395
#     4  12  20  37  66  99 133 173 219 273 339 399
#     4  12  24  40  62  90 130 175 220 265 330 395
#
# _framework density 20.812819000000001
#
# number of rings (size 3 to 8) (size 9 to 14) (size 15 to 20)
#    0.000    0.750    5.000    4.125    0.000    2.750 
#    0.000    2.500    0.000    0.375    0.000    0.000 
#    0.000    0.000    0.000    0.000    0.000    0.000 
#
# Total GULP energy -178428.817345 kJ/mol
# GULP energy per Si atom -5575.900542 kJ/mol
# Density = 2.076545 g / cm^3
# Si number density = 20.812819 Si / 1000 Ang^3
#
#
#
# Elastic Constant Matrix: (Units=GPa)
#
#
# Indices 1 2 3 4 5 6 
#
# 1 100.6888 0.4277 29.5853 0.0000 -2.5697 0.0000
# 2 0.4277 40.7672 5.4450 0.0000 1.8739 0.0000
# 3 29.5853 5.4450 88.0714 0.0000 1.0156 0.0000
# 4 0.0000 0.0000 0.0000 7.7768 0.0000 6.7081
# 5 -2.5697 1.8739 1.0156 0.0000 42.3872 0.0000
# 6 0.0000 0.0000 0.0000 6.7081 0.0000 22.1476
#
#
#
# Elastic Compliance Matrix: (Units=1/GPa)
#
#
# Indices 1 2 3 4 5 6 
#
# 1 0.011048 0.000350 -0.003742 0.000000 0.000744 0.000000
# 2 0.000350 0.024792 -0.001638 0.000000 -0.001036 0.000000
# 3 -0.003742 -0.001638 0.012718 0.000000 -0.000459 0.000000
# 4 0.000000 0.000000 0.000000 0.174063 0.000000 -0.052721
# 5 0.000744 -0.001036 -0.000459 0.000000 0.023694 0.000000
# 6 0.000000 0.000000 0.000000 -0.052721 0.000000 0.061120
#
#
# Mechanical properties :
#
#
# Convention : Reuss Voigt Hill
#
# Bulk Modulus (GPa) = 25.97533 33.38260 29.67897
# Shear Modulus (GPa) = 15.13642 27.40028 21.26835
#
# Velocity S-wave (km/s) = 2.69971 3.63231 3.20016
# Velocity P-wave (km/s) = 4.71439 5.80223 5.28636
#
# Compressibility (1/GPa) = 0.03849807
#
# Stress axis : x y z
#
# Youngs Moduli (GPa) = 90.51005 40.33515 78.62929
#
# Poissons Ratio (x) = -0.01410 0.29420
# Poissons Ratio (y) = -0.03165 0.12882
# Poissons Ratio (z) = 0.33866 0.06608
#
# Static dielectric constant tensor:
#      x y z
#    x 1.863350 0.000000 -0.013420 
#    y 0.000000 1.750710 0.000000 
#    z -0.013420 0.000000 1.744510 
# 
# From -- ./inp_files/226856.got.cif
#   From: 2010.05.17/outbox.cif.g08.bks.cpg/sg12_114_cif.got.tgz:226856.got - 2010.06.03 13:09:07.
