data_PCOD9209245
_publ_section_title
;
Structure prediction by ZEFSAII (Michael W. Deem and Ramdas Pophale) SiO2 
 PCOD9209245
Probable space group: C 2/M
;
_chemical_formula_sum "Si O2"
_cell_formula_units_Z 56
_cell_length_a 9.198161
_cell_length_b 18.768592
_cell_length_c 28.667143
_cell_angle_alpha 90.000000
_cell_angle_beta 37.198849
_cell_angle_gamma 90.000000
_cell_volume 2992.079483
_symmetry_space_group_name_H-M "C 2/M"
_symmetry_group_IT_number 12
_symmetry_cell_setting 'monoclinic'
loop_
_space_group_symop_operation_xyz
x,y,z
-x,y,-z
-x,-y,-z
x,-y,z
1/2+x,1/2+y,z
1/2-x,1/2+y,-z
1/2-x,1/2-y,-z
1/2+x,1/2-y,z
loop_
_atom_site_type_symbol
_atom_site_label
_atom_site_fract_x
_atom_site_fract_y
_atom_site_fract_z
Si Si1 0.986873 0.296011 0.448965
Si Si2 0.373643 0.581918 0.780773
Si Si3 0.942796 0.694493 0.309173
Si Si4 0.722733 0.723221 0.058767
Si Si5 0.729462 0.421641 0.087681
Si Si6 0.049407 0.416259 0.357688
Si Si7 0.627986 0.200328 0.781678
O O1 0.750000 0.250000 0.500000
O O2 0.974712 0.366032 0.419929
O O3 0.000000 0.315147 0.500000
O O4 0.215406 0.245663 0.378397
O O5 0.320957 0.500000 0.782238
O O6 0.260992 0.597831 0.860194
O O7 0.266554 0.634424 0.769916
O O8 0.659363 0.588580 0.715613
O O9 0.942200 0.621394 0.338786
O O10 0.951406 0.686224 0.251031
O O11 0.178458 0.735855 0.267034
O O12 0.607619 0.644313 0.092653
O O13 0.586708 0.774852 0.129355
O O14 0.750000 0.750000 0.000000
O O15 0.000000 0.714568 0.000000
O O16 0.612263 0.500000 0.113573
O O17 0.000000 0.428717 0.000000
O O18 0.985884 0.500000 0.377470
#
# Coordination Sequence:
#
# PCOD9209245 Si02
#       7
#     8   8   8   8   8   8   8
#     4  12  23  42  68  94 125 162 207 256 308 387
#     4  10  21  38  61  90 123 160 212 268 313 373
#     4  12  22  39  64  94 121 168 214 254 308 386
#     4  11  22  35  54  88 123 156 207 268 313 366
#     4   9  17  32  54  79 112 156 202 249 310 365
#     4  11  24  43  65  97 131 163 210 268 321 375
#     4  12  21  37  64  88 124 169 219 255 319 376
#
# _framework density 18.716082
#
# number of rings (size 3 to 8) (size 9 to 14) (size 15 to 20)
#    0.000    1.000    4.286    4.286    0.000    0.857 
#    0.000    1.429    0.000    3.429    0.000    0.000 
#    0.000    0.000    0.000    0.000    0.000    0.000 
#
# Total GULP energy -156268.705478 kJ/mol
# GULP energy per Si atom -5581.025196 kJ/mol
# Density = 1.867348 g / cm^3
# Si number density = 18.716082 Si / 1000 Ang^3
#
#
#
# Elastic Constant Matrix: (Units=GPa)
#
#
# Indices 1 2 3 4 5 6 
#
# 1 101.6620 69.5966 39.4386 -0.0345 34.7502 -0.0621
# 2 69.5966 154.4181 41.6606 0.0268 28.8581 0.0623
# 3 39.4386 41.6606 94.0378 0.1901 22.2844 0.3936
# 4 -0.0345 0.0268 0.1901 25.5759 0.0350 -3.8811
# 5 34.7502 28.8581 22.2844 0.0350 43.1184 0.0877
# 6 -0.0621 0.0623 0.3936 -3.8811 0.0877 11.3158
#
#
#
# Elastic Compliance Matrix: (Units=1/GPa)
#
#
# Indices 1 2 3 4 5 6 
#
# 1 0.017922 -0.005581 -0.002858 0.000115 -0.009232 0.000340
# 2 -0.005581 0.009647 -0.001674 -0.000007 -0.001093 -0.000019
# 3 -0.002858 -0.001674 0.013407 -0.000174 -0.003504 -0.000505
# 4 0.000115 -0.000007 -0.000174 0.041249 -0.000061 0.014155
# 5 -0.009232 -0.001093 -0.003504 -0.000061 0.033176 -0.000201
# 6 0.000340 -0.000019 -0.000505 0.014155 -0.000201 0.093248
#
#
# Mechanical properties :
#
#
# Convention : Reuss Voigt Hill
#
# Bulk Modulus (GPa) = 48.19132 72.38996 60.29064
# Shear Modulus (GPa) = 21.20518 29.29684 25.25101
#
# Velocity S-wave (km/s) = 3.36965 3.96072 3.67708
# Velocity P-wave (km/s) = 6.39874 7.72517 7.09303
#
# Compressibility (1/GPa) = 0.02075063
#
# Stress axis : x y z
#
# Youngs Moduli (GPa) = 55.79720 103.65424 74.58788
#
# Poissons Ratio (x) = 0.57853 0.21314
# Poissons Ratio (y) = 0.31143 0.12486
# Poissons Ratio (z) = 0.15944 0.17352
#
# Static dielectric constant tensor:
#      x y z
#    x 1.618800 -0.000010 0.009090 
#    y -0.000010 1.729190 0.000000 
#    z 0.009090 0.000000 1.681170 
# 
# From -- ./inp_files/356628.got.cif
#   From: 2010.05.17/outbox.cif.g08.bks.cpg/sg12_179_cif.got.tgz:356628.got - 2010.06.03 13:09:07.
