data_PCOD9209998
_publ_section_title
;
Structure prediction by ZEFSAII (Michael W. Deem and Ramdas Pophale) SiO2 
 PCOD9209998
Probable space group: C 2/M
;
_chemical_formula_sum "Si O2"
_cell_formula_units_Z 42
_cell_length_a 5.374059
_cell_length_b 26.994083
_cell_length_c 11.267983
_cell_angle_alpha 90.000000
_cell_angle_beta 79.406656
_cell_angle_gamma 90.000000
_cell_volume 1606.762120
_symmetry_space_group_name_H-M "C 2/M"
_symmetry_group_IT_number 12
_symmetry_cell_setting 'monoclinic'
loop_
_space_group_symop_operation_xyz
x,y,z
-x,y,-z
-x,-y,-z
x,-y,z
1/2+x,1/2+y,z
1/2-x,1/2+y,-z
1/2-x,1/2-y,-z
1/2+x,1/2-y,z
loop_
_atom_site_type_symbol
_atom_site_label
_atom_site_fract_x
_atom_site_fract_y
_atom_site_fract_z
Si Si1 0.986440 0.690189 0.369654
Si Si2 0.703891 0.223912 0.849502
Si Si3 0.946468 0.862642 0.198703
Si Si4 0.350026 0.054936 0.889688
Si Si5 0.500000 0.500000 0.500000
Si Si6 0.729338 0.916217 0.648675
O O1 0.804872 0.720231 0.295068
O O2 0.862932 0.635726 0.394362
O O3 0.000000 0.711562 0.500000
O O4 0.245030 0.675461 0.275405
O O5 0.413057 0.240325 0.891069
O O6 0.811898 0.169150 0.866855
O O7 0.823824 0.897239 0.111154
O O8 0.028382 0.900639 0.293790
O O9 0.538873 0.061463 0.762440
O O10 0.228155 0.000000 0.891140
O O11 0.500000 0.056677 0.000000
O O12 0.294012 0.456676 0.548237
#
# Coordination Sequence:
#
# PCOD9209998 Si02
#       6
#     8   8   8   8   2   8
#     4  10  21  39  58  91 138 181 231 284 348 415
#     4  11  22  41  67  99 134 186 235 296 357 424
#     4  10  22  41  63  94 136 179 229 291 354 414
#     4  10  22  42  67  98 136 184 239 292 349 414
#     4  12  20  36  60  94 134 184 236 270 344 418
#     4  10  22  37  59  95 134 185 231 283 344 411
#
# _framework density 26.139527000000001
#
# number of rings (size 3 to 8) (size 9 to 14) (size 15 to 20)
#    0.000    1.714    2.857    1.143    1.333    3.810 
#    0.000    4.286    0.000    1.143    0.000    0.000 
#    0.000    0.000    0.000    0.000    0.000    0.000 
#
# Total GULP energy -117197.462200 kJ/mol
# GULP energy per Si atom -5580.831533 kJ/mol
# Density = 2.608003 g / cm^3
# Si number density = 26.139527 Si / 1000 Ang^3
#
#
#
# Elastic Constant Matrix: (Units=GPa)
#
#
# Indices 1 2 3 4 5 6 
#
# 1 142.7790 61.5266 51.9961 0.0000 2.7704 0.0000
# 2 61.5266 155.0561 27.2233 0.0000 -0.6822 0.0000
# 3 51.9961 27.2233 93.4278 0.0000 -6.5681 0.0000
# 4 0.0000 0.0000 0.0000 29.2468 0.0000 18.5696
# 5 2.7704 -0.6822 -6.5681 0.0000 39.0461 0.0000
# 6 0.0000 0.0000 0.0000 18.5696 0.0000 -237.5498
#
#
#
# Elastic Compliance Matrix: (Units=1/GPa)
#
#
# Indices 1 2 3 4 5 6 
#
# 1 0.010175 -0.003194 -0.004844 0.000000 -0.001593 0.000000
# 2 -0.003194 0.007801 -0.000476 0.000000 0.000283 0.000000
# 3 -0.004844 -0.000476 0.013724 0.000000 0.002644 0.000000
# 4 0.000000 0.000000 0.000000 0.032575 0.000000 0.002546
# 5 -0.001593 0.000283 0.002644 0.000000 0.026173 0.000000
# 6 0.000000 0.000000 0.000000 0.002546 0.000000 -0.004011
#
#
# Mechanical properties :
#
#
# Convention : Reuss Voigt Hill
#
# Bulk Modulus (GPa) = 68.15374 74.75054 71.45214
# Shear Modulus (GPa) = 46.14366 -17.15027 14.49670
#
# Velocity S-wave (km/s) = 4.20609 -2.56423 2.35753
# Velocity P-wave (km/s) = 7.05109 4.46002 5.89956
#
# Compressibility (1/GPa) = 0.01467271
#
# Stress axis : x y z
#
# Youngs Moduli (GPa) = 98.27778 128.18113 72.86558
#
# Poissons Ratio (x) = 0.40942 0.35297
# Poissons Ratio (y) = 0.31391 0.03466
# Poissons Ratio (z) = 0.47607 0.06098
#
# Static dielectric constant tensor:
#      x y z
#    x 2.138120 0.000000 -0.033640 
#    y 0.000000 1.971250 0.000000 
#    z -0.033640 0.000000 2.088580 
# 
# From -- ./inp_files/116083.got.cif
#   From: 2010.05.17/outbox.cif.g08.bks.cpg/sg12_59_cif.got.tgz:116083.got - 2010.06.03 13:09:07.
