data_PCOD9209347
_publ_section_title
;
Structure prediction by ZEFSAII (Michael W. Deem and Ramdas Pophale) SiO2 
 PCOD9209347
Probable space group: C 2/M
;
_chemical_formula_sum "Si O2"
_cell_formula_units_Z 36
_cell_length_a 8.141588
_cell_length_b 12.947402
_cell_length_c 20.521205
_cell_angle_alpha 90.000000
_cell_angle_beta 43.026624
_cell_angle_gamma 90.000000
_cell_volume 1476.026835
_symmetry_space_group_name_H-M "C 2/M"
_symmetry_group_IT_number 12
_symmetry_cell_setting 'monoclinic'
loop_
_space_group_symop_operation_xyz
x,y,z
-x,y,-z
-x,-y,-z
x,-y,z
1/2+x,1/2+y,z
1/2-x,1/2+y,-z
1/2-x,1/2-y,-z
1/2+x,1/2-y,z
loop_
_atom_site_type_symbol
_atom_site_label
_atom_site_fract_x
_atom_site_fract_y
_atom_site_fract_z
Si Si1 0.792374 0.623402 0.725503
Si Si2 0.492578 0.810749 0.140002
Si Si3 0.737546 0.617275 0.341597
Si Si4 0.767719 0.874340 0.407319
Si Si5 0.000000 0.708083 0.000000
O O1 0.764984 0.500000 0.745300
O O2 0.074441 0.649530 0.657006
O O3 0.643969 0.700136 0.814333
O O4 0.697938 0.646416 0.679812
O O5 0.391220 0.874966 0.229756
O O6 0.770716 0.782422 0.061807
O O7 0.454640 0.855521 0.079074
O O8 0.685513 0.500000 0.374316
O O9 0.478639 0.660364 0.394940
O O10 0.500000 0.836377 0.500000
O O11 0.763327 0.000000 0.413148
#
# Coordination Sequence:
#
# PCOD9209347 Si02
#       5
#     8   8   8   8   4
#     4  10  21  38  62  86 114 156 194 232 289 344
#     4  11  20  40  57  84 116 150 193 240 288 343
#     4  10  21  38  62  86 114 156 194 232 289 344
#     4   9  19  36  59  88 118 149 192 240 282 336
#     4  10  22  34  60  82 112 154 188 240 294 338
#
# _framework density 24.389800000000001
#
# number of rings (size 3 to 8) (size 9 to 14) (size 15 to 20)
#    0.000    2.000    2.222    1.333    0.000    0.889 
#    0.000   12.222    0.000    0.000    0.000    0.000 
#    0.000    0.000    0.000    0.000    0.000    0.000 
#
# Total GULP energy -100490.749848 kJ/mol
# GULP energy per Si atom -5582.819436 kJ/mol
# Density = 2.433429 g / cm^3
# Si number density = 24.389800 Si / 1000 Ang^3
#
#
#
# Elastic Constant Matrix: (Units=GPa)
#
#
# Indices 1 2 3 4 5 6 
#
# 1 128.3539 45.9738 14.1268 -0.0002 -40.0077 0.0010
# 2 45.9738 96.2353 6.6543 0.0002 -1.3974 -0.0001
# 3 14.1268 6.6543 70.7342 -0.0010 -23.7942 0.0022
# 4 -0.0002 0.0002 -0.0010 10.0939 0.0004 -5.4430
# 5 -40.0077 -1.3974 -23.7942 0.0004 54.0091 -0.0010
# 6 0.0010 -0.0001 0.0022 -5.4430 -0.0010 -9.4353
#
#
#
# Elastic Compliance Matrix: (Units=1/GPa)
#
#
# Indices 1 2 3 4 5 6 
#
# 1 0.012977 -0.006148 0.001370 0.000000 0.010057 0.000000
# 2 -0.006148 0.013374 -0.001697 -0.000001 -0.004956 0.000000
# 3 0.001370 -0.001697 0.016847 0.000002 0.008393 0.000002
# 4 0.000000 -0.000001 0.000002 0.075564 0.000000 -0.043591
# 5 0.010057 -0.004956 0.008393 0.000000 0.029535 0.000000
# 6 0.000000 0.000000 0.000002 -0.043591 0.000000 -0.080838
#
#
# Mechanical properties :
#
#
# Convention : Reuss Voigt Hill
#
# Bulk Modulus (GPa) = 33.06205 47.64814 40.35509
# Shear Modulus (GPa) = 55.25357 26.17143 40.71250
#
# Velocity S-wave (km/s) = 4.76482 3.27930 4.09007
# Velocity P-wave (km/s) = 6.62243 5.82382 6.23592
#
# Compressibility (1/GPa) = 0.03024616
#
# Stress axis : x y z
#
# Youngs Moduli (GPa) = 77.05793 74.77344 59.35856
#
# Poissons Ratio (x) = 0.45972 -0.08131
# Poissons Ratio (y) = 0.47377 0.10076
# Poissons Ratio (z) = -0.10556 0.12692
#
# Static dielectric constant tensor:
#      x y z
#    x 1.996240 0.000000 0.033650 
#    y 0.000000 1.934940 0.000000 
#    z 0.033650 0.000000 1.916250 
# 
# From -- ./inp_files/119751.got.cif
#   From: 2010.05.17/outbox.cif.g08.bks.cpg/sg12_60_cif.got.tgz:119751.got - 2010.06.03 13:09:07.
