data_PCOD9209549
_publ_section_title
;
Structure prediction by ZEFSAII (Michael W. Deem and Ramdas Pophale) SiO2 
 PCOD9209549
Probable space group: C 2/M
;
_chemical_formula_sum "Si O2"
_cell_formula_units_Z 64
_cell_length_a 25.510921
_cell_length_b 19.388765
_cell_length_c 16.592782
_cell_angle_alpha 90.000000
_cell_angle_beta 21.149934
_cell_angle_gamma 90.000000
_cell_volume 2961.241039
_symmetry_space_group_name_H-M "C 2/M"
_symmetry_group_IT_number 12
_symmetry_cell_setting 'monoclinic'
loop_
_space_group_symop_operation_xyz
x,y,z
-x,y,-z
-x,-y,-z
x,-y,z
1/2+x,1/2+y,z
1/2-x,1/2+y,-z
1/2-x,1/2-y,-z
1/2+x,1/2-y,z
loop_
_atom_site_type_symbol
_atom_site_label
_atom_site_fract_x
_atom_site_fract_y
_atom_site_fract_z
Si Si1 0.172944 0.807855 0.664223
Si Si2 0.933227 0.577172 0.913324
Si Si3 0.367552 0.341447 0.847353
Si Si4 0.204274 0.579985 0.621699
Si Si5 0.348546 0.211608 0.975485
Si Si6 0.656650 0.580406 0.412053
Si Si7 0.176744 0.804282 0.844970
Si Si8 0.174581 0.417479 0.256282
O O1 0.250000 0.750000 0.500000
O O2 0.224843 0.879967 0.553495
O O3 0.214727 0.797804 0.697133
O O4 0.999107 0.807334 0.903024
O O5 0.960919 0.500000 0.839590
O O6 0.953545 0.645721 0.832166
O O7 0.032717 0.583839 0.850183
O O8 0.767029 0.581839 0.179596
O O9 0.415481 0.279084 0.837468
O O10 0.507627 0.380729 0.616333
O O11 0.281487 0.310104 0.896134
O O12 0.258999 0.389894 0.055418
O O13 0.242936 0.500000 0.561881
O O14 0.260291 0.606722 0.626751
O O15 0.291639 0.238449 0.143507
O O16 0.622917 0.500000 0.474003
O O17 0.254387 0.870439 0.774830
O O18 0.197211 0.500000 0.234284
O O19 0.000000 0.405456 0.500000
#
# Coordination Sequence:
#
# PCOD9209549 Si02
#       8
#     8   8   8   8   8   8   8   8
#     4  11  24  41  69  96 132 172 221 273 334 402
#     4  10  22  39  61  92 129 170 213 264 325 388
#     4  10  22  42  64  93 124 171 221 268 329 385
#     4  10  21  38  62  95 131 168 210 259 324 392
#     4  10  22  43  61  88 128 164 216 266 325 385
#     4  10  21  39  66  95 127 168 213 268 324 387
#     4  10  24  45  64  98 132 174 220 274 336 399
#     4  10  22  42  67  96 134 176 221 274 330 399
#
# _framework density 21.612559999999998
#
# number of rings (size 3 to 8) (size 9 to 14) (size 15 to 20)
#    0.000    1.875    0.000    3.000    1.750    7.000 
#   13.500    5.000    0.000    0.000    0.000    0.000 
#    0.000    0.000    0.000    0.000    0.000    0.000 
#
# Total GULP energy -178788.036782 kJ/mol
# GULP energy per Si atom -5587.126149 kJ/mol
# Density = 2.156337 g / cm^3
# Si number density = 21.612560 Si / 1000 Ang^3
#
#
#
# Elastic Constant Matrix: (Units=GPa)
#
#
# Indices 1 2 3 4 5 6 
#
# 1 101.9819 38.2687 16.9489 0.0012 3.9153 -0.0005
# 2 38.2687 112.2831 30.3493 0.0028 -10.4256 -0.0008
# 3 16.9489 30.3493 96.5050 0.0026 -2.7484 -0.0011
# 4 0.0012 0.0028 0.0026 6.0544 -0.0008 -8.8876
# 5 3.9153 -10.4256 -2.7484 -0.0008 22.5164 0.0005
# 6 -0.0005 -0.0008 -0.0011 -8.8876 0.0005 30.1565
#
#
#
# Elastic Compliance Matrix: (Units=1/GPa)
#
#
# Indices 1 2 3 4 5 6 
#
# 1 0.011647 -0.004109 -0.000868 -0.000001 -0.004034 0.000000
# 2 -0.004109 0.011585 -0.002758 -0.000004 0.005742 -0.000001
# 3 -0.000868 -0.002758 0.011390 -0.000005 0.000264 -0.000001
# 4 -0.000001 -0.000004 -0.000005 0.291117 0.000006 0.085797
# 5 -0.004034 0.005742 0.000264 0.000006 0.047805 0.000001
# 6 0.000000 -0.000001 -0.000001 0.085797 0.000001 0.058446
#
#
# Mechanical properties :
#
#
# Convention : Reuss Voigt Hill
#
# Bulk Modulus (GPa) = 52.21806 53.54487 52.88147
# Shear Modulus (GPa) = 11.01699 26.75898 18.88799
#
# Velocity S-wave (km/s) = 2.26021 3.52251 2.95945
# Velocity P-wave (km/s) = 5.56999 6.43217 6.01655
#
# Compressibility (1/GPa) = 0.01915046
#
# Stress axis : x y z
#
# Youngs Moduli (GPa) = 85.85997 86.31610 87.80004
#
# Poissons Ratio (x) = 0.35471 0.07621
# Poissons Ratio (y) = 0.35284 0.24216
# Poissons Ratio (z) = 0.07453 0.23807
#
# Static dielectric constant tensor:
#      x y z
#    x 1.866680 0.000000 -0.039840 
#    y 0.000000 1.825050 0.000000 
#    z -0.039840 0.000000 1.816830 
# 
# From -- ./inp_files/294133.got.cif
#   From: 2010.05.17/outbox.cif.g08.bks.cpg/sg12_148_cif.got.tgz:294133.got - 2010.06.03 13:09:07.
