data_PCOD9209657
_publ_section_title
;
Structure prediction by ZEFSAII (Michael W. Deem and Ramdas Pophale) SiO2 
 PCOD9209657
Probable space group: C 2/M
;
_chemical_formula_sum "Si O2"
_cell_formula_units_Z 56
_cell_length_a 31.315766
_cell_length_b 8.987302
_cell_length_c 23.352418
_cell_angle_alpha 90.000000
_cell_angle_beta 27.150414
_cell_angle_gamma 90.000000
_cell_volume 2999.171963
_symmetry_space_group_name_H-M "C 2/M"
_symmetry_group_IT_number 12
_symmetry_cell_setting 'monoclinic'
loop_
_space_group_symop_operation_xyz
x,y,z
-x,y,-z
-x,-y,-z
x,-y,z
1/2+x,1/2+y,z
1/2-x,1/2+y,-z
1/2-x,1/2-y,-z
1/2+x,1/2-y,z
loop_
_atom_site_type_symbol
_atom_site_label
_atom_site_fract_x
_atom_site_fract_y
_atom_site_fract_z
Si Si1 0.560090 0.324815 0.839763
Si Si2 0.767015 0.177473 0.282572
Si Si3 0.367883 0.823886 0.060592
Si Si4 0.615747 0.322950 0.200752
Si Si5 0.302083 0.323091 0.023159
Si Si6 0.148868 0.822845 0.610154
Si Si7 0.079711 0.678363 0.575710
O O1 0.538267 0.500000 0.873916
O O2 0.650299 0.289498 0.770620
O O3 0.588690 0.301615 0.739526
O O4 0.468772 0.230679 0.962672
O O5 0.790382 0.264996 0.197257
O O6 0.667781 0.212855 0.429757
O O7 0.769822 0.000000 0.268074
O O8 0.351134 0.749304 0.019053
O O9 0.365226 0.000000 0.058899
O O10 0.613069 0.500000 0.213365
O O11 0.700492 0.249616 0.134586
O O12 0.516652 0.247923 0.331347
O O13 0.640441 0.297267 0.104104
O O14 0.293881 0.500000 0.040873
O O15 0.250000 0.750000 0.500000
O O16 0.102332 0.747585 0.610733
O O17 0.158654 0.000000 0.589338
O O18 0.072266 0.500000 0.589387
#
# Coordination Sequence:
#
# PCOD9209657 Si02
#       7
#     8   8   8   8   8   8   8
#     4  10  21  39  59  81 113 157 199 236 287 349
#     4  10  22  41  59  78 113 160 201 237 282 347
#     4  12  25  38  57  87 116 148 195 249 293 335
#     4  10  21  38  63  94 121 148 185 237 292 342
#     4  10  21  40  64  88 117 154 190 231 287 350
#     4  11  21  35  56  84 117 152 191 237 287 339
#     4  11  22  38  59  87 119 157 197 234 287 350
#
# _framework density 18.67182
#
# number of rings (size 3 to 8) (size 9 to 14) (size 15 to 20)
#    0.000    1.429    1.429    4.286    0.000    9.714 
#    0.000    0.714    0.000    4.286    0.000    0.000 
#    0.000    0.000    0.000    0.000    0.000    0.000 
#
# Total GULP energy -156578.980936 kJ/mol
# GULP energy per Si atom -5592.106462 kJ/mol
# Density = 1.862932 g / cm^3
# Si number density = 18.671820 Si / 1000 Ang^3
#
#
#
# Elastic Constant Matrix: (Units=GPa)
#
#
# Indices 1 2 3 4 5 6 
#
# 1 50.8231 34.7827 36.0917 -0.0002 -15.2274 -0.0002
# 2 34.7827 77.4722 60.9849 -0.0073 -5.9010 0.0026
# 3 36.0917 60.9849 90.2062 -0.0018 -21.4187 0.0009
# 4 -0.0002 -0.0073 -0.0018 29.9223 0.0012 -1.9476
# 5 -15.2274 -5.9010 -21.4187 0.0012 28.8868 -0.0003
# 6 -0.0002 0.0026 0.0009 -1.9476 -0.0003 32.7506
#
#
#
# Elastic Compliance Matrix: (Units=1/GPa)
#
#
# Indices 1 2 3 4 5 6 
#
# 1 0.033793 -0.013030 -0.001352 -0.000004 0.014150 0.000001
# 2 -0.013030 0.035190 -0.022455 0.000008 -0.016330 -0.000002
# 3 -0.001352 -0.022455 0.031008 -0.000004 0.017692 0.000001
# 4 -0.000004 0.000008 -0.000004 0.033550 -0.000005 0.001995
# 5 0.014150 -0.016330 0.017692 -0.000005 0.051859 0.000001
# 6 0.000001 -0.000002 0.000001 0.001995 0.000001 0.030652
#
#
# Mechanical properties :
#
#
# Convention : Reuss Voigt Hill
#
# Bulk Modulus (GPa) = 37.99653 53.58003 45.78828
# Shear Modulus (GPa) = 16.75048 24.08809 20.41928
#
# Velocity S-wave (km/s) = 2.99841 3.59566 3.31053
# Velocity P-wave (km/s) = 5.69044 6.78206 6.26009
#
# Compressibility (1/GPa) = 0.02631819
#
# Stress axis : x y z
#
# Youngs Moduli (GPa) = 29.59165 28.41697 32.24972
#
# Poissons Ratio (x) = 0.37028 0.04359
# Poissons Ratio (y) = 0.38559 0.72415
# Poissons Ratio (z) = 0.04000 0.63809
#
# Static dielectric constant tensor:
#      x y z
#    x 1.630170 0.000000 0.000330 
#    y 0.000000 1.617130 0.000000 
#    z 0.000330 0.000000 1.636290 
# 
# From -- ./inp_files/329441.got.cif
#   From: 2010.05.17/outbox.cif.g08.bks.cpg/sg12_165_cif.got.tgz:329441.got - 2010.06.03 13:09:07.
