data_PCOD9209514
_publ_section_title
;
Structure prediction by ZEFSAII (Michael W. Deem and Ramdas Pophale) SiO2 
 PCOD9209514
Probable space group: C 2/M
;
_chemical_formula_sum "Si O2"
_cell_formula_units_Z 50
_cell_length_a 14.387094
_cell_length_b 9.369368
_cell_length_c 17.942516
_cell_angle_alpha 90.000000
_cell_angle_beta 121.091169
_cell_angle_gamma 90.000000
_cell_volume 2071.172841
_symmetry_space_group_name_H-M "C 2/M"
_symmetry_group_IT_number 12
_symmetry_cell_setting 'monoclinic'
loop_
_space_group_symop_operation_xyz
x,y,z
-x,y,-z
-x,-y,-z
x,-y,z
1/2+x,1/2+y,z
1/2-x,1/2+y,-z
1/2-x,1/2-y,-z
1/2+x,1/2-y,z
loop_
_atom_site_type_symbol
_atom_site_label
_atom_site_fract_x
_atom_site_fract_y
_atom_site_fract_z
Si Si1 0.330116 0.828867 0.475955
Si Si2 0.730852 0.341530 0.692303
Si Si3 0.500000 0.000000 0.000000
Si Si4 0.707937 0.350076 0.161618
Si Si5 0.516591 0.337565 0.362966
Si Si6 0.455563 0.167060 0.201182
Si Si7 0.626923 0.259533 0.979737
O O1 0.250000 0.750000 0.500000
O O2 0.288068 0.774854 0.379143
O O3 0.440584 0.753715 0.549511
O O4 0.335507 0.000000 0.483591
O O5 0.761422 0.500000 0.677390
O O6 0.807884 0.282681 0.789642
O O7 0.611624 0.354868 0.678957
O O8 0.580030 0.119568 0.997299
O O9 0.694618 0.500000 0.197481
O O10 0.833134 0.342490 0.184636
O O11 0.636529 0.353667 0.057648
O O12 0.562923 0.500000 0.378633
O O13 0.530245 0.241701 0.294393
O O14 0.444456 0.270662 0.124792
O O15 0.484572 0.000000 0.196353
O O16 0.750000 0.250000 0.000000
#
# Coordination Sequence:
#
# PCOD9209514 Si02
#       7
#     8   8   2   8   8   8   8
#     4  12  25  42  61  85 119 164 209 269 344 401
#     4  10  21  38  64  95 125 165 217 266 325 409
#     4  12  24  44  70 110 136 196 254 296 372 450
#     4   9  19  36  62  92 130 178 221 276 345 406
#     4  10  21  38  62  93 126 164 216 268 324 405
#     4   9  17  35  60  91 126 172 223 273 343 407
#     4  10  22  40  68 100 142 186 235 301 351 424
#
# _framework density 24.140909000000001
#
# number of rings (size 3 to 8) (size 9 to 14) (size 15 to 20)
#    0.000    1.920    0.800    2.880    2.240    4.480 
#    5.760    0.400    0.000    0.000    0.000    0.000 
#    0.000    0.000    0.000    0.000    0.000    0.000 
#
# Total GULP energy -139209.711470 kJ/mol
# GULP energy per Si atom -5568.388459 kJ/mol
# Density = 2.408596 g / cm^3
# Si number density = 24.140909 Si / 1000 Ang^3
#
#
#
# Elastic Constant Matrix: (Units=GPa)
#
#
# Indices 1 2 3 4 5 6 
#
# 1 61.5516 12.8323 11.7071 0.0000 17.4673 0.0000
# 2 12.8323 196.7336 75.7756 0.0000 -10.4690 0.0000
# 3 11.7071 75.7756 165.8331 0.0000 -11.7056 0.0000
# 4 0.0000 0.0000 0.0000 61.8583 0.0000 -9.9777
# 5 17.4673 -10.4690 -11.7056 0.0000 27.7166 0.0000
# 6 0.0000 0.0000 0.0000 -9.9777 0.0000 32.2432
#
#
#
# Elastic Compliance Matrix: (Units=1/GPa)
#
#
# Indices 1 2 3 4 5 6 
#
# 1 0.021038 -0.001432 -0.001860 0.000000 -0.014585 0.000000
# 2 -0.001432 0.006303 -0.002626 0.000000 0.002174 0.000000
# 3 -0.001860 -0.002626 0.007601 0.000000 0.003391 0.000000
# 4 0.000000 0.000000 0.000000 0.017015 0.000000 0.005265
# 5 -0.014585 0.002174 0.003391 0.000000 0.047524 0.000000
# 6 0.000000 0.000000 0.000000 0.005265 0.000000 0.032644
#
#
# Mechanical properties :
#
#
# Convention : Reuss Voigt Hill
#
# Bulk Modulus (GPa) = 43.27881 69.41646 56.34764
# Shear Modulus (GPa) = 32.96783 45.95050 39.45916
#
# Velocity S-wave (km/s) = 3.69947 4.36756 4.04732
# Velocity P-wave (km/s) = 6.01786 7.36555 6.72554
#
# Compressibility (1/GPa) = 0.02310599
#
# Stress axis : x y z
#
# Youngs Moduli (GPa) = 47.53354 158.64292 131.56787
#
# Poissons Ratio (x) = 0.22714 0.24477
# Poissons Ratio (y) = 0.06806 0.34546
# Poissons Ratio (z) = 0.08843 0.41656
#
# Static dielectric constant tensor:
#      x y z
#    x 2.108330 0.000000 0.113530 
#    y 0.000000 1.896590 0.000000 
#    z 0.113530 0.000000 2.028530 
# 
# From -- ./inp_files/275773.got.cif
#   From: 2010.05.17/outbox.cif.g08.bks.cpg/sg12_138_cif.got.tgz:275773.got - 2010.06.03 13:09:07.
