data_PCOD9209496
_publ_section_title
;
Structure prediction by ZEFSAII (Michael W. Deem and Ramdas Pophale) SiO2 
 PCOD9209496
Probable space group: C 2/M
;
_chemical_formula_sum "Si O2"
_cell_formula_units_Z 40
_cell_length_a 20.602980
_cell_length_b 8.533019
_cell_length_c 10.657118
_cell_angle_alpha 90.000000
_cell_angle_beta 98.991375
_cell_angle_gamma 90.000000
_cell_volume 1850.558441
_symmetry_space_group_name_H-M "C 2/M"
_symmetry_group_IT_number 12
_symmetry_cell_setting 'monoclinic'
loop_
_space_group_symop_operation_xyz
x,y,z
-x,y,-z
-x,-y,-z
x,-y,z
1/2+x,1/2+y,z
1/2-x,1/2+y,-z
1/2-x,1/2-y,-z
1/2+x,1/2-y,z
loop_
_atom_site_type_symbol
_atom_site_label
_atom_site_fract_x
_atom_site_fract_y
_atom_site_fract_z
Si Si1 0.199300 0.313546 0.313831
Si Si2 0.547439 0.813983 0.901958
Si Si3 0.659229 0.183472 0.575710
Si Si4 0.318175 0.313710 0.962749
Si Si5 0.532321 0.682866 0.637309
O O1 0.212208 0.500000 0.314371
O O2 0.267158 0.221928 0.358539
O O3 0.155990 0.284559 0.425147
O O4 0.171682 0.258741 0.172791
O O5 0.515625 0.771548 0.759305
O O6 0.556635 0.000000 0.914259
O O7 0.500000 0.761474 0.000000
O O8 0.618536 0.734433 0.937140
O O9 0.609336 0.291333 0.635301
O O10 0.644799 0.000000 0.593909
O O11 0.313642 0.500000 0.952591
O O12 0.250000 0.250000 0.000000
O O13 0.500000 0.745950 0.500000
O O14 0.515965 0.500000 0.645318
#
# Coordination Sequence:
#
# PCOD9209496 Si02
#       5
#     8   8   8   8   8
#     4  10  21  38  62  93 128 165 210 264 322 384
#     4  11  26  47  70  98 134 175 222 275 332 395
#     4  10  21  38  62  92 127 167 212 264 321 380
#     4  12  25  42  67  95 131 173 219 271 329 394
#     4  11  25  43  65  94 129 171 217 265 320 385
#
# _framework density 21.615096999999999
#
# number of rings (size 3 to 8) (size 9 to 14) (size 15 to 20)
#    0.000    1.200    0.000    5.400    2.800    5.600 
#    0.000    0.000    0.000    0.000    0.000    0.000 
#    0.000    0.000    0.000    0.000    0.000    0.000 
#
# Total GULP energy -111924.505481 kJ/mol
# GULP energy per Si atom -5596.225274 kJ/mol
# Density = 2.156590 g / cm^3
# Si number density = 21.615097 Si / 1000 Ang^3
#
#
#
# Elastic Constant Matrix: (Units=GPa)
#
#
# Indices 1 2 3 4 5 6 
#
# 1 56.5183 3.0402 23.6903 0.0000 -6.9994 0.0000
# 2 3.0402 61.1952 23.6031 0.0000 -8.7202 0.0000
# 3 23.6903 23.6031 144.4197 0.0000 2.4167 0.0000
# 4 0.0000 0.0000 0.0000 32.7219 0.0000 7.2738
# 5 -6.9994 -8.7202 2.4167 0.0000 24.8525 0.0000
# 6 0.0000 0.0000 0.0000 7.2738 0.0000 12.3958
#
#
#
# Elastic Compliance Matrix: (Units=1/GPa)
#
#
# Indices 1 2 3 4 5 6 
#
# 1 0.019923 0.001309 -0.003589 0.000000 0.006419 0.000000
# 2 0.001309 0.018608 -0.003377 0.000000 0.007226 0.000000
# 3 -0.003589 -0.003377 0.008115 0.000000 -0.002985 0.000000
# 4 0.000000 0.000000 0.000000 0.035145 0.000000 -0.020623
# 5 0.006419 0.007226 -0.002985 0.000000 0.044871 0.000000
# 6 0.000000 0.000000 0.000000 -0.020623 0.000000 0.092774
#
#
# Mechanical properties :
#
#
# Convention : Reuss Voigt Hill
#
# Bulk Modulus (GPa) = 28.30305 40.31115 34.30710
# Shear Modulus (GPa) = 20.61628 28.11402 24.36515
#
# Velocity S-wave (km/s) = 3.09170 3.61039 3.36106
# Velocity P-wave (km/s) = 5.08600 6.00582 5.56495
#
# Compressibility (1/GPa) = 0.03533189
#
# Stress axis : x y z
#
# Youngs Moduli (GPa) = 50.19438 53.73929 123.22949
#
# Poissons Ratio (x) = -0.07037 0.44233
# Poissons Ratio (y) = -0.06573 0.41614
# Poissons Ratio (z) = 0.18017 0.18148
#
# Static dielectric constant tensor:
#      x y z
#    x 1.783840 0.000000 0.021910 
#    y 0.000000 1.716410 0.000000 
#    z 0.021910 0.000000 1.831770 
# 
# From -- ./inp_files/151846.got.cif
#   From: 2010.05.17/outbox.cif.g08.bks.cpg/sg12_76_cif.got.tgz:151846.got - 2010.06.03 13:09:07.
