data_PCOD9209094
_publ_section_title
;
Structure prediction by ZEFSAII (Michael W. Deem and Ramdas Pophale) SiO2 
 PCOD9209094
Probable space group: C 2/M
;
_chemical_formula_sum "Si O2"
_cell_formula_units_Z 56
_cell_length_a 14.553315
_cell_length_b 7.562260
_cell_length_c 22.205635
_cell_angle_alpha 90.000000
_cell_angle_beta 117.837247
_cell_angle_gamma 90.000000
_cell_volume 2161.052683
_symmetry_space_group_name_H-M "C 2/M"
_symmetry_group_IT_number 12
_symmetry_cell_setting 'monoclinic'
loop_
_space_group_symop_operation_xyz
x,y,z
-x,y,-z
-x,-y,-z
x,-y,z
1/2+x,1/2+y,z
1/2-x,1/2+y,-z
1/2-x,1/2-y,-z
1/2+x,1/2-y,z
loop_
_atom_site_type_symbol
_atom_site_label
_atom_site_fract_x
_atom_site_fract_y
_atom_site_fract_z
Si Si1 0.094617 0.796902 0.980528
Si Si2 0.260085 0.704660 0.591848
Si Si3 0.741250 0.284020 0.127245
Si Si4 0.419884 0.202967 0.551475
Si Si5 0.440160 0.717264 0.835815
Si Si6 0.367982 0.699199 0.340116
Si Si7 0.544387 0.297882 0.754417
O O1 0.189966 0.723470 0.048449
O O2 0.120758 0.000000 0.974055
O O3 0.038449 0.716010 0.905570
O O4 0.000000 0.802241 0.000000
O O5 0.272367 0.500000 0.580374
O O6 0.364606 0.791879 0.600033
O O7 0.165909 0.774832 0.521089
O O8 0.223461 0.718295 0.648984
O O9 0.747458 0.500000 0.127967
O O10 0.663280 0.236426 0.158679
O O11 0.852210 0.201599 0.173212
O O12 0.528493 0.299857 0.587403
O O13 0.441290 0.000000 0.542117
O O14 0.443452 0.500000 0.836463
O O15 0.456533 0.776142 0.772034
O O16 0.335994 0.500000 0.315945
O O17 0.410360 0.788748 0.292357
O O18 0.512637 0.500000 0.728559
#
# Coordination Sequence:
#
# PCOD9209094 Si02
#       7
#     8   8   8   8   8   8   8
#     4   7  11  23  47  75  96 121 165 216 262 310
#     4  10  21  38  61  87 112 140 176 219 271 326
#     4   9  17  31  53  77  98 128 174 221 262 311
#     4  10  21  38  61  88 113 138 174 221 272 324
#     4   8  15  31  52  71  98 135 171 211 261 317
#     4  11  23  37  53  77 112 151 189 226 264 312
#     4  10  22  36  49  72 105 141 177 211 257 312
#
# _framework density 25.913295999999999
#
# number of rings (size 3 to 8) (size 9 to 14) (size 15 to 20)
#    0.000    2.714    0.000    3.429    0.000    6.286 
#    0.000    2.143    0.000    3.857    0.000    0.000 
#    0.000    0.000    0.000    0.000    0.000    0.000 
#
# Total GULP energy -156471.550699 kJ/mol
# GULP energy per Si atom -5588.269668 kJ/mol
# Density = 2.585432 g / cm^3
# Si number density = 25.913296 Si / 1000 Ang^3
#
#
#
# Elastic Constant Matrix: (Units=GPa)
#
#
# Indices 1 2 3 4 5 6 
#
# 1 128.0065 5.2852 50.9301 0.0000 -33.5901 0.0000
# 2 5.2852 76.5062 0.4296 0.0000 -8.3114 0.0000
# 3 50.9301 0.4296 55.8457 0.0000 -19.2650 0.0000
# 4 0.0000 0.0000 0.0000 10.3706 0.0000 1.8270
# 5 -33.5901 -8.3114 -19.2650 0.0000 65.2142 0.0000
# 6 0.0000 0.0000 0.0000 1.8270 0.0000 6.7640
#
#
#
# Elastic Compliance Matrix: (Units=1/GPa)
#
#
# Indices 1 2 3 4 5 6 
#
# 1 0.012973 -0.000458 -0.010625 0.000000 0.003485 0.000000
# 2 -0.000458 0.013285 0.000911 0.000000 0.001726 0.000000
# 3 -0.010625 0.000911 0.028663 0.000000 0.003110 0.000000
# 4 0.000000 0.000000 0.000000 0.101243 0.000000 -0.027346
# 5 0.003485 0.001726 0.003110 0.000000 0.018268 0.000000
# 6 0.000000 0.000000 0.000000 -0.027346 0.000000 0.155227
#
#
# Mechanical properties :
#
#
# Convention : Reuss Voigt Hill
#
# Bulk Modulus (GPa) = 28.92197 41.51645 35.21921
# Shear Modulus (GPa) = 13.83015 30.05067 21.94041
#
# Velocity S-wave (km/s) = 2.31272 3.40908 2.91294
# Velocity P-wave (km/s) = 4.27982 5.61710 4.99343
#
# Compressibility (1/GPa) = 0.03457579
#
# Stress axis : x y z
#
# Youngs Moduli (GPa) = 77.08302 75.27341 34.88856
#
# Poissons Ratio (x) = 0.03447 0.37071
# Poissons Ratio (y) = 0.03530 -0.03178
# Poissons Ratio (z) = 0.81904 -0.06857
#
# Static dielectric constant tensor:
#      x y z
#    x 1.998910 0.000000 -0.041710 
#    y 0.000000 1.949950 0.000000 
#    z -0.041710 0.000000 2.126080 
# 
# From -- ./inp_files/338210.got.cif
#   From: 2010.05.17/outbox.cif.g08.bks.cpg/sg12_170_cif.got.tgz:338210.got - 2010.06.03 13:09:07.
