data_PCOD9209324
_publ_section_title
;
Structure prediction by ZEFSAII (Michael W. Deem and Ramdas Pophale) SiO2 
 PCOD9209324
Probable space group: C 2/M
;
_chemical_formula_sum "Si O2"
_cell_formula_units_Z 44
_cell_length_a 12.402658
_cell_length_b 20.340964
_cell_length_c 8.280985
_cell_angle_alpha 90.000000
_cell_angle_beta 80.695707
_cell_angle_gamma 90.000000
_cell_volume 2061.658024
_symmetry_space_group_name_H-M "C 2/M"
_symmetry_group_IT_number 12
_symmetry_cell_setting 'monoclinic'
loop_
_space_group_symop_operation_xyz
x,y,z
-x,y,-z
-x,-y,-z
x,-y,z
1/2+x,1/2+y,z
1/2-x,1/2+y,-z
1/2-x,1/2-y,-z
1/2+x,1/2-y,z
loop_
_atom_site_type_symbol
_atom_site_label
_atom_site_fract_x
_atom_site_fract_y
_atom_site_fract_z
Si Si1 0.073197 0.427923 0.138338
Si Si2 0.430984 0.825484 0.360498
Si Si3 0.443129 0.300160 0.175584
Si Si4 0.237891 0.927121 0.479830
Si Si5 0.000000 0.133553 0.500000
Si Si6 0.691555 0.572290 0.868213
O O1 0.066191 0.500000 0.223075
O O2 0.198755 0.418394 0.056461
O O3 0.023889 0.368894 0.251331
O O4 0.000000 0.431125 0.000000
O O5 0.500000 0.801950 0.500000
O O6 0.387014 0.763772 0.268255
O O7 0.329018 0.873639 0.415323
O O8 0.499827 0.329106 0.325457
O O9 0.381338 0.363250 0.115429
O O10 0.500000 0.272941 0.000000
O O11 0.113504 0.906972 0.467962
O O12 0.235734 0.930348 0.674393
O O13 0.263463 0.000000 0.408540
O O14 0.641980 0.500000 0.916644
#
# Coordination Sequence:
#
# PCOD9209324 Si02
#       6
#     8   8   8   8   4   8
#     4  10  21  38  61  94 133 166 214 275 330 389
#     4  12  23  39  65  95 133 173 222 266 326 393
#     4  11  25  44  66  95 132 175 220 272 327 388
#     4  10  21  39  68  99 131 171 217 271 324 387
#     4  10  23  44  68  96 129 172 220 268 327 390
#     4   9  20  40  66  94 127 171 218 272 330 389
#
# _framework density 21.342044999999999
#
# number of rings (size 3 to 8) (size 9 to 14) (size 15 to 20)
#    0.000    1.636    2.727    1.364    0.000    7.636 
#    0.000    4.545    0.000    0.000    0.000    0.000 
#    0.000    0.000    0.000    0.000    0.000    0.000 
#
# Total GULP energy -122485.627768 kJ/mol
# GULP energy per Si atom -5567.528535 kJ/mol
# Density = 2.129347 g / cm^3
# Si number density = 21.342045 Si / 1000 Ang^3
#
#
#
# Elastic Constant Matrix: (Units=GPa)
#
#
# Indices 1 2 3 4 5 6 
#
# 1 106.2156 47.7942 18.8303 0.0000 14.4954 0.0000
# 2 47.7942 106.4656 9.9387 0.0000 -5.3241 0.0000
# 3 18.8303 9.9387 44.5081 0.0000 7.9334 0.0000
# 4 0.0000 0.0000 0.0000 -2.8141 0.0000 -34.0706
# 5 14.4954 -5.3241 7.9334 0.0000 25.5088 0.0000
# 6 0.0000 0.0000 0.0000 -34.0706 0.0000 -11.6387
#
#
#
# Elastic Compliance Matrix: (Units=1/GPa)
#
#
# Indices 1 2 3 4 5 6 
#
# 1 0.013967 -0.006408 -0.002991 0.000000 -0.008344 0.000000
# 2 -0.006408 0.012729 -0.001327 0.000000 0.006711 0.000000
# 3 -0.002991 -0.001327 0.025171 0.000000 -0.006406 0.000000
# 4 0.000000 0.000000 0.000000 0.010318 0.000000 -0.030203
# 5 -0.008344 0.006711 -0.006406 0.000000 0.047337 0.000000
# 6 0.000000 0.000000 0.000000 -0.030203 0.000000 0.002495
#
#
# Mechanical properties :
#
#
# Convention : Reuss Voigt Hill
#
# Bulk Modulus (GPa) = 32.87901 45.59064 39.23483
# Shear Modulus (GPa) = 34.81690 14.25294 24.53492
#
# Velocity S-wave (km/s) = 4.04341 2.58705 3.39426
# Velocity P-wave (km/s) = 6.10230 5.50745 5.81249
#
# Compressibility (1/GPa) = 0.03041454
#
# Stress axis : x y z
#
# Youngs Moduli (GPa) = 71.59549 78.56069 39.72751
#
# Poissons Ratio (x) = 0.50344 0.11882
# Poissons Ratio (y) = 0.45880 0.05274
# Poissons Ratio (z) = 0.21414 0.10429
#
# Static dielectric constant tensor:
#      x y z
#    x 1.804080 0.000000 0.019980 
#    y 0.000000 1.832060 0.000000 
#    z 0.019980 0.000000 1.823160 
# 
# From -- ./inp_files/49310.got.cif
#   From: 2010.05.17/outbox.cif.g08.bks.cpg/sg12_25_cif.got.tgz:49310.got - 2010.06.03 13:09:07.
