data_PCOD9209264
_publ_section_title
;
Structure prediction by ZEFSAII (Michael W. Deem and Ramdas Pophale) SiO2 
 PCOD9209264
Probable space group: C 2/M
;
_chemical_formula_sum "Si O2"
_cell_formula_units_Z 48
_cell_length_a 13.520479
_cell_length_b 18.721075
_cell_length_c 15.654466
_cell_angle_alpha 90.000000
_cell_angle_beta 37.182710
_cell_angle_gamma 90.000000
_cell_volume 2394.726455
_symmetry_space_group_name_H-M "C 2/M"
_symmetry_group_IT_number 12
_symmetry_cell_setting 'monoclinic'
loop_
_space_group_symop_operation_xyz
x,y,z
-x,y,-z
-x,-y,-z
x,-y,z
1/2+x,1/2+y,z
1/2-x,1/2+y,-z
1/2-x,1/2-y,-z
1/2+x,1/2-y,z
loop_
_atom_site_type_symbol
_atom_site_label
_atom_site_fract_x
_atom_site_fract_y
_atom_site_fract_z
Si Si1 0.332837 0.298885 0.168501
Si Si2 0.694418 0.081234 0.378839
Si Si3 0.882876 0.915608 0.724778
Si Si4 0.610442 0.157236 0.790636
Si Si5 0.744193 0.915240 0.539588
Si Si6 0.750899 0.302153 0.079731
O O1 0.268159 0.370228 0.254029
O O2 0.351576 0.241531 0.231761
O O3 0.226515 0.253310 0.174514
O O4 0.500000 0.309765 0.000000
O O5 0.500000 0.080362 0.500000
O O6 0.727843 0.107155 0.452316
O O7 0.757416 0.000000 0.330027
O O8 0.741273 0.885865 0.759153
O O9 0.870916 0.867438 0.818873
O O10 0.066346 0.905716 0.563146
O O11 0.859558 0.000000 0.755903
O O12 0.627199 0.125923 0.684985
O O13 0.427879 0.158172 0.955089
O O14 0.707438 0.000000 0.568886
O O15 0.750000 0.250000 0.000000
#
# Coordination Sequence:
#
# PCOD9209264 Si02
#       6
#     8   8   8   8   8   8
#     4   9  21  39  59  84 115 153 200 247 304 354
#     4  10  23  41  58  83 119 158 205 254 298 358
#     4  10  21  39  63  92 125 160 202 254 310 366
#     4  10  21  38  61  91 124 157 195 249 309 367
#     4  10  22  38  61  93 124 158 201 250 306 369
#     4  10  23  39  60  89 123 161 205 252 297 364
#
# _framework density 20.044042999999999
#
# number of rings (size 3 to 8) (size 9 to 14) (size 15 to 20)
#    0.000    2.167    0.000    2.500    7.000    7.000 
#    0.000    0.833    0.000    0.000    0.000    0.000 
#    0.000    0.000    0.000    0.000    0.000    0.000 
#
# Total GULP energy -133763.648445 kJ/mol
# GULP energy per Si atom -5573.485352 kJ/mol
# Density = 1.999842 g / cm^3
# Si number density = 20.044043 Si / 1000 Ang^3
#
#
#
# Elastic Constant Matrix: (Units=GPa)
#
#
# Indices 1 2 3 4 5 6 
#
# 1 67.1440 25.6934 30.0951 -0.0008 13.0922 0.0005
# 2 25.6934 100.8440 58.2645 -0.0035 29.6090 -0.0004
# 3 30.0951 58.2645 75.0805 -0.0017 22.0174 -0.0011
# 4 -0.0008 -0.0035 -0.0017 43.6635 0.0006 35.7327
# 5 13.0922 29.6090 22.0174 0.0006 28.5481 -0.0002
# 6 0.0005 -0.0004 -0.0011 35.7327 -0.0002 58.3368
#
#
#
# Elastic Compliance Matrix: (Units=1/GPa)
#
#
# Indices 1 2 3 4 5 6 
#
# 1 0.018431 0.000030 -0.006362 0.000001 -0.003577 -0.000001
# 2 0.000030 0.020606 -0.012576 0.000003 -0.011686 -0.000002
# 3 -0.006362 -0.012576 0.027070 -0.000001 -0.004917 0.000001
# 4 0.000001 0.000003 -0.000001 0.045921 -0.000004 -0.028128
# 5 -0.003577 -0.011686 -0.004917 -0.000004 0.052582 0.000002
# 6 -0.000001 -0.000002 0.000001 -0.028128 0.000002 0.034371
#
#
# Mechanical properties :
#
#
# Convention : Reuss Voigt Hill
#
# Bulk Modulus (GPa) = 35.34638 52.35272 43.84955
# Shear Modulus (GPa) = 20.30648 34.71072 27.50860
#
# Velocity S-wave (km/s) = 3.18637 4.16591 3.70862
# Velocity P-wave (km/s) = 5.58658 7.02249 6.34528
#
# Compressibility (1/GPa) = 0.02829144
#
# Stress axis : x y z
#
# Youngs Moduli (GPa) = 54.25649 48.53029 36.94088
#
# Poissons Ratio (x) = -0.00147 0.23503
# Poissons Ratio (y) = -0.00165 0.46456
# Poissons Ratio (z) = 0.34520 0.61030
#
# Static dielectric constant tensor:
#      x y z
#    x 1.800210 0.000000 -0.020700 
#    y 0.000000 1.690940 0.000000 
#    z -0.020700 0.000000 1.703530 
# 
# From -- ./inp_files/271615.got.cif
#   From: 2010.05.17/outbox.cif.g08.bks.cpg/sg12_136_cif.got.tgz:271615.got - 2010.06.03 13:09:07.
