data_PCOD9209037
_publ_section_title
;
Structure prediction by ZEFSAII (Michael W. Deem and Ramdas Pophale) SiO2 
 PCOD9209037
Probable space group: C 2/M
;
_chemical_formula_sum "Si O2"
_cell_formula_units_Z 40
_cell_length_a 5.751019
_cell_length_b 27.255013
_cell_length_c 10.547395
_cell_angle_alpha 90.000000
_cell_angle_beta 95.937197
_cell_angle_gamma 90.000000
_cell_volume 1644.373713
_symmetry_space_group_name_H-M "C 2/M"
_symmetry_group_IT_number 12
_symmetry_cell_setting 'monoclinic'
loop_
_space_group_symop_operation_xyz
x,y,z
-x,y,-z
-x,-y,-z
x,-y,z
1/2+x,1/2+y,z
1/2-x,1/2+y,-z
1/2-x,1/2-y,-z
1/2+x,1/2-y,z
loop_
_atom_site_type_symbol
_atom_site_label
_atom_site_fract_x
_atom_site_fract_y
_atom_site_fract_z
Si Si1 0.476847 0.765772 0.645890
Si Si2 0.039951 0.374152 0.691847
Si Si3 0.832577 0.948322 0.610263
Si Si4 0.721760 0.556399 0.837164
Si Si5 0.748313 0.852711 0.967604
O O1 0.500000 0.748896 0.500000
O O2 0.250559 0.741895 0.702181
O O3 0.420981 0.823666 0.648239
O O4 0.191754 0.398713 0.592590
O O5 0.883098 0.417565 0.740750
O O6 0.209240 0.360993 0.818263
O O7 0.000000 0.950257 0.500000
O O8 0.975863 0.946571 0.750039
O O9 0.697598 0.000000 0.605498
O O10 0.786697 0.500000 0.873737
O O11 0.732270 0.595268 0.953382
O O12 0.500000 0.829987 0.000000
O O13 0.000000 0.827552 0.000000
#
# Coordination Sequence:
#
# PCOD9209037 Si02
#       5
#     8   8   8   8   8
#     4  10  25  45  69  98 127 164 218 277 333 396
#     4  11  23  38  67  90 130 168 221 268 337 379
#     4  10  22  36  56  93 135 174 219 264 319 390
#     4  10  22  38  60  93 134 178 222 262 312 384
#     4  10  21  38  60  92 126 171 218 265 306 375
#
# _framework density 24.325368999999998
#
# number of rings (size 3 to 8) (size 9 to 14) (size 15 to 20)
#    0.000    1.800    2.000    0.600    5.600    5.600 
#    0.000    3.000    0.000   15.600    0.000    0.000 
#    0.000    0.000    0.000    0.000    0.000    0.000 
#
# Total GULP energy -111539.683104 kJ/mol
# GULP energy per Si atom -5576.984155 kJ/mol
# Density = 2.427000 g / cm^3
# Si number density = 24.325369 Si / 1000 Ang^3
#
#
#
# Elastic Constant Matrix: (Units=GPa)
#
#
# Indices 1 2 3 4 5 6 
#
# 1 140.8665 20.4069 8.6757 0.0000 5.8023 0.0000
# 2 20.4069 86.1993 10.3353 0.0000 -14.3468 0.0000
# 3 8.6757 10.3353 53.4394 0.0000 13.0272 0.0000
# 4 0.0000 0.0000 0.0000 12.1031 0.0000 2.7323
# 5 5.8023 -14.3468 13.0272 0.0000 43.7688 0.0000
# 6 0.0000 0.0000 0.0000 2.7323 0.0000 21.4425
#
#
#
# Elastic Compliance Matrix: (Units=1/GPa)
#
#
# Indices 1 2 3 4 5 6 
#
# 1 0.007474 -0.001962 -0.000470 0.000000 -0.001494 0.000000
# 2 -0.001962 0.013469 -0.003694 0.000000 0.005775 0.000000
# 3 -0.000470 -0.003694 0.021331 0.000000 -0.007498 0.000000
# 4 0.000000 0.000000 0.000000 0.085071 0.000000 -0.010840
# 5 -0.001494 0.005775 -0.007498 0.000000 0.027170 0.000000
# 6 0.000000 0.000000 0.000000 -0.010840 0.000000 0.048018
#
#
# Mechanical properties :
#
#
# Convention : Reuss Voigt Hill
#
# Bulk Modulus (GPa) = 33.30781 39.92679 36.61730
# Shear Modulus (GPa) = 22.24283 31.53535 26.88909
#
# Velocity S-wave (km/s) = 3.02717 3.60446 3.32835
# Velocity P-wave (km/s) = 5.09320 5.81138 5.46410
#
# Compressibility (1/GPa) = 0.03002298
#
# Stress axis : x y z
#
# Youngs Moduli (GPa) = 133.80501 74.24183 46.87950
#
# Poissons Ratio (x) = 0.14563 0.02202
# Poissons Ratio (y) = 0.26247 0.17319
# Poissons Ratio (z) = 0.06285 0.27427
#
# Static dielectric constant tensor:
#      x y z
#    x 2.109420 0.000000 0.021200 
#    y 0.000000 1.916820 0.000000 
#    z 0.021200 0.000000 1.943970 
# 
# From -- ./inp_files/115429.got.cif
#   From: 2010.05.17/outbox.cif.g08.bks.cpg/sg12_58_cif.got.tgz:115429.got - 2010.06.03 13:09:07.
