data_PCOD9209491
_publ_section_title
;
Structure prediction by ZEFSAII (Michael W. Deem and Ramdas Pophale) SiO2 
 PCOD9209491
Probable space group: C 2/M
;
_chemical_formula_sum "Si O2"
_cell_formula_units_Z 40
_cell_length_a 10.808376
_cell_length_b 20.839800
_cell_length_c 20.822191
_cell_angle_alpha 90.000000
_cell_angle_beta 24.685596
_cell_angle_gamma 90.000000
_cell_volume 1958.759497
_symmetry_space_group_name_H-M "C 2/M"
_symmetry_group_IT_number 12
_symmetry_cell_setting 'monoclinic'
loop_
_space_group_symop_operation_xyz
x,y,z
-x,y,-z
-x,-y,-z
x,-y,z
1/2+x,1/2+y,z
1/2-x,1/2+y,-z
1/2-x,1/2-y,-z
1/2+x,1/2-y,z
loop_
_atom_site_type_symbol
_atom_site_label
_atom_site_fract_x
_atom_site_fract_y
_atom_site_fract_z
Si Si1 0.109104 0.928945 0.375710
Si Si2 0.180590 0.223548 0.162456
Si Si3 0.194122 0.072690 0.973156
Si Si4 0.126400 0.186734 0.811759
Si Si5 0.754857 0.178315 0.468281
O O1 0.461823 0.919911 0.206343
O O2 0.000000 0.928446 0.500000
O O3 0.948439 0.871352 0.416541
O O4 0.040522 0.000000 0.380894
O O5 0.268905 0.280784 0.170317
O O6 0.036304 0.236154 0.160560
O O7 0.925952 0.185280 0.320466
O O8 0.500000 0.190625 0.000000
O O9 0.151348 0.000000 0.018627
O O10 0.000000 0.077887 0.000000
O O11 0.087675 0.128196 0.070582
O O12 0.413935 0.159853 0.638849
O O13 0.750000 0.250000 0.500000
#
# Coordination Sequence:
#
# PCOD9209491 Si02
#       5
#     8   8   8   8   8
#     4  10  21  39  63  91 126 168 212 260 316 377
#     4  11  23  39  60  89 126 166 207 253 313 374
#     4  10  21  38  62  92 125 164 212 261 310 372
#     4  11  23  40  62  91 126 164 208 258 314 375
#     4  10  23  38  58  89 125 163 206 256 310 370
#
# _framework density 20.421088000000001
#
# number of rings (size 3 to 8) (size 9 to 14) (size 15 to 20)
#    0.000    1.600    0.000    4.200    0.000   15.200 
#    0.000    1.000    0.000    6.000    0.000    1.400 
#    0.000    0.000    0.000    0.000    0.000    0.000 
#
# Total GULP energy -111570.842255 kJ/mol
# GULP energy per Si atom -5578.542113 kJ/mol
# Density = 2.037461 g / cm^3
# Si number density = 20.421088 Si / 1000 Ang^3
#
#
#
# Elastic Constant Matrix: (Units=GPa)
#
#
# Indices 1 2 3 4 5 6 
#
# 1 102.1024 64.0966 41.9091 -0.0311 -7.8120 0.0006
# 2 64.0966 118.2782 58.1778 -0.2126 -5.4494 -0.0276
# 3 41.9091 58.1778 163.5670 -0.4378 12.9345 -0.0476
# 4 -0.0311 -0.2126 -0.4378 33.7717 -0.0331 -6.4616
# 5 -7.8120 -5.4494 12.9345 -0.0331 35.7660 0.0394
# 6 0.0006 -0.0276 -0.0476 -6.4616 0.0394 29.2557
#
#
#
# Elastic Compliance Matrix: (Units=1/GPa)
#
#
# Indices 1 2 3 4 5 6 
#
# 1 0.015272 -0.007416 -0.001493 -0.000054 0.002746 -0.000025
# 2 -0.007416 0.014163 -0.003273 0.000045 0.001722 0.000016
# 3 -0.001493 -0.003273 0.007953 0.000084 -0.003701 0.000033
# 4 -0.000054 0.000045 0.000084 0.030919 -0.000014 0.006829
# 5 0.002746 0.001722 -0.003701 -0.000014 0.030160 -0.000048
# 6 -0.000025 0.000016 0.000033 0.006829 -0.000048 0.035690
#
#
# Mechanical properties :
#
#
# Convention : Reuss Voigt Hill
#
# Bulk Modulus (GPa) = 76.77669 79.14607 77.96138
# Shear Modulus (GPa) = 30.70088 34.40960 32.55524
#
# Velocity S-wave (km/s) = 3.88156 4.10933 3.99707
# Velocity P-wave (km/s) = 7.60047 7.83305 7.71763
#
# Compressibility (1/GPa) = 0.01302479
#
# Stress axis : x y z
#
# Youngs Moduli (GPa) = 65.47900 70.60760 125.73255
#
# Poissons Ratio (x) = 0.52359 0.18768
# Poissons Ratio (y) = 0.48556 0.41158
# Poissons Ratio (z) = 0.09774 0.23113
#
# Static dielectric constant tensor:
#      x y z
#    x 2.019300 0.099350 -0.001050 
#    y 0.099350 1.163850 -0.005540 
#    z -0.001050 -0.005540 1.764570 
# 
# From -- ./inp_files/48893.got.cif
#   From: 2010.05.17/outbox.cif.g08.bks.cpg/sg12_25_cif.got.tgz:48893.got - 2010.06.03 13:09:07.
