data_PCOD9209436
_publ_section_title
;
Structure prediction by ZEFSAII (Michael W. Deem and Ramdas Pophale) SiO2 
 PCOD9209436
Probable space group: C 2/M
;
_chemical_formula_sum "Si O2"
_cell_formula_units_Z 40
_cell_length_a 26.098276
_cell_length_b 8.537500
_cell_length_c 21.668730
_cell_angle_alpha 90.000000
_cell_angle_beta 23.612156
_cell_angle_gamma 90.000000
_cell_volume 1933.862621
_symmetry_space_group_name_H-M "C 2/M"
_symmetry_group_IT_number 12
_symmetry_cell_setting 'monoclinic'
loop_
_space_group_symop_operation_xyz
x,y,z
-x,y,-z
-x,-y,-z
x,-y,z
1/2+x,1/2+y,z
1/2-x,1/2+y,-z
1/2-x,1/2-y,-z
1/2+x,1/2-y,z
loop_
_atom_site_type_symbol
_atom_site_label
_atom_site_fract_x
_atom_site_fract_y
_atom_site_fract_z
Si Si1 0.318432 0.818609 0.847110
Si Si2 0.149630 0.819454 0.318762
Si Si3 0.058172 0.321522 0.171544
Si Si4 0.641377 0.309512 0.816933
Si Si5 0.334761 0.319358 0.350834
O O1 0.339208 0.789770 0.753005
O O2 0.440733 0.788457 0.756259
O O3 0.282730 0.000000 0.898120
O O4 0.205138 0.702699 0.991265
O O5 0.246224 0.759062 0.264563
O O6 0.000000 0.817224 0.500000
O O7 0.183860 0.000000 0.266002
O O8 0.016422 0.500000 0.206595
O O9 0.976819 0.205332 0.220316
O O10 0.646461 0.500000 0.812529
O O11 0.664003 0.256279 0.720774
O O12 0.500000 0.266181 0.000000
O O13 0.299373 0.500000 0.384989
O O14 0.250000 0.250000 0.500000
#
# Coordination Sequence:
#
# PCOD9209436 Si02
#       5
#     8   8   8   8   8
#     4  10  21  38  62  90 122 163 205 250 308 375
#     4  11  25  41  61  93 128 164 209 264 320 373
#     4  10  21  38  62  92 123 159 205 254 309 370
#     4  10  23  44  68  93 123 166 219 266 316 383
#     4  11  24  40  62  92 128 166 209 260 316 377
#
# _framework density 20.683993999999998
#
# number of rings (size 3 to 8) (size 9 to 14) (size 15 to 20)
#    0.000    1.600    0.000    3.600    2.800    7.600 
#    0.000    0.000    0.000    0.000    0.000    0.000 
#    0.000    0.000    0.000    0.000    0.000    0.000 
#
# Total GULP energy -111582.873500 kJ/mol
# GULP energy per Si atom -5579.143675 kJ/mol
# Density = 2.063692 g / cm^3
# Si number density = 20.683994 Si / 1000 Ang^3
#
#
#
# Elastic Constant Matrix: (Units=GPa)
#
#
# Indices 1 2 3 4 5 6 
#
# 1 146.2296 26.5413 38.4926 -0.0006 24.7293 0.0001
# 2 26.5413 43.8056 23.1255 -0.0007 9.3757 0.0008
# 3 38.4926 23.1255 63.5254 -0.0006 16.5349 0.0008
# 4 -0.0006 -0.0007 -0.0006 31.3620 0.0009 1.2503
# 5 24.7293 9.3757 16.5349 0.0009 35.4303 -0.0005
# 6 0.0001 0.0008 0.0008 1.2503 -0.0005 27.8352
#
#
#
# Elastic Compliance Matrix: (Units=1/GPa)
#
#
# Indices 1 2 3 4 5 6 
#
# 1 0.008886 -0.002776 -0.003359 0.000000 -0.003900 0.000000
# 2 -0.002776 0.029418 -0.008543 0.000001 -0.001860 -0.000001
# 3 -0.003359 -0.008543 0.022411 0.000000 -0.005854 -0.000001
# 4 0.000000 0.000001 0.000000 0.031943 -0.000001 -0.001435
# 5 -0.003900 -0.001860 -0.005854 -0.000001 0.034171 0.000001
# 6 0.000000 -0.000001 -0.000001 -0.001435 0.000001 0.035990
#
#
# Mechanical properties :
#
#
# Convention : Reuss Voigt Hill
#
# Bulk Modulus (GPa) = 31.88844 47.76438 39.82641
# Shear Modulus (GPa) = 24.67582 29.95223 27.31402
#
# Velocity S-wave (km/s) = 3.45772 3.80950 3.63786
# Velocity P-wave (km/s) = 5.60281 6.51861 6.07799
#
# Compressibility (1/GPa) = 0.03135933
#
# Stress axis : x y z
#
# Youngs Moduli (GPa) = 112.53478 33.99251 44.62192
#
# Poissons Ratio (x) = 0.09437 0.14987
# Poissons Ratio (y) = 0.31242 0.38120
# Poissons Ratio (z) = 0.37797 0.29040
#
# Static dielectric constant tensor:
#      x y z
#    x 1.786050 0.000010 0.067000 
#    y 0.000010 1.655160 0.000020 
#    z 0.067000 0.000020 2.018700 
# 
# From -- ./inp_files/288595.got.cif
#   From: 2010.05.17/outbox.cif.g08.bks.cpg/sg12_145_cif.got.tgz:288595.got - 2010.06.03 13:09:07.
