data_PCOD9209603
_publ_section_title
;
Structure prediction by ZEFSAII (Michael W. Deem and Ramdas Pophale) SiO2 
 PCOD9209603
Probable space group: C 2/M
;
_chemical_formula_sum "Si O2"
_cell_formula_units_Z 64
_cell_length_a 19.874253
_cell_length_b 8.384799
_cell_length_c 31.949908
_cell_angle_alpha 90.000000
_cell_angle_beta 35.908464
_cell_angle_gamma 90.000000
_cell_volume 3122.591583
_symmetry_space_group_name_H-M "C 2/M"
_symmetry_group_IT_number 12
_symmetry_cell_setting 'monoclinic'
loop_
_space_group_symop_operation_xyz
x,y,z
-x,y,-z
-x,-y,-z
x,-y,z
1/2+x,1/2+y,z
1/2-x,1/2+y,-z
1/2-x,1/2-y,-z
1/2+x,1/2-y,z
loop_
_atom_site_type_symbol
_atom_site_label
_atom_site_fract_x
_atom_site_fract_y
_atom_site_fract_z
Si Si1 0.757293 0.307588 0.379074
Si Si2 0.737228 0.685411 0.714964
Si Si3 0.349160 0.692540 0.481223
Si Si4 0.577200 0.687949 0.318449
Si Si5 0.320889 0.687976 0.896859
Si Si6 0.560965 0.805441 0.011686
Si Si7 0.975172 0.687677 0.745112
Si Si8 0.004140 0.311337 0.864279
O O1 0.749727 0.500000 0.379806
O O2 0.726576 0.235806 0.349822
O O3 0.680334 0.253191 0.456933
O O4 0.890331 0.267142 0.321666
O O5 0.758802 0.500000 0.710586
O O6 0.807382 0.782797 0.714121
O O7 0.603099 0.723401 0.788744
O O8 0.347236 0.500000 0.482944
O O9 0.250000 0.750000 0.500000
O O10 0.471262 0.742526 0.401069
O O11 0.563190 0.500000 0.316798
O O12 0.571796 0.779103 0.277446
O O13 0.315295 0.500000 0.909057
O O14 0.402099 0.717929 0.816018
O O15 0.381847 0.775084 0.904821
O O16 0.193174 0.745168 0.949931
O O17 0.496866 0.760167 0.086795
O O18 0.561365 0.000000 0.010197
O O19 0.500000 0.749151 0.000000
O O20 0.967847 0.500000 0.759021
O O21 0.025843 0.500000 0.850947
#
# Coordination Sequence:
#
# PCOD9209603 Si02
#       8
#     8   8   8   8   8   8   8   8
#     4  10  21  40  64  90 124 163 204 253 309 368
#     4  12  26  42  62  91 127 163 208 259 310 367
#     4  10  21  38  63  91 121 160 205 256 308 369
#     4  11  24  41  63  91 125 165 207 254 315 373
#     4  11  22  38  64  93 124 163 209 254 301 363
#     4   9  21  40  62  92 124 160 204 252 305 364
#     4  11  22  38  63  93 127 163 206 256 309 364
#     4  11  22  40  66  90 122 164 205 253 309 366
#
# _framework density 20.495795999999999
#
# number of rings (size 3 to 8) (size 9 to 14) (size 15 to 20)
#    0.000    1.375    2.500    3.000    1.750    2.000 
#    0.000    4.375    0.000    3.000    0.000    0.000 
#    0.000    0.000    0.000    0.000    0.000    0.000 
#
# Total GULP energy -178929.375948 kJ/mol
# GULP energy per Si atom -5591.542998 kJ/mol
# Density = 2.044915 g / cm^3
# Si number density = 20.495796 Si / 1000 Ang^3
#
#
#
# Elastic Constant Matrix: (Units=GPa)
#
#
# Indices 1 2 3 4 5 6 
#
# 1 93.5994 -7.8688 8.8370 0.0017 15.1094 0.0206
# 2 -7.8688 16.8147 1.0915 0.0030 4.4866 -0.0005
# 3 8.8370 1.0915 59.5720 0.0017 16.5374 0.0003
# 4 0.0017 0.0030 0.0017 17.1520 0.0006 -0.5054
# 5 15.1094 4.4866 16.5374 0.0006 38.5271 0.0008
# 6 0.0206 -0.0005 0.0003 -0.5054 0.0008 29.9968
#
#
#
# Elastic Compliance Matrix: (Units=1/GPa)
#
#
# Indices 1 2 3 4 5 6 
#
# 1 0.012207 0.007192 -0.000433 -0.000002 -0.005439 -0.000008
# 2 0.007192 0.065666 0.000722 -0.000012 -0.010777 -0.000004
# 3 -0.000433 0.000722 0.019088 -0.000002 -0.008108 0.000000
# 4 -0.000002 -0.000012 -0.000002 0.058331 0.000002 0.000983
# 5 -0.005439 -0.010777 -0.008108 0.000002 0.032824 0.000003
# 6 -0.000008 -0.000004 0.000000 0.000983 0.000003 0.033353
#
#
# Mechanical properties :
#
#
# Convention : Reuss Voigt Hill
#
# Bulk Modulus (GPa) = 8.93464 19.34506 14.13985
# Shear Modulus (GPa) = 20.50728 28.33028 24.41878
#
# Velocity S-wave (km/s) = 3.16659 3.72189 3.45542
# Velocity P-wave (km/s) = 4.21171 5.28479 4.77847
#
# Compressibility (1/GPa) = 0.11192393
#
# Stress axis : x y z
#
# Youngs Moduli (GPa) = 81.91785 15.22856 52.38868
#
# Poissons Ratio (x) = -0.10953 0.02267
# Poissons Ratio (y) = -0.58916 -0.03781
# Poissons Ratio (z) = 0.03544 -0.01099
#
# Static dielectric constant tensor:
#      x y z
#    x 1.704030 0.000000 -0.001560 
#    y 0.000000 1.700030 0.000000 
#    z -0.001560 0.000000 1.726190 
# 
# From -- ./inp_files/378062.got.cif
#   From: 2010.05.17/outbox.cif.g08.bks.cpg/sg12_190_cif.got.tgz:378062.got - 2010.06.03 13:09:07.
