data_PCOD9209042
_publ_section_title
;
Structure prediction by ZEFSAII (Michael W. Deem and Ramdas Pophale) SiO2 
 PCOD9209042
Probable space group: C 2/M
;
_chemical_formula_sum "Si O2"
_cell_formula_units_Z 56
_cell_length_a 24.321109
_cell_length_b 21.345766
_cell_length_c 14.383606
_cell_angle_alpha 90.000000
_cell_angle_beta 18.189848
_cell_angle_gamma 90.000000
_cell_volume 2331.037820
_symmetry_space_group_name_H-M "C 2/M"
_symmetry_group_IT_number 12
_symmetry_cell_setting 'monoclinic'
loop_
_space_group_symop_operation_xyz
x,y,z
-x,y,-z
-x,-y,-z
x,-y,z
1/2+x,1/2+y,z
1/2-x,1/2+y,-z
1/2-x,1/2-y,-z
1/2+x,1/2-y,z
loop_
_atom_site_type_symbol
_atom_site_label
_atom_site_fract_x
_atom_site_fract_y
_atom_site_fract_z
Si Si1 0.403203 0.569376 0.521399
Si Si2 0.153816 0.402351 0.390326
Si Si3 0.804900 0.193964 0.784888
Si Si4 0.577409 0.258259 0.997560
Si Si5 0.299005 0.836572 0.499737
Si Si6 0.199459 0.387894 0.107108
Si Si7 0.448617 0.394107 0.242418
O O1 0.346660 0.500000 0.639393
O O2 0.318324 0.625855 0.713367
O O3 0.373973 0.579679 0.458050
O O4 0.613078 0.577617 0.200759
O O5 0.114786 0.366146 0.547642
O O6 0.183897 0.371428 0.240905
O O7 0.962131 0.429859 0.671401
O O8 0.356664 0.425147 0.084496
O O9 0.000000 0.213717 0.500000
O O10 0.719156 0.237461 0.846092
O O11 0.704467 0.176408 0.040849
O O12 0.442080 0.200407 0.209686
O O13 0.483919 0.319240 0.192253
O O14 0.671167 0.284969 0.754311
O O15 0.189605 0.889874 0.620405
#
# Coordination Sequence:
#
# PCOD9209042 Si02
#       7
#     8   8   8   8   8   8   8
#     4  10  22  42  67  94 128 172 227 279 333 402
#     4   9  17  35  57  86 122 164 211 262 320 393
#     4  10  21  38  60  97 132 171 215 269 340 400
#     4  11  21  38  61  99 132 176 223 271 336 405
#     4  11  22  38  63  89 136 178 221 279 329 401
#     4   9  18  35  60  87 124 163 211 263 331 385
#     4  10  22  39  61  90 128 172 222 272 337 390
#
# _framework density 24.023633
#
# number of rings (size 3 to 8) (size 9 to 14) (size 15 to 20)
#    0.000    2.000    1.429    3.000    0.000    4.857 
#   15.429   13.571    0.000   18.000    0.000    0.000 
#    0.000    0.000    0.000    0.000    0.000    0.000 
#
# Total GULP energy -156094.147969 kJ/mol
# GULP energy per Si atom -5574.790999 kJ/mol
# Density = 2.396895 g / cm^3
# Si number density = 24.023633 Si / 1000 Ang^3
#
#
#
# Elastic Constant Matrix: (Units=GPa)
#
#
# Indices 1 2 3 4 5 6 
#
# 1 142.5397 16.5264 29.8499 -0.0049 -14.4159 0.0070
# 2 16.5264 61.8152 2.6586 -0.0083 -2.0170 -0.0102
# 3 29.8499 2.6586 65.0482 -0.0018 -14.6729 -0.0023
# 4 -0.0049 -0.0083 -0.0018 -24.0630 -0.0101 9.0163
# 5 -14.4159 -2.0170 -14.6729 -0.0101 43.5306 -0.0033
# 6 0.0070 -0.0102 -0.0023 9.0163 -0.0033 3.3284
#
#
#
# Elastic Compliance Matrix: (Units=1/GPa)
#
#
# Indices 1 2 3 4 5 6 
#
# 1 0.008084 -0.001971 -0.003296 -0.000005 0.001475 -0.000010
# 2 -0.001971 0.016700 0.000270 0.000008 0.000212 0.000035
# 3 -0.003296 0.000270 0.018000 0.000003 0.004988 0.000016
# 4 -0.000005 0.000008 0.000003 -0.020624 -0.000001 0.055869
# 5 0.001475 0.000212 0.004988 -0.000001 0.025152 0.000028
# 6 -0.000010 0.000035 0.000016 0.055869 0.000028 0.149103
#
#
# Mechanical properties :
#
#
# Convention : Reuss Voigt Hill
#
# Bulk Modulus (GPa) = 30.49913 40.83031 35.66472
# Shear Modulus (GPa) = 23.00551 19.25042 21.12796
#
# Velocity S-wave (km/s) = 3.09790 2.83382 2.96880
# Velocity P-wave (km/s) = 5.05164 5.26689 5.16039
#
# Compressibility (1/GPa) = 0.03278782
#
# Stress axis : x y z
#
# Youngs Moduli (GPa) = 123.70783 59.88174 55.55556
#
# Poissons Ratio (x) = 0.11804 0.18313
# Poissons Ratio (y) = 0.24386 -0.01499
# Poissons Ratio (z) = 0.40777 -0.01616
#
# Static dielectric constant tensor:
#      x y z
#    x 1.955710 0.000000 -0.025510 
#    y 0.000000 1.928190 0.000010 
#    z -0.025510 0.000010 2.008570 
# 
# From -- ./inp_files/242103.got.cif
#   From: 2010.05.17/outbox.cif.g08.bks.cpg/sg12_122_cif.got.tgz:242103.got - 2010.06.03 13:09:07.
