data_PCOD9209788
_publ_section_title
;
Structure prediction by ZEFSAII (Michael W. Deem and Ramdas Pophale) SiO2 
 PCOD9209788
Probable space group: C 2/M
;
_chemical_formula_sum "Si O2"
_cell_formula_units_Z 64
_cell_length_a 9.497338
_cell_length_b 23.806349
_cell_length_c 25.482972
_cell_angle_alpha 90.000000
_cell_angle_beta 151.235936
_cell_angle_gamma 90.000000
_cell_volume 2772.515346
_symmetry_space_group_name_H-M "C 2/M"
_symmetry_group_IT_number 12
_symmetry_cell_setting 'monoclinic'
loop_
_space_group_symop_operation_xyz
x,y,z
-x,y,-z
-x,-y,-z
x,-y,z
1/2+x,1/2+y,z
1/2-x,1/2+y,-z
1/2-x,1/2-y,-z
1/2+x,1/2-y,z
loop_
_atom_site_type_symbol
_atom_site_label
_atom_site_fract_x
_atom_site_fract_y
_atom_site_fract_z
Si Si1 0.171722 0.932014 0.609657
Si Si2 0.267262 0.117746 0.154248
Si Si3 0.637074 0.935731 0.493971
Si Si4 0.462309 0.774600 0.379094
Si Si5 0.858988 0.111487 0.717752
Si Si6 0.385383 0.231559 0.235799
Si Si7 0.271118 0.596216 0.057519
Si Si8 0.420277 0.852263 0.853348
O O1 0.469762 0.903310 0.722891
O O2 0.000000 0.919568 0.500000
O O3 0.936789 0.909363 0.574637
O O4 0.206418 0.000000 0.622813
O O5 0.196730 0.181173 0.150331
O O6 0.386780 0.126595 0.133485
O O7 0.996110 0.077811 0.084036
O O8 0.500000 0.908549 0.500000
O O9 0.383142 0.936324 0.367316
O O10 0.712402 0.000000 0.531379
O O11 0.750000 0.750000 0.500000
O O12 0.341737 0.834334 0.359315
O O13 0.514916 0.782244 0.334937
O O14 0.170426 0.737659 0.292305
O O15 0.011086 0.113610 0.824225
O O16 0.127535 0.109536 0.764702
O O17 0.202695 0.288702 0.184788
O O18 0.000000 0.565235 0.000000
O O19 0.089375 0.640831 0.963845
#
# Coordination Sequence:
#
# PCOD9209788 Si02
#       8
#     8   8   8   8   8   8   8   8
#     4  10  23  40  63  96 128 162 207 256 311 376
#     4  12  22  40  66  88 121 165 207 256 321 370
#     4  10  21  38  64  97 128 164 207 250 308 372
#     4  11  23  37  55  84 126 163 206 248 297 371
#     4  10  21  39  61  88 125 165 203 253 308 360
#     4  11  23  39  56  90 121 164 213 249 305 375
#     4  10  22  41  65  89 118 159 210 261 308 367
#     4  10  23  40  61  89 125 159 214 259 307 367
#
# _framework density 23.083731
#
# number of rings (size 3 to 8) (size 9 to 14) (size 15 to 20)
#    0.000    1.500    2.500    2.250    1.750    2.500 
#    0.000    1.250    0.000    9.000    0.000    0.000 
#    0.000    0.000    0.000    0.000    0.000    0.000 
#
# Total GULP energy -178183.191322 kJ/mol
# GULP energy per Si atom -5568.224729 kJ/mol
# Density = 2.303119 g / cm^3
# Si number density = 23.083731 Si / 1000 Ang^3
#
#
#
# Elastic Constant Matrix: (Units=GPa)
#
#
# Indices 1 2 3 4 5 6 
#
# 1 142.6586 11.3832 32.9639 -0.0069 14.8279 -0.0051
# 2 11.3832 27.5441 14.2215 0.0172 0.2768 0.0033
# 3 32.9639 14.2215 102.1206 0.0488 6.2422 0.0160
# 4 -0.0069 0.0172 0.0488 3.3175 0.0180 -3.7443
# 5 14.8279 0.2768 6.2422 0.0180 50.4551 0.0042
# 6 -0.0051 0.0033 0.0160 -3.7443 0.0042 -0.3800
#
#
#
# Elastic Compliance Matrix: (Units=1/GPa)
#
#
# Indices 1 2 3 4 5 6 
#
# 1 0.007883 -0.002142 -0.002121 -0.000016 -0.002043 -0.000076
# 2 -0.002142 0.039711 -0.004901 0.000005 0.001018 0.000132
# 3 -0.002121 -0.004901 0.011205 0.000030 -0.000736 0.000151
# 4 -0.000016 0.000005 0.000030 0.024867 0.000013 -0.245040
# 5 -0.002043 0.001018 -0.000736 0.000013 0.020505 0.000109
# 6 -0.000076 0.000132 0.000151 -0.245040 0.000109 -0.217106
#
#
# Mechanical properties :
#
#
# Convention : Reuss Voigt Hill
#
# Bulk Modulus (GPa) = 24.70987 43.27340 33.99164
# Shear Modulus (GPa) = -61.64011 24.92884 -18.35564
#
# Velocity S-wave (km/s) = -5.17308 3.28980 -2.82295
# Velocity P-wave (km/s) = 4.99534 5.76345 2.03272
#
# Compressibility (1/GPa) = 0.04046966
#
# Stress axis : x y z
#
# Youngs Moduli (GPa) = 126.85275 25.18199 89.24895
#
# Poissons Ratio (x) = 0.05394 0.18934
# Poissons Ratio (y) = 0.27172 0.43741
# Poissons Ratio (z) = 0.26911 0.12342
#
# Static dielectric constant tensor:
#      x y z
#    x 1.970800 -0.000010 0.015620 
#    y -0.000010 1.923460 -0.000010 
#    z 0.015620 -0.000010 1.878310 
# 
# From -- ./inp_files/334361.got.cif
#   From: 2010.05.17/outbox.cif.g08.bks.cpg/sg12_168_cif.got.tgz:334361.got - 2010.06.03 13:09:07.
