data_PCOD9209565
_publ_section_title
;
Structure prediction by ZEFSAII (Michael W. Deem and Ramdas Pophale) SiO2 
 PCOD9209565
Probable space group: C 2/M
;
_chemical_formula_sum "Si O2"
_cell_formula_units_Z 64
_cell_length_a 29.920579
_cell_length_b 9.237169
_cell_length_c 13.531615
_cell_angle_alpha 90.000000
_cell_angle_beta 59.597307
_cell_angle_gamma 90.000000
_cell_volume 3225.614966
_symmetry_space_group_name_H-M "C 2/M"
_symmetry_group_IT_number 12
_symmetry_cell_setting 'monoclinic'
loop_
_space_group_symop_operation_xyz
x,y,z
-x,y,-z
-x,-y,-z
x,-y,z
1/2+x,1/2+y,z
1/2-x,1/2+y,-z
1/2-x,1/2-y,-z
1/2+x,1/2-y,z
loop_
_atom_site_type_symbol
_atom_site_label
_atom_site_fract_x
_atom_site_fract_y
_atom_site_fract_z
Si Si1 0.423198 0.169517 0.457183
Si Si2 0.344433 0.170047 0.091166
Si Si3 0.303614 0.829660 0.919076
Si Si4 0.048821 0.827519 0.012713
Si Si5 0.620256 0.332147 0.304197
Si Si6 0.521471 0.334116 0.271608
Si Si7 0.725952 0.671129 0.681960
Si Si8 0.676467 0.830771 0.554396
O O1 0.401441 0.260513 0.572790
O O2 0.478797 0.227563 0.362794
O O3 0.382168 0.187443 0.414221
O O4 0.424934 0.000000 0.481154
O O5 0.295844 0.244261 0.199825
O O6 0.345218 0.000000 0.113161
O O7 0.337648 0.187238 0.980927
O O8 0.397669 0.244384 0.066667
O O9 0.332681 0.756727 0.795158
O O10 0.295540 0.000000 0.910917
O O11 0.250000 0.750000 0.000000
O O12 0.033655 0.803592 0.143878
O O13 0.057408 0.000000 0.988899
O O14 0.000000 0.783739 0.000000
O O15 0.634313 0.500000 0.303867
O O16 0.573656 0.326315 0.276796
O O17 0.501751 0.500000 0.300822
O O18 0.719475 0.500000 0.703725
O O19 0.692780 0.728378 0.625551
O O20 0.785078 0.698496 0.581365
O O21 0.685172 0.000000 0.572356
#
# Coordination Sequence:
#
# PCOD9209565 Si02
#       8
#     8   8   8   8   8   8   8   8
#     4  11  24  39  61  91 123 158 202 254 308 367
#     4  11  24  41  63  94 128 162 204 253 309 369
#     4  11  25  43  65  94 127 165 208 254 310 370
#     4  10  22  41  65  93 125 164 209 252 304 370
#     4  11  23  42  65  89 121 160 204 255 308 363
#     4  10  22  41  62  88 123 160 202 253 306 364
#     4  10  21  38  63  87 119 163 203 246 300 359
#     4   9  21  41  59  87 122 157 199 251 305 357
#
# _framework density 19.841176000000001
#
# number of rings (size 3 to 8) (size 9 to 14) (size 15 to 20)
#    0.000    1.625    1.250    2.250    3.500    6.250 
#    0.000    0.000    0.000    0.000    0.000    0.000 
#    0.000    0.000    0.000    0.000    0.000    0.000 
#
# Total GULP energy -178918.754075 kJ/mol
# GULP energy per Si atom -5591.211065 kJ/mol
# Density = 1.979602 g / cm^3
# Si number density = 19.841176 Si / 1000 Ang^3
#
#
#
# Elastic Constant Matrix: (Units=GPa)
#
#
# Indices 1 2 3 4 5 6 
#
# 1 39.1502 19.4653 -10.4342 0.0000 -11.3132 0.0000
# 2 19.4653 87.2493 35.1350 0.0000 -13.1177 0.0000
# 3 -10.4342 35.1350 45.2976 0.0000 -11.8399 0.0000
# 4 0.0000 0.0000 0.0000 40.3270 0.0000 -2.6998
# 5 -11.3132 -13.1177 -11.8399 0.0000 27.7847 0.0000
# 6 0.0000 0.0000 0.0000 -2.6998 0.0000 28.1534
#
#
#
# Elastic Compliance Matrix: (Units=1/GPa)
#
#
# Indices 1 2 3 4 5 6 
#
# 1 0.055671 -0.023744 0.038526 0.000000 0.027875 0.000000
# 2 -0.023744 0.026970 -0.028795 0.000000 -0.009205 0.000000
# 3 0.038526 -0.028795 0.060580 0.000000 0.027907 0.000000
# 4 0.000000 0.000000 0.000000 0.024958 0.000000 0.002393
# 5 0.027875 -0.009205 0.027907 0.000000 0.054887 0.000000
# 6 0.000000 0.000000 0.000000 0.002393 0.000000 0.035749
#
#
# Mechanical properties :
#
#
# Convention : Reuss Voigt Hill
#
# Bulk Modulus (GPa) = 8.68078 28.89214 18.78646
# Shear Modulus (GPa) = 15.37337 27.75508 21.56422
#
# Velocity S-wave (km/s) = 2.78658 3.74419 3.30031
# Velocity P-wave (km/s) = 3.83901 5.76934 4.90017
#
# Compressibility (1/GPa) = 0.11519698
#
# Stress axis : x y z
#
# Youngs Moduli (GPa) = 17.96270 37.07798 16.50718
#
# Poissons Ratio (x) = 0.88037 -0.63596
# Poissons Ratio (y) = 0.42650 0.47532
# Poissons Ratio (z) = -0.69204 1.06765
#
# Static dielectric constant tensor:
#      x y z
#    x 1.693830 0.000000 0.010230 
#    y 0.000000 1.667680 0.000000 
#    z 0.010230 0.000000 1.673070 
# 
# From -- ./inp_files/249713.got.cif
#   From: 2010.05.17/outbox.cif.g08.bks.cpg/sg12_125_cif.got.tgz:249713.got - 2010.06.03 13:09:07.
