data_PCOD9209584
_publ_section_title
;
Structure prediction by ZEFSAII (Michael W. Deem and Ramdas Pophale) SiO2 
 PCOD9209584
Probable space group: C 2/M
;
_chemical_formula_sum "Si O2"
_cell_formula_units_Z 36
_cell_length_a 14.808585
_cell_length_b 23.208058
_cell_length_c 7.825542
_cell_angle_alpha 90.000000
_cell_angle_beta 143.868280
_cell_angle_gamma 90.000000
_cell_volume 1585.829047
_symmetry_space_group_name_H-M "C 2/M"
_symmetry_group_IT_number 12
_symmetry_cell_setting 'monoclinic'
loop_
_space_group_symop_operation_xyz
x,y,z
-x,y,-z
-x,-y,-z
x,-y,z
1/2+x,1/2+y,z
1/2-x,1/2+y,-z
1/2-x,1/2-y,-z
1/2+x,1/2-y,z
loop_
_atom_site_type_symbol
_atom_site_label
_atom_site_fract_x
_atom_site_fract_y
_atom_site_fract_z
Si Si1 0.000000 0.153658 0.500000
Si Si2 0.032939 0.065918 0.853834
Si Si3 0.625427 0.184660 0.405033
Si Si4 0.209469 0.724615 0.156317
Si Si5 0.119542 0.437835 0.530953
O O1 0.982222 0.111795 0.636701
O O2 0.154471 0.192314 0.734998
O O3 0.973332 0.000000 0.736031
O O4 0.215702 0.063398 0.128408
O O5 0.000000 0.082738 0.000000
O O6 0.737645 0.210389 0.720567
O O7 0.693133 0.198145 0.322607
O O8 0.603487 0.116972 0.387498
O O9 0.460955 0.215997 0.176120
O O10 0.102780 0.500000 0.417649
O O11 0.000000 0.433116 0.500000
#
# Coordination Sequence:
#
# PCOD9209584 Si02
#       5
#     4   8   8   8   8
#     4  12  23  38  64 102 127 168 226 278 324 394
#     4  10  22  40  63  93 133 178 216 267 332 393
#     4  10  22  44  61  92 132 174 218 272 327 410
#     4  10  24  39  64  93 130 174 216 270 342 379
#     4  10  21  38  63  89 122 169 217 267 323 390
#
# _framework density 22.701060999999999
#
# number of rings (size 3 to 8) (size 9 to 14) (size 15 to 20)
#    0.000    1.778    0.000    3.000    4.667    0.889 
#    0.000    4.444    0.000    0.000    0.000    0.000 
#    0.000    0.000    0.000    0.000    0.000    0.000 
#
# Total GULP energy -100660.758633 kJ/mol
# GULP energy per Si atom -5592.264368 kJ/mol
# Density = 2.264939 g / cm^3
# Si number density = 22.701061 Si / 1000 Ang^3
#
#
#
# Elastic Constant Matrix: (Units=GPa)
#
#
# Indices 1 2 3 4 5 6 
#
# 1 81.9688 53.5523 10.6685 0.0000 5.9219 0.0000
# 2 53.5523 123.8069 14.3035 0.0000 -12.1074 0.0000
# 3 10.6685 14.3035 44.5621 0.0000 7.2558 0.0000
# 4 0.0000 0.0000 0.0000 29.9566 0.0000 -0.8499
# 5 5.9219 -12.1074 7.2558 0.0000 35.4513 0.0000
# 6 0.0000 0.0000 0.0000 -0.8499 0.0000 22.1928
#
#
#
# Elastic Compliance Matrix: (Units=1/GPa)
#
#
# Indices 1 2 3 4 5 6 
#
# 1 0.018148 -0.008324 -0.000741 0.000000 -0.005723 0.000000
# 2 -0.008324 0.012657 -0.003103 0.000000 0.006348 0.000000
# 3 -0.000741 -0.003103 0.024586 0.000000 -0.005968 0.000000
# 4 0.000000 0.000000 0.000000 0.033418 0.000000 0.001280
# 5 -0.005723 0.006348 -0.005968 0.000000 0.032553 0.000000
# 6 0.000000 0.000000 0.000000 0.001280 0.000000 0.045109
#
#
# Mechanical properties :
#
#
# Convention : Reuss Voigt Hill
#
# Bulk Modulus (GPa) = 32.20222 45.26516 38.73369
# Shear Modulus (GPa) = 24.85603 28.97436 26.91520
#
# Velocity S-wave (km/s) = 3.31256 3.57647 3.44704
# Velocity P-wave (km/s) = 5.37093 6.08587 5.73954
#
# Compressibility (1/GPa) = 0.03105376
#
# Stress axis : x y z
#
# Youngs Moduli (GPa) = 55.10315 79.00853 40.67361
#
# Poissons Ratio (x) = 0.65765 0.03015
# Poissons Ratio (y) = 0.45867 0.12623
# Poissons Ratio (z) = 0.04084 0.24520
#
# Static dielectric constant tensor:
#      x y z
#    x 1.830930 0.000000 0.011070 
#    y 0.000000 1.877210 0.000000 
#    z 0.011070 0.000000 1.839700 
# 
# From -- ./inp_files/64139.got.cif
#   From: 2010.05.17/outbox.cif.g08.bks.cpg/sg12_33_cif.got.tgz:64139.got - 2010.06.03 13:09:07.
