data_PCOD9209946
_publ_section_title
;
Structure prediction by ZEFSAII (Michael W. Deem and Ramdas Pophale) SiO2 
 PCOD9209946
Probable space group: C 2/M
;
_chemical_formula_sum "Si O2"
_cell_formula_units_Z 60
_cell_length_a 16.585811
_cell_length_b 33.667675
_cell_length_c 5.287316
_cell_angle_alpha 90.000000
_cell_angle_beta 124.240880
_cell_angle_gamma 90.000000
_cell_volume 2440.743719
_symmetry_space_group_name_H-M "C 2/M"
_symmetry_group_IT_number 12
_symmetry_cell_setting 'monoclinic'
loop_
_space_group_symop_operation_xyz
x,y,z
-x,y,-z
-x,-y,-z
x,-y,z
1/2+x,1/2+y,z
1/2-x,1/2+y,-z
1/2-x,1/2-y,-z
1/2+x,1/2-y,z
loop_
_atom_site_type_symbol
_atom_site_label
_atom_site_fract_x
_atom_site_fract_y
_atom_site_fract_z
Si Si1 0.345112 0.904011 0.127494
Si Si2 0.887426 0.199961 0.707544
Si Si3 0.600723 0.456586 0.329672
Si Si4 0.660745 0.346121 0.898218
Si Si5 0.623876 0.790121 0.454198
Si Si6 0.314440 0.046998 0.560675
Si Si7 0.595664 0.822789 0.906487
Si Si8 0.500000 0.397664 0.500000
O O1 0.248942 0.876870 0.011011
O O2 0.336033 0.933054 0.870655
O O3 0.362138 0.929245 0.411881
O O4 0.419094 0.868872 0.180621
O O5 0.868165 0.174372 0.420093
O O6 0.859617 0.244970 0.587665
O O7 0.830744 0.183830 0.852475
O O8 0.000000 0.201534 0.000000
O O9 0.616391 0.500000 0.479015
O O10 0.696144 0.449332 0.330624
O O11 0.579840 0.424033 0.500521
O O12 0.500000 0.457968 0.000000
O O13 0.564046 0.371508 0.800873
O O14 0.655799 0.801836 0.790294
O O15 0.506913 0.799921 0.261610
O O16 0.651173 0.817919 0.267348
O O17 0.338640 0.000000 0.599185
#
# Coordination Sequence:
#
# PCOD9209946 Si02
#       8
#     8   8   8   8   8   8   8   4
#     4  12  24  44  60  96 133 155 211 264 309 372
#     4  12  22  40  60  85 119 162 211 256 289 373
#     4  10  22  36  55  80 109 155 213 266 300 336
#     4  12  26  35  59  87 124 169 207 249 322 346
#     4  10  21  41  69  93 115 155 217 245 314 377
#     4  11  24  42  65  88 126 175 208 249 312 381
#     4  10  21  38  69  94 121 157 199 273 304 364
#     4  12  21  34  54  76 114 158 208 252 292 352
#
# _framework density 24.582671000000001
#
# number of rings (size 3 to 8) (size 9 to 14) (size 15 to 20)
#    0.000    0.933    4.000    3.800    3.733    0.000 
#    0.000    4.000    0.000    0.000    0.000   37.333 
#    0.000    0.000    0.000    0.000    0.000    0.000 
#
# Total GULP energy -167834.917111 kJ/mol
# GULP energy per Si atom -5594.497237 kJ/mol
# Density = 2.452672 g / cm^3
# Si number density = 24.582671 Si / 1000 Ang^3
#
#
#
# Elastic Constant Matrix: (Units=GPa)
#
#
# Indices 1 2 3 4 5 6 
#
# 1 53.6633 31.1075 40.1332 0.0000 -24.9256 0.0000
# 2 31.1075 162.4346 42.9748 0.0000 -33.5738 0.0000
# 3 40.1332 42.9748 123.6390 0.0000 -45.6502 0.0000
# 4 0.0000 0.0000 0.0000 33.7062 0.0000 -24.9700
# 5 -24.9256 -33.5738 -45.6502 0.0000 48.5610 0.0000
# 6 0.0000 0.0000 0.0000 -24.9700 0.0000 38.6718
#
#
#
# Elastic Compliance Matrix: (Units=1/GPa)
#
#
# Indices 1 2 3 4 5 6 
#
# 1 0.027434 -0.002295 -0.005352 0.000000 0.007464 0.000000
# 2 -0.002295 0.007459 -0.000580 0.000000 0.003434 0.000000
# 3 -0.005352 -0.000580 0.013577 0.000000 0.009615 0.000000
# 4 0.000000 0.000000 0.000000 0.056872 0.000000 0.036722
# 5 0.007464 0.003434 0.009615 0.000000 0.035837 0.000000
# 6 0.000000 0.000000 0.000000 0.036722 0.000000 0.049569
#
#
# Mechanical properties :
#
#
# Convention : Reuss Voigt Hill
#
# Bulk Modulus (GPa) = 31.23326 63.12979 47.18152
# Shear Modulus (GPa) = 22.94903 39.22255 31.08579
#
# Velocity S-wave (km/s) = 3.05871 3.99875 3.55990
# Velocity P-wave (km/s) = 5.02068 6.85976 6.01097
#
# Compressibility (1/GPa) = 0.03201715
#
# Stress axis : x y z
#
# Youngs Moduli (GPa) = 36.45066 134.06593 73.65452
#
# Poissons Ratio (x) = 0.30772 0.39416
# Poissons Ratio (y) = 0.08367 0.04270
# Poissons Ratio (z) = 0.19507 0.07772
#
# Static dielectric constant tensor:
#      x y z
#    x 7.295630 0.000000 4.453060 
#    y 0.000000 1.938810 0.000000 
#    z 4.453060 0.000000 5.720430 
# 
# From -- ./inp_files/18363.got.cif
#   From: 2010.05.17/outbox.cif.g08.bks.cpg/sg12_10_cif.got.tgz:18363.got - 2010.06.03 13:09:07.
