data_PCOD9209358
_publ_section_title
;
Structure prediction by ZEFSAII (Michael W. Deem and Ramdas Pophale) SiO2 
 PCOD9209358
Probable space group: C 2/M
;
_chemical_formula_sum "Si O2"
_cell_formula_units_Z 56
_cell_length_a 18.638048
_cell_length_b 19.729407
_cell_length_c 21.148061
_cell_angle_alpha 90.000000
_cell_angle_beta 21.747858
_cell_angle_gamma 90.000000
_cell_volume 2881.375430
_symmetry_space_group_name_H-M "C 2/M"
_symmetry_group_IT_number 12
_symmetry_cell_setting 'monoclinic'
loop_
_space_group_symop_operation_xyz
x,y,z
-x,y,-z
-x,-y,-z
x,-y,z
1/2+x,1/2+y,z
1/2-x,1/2+y,-z
1/2-x,1/2-y,-z
1/2+x,1/2-y,z
loop_
_atom_site_type_symbol
_atom_site_label
_atom_site_fract_x
_atom_site_fract_y
_atom_site_fract_z
Si Si1 0.957487 0.927851 0.839876
Si Si2 0.106441 0.839220 0.309641
Si Si3 0.117024 0.219839 0.690862
Si Si4 0.147030 0.425104 0.988372
Si Si5 0.785010 0.329216 0.302020
Si Si6 0.553099 0.204874 0.282874
Si Si7 0.330476 0.421898 0.087515
O O1 0.041455 0.855901 0.752453
O O2 0.760645 0.929723 0.961274
O O3 0.060337 0.000000 0.740011
O O4 0.926538 0.925956 0.939866
O O5 0.208022 0.895816 0.183697
O O6 0.192339 0.832631 0.309024
O O7 0.148730 0.769166 0.238937
O O8 0.876126 0.848318 0.512445
O O9 0.143476 0.254499 0.737181
O O10 0.331850 0.209002 0.487523
O O11 0.978710 0.271303 0.764101
O O12 0.083717 0.500000 0.020556
O O13 0.965175 0.378381 0.150064
O O14 0.665239 0.136420 0.211945
O O15 0.260688 0.500000 0.159295
O O16 0.500000 0.405188 0.000000
#
# Coordination Sequence:
#
# PCOD9209358 Si02
#       7
#     8   8   8   8   8   8   8
#     4  10  22  40  59  87 122 154 201 254 301 363
#     4  10  22  40  57  92 125 155 201 256 304 366
#     4  10  21  39  62  89 118 155 207 254 308 367
#     4  11  23  40  63  89 119 163 209 246 303 371
#     4  10  23  38  60  88 126 158 198 254 309 362
#     4  10  21  38  62  87 118 157 206 254 306 367
#     4  10  23  40  59  89 126 163 205 254 311 376
#
# _framework density 19.435161999999998
#
# number of rings (size 3 to 8) (size 9 to 14) (size 15 to 20)
#    0.000    1.857    1.429    1.286    4.000    3.429 
#    0.000    1.429    0.000    2.571    0.000    0.000 
#    0.000    0.000    0.000    0.000    0.000    0.000 
#
# Total GULP energy -155895.478797 kJ/mol
# GULP energy per Si atom -5567.695671 kJ/mol
# Density = 1.939093 g / cm^3
# Si number density = 19.435162 Si / 1000 Ang^3
#
#
#
# Elastic Constant Matrix: (Units=GPa)
#
#
# Indices 1 2 3 4 5 6 
#
# 1 99.0605 12.3957 17.7580 0.3691 -9.9945 0.5173
# 2 12.3957 102.2214 33.6959 -0.1719 -24.2363 -0.3110
# 3 17.7580 33.6959 42.3920 -0.1454 -13.8193 -0.0628
# 4 0.3691 -0.1719 -0.1454 412.8566 -0.0669 568.7704
# 5 -9.9945 -24.2363 -13.8193 -0.0669 15.0479 -0.1793
# 6 0.5173 -0.3110 -0.0628 568.7704 -0.1793 791.0263
#
#
#
# Elastic Compliance Matrix: (Units=1/GPa)
#
#
# Indices 1 2 3 4 5 6 
#
# 1 0.011222 0.001338 -0.003757 -0.000204 0.006159 0.000141
# 2 0.001338 0.017174 -0.007002 -0.000760 0.022123 0.000557
# 3 -0.003757 -0.007002 0.037452 0.000726 0.020618 -0.000514
# 4 -0.000204 -0.000760 0.000726 0.256830 -0.001752 -0.184669
# 5 0.006159 0.022123 0.020618 -0.001752 0.125118 0.001294
# 6 0.000141 0.000557 -0.000514 -0.184669 0.001294 0.134047
#
#
# Mechanical properties :
#
#
# Convention : Reuss Voigt Hill
#
# Bulk Modulus (GPa) = 21.27378 41.26369 31.26874
# Shear Modulus (GPa) = 8.11222 255.77447 131.94335
#
# Velocity S-wave (km/s) = 2.04525 11.48432 8.24842
# Velocity P-wave (km/s) = 4.06782 14.04032 10.33629
#
# Compressibility (1/GPa) = 0.04700621
#
# Stress axis : x y z
#
# Youngs Moduli (GPa) = 89.10770 58.22738 26.70107
#
# Poissons Ratio (x) = -0.07791 0.10033
# Poissons Ratio (y) = -0.11923 0.18695
# Poissons Ratio (z) = 0.33481 0.40769
#
# Static dielectric constant tensor:
#      x y z
#    x 1.726290 -0.000020 -0.005660 
#    y -0.000020 1.728830 0.000020 
#    z -0.005660 0.000020 1.700400 
# 
# From -- ./inp_files/318011.got.cif
#   From: 2010.05.17/outbox.cif.g08.bks.cpg/sg12_160_cif.got.tgz:318011.got - 2010.06.03 13:09:07.
