data_PCOD9209761
_publ_section_title
;
Structure prediction by ZEFSAII (Michael W. Deem and Ramdas Pophale) SiO2 
 PCOD9209761
Probable space group: C 2/M
;
_chemical_formula_sum "Si O2"
_cell_formula_units_Z 64
_cell_length_a 16.521416
_cell_length_b 16.046891
_cell_length_c 22.190966
_cell_angle_alpha 90.000000
_cell_angle_beta 147.623206
_cell_angle_gamma 90.000000
_cell_volume 3150.369608
_symmetry_space_group_name_H-M "C 2/M"
_symmetry_group_IT_number 12
_symmetry_cell_setting 'monoclinic'
loop_
_space_group_symop_operation_xyz
x,y,z
-x,y,-z
-x,-y,-z
x,-y,z
1/2+x,1/2+y,z
1/2-x,1/2+y,-z
1/2-x,1/2-y,-z
1/2+x,1/2-y,z
loop_
_atom_site_type_symbol
_atom_site_label
_atom_site_fract_x
_atom_site_fract_y
_atom_site_fract_z
Si Si1 0.835706 0.646405 0.824111
Si Si2 0.464005 0.407265 0.407462
Si Si3 0.095756 0.706639 0.816910
Si Si4 0.109239 0.798963 0.216058
Si Si5 0.080546 0.262536 0.416250
Si Si6 0.174027 0.090458 0.984114
Si Si7 0.150697 0.405476 0.556363
Si Si8 0.308583 0.861541 0.947351
O O1 0.717234 0.595253 0.711344
O O2 0.816416 0.742141 0.789254
O O3 0.793220 0.624885 0.866386
O O4 0.013475 0.630260 0.928368
O O5 0.500000 0.396975 0.500000
O O6 0.517371 0.500000 0.420658
O O7 0.525739 0.325747 0.410854
O O8 0.175611 0.622223 0.887684
O O9 0.236060 0.770701 0.911035
O O10 0.966825 0.736844 0.782482
O O11 0.026782 0.713586 0.707250
O O12 0.221711 0.859960 0.322639
O O13 0.970895 0.850657 0.101483
O O14 0.250000 0.250000 0.500000
O O15 0.099664 0.340187 0.473206
O O16 0.131945 0.000000 0.979627
O O17 0.216894 0.088558 0.939868
O O18 0.198507 0.500000 0.567433
O O19 0.000000 0.414775 0.500000
#
# Coordination Sequence:
#
# PCOD9209761 Si02
#       8
#     8   8   8   8   8   8   8   8
#     4  11  20  38  69  93 125 171 215 261 321 390
#     4  11  26  45  66  99 138 174 213 266 333 402
#     4  11  21  42  64  92 126 171 222 257 321 396
#     4  11  20  41  67  91 127 169 221 266 327 385
#     4  12  24  43  69  95 128 176 219 272 327 382
#     4  11  23  40  63  95 134 170 213 273 328 386
#     4  11  25  43  66  96 127 167 224 273 324 390
#     4  10  21  38  64  94 122 168 217 265 317 384
#
# _framework density 20.315076999999999
#
# number of rings (size 3 to 8) (size 9 to 14) (size 15 to 20)
#    0.000    1.000    5.000    3.000    0.000    2.000 
#    0.000    1.250    0.000    0.750    0.000    0.000 
#    0.000    0.000    0.000    0.000    0.000    0.000 
#
# Total GULP energy -178480.061362 kJ/mol
# GULP energy per Si atom -5577.501918 kJ/mol
# Density = 2.026884 g / cm^3
# Si number density = 20.315077 Si / 1000 Ang^3
#
#
#
# Elastic Constant Matrix: (Units=GPa)
#
#
# Indices 1 2 3 4 5 6 
#
# 1 57.0366 29.7258 33.6986 -0.0022 -4.0582 -0.0009
# 2 29.7258 133.8142 62.1909 -0.0055 -18.5679 -0.0024
# 3 33.6986 62.1909 143.0432 -0.0035 -15.5628 -0.0017
# 4 -0.0022 -0.0055 -0.0035 -87.0203 -0.0011 -16.9119
# 5 -4.0582 -18.5679 -15.5628 -0.0011 29.2049 -0.0004
# 6 -0.0009 -0.0024 -0.0017 -16.9119 -0.0004 -25.1478
#
#
#
# Elastic Compliance Matrix: (Units=1/GPa)
#
#
# Indices 1 2 3 4 5 6 
#
# 1 0.021319 -0.003124 -0.003777 0.000000 -0.001037 0.000000
# 2 -0.003124 0.010289 -0.003262 0.000000 0.004369 0.000000
# 3 -0.003777 -0.003262 0.009571 0.000000 0.002501 0.000000
# 4 0.000000 0.000000 0.000000 -0.013219 -0.000001 0.008890
# 5 -0.001037 0.004369 0.002501 -0.000001 0.038208 -0.000001
# 6 0.000000 0.000000 0.000000 0.008890 -0.000001 -0.045743
#
#
# Mechanical properties :
#
#
# Convention : Reuss Voigt Hill
#
# Bulk Modulus (GPa) = 47.95540 65.01385 56.48463
# Shear Modulus (GPa) = 104.81889 -2.70739 51.05575
#
# Velocity S-wave (km/s) = 7.19087 -1.15568 5.01862
# Velocity P-wave (km/s) = 9.62299 5.50377 7.83879
#
# Compressibility (1/GPa) = 0.02085271
#
# Stress axis : x y z
#
# Youngs Moduli (GPa) = 46.90753 97.18661 104.48164
#
# Poissons Ratio (x) = 0.30364 0.39460
# Poissons Ratio (y) = 0.14656 0.34083
# Poissons Ratio (z) = 0.17716 0.31704
#
# Static dielectric constant tensor:
#      x y z
#    x 1.707190 0.000000 -0.009650 
#    y 0.000000 1.808540 0.000000 
#    z -0.009650 0.000000 1.707820 
# 
# From -- ./inp_files/344070.got.cif
#   From: 2010.05.17/outbox.cif.g08.bks.cpg/sg12_173_cif.got.tgz:344070.got - 2010.06.03 13:09:07.
