data_PCOD9209551
_publ_section_title
;
Structure prediction by ZEFSAII (Michael W. Deem and Ramdas Pophale) SiO2 
 PCOD9209551
Probable space group: C 2/M
;
_chemical_formula_sum "Si O2"
_cell_formula_units_Z 40
_cell_length_a 10.575682
_cell_length_b 14.278136
_cell_length_c 11.632285
_cell_angle_alpha 90.000000
_cell_angle_beta 101.476870
_cell_angle_gamma 90.000000
_cell_volume 1721.366202
_symmetry_space_group_name_H-M "C 2/M"
_symmetry_group_IT_number 12
_symmetry_cell_setting 'monoclinic'
loop_
_space_group_symop_operation_xyz
x,y,z
-x,y,-z
-x,-y,-z
x,-y,z
1/2+x,1/2+y,z
1/2-x,1/2+y,-z
1/2-x,1/2-y,-z
1/2+x,1/2-y,z
loop_
_atom_site_type_symbol
_atom_site_label
_atom_site_fract_x
_atom_site_fract_y
_atom_site_fract_z
Si Si1 0.246880 0.644552 0.958752
Si Si2 0.616857 0.000000 0.609015
Si Si3 0.749755 0.818706 0.706587
Si Si4 0.471888 0.500000 0.360309
Si Si5 0.033393 0.500000 0.856542
Si Si6 0.009682 0.788536 0.363439
Si Si7 0.767638 0.000000 0.147510
O O1 0.301446 0.643836 0.838752
O O2 0.109747 0.591412 0.916372
O O3 0.250000 0.750000 0.000000
O O4 0.309242 0.586204 0.073838
O O5 0.500000 0.000000 0.500000
O O6 0.702862 0.093734 0.620110
O O7 0.554970 0.000000 0.724485
O O8 0.854755 0.753165 0.662938
O O9 0.618279 0.760645 0.706440
O O10 0.500000 0.500000 0.500000
O O11 0.519355 0.398002 0.330447
O O12 0.328105 0.500000 0.284240
O O13 0.885344 0.500000 0.861509
O O14 0.000000 0.780667 0.500000
#
# Coordination Sequence:
#
# PCOD9209551 Si02
#       7
#     8   4   8   4   4   8   4
#     4  10  21  38  62  95 132 172 215 269 327 393
#     4  10  22  40  63  93 129 174 216 271 334 391
#     4  11  24  42  64  97 131 170 222 274 329 401
#     4  10  24  43  65  93 127 170 218 272 335 400
#     4   9  22  39  64  98 132 170 228 273 321 401
#     4  11  24  43  66  94 131 172 220 276 334 396
#     4  11  22  42  65  96 133 176 223 278 335 396
#
# _framework density 23.237358
#
# number of rings (size 3 to 8) (size 9 to 14) (size 15 to 20)
#    0.000    1.600    0.000    4.800    0.000   11.200 
#    0.000    4.000    0.000    0.000    0.000    0.000 
#    0.000    0.000    0.000    0.000    0.000    0.000 
#
# Total GULP energy -111647.318475 kJ/mol
# GULP energy per Si atom -5582.365924 kJ/mol
# Density = 2.318447 g / cm^3
# Si number density = 23.237358 Si / 1000 Ang^3
#
#
#
# Elastic Constant Matrix: (Units=GPa)
#
#
# Indices 1 2 3 4 5 6 
#
# 1 137.5142 23.0696 59.0521 0.0000 -10.7809 0.0000
# 2 23.0696 125.6709 14.5222 0.0000 15.2991 0.0000
# 3 59.0521 14.5222 131.5911 0.0000 14.7278 0.0000
# 4 0.0000 0.0000 0.0000 28.3190 0.0000 5.5252
# 5 -10.7809 15.2991 14.7278 0.0000 23.7372 0.0000
# 6 0.0000 0.0000 0.0000 5.5252 0.0000 14.0535
#
#
#
# Elastic Compliance Matrix: (Units=1/GPa)
#
#
# Indices 1 2 3 4 5 6 
#
# 1 0.011005 -0.002601 -0.005801 0.000000 0.010274 0.000000
# 2 -0.002601 0.009265 0.001016 0.000000 -0.007783 0.000000
# 3 -0.005801 0.001016 0.011239 0.000000 -0.010263 0.000000
# 4 0.000000 0.000000 0.000000 0.038246 0.000000 -0.015037
# 5 0.010274 -0.007783 -0.010263 0.000000 0.058178 0.000000
# 6 0.000000 0.000000 0.000000 -0.015037 0.000000 0.077068
#
#
# Mechanical properties :
#
#
# Convention : Reuss Voigt Hill
#
# Bulk Modulus (GPa) = 59.75035 65.34044 62.54540
# Shear Modulus (GPa) = 22.18747 33.09742 27.64245
#
# Velocity S-wave (km/s) = 3.09337 3.77811 3.45276
# Velocity P-wave (km/s) = 6.20705 6.87109 6.54749
#
# Compressibility (1/GPa) = 0.01673630
#
# Stress axis : x y z
#
# Youngs Moduli (GPa) = 90.86805 107.93584 88.97396
#
# Poissons Ratio (x) = 0.28069 0.51617
# Poissons Ratio (y) = 0.23631 -0.09036
# Poissons Ratio (z) = 0.52716 -0.10962
#
# Static dielectric constant tensor:
#      x y z
#    x 1.919900 0.000000 0.010440 
#    y 0.000000 1.995550 0.000000 
#    z 0.010440 0.000000 1.896750 
# 
# From -- ./inp_files/129871.got.cif
#   From: 2010.05.17/outbox.cif.g08.bks.cpg/sg12_65_cif.got.tgz:129871.got - 2010.06.03 13:09:07.
