data_PCOD9209182
_publ_section_title
;
Structure prediction by ZEFSAII (Michael W. Deem and Ramdas Pophale) SiO2 
 PCOD9209182
Probable space group: C 2/M
;
_chemical_formula_sum "Si O2"
_cell_formula_units_Z 64
_cell_length_a 31.128394
_cell_length_b 9.039329
_cell_length_c 14.550387
_cell_angle_alpha 90.000000
_cell_angle_beta 126.670998
_cell_angle_gamma 90.000000
_cell_volume 3283.855836
_symmetry_space_group_name_H-M "C 2/M"
_symmetry_group_IT_number 12
_symmetry_cell_setting 'monoclinic'
loop_
_space_group_symop_operation_xyz
x,y,z
-x,y,-z
-x,-y,-z
x,-y,z
1/2+x,1/2+y,z
1/2-x,1/2+y,-z
1/2-x,1/2-y,-z
1/2+x,1/2-y,z
loop_
_atom_site_type_symbol
_atom_site_label
_atom_site_fract_x
_atom_site_fract_y
_atom_site_fract_z
Si Si1 0.055634 0.676797 0.620300
Si Si2 0.993326 0.319759 0.096161
Si Si3 0.908356 0.677213 0.132906
Si Si4 0.295582 0.825855 0.619696
Si Si5 0.793646 0.828925 0.992656
Si Si6 0.749416 0.328349 0.269550
Si Si7 0.865404 0.823784 0.416935
Si Si8 0.094168 0.325049 0.350118
O O1 0.063342 0.500000 0.617229
O O2 0.056713 0.705699 0.730631
O O3 0.104001 0.761502 0.632939
O O4 0.000000 0.717592 0.500000
O O5 0.992236 0.500000 0.091817
O O6 0.940099 0.272478 0.082604
O O7 0.043814 0.279759 0.224074
O O8 0.000000 0.267616 0.000000
O O9 0.900995 0.500000 0.117772
O O10 0.851139 0.752096 0.071430
O O11 0.250000 0.750000 0.500000
O O12 0.291490 0.748887 0.713033
O O13 0.352374 0.808389 0.642563
O O14 0.284559 0.000000 0.614584
O O15 0.772655 0.821782 0.861460
O O16 0.798318 0.000000 0.026018
O O17 0.750000 0.750000 0.000000
O O18 0.757292 0.500000 0.306199
O O19 0.806275 0.245997 0.347875
O O20 0.898071 0.766630 0.547373
O O21 0.862226 0.000000 0.411233
O O22 0.088334 0.500000 0.366281
#
# Coordination Sequence:
#
# PCOD9209182 Si02
#       8
#     8   8   8   8   8   8   8   8
#     4  10  21  39  63  89 119 158 200 244 300 364
#     4   9  19  37  63  93 121 157 208 254 293 353
#     4  10  21  38  64  93 123 160 203 254 307 360
#     4  11  22  36  60  92 124 160 201 252 308 364
#     4  11  25  43  64  90 123 164 206 255 311 369
#     4  11  24  41  60  84 119 161 204 248 303 370
#     4  12  24  37  59  90 120 155 196 250 308 363
#     4  10  21  38  61  88 122 162 202 249 302 361
#
# _framework density 19.489284000000001
#
# number of rings (size 3 to 8) (size 9 to 14) (size 15 to 20)
#    0.000    1.500    1.250    3.750    1.750    8.250 
#    0.000    1.875    0.000    0.750    0.000    0.000 
#    0.000    0.000    0.000    0.000    0.000    0.000 
#
# Total GULP energy -178919.609414 kJ/mol
# GULP energy per Si atom -5591.237794 kJ/mol
# Density = 1.944493 g / cm^3
# Si number density = 19.489284 Si / 1000 Ang^3
#
#
#
# Elastic Constant Matrix: (Units=GPa)
#
#
# Indices 1 2 3 4 5 6 
#
# 1 114.4873 52.9379 39.4587 0.0000 -10.2577 0.0000
# 2 52.9379 72.2437 31.9516 0.0000 -8.6211 0.0000
# 3 39.4587 31.9516 80.3459 0.0000 2.8134 0.0000
# 4 0.0000 0.0000 0.0000 15.9282 0.0000 -4.2605
# 5 -10.2577 -8.6211 2.8134 0.0000 34.8065 0.0000
# 6 0.0000 0.0000 0.0000 -4.2605 0.0000 26.5419
#
#
#
# Elastic Compliance Matrix: (Units=1/GPa)
#
#
# Indices 1 2 3 4 5 6 
#
# 1 0.014109 -0.008440 -0.003655 0.000000 0.002363 0.000000
# 2 -0.008440 0.022653 -0.004987 0.000000 0.003527 0.000000
# 3 -0.003655 -0.004987 0.016352 0.000000 -0.003634 0.000000
# 4 0.000000 0.000000 0.000000 0.065598 0.000000 0.010530
# 5 0.002363 0.003527 -0.003634 0.000000 0.030594 0.000000
# 6 0.000000 0.000000 0.000000 0.010530 0.000000 0.039367
#
#
# Mechanical properties :
#
#
# Convention : Reuss Voigt Hill
#
# Bulk Modulus (GPa) = 52.77333 57.30816 55.04074
# Shear Modulus (GPa) = 21.81948 24.97054 23.39501
#
# Velocity S-wave (km/s) = 3.34962 3.58333 3.46844
# Velocity P-wave (km/s) = 6.48821 6.82562 6.65905
#
# Compressibility (1/GPa) = 0.01894896
#
# Stress axis : x y z
#
# Youngs Moduli (GPa) = 70.87886 44.14435 61.15482
#
# Poissons Ratio (x) = 0.37256 0.22354
# Poissons Ratio (y) = 0.59819 0.30499
# Poissons Ratio (z) = 0.25909 0.22016
#
# Static dielectric constant tensor:
#      x y z
#    x 1.673930 0.000000 -0.019360 
#    y 0.000000 1.657430 0.000000 
#    z -0.019360 0.000000 1.681270 
# 
# From -- ./inp_files/250098.got.cif
#   From: 2010.05.17/outbox.cif.g08.bks.cpg/sg12_126_cif.got.tgz:250098.got - 2010.06.03 13:09:07.
