data_PCOD9209578
_publ_section_title
;
Structure prediction by ZEFSAII (Michael W. Deem and Ramdas Pophale) SiO2 
 PCOD9209578
Probable space group: C 2/M
;
_chemical_formula_sum "Si O2"
_cell_formula_units_Z 56
_cell_length_a 9.454964
_cell_length_b 17.884785
_cell_length_c 16.550418
_cell_angle_alpha 90.000000
_cell_angle_beta 114.128953
_cell_angle_gamma 90.000000
_cell_volume 2554.148986
_symmetry_space_group_name_H-M "C 2/M"
_symmetry_group_IT_number 12
_symmetry_cell_setting 'monoclinic'
loop_
_space_group_symop_operation_xyz
x,y,z
-x,y,-z
-x,-y,-z
x,-y,z
1/2+x,1/2+y,z
1/2-x,1/2+y,-z
1/2-x,1/2-y,-z
1/2+x,1/2-y,z
loop_
_atom_site_type_symbol
_atom_site_label
_atom_site_fract_x
_atom_site_fract_y
_atom_site_fract_z
Si Si1 0.365259 0.214725 0.858149
Si Si2 0.312556 0.079751 0.957007
Si Si3 0.116688 0.198343 0.668392
Si Si4 0.685477 0.152445 0.881293
Si Si5 0.224884 0.916513 0.562153
Si Si6 0.631262 0.415964 0.352770
Si Si7 0.931253 0.370239 0.323390
O O1 0.285798 0.150586 0.894288
O O2 0.279442 0.208056 0.752484
O O3 0.546636 0.200348 0.890229
O O4 0.323258 0.293689 0.886721
O O5 0.250592 0.000000 0.913016
O O6 0.500000 0.074603 0.000000
O O7 0.266008 0.094873 0.038502
O O8 0.149341 0.150459 0.595767
O O9 0.053241 0.282482 0.648200
O O10 0.996847 0.147598 0.690932
O O11 0.608557 0.122033 0.781041
O O12 0.181330 0.910093 0.458388
O O13 0.408960 0.909619 0.617007
O O14 0.175609 0.000000 0.578886
O O15 0.573117 0.500000 0.324116
O O16 0.784321 0.401808 0.336633
#
# Coordination Sequence:
#
# PCOD9209578 Si02
#       7
#     8   8   8   8   8   8   8
#     4  10  21  38  63  89 118 157 196 243 296 351
#     4   9  19  36  59  91 122 153 198 242 285 348
#     4  11  23  39  62  90 119 156 204 251 296 355
#     4  10  21  38  63  89 118 157 196 243 296 351
#     4  11  23  41  61  86 119 160 203 245 302 367
#     4  11  25  41  59  86 123 160 197 249 310 357
#     4  11  23  39  62  90 119 156 204 251 296 355
#
# _framework density 21.925111999999999
#
# number of rings (size 3 to 8) (size 9 to 14) (size 15 to 20)
#    0.000    1.571    1.429    3.000    6.000    8.000 
#    0.000    0.000    0.000    0.857    0.000    0.000 
#    0.000    0.000    0.000    0.000    0.000    0.000 
#
# Total GULP energy -156522.482877 kJ/mol
# GULP energy per Si atom -5590.088674 kJ/mol
# Density = 2.187521 g / cm^3
# Si number density = 21.925112 Si / 1000 Ang^3
#
#
#
# Elastic Constant Matrix: (Units=GPa)
#
#
# Indices 1 2 3 4 5 6 
#
# 1 70.1331 -9.4812 -2.8967 0.0000 -8.2827 0.0000
# 2 -9.4812 74.9612 9.7485 0.0000 -7.8718 0.0000
# 3 -2.8967 9.7485 38.9974 0.0000 -17.8607 0.0000
# 4 0.0000 0.0000 0.0000 4.6111 0.0000 -0.8838
# 5 -8.2827 -7.8718 -17.8607 0.0000 29.6041 0.0000
# 6 0.0000 0.0000 0.0000 -0.8838 0.0000 18.4302
#
#
#
# Elastic Compliance Matrix: (Units=1/GPa)
#
#
# Indices 1 2 3 4 5 6 
#
# 1 0.015591 0.002228 0.003966 0.000000 0.007348 0.000000
# 2 0.002228 0.014211 -0.001894 0.000000 0.003259 0.000000
# 3 0.003966 -0.001894 0.036879 0.000000 0.022856 0.000000
# 4 0.000000 0.000000 0.000000 0.218878 0.000000 0.010496
# 5 0.007348 0.003259 0.022856 0.000000 0.050491 0.000000
# 6 0.000000 0.000000 0.000000 0.010496 0.000000 0.054762
#
#
# Mechanical properties :
#
#
# Convention : Reuss Voigt Hill
#
# Bulk Modulus (GPa) = 13.28364 19.87033 16.57698
# Shear Modulus (GPa) = 12.27581 22.97716 17.62649
#
# Velocity S-wave (km/s) = 2.36878 3.24077 2.83846
# Velocity P-wave (km/s) = 3.68148 4.80478 4.28014
#
# Compressibility (1/GPa) = 0.07528058
#
# Stress axis : x y z
#
# Youngs Moduli (GPa) = 64.13813 70.37011 27.11594
#
# Poissons Ratio (x) = -0.15677 -0.10755
# Poissons Ratio (y) = -0.14289 0.05136
# Poissons Ratio (z) = -0.25440 0.13329
#
# Static dielectric constant tensor:
#      x y z
#    x 1.791460 0.000000 -0.026770 
#    y 0.000000 1.825370 0.000000 
#    z -0.026770 0.000000 1.786050 
# 
# From -- ./inp_files/257060.got.cif
#   From: 2010.05.17/outbox.cif.g08.bks.cpg/sg12_129_cif.got.tgz:257060.got - 2010.06.03 13:09:07.
