data_PCOD9209600
_publ_section_title
;
Structure prediction by ZEFSAII (Michael W. Deem and Ramdas Pophale) SiO2 
 PCOD9209600
Probable space group: C 2/M
;
_chemical_formula_sum "Si O2"
_cell_formula_units_Z 64
_cell_length_a 19.769000
_cell_length_b 8.934443
_cell_length_c 30.569577
_cell_angle_alpha 90.000000
_cell_angle_beta 38.475157
_cell_angle_gamma 90.000000
_cell_volume 3359.342938
_symmetry_space_group_name_H-M "C 2/M"
_symmetry_group_IT_number 12
_symmetry_cell_setting 'monoclinic'
loop_
_space_group_symop_operation_xyz
x,y,z
-x,y,-z
-x,-y,-z
x,-y,z
1/2+x,1/2+y,z
1/2-x,1/2+y,-z
1/2-x,1/2-y,-z
1/2+x,1/2-y,z
loop_
_atom_site_type_symbol
_atom_site_label
_atom_site_fract_x
_atom_site_fract_y
_atom_site_fract_z
Si Si1 0.715266 0.320506 0.883842
Si Si2 0.306121 0.819745 0.514267
Si Si3 0.335371 0.680705 0.990494
Si Si4 0.273260 0.177098 0.281401
Si Si5 0.916186 0.820592 0.133904
Si Si6 0.148087 0.823423 0.672736
Si Si7 0.924340 0.823897 0.733677
Si Si8 0.551876 0.821038 0.373250
O O1 0.733674 0.500000 0.873537
O O2 0.617428 0.290290 0.899304
O O3 0.820524 0.237767 0.811858
O O4 0.691230 0.277602 0.945861
O O5 0.250000 0.750000 0.500000
O O6 0.239270 0.777108 0.591268
O O7 0.433016 0.778384 0.451307
O O8 0.299259 0.000000 0.513900
O O9 0.330341 0.500000 0.990094
O O10 0.460392 0.725621 0.918431
O O11 0.250000 0.750000 0.000000
O O12 0.330818 0.242424 0.209080
O O13 0.341301 0.229580 0.288807
O O14 0.153063 0.246362 0.346252
O O15 0.266969 0.000000 0.281530
O O16 0.908244 0.000000 0.144289
O O17 0.031773 0.806504 0.708602
O O18 0.163420 0.000000 0.675139
O O19 0.940454 0.734132 0.680664
O O20 0.910862 0.000000 0.730355
O O21 0.562507 0.000000 0.369791
#
# Coordination Sequence:
#
# PCOD9209600 Si02
#       8
#     8   8   8   8   8   8   8   8
#     4  10  21  39  64  90 120 162 208 248 296 360
#     4  10  21  38  63  91 120 159 204 253 306 366
#     4  10  23  41  62  92 125 160 202 248 303 362
#     4  12  26  41  61  91 125 161 207 258 305 358
#     4  10  21  41  66  88 119 163 205 248 303 362
#     4  10  23  42  61  87 125 164 202 250 312 370
#     4  11  22  37  62  93 124 159 205 255 302 358
#     4  11  22  39  64  91 123 162 203 250 309 368
#
# _framework density 19.051345999999999
#
# number of rings (size 3 to 8) (size 9 to 14) (size 15 to 20)
#    0.000    1.500    2.500    2.250    1.750    5.000 
#    0.000    2.500    0.000    2.250    0.000    0.000 
#    0.000    0.000    0.000    0.000    0.000    0.000 
#
# Total GULP energy -178858.036318 kJ/mol
# GULP energy per Si atom -5589.313635 kJ/mol
# Density = 1.900798 g / cm^3
# Si number density = 19.051346 Si / 1000 Ang^3
#
#
#
# Elastic Constant Matrix: (Units=GPa)
#
#
# Indices 1 2 3 4 5 6 
#
# 1 78.2723 33.9786 27.4823 0.0000 -5.4007 0.0002
# 2 33.9786 41.0986 24.8014 0.0000 -7.8703 -0.0005
# 3 27.4823 24.8014 76.2759 0.0000 -19.2049 0.0000
# 4 0.0000 0.0000 0.0000 15.1689 0.0000 -4.6659
# 5 -5.4007 -7.8703 -19.2049 0.0000 33.3346 0.0003
# 6 0.0002 -0.0005 0.0000 -4.6659 0.0003 34.5928
#
#
#
# Elastic Compliance Matrix: (Units=1/GPa)
#
#
# Indices 1 2 3 4 5 6 
#
# 1 0.020358 -0.015530 -0.002782 0.000000 -0.001971 0.000000
# 2 -0.015530 0.042204 -0.007313 0.000000 0.003235 0.000001
# 3 -0.002782 -0.007313 0.018647 0.000000 0.008566 0.000000
# 4 0.000000 0.000000 0.000000 0.068778 0.000000 0.009277
# 5 -0.001971 0.003235 0.008566 0.000000 0.035378 0.000000
# 6 0.000000 0.000001 0.000000 0.009277 0.000000 0.030159
#
#
# Mechanical properties :
#
#
# Convention : Reuss Voigt Hill
#
# Bulk Modulus (GPa) = 33.37763 40.90793 37.14278
# Shear Modulus (GPa) = 18.06616 23.91157 20.98887
#
# Velocity S-wave (km/s) = 3.08277 3.54660 3.32279
# Velocity P-wave (km/s) = 5.49810 6.18791 5.85318
#
# Compressibility (1/GPa) = 0.02996019
#
# Stress axis : x y z
#
# Youngs Moduli (GPa) = 49.11967 23.69443 53.62792
#
# Poissons Ratio (x) = 0.36798 0.14917
# Poissons Ratio (y) = 0.76284 0.39216
# Poissons Ratio (z) = 0.13663 0.17327
#
# Static dielectric constant tensor:
#      x y z
#    x 1.647240 0.000000 -0.007400 
#    y 0.000000 1.640410 0.000000 
#    z -0.007400 0.000000 1.644590 
# 
# From -- ./inp_files/378211.got.cif
#   From: 2010.05.17/outbox.cif.g08.bks.cpg/sg12_190_cif.got.tgz:378211.got - 2010.06.03 13:09:07.
