data_PCOD9209940
_publ_section_title
;
Structure prediction by ZEFSAII (Michael W. Deem and Ramdas Pophale) SiO2 
 PCOD9209940
Probable space group: C 2/M
;
_chemical_formula_sum "Si O2"
_cell_formula_units_Z 36
_cell_length_a 13.291178
_cell_length_b 26.893171
_cell_length_c 7.993646
_cell_angle_alpha 90.000000
_cell_angle_beta 144.446402
_cell_angle_gamma 90.000000
_cell_volume 1661.397055
_symmetry_space_group_name_H-M "C 2/M"
_symmetry_group_IT_number 12
_symmetry_cell_setting 'monoclinic'
loop_
_space_group_symop_operation_xyz
x,y,z
-x,y,-z
-x,-y,-z
x,-y,z
1/2+x,1/2+y,z
1/2-x,1/2+y,-z
1/2-x,1/2-y,-z
1/2+x,1/2-y,z
loop_
_atom_site_type_symbol
_atom_site_label
_atom_site_fract_x
_atom_site_fract_y
_atom_site_fract_z
Si Si1 0.755110 0.000000 0.475096
Si Si2 0.376449 0.391634 0.587635
Si Si3 0.255506 0.106827 0.971520
Si Si4 0.699458 0.294900 0.313456
Si Si5 0.500000 0.824511 0.500000
Si Si6 0.377547 0.000000 0.091188
O O1 0.853334 0.052401 0.626266
O O2 0.584145 0.000000 0.357259
O O3 0.691848 0.000000 0.194956
O O4 0.287677 0.389328 0.284060
O O5 0.579484 0.380922 0.832641
O O6 0.294627 0.349272 0.591865
O O7 0.412585 0.141209 0.240052
O O8 0.306098 0.049907 0.075392
O O9 0.750000 0.250000 0.500000
O O10 0.839629 0.294096 0.355689
O O11 0.500000 0.287539 0.000000
#
# Coordination Sequence:
#
# PCOD9209940 Si02
#       6
#     4   8   8   8   4   4
#     4   9  17  33  65  97 135 183 224 278 325 407
#     4  10  21  43  68 100 139 180 232 275 340 401
#     4  10  21  38  68  99 139 185 225 281 331 409
#     4  12  29  50  72 102 136 177 228 286 342 406
#     4  12  26  45  72 100 138 173 230 282 346 398
#     4   9  17  32  56 100 136 182 233 262 335 399
#
# _framework density 21.668510000000001
#
# number of rings (size 3 to 8) (size 9 to 14) (size 15 to 20)
#    0.000    1.556    2.222    2.000    3.111    7.556 
#    0.000    1.667    0.000    0.000    0.000    0.000 
#    0.000    0.000    0.000    0.000    0.000    0.000 
#
# Total GULP energy -100670.969220 kJ/mol
# GULP energy per Si atom -5592.831623 kJ/mol
# Density = 2.161919 g / cm^3
# Si number density = 21.668510 Si / 1000 Ang^3
#
#
#
# Elastic Constant Matrix: (Units=GPa)
#
#
# Indices 1 2 3 4 5 6 
#
# 1 98.8669 34.9447 40.3152 0.0000 29.3972 0.0000
# 2 34.9447 97.5633 38.3840 0.0000 3.1499 0.0000
# 3 40.3152 38.3840 115.4869 0.0000 25.1599 0.0000
# 4 0.0000 0.0000 0.0000 -6.7329 0.0000 -24.2548
# 5 29.3972 3.1499 25.1599 0.0000 27.9320 0.0000
# 6 0.0000 0.0000 0.0000 -24.2548 0.0000 4.3719
#
#
#
# Elastic Compliance Matrix: (Units=1/GPa)
#
#
# Indices 1 2 3 4 5 6 
#
# 1 0.017370 -0.005471 -0.000494 0.000000 -0.017219 0.000000
# 2 -0.005471 0.013686 -0.004425 0.000000 0.008201 0.000000
# 3 -0.000494 -0.004425 0.012541 0.000000 -0.010278 0.000000
# 4 0.000000 0.000000 0.000000 -0.007077 0.000000 -0.039264
# 5 -0.017219 0.008201 -0.010278 0.000000 0.062257 0.000000
# 6 0.000000 0.000000 0.000000 -0.039264 0.000000 0.010899
#
#
# Mechanical properties :
#
#
# Convention : Reuss Voigt Hill
#
# Bulk Modulus (GPa) = 43.82894 59.91168 51.87031
# Shear Modulus (GPa) = 36.21569 18.33242 27.27406
#
# Velocity S-wave (km/s) = 4.09265 2.91183 3.55166
# Velocity P-wave (km/s) = 6.52717 6.24614 6.38820
#
# Compressibility (1/GPa) = 0.02281598
#
# Stress axis : x y z
#
# Youngs Moduli (GPa) = 57.57143 73.06891 79.73605
#
# Poissons Ratio (x) = 0.39977 0.03937
# Poissons Ratio (y) = 0.31499 0.35287
# Poissons Ratio (z) = 0.02843 0.32336
#
# Static dielectric constant tensor:
#      x y z
#    x 1.811530 0.000000 -0.007020 
#    y 0.000000 1.761030 0.000000 
#    z -0.007020 0.000000 1.790350 
# 
# From -- ./inp_files/67493.got.cif
#   From: 2010.05.17/outbox.cif.g08.bks.cpg/sg12_34_cif.got.tgz:67493.got - 2010.06.03 13:09:07.
