data_PCOD9209623
_publ_section_title
;
Structure prediction by ZEFSAII (Michael W. Deem and Ramdas Pophale) SiO2 
 PCOD9209623
Probable space group: C 2/M
;
_chemical_formula_sum "Si O2"
_cell_formula_units_Z 48
_cell_length_a 22.049082
_cell_length_b 13.081175
_cell_length_c 19.321231
_cell_angle_alpha 90.000000
_cell_angle_beta 21.707257
_cell_angle_gamma 90.000000
_cell_volume 2061.173909
_symmetry_space_group_name_H-M "C 2/M"
_symmetry_group_IT_number 12
_symmetry_cell_setting 'monoclinic'
loop_
_space_group_symop_operation_xyz
x,y,z
-x,y,-z
-x,-y,-z
x,-y,z
1/2+x,1/2+y,z
1/2-x,1/2+y,-z
1/2-x,1/2-y,-z
1/2+x,1/2-y,z
loop_
_atom_site_type_symbol
_atom_site_label
_atom_site_fract_x
_atom_site_fract_y
_atom_site_fract_z
Si Si1 0.180470 0.730958 0.908072
Si Si2 0.380508 0.879270 0.762362
Si Si3 0.337361 0.827148 0.311754
Si Si4 0.359463 0.386166 0.357310
Si Si5 0.813472 0.120838 0.899362
Si Si6 0.383526 0.719827 0.563879
O O1 0.209970 0.846219 0.905243
O O2 0.296292 0.674341 0.843269
O O3 0.229042 0.743574 0.777037
O O4 0.016438 0.665798 0.090526
O O5 0.522950 0.816430 0.570658
O O6 0.409854 0.000000 0.727293
O O7 0.337346 0.852128 0.888330
O O8 0.330932 0.705260 0.334599
O O9 0.297473 0.882290 0.425239
O O10 0.191216 0.852624 0.414575
O O11 0.377814 0.500000 0.309569
O O12 0.517291 0.360274 0.238226
O O13 0.805913 0.000000 0.896670
O O14 0.500000 0.674490 0.500000
#
# Coordination Sequence:
#
# PCOD9209623 Si02
#       6
#     8   8   8   8   8   8
#     4  11  22  38  64  91 130 162 209 257 314 371
#     4  10  21  38  63  92 126 166 209 252 305 374
#     4  11  23  38  62  91 125 166 206 260 314 365
#     4  10  22  39  61  92 127 161 207 260 312 368
#     4  10  21  40  66  96 126 164 209 257 313 372
#     4  10  23  40  60  87 125 169 207 248 307 375
#
# _framework density 23.287700000000001
#
# number of rings (size 3 to 8) (size 9 to 14) (size 15 to 20)
#    0.000    1.667    1.667    3.000    4.667    4.333 
#    0.000    0.833    0.000   15.000    0.000    0.000 
#    0.000    0.000    0.000    0.000    0.000    0.000 
#
# Total GULP energy -133715.353886 kJ/mol
# GULP energy per Si atom -5571.473079 kJ/mol
# Density = 2.323470 g / cm^3
# Si number density = 23.287700 Si / 1000 Ang^3
#
#
#
# Elastic Constant Matrix: (Units=GPa)
#
#
# Indices 1 2 3 4 5 6 
#
# 1 64.6876 2.3215 14.1397 0.0003 2.7685 -0.0002
# 2 2.3215 41.1670 -1.8673 0.0007 -2.9661 -0.0006
# 3 14.1397 -1.8673 109.8000 -0.0015 16.0769 0.0006
# 4 0.0003 0.0007 -0.0015 20.2231 0.0008 -1.7514
# 5 2.7685 -2.9661 16.0769 0.0008 53.1152 -0.0005
# 6 -0.0002 -0.0006 0.0006 -1.7514 -0.0005 11.0274
#
#
#
# Elastic Compliance Matrix: (Units=1/GPa)
#
#
# Indices 1 2 3 4 5 6 
#
# 1 0.015951 -0.001011 -0.002031 0.000000 -0.000273 0.000000
# 2 -0.001011 0.024459 0.000354 -0.000001 0.001311 0.000001
# 3 -0.002031 0.000354 0.009791 0.000001 -0.002838 -0.000001
# 4 0.000000 -0.000001 0.000001 0.050138 -0.000001 0.007963
# 5 -0.000273 0.001311 -0.002838 -0.000001 0.019773 0.000001
# 6 0.000000 0.000001 -0.000001 0.007963 0.000001 0.091948
#
#
# Mechanical properties :
#
#
# Convention : Reuss Voigt Hill
#
# Bulk Modulus (GPa) = 22.30976 27.20471 24.75723
# Shear Modulus (GPa) = 21.51668 30.27719 25.89693
#
# Velocity S-wave (km/s) = 3.04295 3.60965 3.33835
# Velocity P-wave (km/s) = 4.68476 5.39260 5.05109
#
# Compressibility (1/GPa) = 0.04482344
#
# Stress axis : x y z
#
# Youngs Moduli (GPa) = 62.69239 40.88497 102.13895
#
# Poissons Ratio (x) = 0.04135 0.20748
# Poissons Ratio (y) = 0.06340 -0.03618
# Poissons Ratio (z) = 0.12735 -0.01448
#
# Static dielectric constant tensor:
#      x y z
#    x 1.897740 0.000000 -0.028210 
#    y 0.000000 1.873600 0.000000 
#    z -0.028210 0.000000 2.085310 
# 
# From -- ./inp_files/325611.got.cif
#   From: 2010.05.17/outbox.cif.g08.bks.cpg/sg12_163_cif.got.tgz:325611.got - 2010.06.03 13:09:07.
