data_PCOD9209367
_publ_section_title
;
Structure prediction by ZEFSAII (Michael W. Deem and Ramdas Pophale) SiO2 
 PCOD9209367
Probable space group: C 2/M
;
_chemical_formula_sum "Si O2"
_cell_formula_units_Z 40
_cell_length_a 25.188498
_cell_length_b 9.130195
_cell_length_c 19.106006
_cell_angle_alpha 90.000000
_cell_angle_beta 27.704206
_cell_angle_gamma 90.000000
_cell_volume 2042.764758
_symmetry_space_group_name_H-M "C 2/M"
_symmetry_group_IT_number 12
_symmetry_cell_setting 'monoclinic'
loop_
_space_group_symop_operation_xyz
x,y,z
-x,y,-z
-x,-y,-z
x,-y,z
1/2+x,1/2+y,z
1/2-x,1/2+y,-z
1/2-x,1/2-y,-z
1/2+x,1/2-y,z
loop_
_atom_site_type_symbol
_atom_site_label
_atom_site_fract_x
_atom_site_fract_y
_atom_site_fract_z
Si Si1 0.919966 0.672757 0.867872
Si Si2 0.760099 0.674253 0.831073
Si Si3 0.260178 0.325169 0.688713
Si Si4 0.840724 0.675934 0.342323
Si Si5 0.999113 0.327136 0.615671
O O1 0.896146 0.500000 0.906425
O O2 0.952789 0.692503 0.748630
O O3 0.031837 0.714068 0.782291
O O4 0.813783 0.765838 0.018362
O O5 0.750180 0.500000 0.838166
O O6 0.718991 0.750322 0.808027
O O7 0.893628 0.709016 0.688162
O O8 0.258054 0.500000 0.698729
O O9 0.187947 0.284556 0.704097
O O10 0.388803 0.268288 0.525911
O O11 0.829271 0.500000 0.362493
O O12 0.750000 0.750000 0.500000
O O13 0.028008 0.500000 0.572798
#
# Coordination Sequence:
#
# PCOD9209367 Si02
#       5
#     8   8   8   8   8
#     4  10  21  39  62  86 116 152 190 241 295 342
#     4  11  24  39  57  86 121 156 195 239 287 342
#     4  11  23  38  60  89 118 153 194 238 288 345
#     4  10  21  38  62  88 114 148 192 239 288 345
#     4  10  21  39  62  86 116 155 196 238 288 343
#
# _framework density 19.581303999999999
#
# number of rings (size 3 to 8) (size 9 to 14) (size 15 to 20)
#    0.000    1.600    2.000    2.400    0.000    7.200 
#    0.000    4.000    0.000    0.000    0.000    0.000 
#    0.000    0.000    0.000    0.000    0.000    0.000 
#
# Total GULP energy -111817.814772 kJ/mol
# GULP energy per Si atom -5590.890739 kJ/mol
# Density = 1.953674 g / cm^3
# Si number density = 19.581304 Si / 1000 Ang^3
#
#
#
# Elastic Constant Matrix: (Units=GPa)
#
#
# Indices 1 2 3 4 5 6 
#
# 1 93.3679 21.0467 -11.0884 0.0001 1.2107 0.0000
# 2 21.0467 26.2772 10.3008 -0.0009 0.6659 0.0003
# 3 -11.0884 10.3008 30.7086 -0.0004 0.0689 0.0001
# 4 0.0001 -0.0009 -0.0004 33.7155 0.0001 5.1987
# 5 1.2107 0.6659 0.0689 0.0001 24.5583 0.0000
# 6 0.0000 0.0003 0.0001 5.1987 0.0000 27.0486
#
#
#
# Elastic Compliance Matrix: (Units=1/GPa)
#
#
# Indices 1 2 3 4 5 6 
#
# 1 0.016006 -0.017360 0.011603 0.000000 -0.000351 0.000000
# 2 -0.017360 0.062678 -0.027291 0.000002 -0.000767 -0.000001
# 3 0.011603 -0.027291 0.045908 0.000000 0.000039 0.000000
# 4 0.000000 0.000002 0.000000 0.030566 0.000000 -0.005875
# 5 -0.000351 -0.000767 0.000039 0.000000 0.040757 0.000000
# 6 0.000000 -0.000001 0.000000 -0.005875 0.000000 0.038100
#
#
# Mechanical properties :
#
#
# Convention : Reuss Voigt Hill
#
# Bulk Modulus (GPa) = 17.09478 21.20800 19.15139
# Shear Modulus (GPa) = 15.64409 25.73744 20.69076
#
# Velocity S-wave (km/s) = 2.82960 3.62938 3.25416
# Velocity P-wave (km/s) = 4.40734 5.33080 4.89092
#
# Compressibility (1/GPa) = 0.05849739
#
# Stress axis : x y z
#
# Youngs Moduli (GPa) = 62.47621 15.95458 21.78248
#
# Poissons Ratio (x) = 0.27697 -0.25275
# Poissons Ratio (y) = 1.08458 0.59447
# Poissons Ratio (z) = -0.72494 0.43542
#
# Static dielectric constant tensor:
#      x y z
#    x 1.696780 0.000000 0.009860 
#    y 0.000000 1.647340 0.000000 
#    z 0.009860 0.000000 1.660590 
# 
# From -- ./inp_files/151623.got.cif
#   From: 2010.05.17/outbox.cif.g08.bks.cpg/sg12_76_cif.got.tgz:151623.got - 2010.06.03 13:09:07.
