data_PCOD9209766
_publ_section_title
;
Structure prediction by ZEFSAII (Michael W. Deem and Ramdas Pophale) SiO2 
 PCOD9209766
Probable space group: C 2/M
;
_chemical_formula_sum "Si O2"
_cell_formula_units_Z 50
_cell_length_a 15.174326
_cell_length_b 16.806316
_cell_length_c 10.300102
_cell_angle_alpha 90.000000
_cell_angle_beta 76.055176
_cell_angle_gamma 90.000000
_cell_volume 2549.362780
_symmetry_space_group_name_H-M "C 2/M"
_symmetry_group_IT_number 12
_symmetry_cell_setting 'monoclinic'
loop_
_space_group_symop_operation_xyz
x,y,z
-x,y,-z
-x,-y,-z
x,-y,z
1/2+x,1/2+y,z
1/2-x,1/2+y,-z
1/2-x,1/2-y,-z
1/2+x,1/2-y,z
loop_
_atom_site_type_symbol
_atom_site_label
_atom_site_fract_x
_atom_site_fract_y
_atom_site_fract_z
Si Si1 0.265391 0.856737 0.118724
Si Si2 0.425314 0.624400 0.694673
Si Si3 0.257396 0.168272 0.825492
Si Si4 0.454273 0.092600 0.155634
Si Si5 0.052237 0.686432 0.349202
Si Si6 0.000000 0.000000 0.500000
Si Si7 0.565536 0.408745 0.864776
O O1 0.167347 0.888982 0.193928
O O2 0.258963 0.762296 0.148268
O O3 0.347578 0.892780 0.170957
O O4 0.280374 0.867209 0.959594
O O5 0.439999 0.717798 0.665245
O O6 0.427673 0.570414 0.567570
O O7 0.508283 0.593572 0.753484
O O8 0.343833 0.156148 0.701981
O O9 0.161489 0.133359 0.816106
O O10 0.496387 0.149926 0.248879
O O11 0.471463 0.000000 0.181818
O O12 0.500000 0.109891 0.000000
O O13 0.000000 0.666252 0.500000
O O14 0.583338 0.500000 0.896172
O O15 0.500000 0.372387 0.000000
#
# Coordination Sequence:
#
# PCOD9209766 Si02
#       7
#     8   8   8   8   8   2   8
#     4  10  21  39  65  94 120 166 217 275 321 380
#     4  11  23  42  66  91 132 168 215 266 331 399
#     4  10  21  38  64  94 127 164 217 268 327 387
#     4  11  24  41  66  95 127 169 223 274 322 381
#     4  11  24  45  65  93 132 176 217 271 331 394
#     4  12  24  44  62  96 132 182 210 264 332 416
#     4  11  22  36  61  97 128 161 206 273 335 383
#
# _framework density 19.612743999999999
#
# number of rings (size 3 to 8) (size 9 to 14) (size 15 to 20)
#    0.000    1.280    4.800    0.960    1.120    2.880 
#    2.880    2.400    0.000    0.000    0.000    0.000 
#    0.000    0.000    0.000    0.000    0.000    0.000 
#
# Total GULP energy -139374.780652 kJ/mol
# GULP energy per Si atom -5574.991226 kJ/mol
# Density = 1.956810 g / cm^3
# Si number density = 19.612744 Si / 1000 Ang^3
#
#
#
# Elastic Constant Matrix: (Units=GPa)
#
#
# Indices 1 2 3 4 5 6 
#
# 1 137.9134 39.8149 44.5232 0.0000 -25.1420 0.0000
# 2 39.8149 73.7930 39.9143 0.0000 -9.2369 0.0000
# 3 44.5232 39.9143 107.8957 0.0000 -34.9204 0.0000
# 4 0.0000 0.0000 0.0000 27.9494 0.0000 4.6815
# 5 -25.1420 -9.2369 -34.9204 0.0000 31.7541 0.0000
# 6 0.0000 0.0000 0.0000 4.6815 0.0000 3.2147
#
#
#
# Elastic Compliance Matrix: (Units=1/GPa)
#
#
# Indices 1 2 3 4 5 6 
#
# 1 0.009712 -0.004206 -0.000557 0.000000 0.005854 0.000000
# 2 -0.004206 0.018955 -0.007095 0.000000 -0.005619 0.000000
# 3 -0.000557 -0.007095 0.017563 0.000000 0.016810 0.000000
# 4 0.000000 0.000000 0.000000 0.047322 0.000000 -0.068912
# 5 0.005854 -0.005619 0.016810 0.000000 0.052978 0.000000
# 6 0.000000 0.000000 0.000000 -0.068912 0.000000 0.411421
#
#
# Mechanical properties :
#
#
# Convention : Reuss Voigt Hill
#
# Bulk Modulus (GPa) = 44.41743 63.12300 53.77022
# Shear Modulus (GPa) = 8.48648 25.60696 17.04672
#
# Velocity S-wave (km/s) = 2.08241 3.61727 2.95136
# Velocity P-wave (km/s) = 5.33650 7.04987 6.25216
#
# Compressibility (1/GPa) = 0.02251368
#
# Stress axis : x y z
#
# Youngs Moduli (GPa) = 102.96306 52.75604 56.93687
#
# Poissons Ratio (x) = 0.22190 0.03173
# Poissons Ratio (y) = 0.43307 0.40398
# Poissons Ratio (z) = 0.05738 0.37431
#
# Static dielectric constant tensor:
#      x y z
#    x 1.671680 0.000000 -0.002110 
#    y 0.000000 1.705100 0.000000 
#    z -0.002110 0.000000 1.746760 
# 
# From -- ./inp_files/143624.got.cif
#   From: 2010.05.17/outbox.cif.g08.bks.cpg/sg12_72_cif.got.tgz:143624.got - 2010.06.03 13:09:07.
