data_PCOD9209152
_publ_section_title
;
Structure prediction by ZEFSAII (Michael W. Deem and Ramdas Pophale) SiO2 
 PCOD9209152
Probable space group: C 2/M
;
_chemical_formula_sum "Si O2"
_cell_formula_units_Z 64
_cell_length_a 29.715274
_cell_length_b 8.827188
_cell_length_c 17.812844
_cell_angle_alpha 90.000000
_cell_angle_beta 134.103302
_cell_angle_gamma 90.000000
_cell_volume 3355.150106
_symmetry_space_group_name_H-M "C 2/M"
_symmetry_group_IT_number 12
_symmetry_cell_setting 'monoclinic'
loop_
_space_group_symop_operation_xyz
x,y,z
-x,y,-z
-x,-y,-z
x,-y,z
1/2+x,1/2+y,z
1/2-x,1/2+y,-z
1/2-x,1/2-y,-z
1/2+x,1/2-y,z
loop_
_atom_site_type_symbol
_atom_site_label
_atom_site_fract_x
_atom_site_fract_y
_atom_site_fract_z
Si Si1 0.777327 0.682182 0.183686
Si Si2 0.030228 0.818807 0.956312
Si Si3 0.109081 0.681364 0.791281
Si Si4 0.346113 0.316908 0.407162
Si Si5 0.570745 0.674341 0.289365
Si Si6 0.982279 0.825183 0.603164
Si Si7 0.807412 0.321512 0.521697
Si Si8 0.640830 0.181768 0.996032
O O1 0.774114 0.500000 0.184735
O O2 0.826961 0.724390 0.176379
O O3 0.805838 0.749739 0.293106
O O4 0.709223 0.748529 0.087452
O O5 0.979186 0.790585 0.832335
O O6 0.042014 0.000000 0.972927
O O7 0.093523 0.736288 0.005528
O O8 0.000000 0.771917 0.000000
O O9 0.104953 0.500000 0.787255
O O10 0.048304 0.741761 0.677069
O O11 0.113383 0.732837 0.882991
O O12 0.345297 0.500000 0.406094
O O13 0.419760 0.268528 0.488206
O O14 0.318662 0.257906 0.454261
O O15 0.592756 0.500000 0.304915
O O16 0.538222 0.681411 0.333037
O O17 0.629393 0.785319 0.358826
O O18 0.992103 0.000000 0.593357
O O19 0.798823 0.500000 0.501416
O O20 0.750000 0.250000 0.500000
O O21 0.645106 0.000000 0.000445
#
# Coordination Sequence:
#
# PCOD9209152 Si02
#       8
#     8   8   8   8   8   8   8   8
#     4  11  24  41  60  86 121 163 204 248 305 366
#     4  10  21  38  61  88 118 155 198 245 299 359
#     4  10  22  38  60  89 119 156 205 251 300 360
#     4  10  22  41  60  86 121 155 197 249 306 364
#     4   9  18  35  56  82 115 151 194 245 299 355
#     4   9  18  34  60  86 113 152 194 242 298 355
#     4  11  22  37  60  87 116 156 201 246 298 357
#     4  11  23  40  61  87 121 160 203 255 303 353
#
# _framework density 19.075151999999999
#
# number of rings (size 3 to 8) (size 9 to 14) (size 15 to 20)
#    0.000    1.875    1.250    3.375    0.000    6.250 
#    0.000    6.250    0.000    0.000    0.000    0.000 
#    0.000    0.000    0.000    0.000    0.000    0.000 
#
# Total GULP energy -178727.923570 kJ/mol
# GULP energy per Si atom -5585.247612 kJ/mol
# Density = 1.903174 g / cm^3
# Si number density = 19.075152 Si / 1000 Ang^3
#
#
#
# Elastic Constant Matrix: (Units=GPa)
#
#
# Indices 1 2 3 4 5 6 
#
# 1 111.8983 44.0974 39.4053 0.0000 21.4271 0.0000
# 2 44.0974 56.8972 31.5446 0.0000 15.1465 0.0000
# 3 39.4053 31.5446 73.3603 0.0000 12.0872 0.0000
# 4 0.0000 0.0000 0.0000 32.0167 0.0000 7.9020
# 5 21.4271 15.1465 12.0872 0.0000 27.7509 0.0000
# 6 0.0000 0.0000 0.0000 7.9020 0.0000 28.0053
#
#
#
# Elastic Compliance Matrix: (Units=1/GPa)
#
#
# Indices 1 2 3 4 5 6 
#
# 1 0.014186 -0.007682 -0.003450 0.000000 -0.005258 0.000000
# 2 -0.007682 0.029483 -0.007409 0.000000 -0.006933 0.000000
# 3 -0.003450 -0.007409 0.018923 0.000000 -0.001534 0.000000
# 4 0.000000 0.000000 0.000000 0.033572 0.000000 -0.009473
# 5 -0.005258 -0.006933 -0.001534 0.000000 0.044547 0.000000
# 6 0.000000 0.000000 0.000000 -0.009473 0.000000 0.038380
#
#
# Mechanical properties :
#
#
# Convention : Reuss Voigt Hill
#
# Bulk Modulus (GPa) = 39.20108 52.47228 45.83668
# Shear Modulus (GPa) = 22.25430 26.02848 24.14139
#
# Velocity S-wave (km/s) = 3.41935 3.69795 3.56138
# Velocity P-wave (km/s) = 6.01538 6.76765 6.40257
#
# Compressibility (1/GPa) = 0.02550950
#
# Stress axis : x y z
#
# Youngs Moduli (GPa) = 70.49264 33.91842 52.84509
#
# Poissons Ratio (x) = 0.26056 0.18234
# Poissons Ratio (y) = 0.54153 0.39151
# Poissons Ratio (z) = 0.24323 0.25129
#
# Static dielectric constant tensor:
#      x y z
#    x 1.654230 0.000000 -0.007980 
#    y 0.000000 1.649800 0.000000 
#    z -0.007980 0.000000 1.652500 
# 
# From -- ./inp_files/295846.got.cif
#   From: 2010.05.17/outbox.cif.g08.bks.cpg/sg12_148_cif.got.tgz:295846.got - 2010.06.03 13:09:07.
