data_PCOD9209599
_publ_section_title
;
Structure prediction by ZEFSAII (Michael W. Deem and Ramdas Pophale) SiO2 
 PCOD9209599
Probable space group: C 2/M
;
_chemical_formula_sum "Si O2"
_cell_formula_units_Z 56
_cell_length_a 27.393330
_cell_length_b 7.677914
_cell_length_c 12.890033
_cell_angle_alpha 90.000000
_cell_angle_beta 112.584149
_cell_angle_gamma 90.000000
_cell_volume 2503.183558
_symmetry_space_group_name_H-M "C 2/M"
_symmetry_group_IT_number 12
_symmetry_cell_setting 'monoclinic'
loop_
_space_group_symop_operation_xyz
x,y,z
-x,y,-z
-x,-y,-z
x,-y,z
1/2+x,1/2+y,z
1/2-x,1/2+y,-z
1/2-x,1/2-y,-z
1/2+x,1/2-y,z
loop_
_atom_site_type_symbol
_atom_site_label
_atom_site_fract_x
_atom_site_fract_y
_atom_site_fract_z
Si Si1 0.283167 0.708375 0.129331
Si Si2 0.557497 0.703471 0.021671
Si Si3 0.603124 0.294567 0.846107
Si Si4 0.946363 0.710586 0.400872
Si Si5 0.626966 0.199376 0.270579
Si Si6 0.744521 0.298688 0.322318
Si Si7 0.857538 0.286378 0.489395
O O1 0.284143 0.500000 0.146909
O O2 0.342209 0.777415 0.155571
O O3 0.257893 0.789090 0.211278
O O4 0.250000 0.750000 0.000000
O O5 0.548393 0.500000 0.988801
O O6 0.595367 0.712398 0.151944
O O7 0.500000 0.780424 0.000000
O O8 0.585301 0.780094 0.942004
O O9 0.613585 0.500000 0.869602
O O10 0.559593 0.271330 0.721769
O O11 0.946209 0.500000 0.400098
O O12 0.895892 0.768875 0.427701
O O13 0.000000 0.768621 0.500000
O O14 0.689710 0.205052 0.300360
O O15 0.620413 0.271295 0.381377
O O16 0.608686 0.000000 0.256358
O O17 0.737092 0.500000 0.346323
O O18 0.797126 0.229289 0.422077
O O19 0.856469 0.500000 0.488823
#
# Coordination Sequence:
#
# PCOD9209599 Si02
#       7
#     8   8   8   8   8   8   8
#     4  11  22  36  58  88 121 159 202 249 299 356
#     4  10  23  43  63  86 120 161 203 247 301 359
#     4  10  22  40  60  86 120 154 196 248 295 350
#     4  10  21  38  63  91 120 156 196 242 300 359
#     4  11  23  39  61  90 123 157 203 253 301 359
#     4  11  21  38  61  86 121 161 200 244 303 364
#     4   9  20  38  59  89 124 157 195 246 300 357
#
# _framework density 22.371511999999999
#
# number of rings (size 3 to 8) (size 9 to 14) (size 15 to 20)
#    0.000    1.714    1.429    2.571    2.000    2.857 
#    0.000    3.571    0.000    0.000    0.000    0.000 
#    0.000    0.000    0.000    0.000    0.000    0.000 
#
# Total GULP energy -156550.740606 kJ/mol
# GULP energy per Si atom -5591.097879 kJ/mol
# Density = 2.232059 g / cm^3
# Si number density = 22.371512 Si / 1000 Ang^3
#
#
#
# Elastic Constant Matrix: (Units=GPa)
#
#
# Indices 1 2 3 4 5 6 
#
# 1 60.2384 -3.1370 24.8784 0.0000 1.2950 0.0000
# 2 -3.1370 42.7714 -21.4961 0.0000 -4.8061 0.0000
# 3 24.8784 -21.4961 131.5197 0.0000 -10.2619 0.0000
# 4 0.0000 0.0000 0.0000 -20.9037 0.0000 17.0471
# 5 1.2950 -4.8061 -10.2619 0.0000 40.0318 0.0000
# 6 0.0000 0.0000 0.0000 17.0471 0.0000 -36.2174
#
#
#
# Elastic Compliance Matrix: (Units=1/GPa)
#
#
# Indices 1 2 3 4 5 6 
#
# 1 0.018113 -0.000694 -0.003665 0.000000 -0.001609 0.000000
# 2 -0.000694 0.026214 0.004758 0.000000 0.004389 0.000000
# 3 -0.003665 0.004758 0.009315 0.000000 0.003078 0.000000
# 4 0.000000 0.000000 0.000000 -0.077641 0.000000 -0.036545
# 5 -0.001609 0.004389 0.003078 0.000000 0.026348 0.000000
# 6 0.000000 0.000000 0.000000 -0.036545 0.000000 -0.044812
#
#
# Mechanical properties :
#
#
# Convention : Reuss Voigt Hill
#
# Bulk Modulus (GPa) = 18.36933 26.11335 22.24134
# Shear Modulus (GPa) = -199.08776 12.20109 -93.44333
#
# Velocity S-wave (km/s) = -9.44377 2.33788 -6.46990
# Velocity P-wave (km/s) = 10.52066 4.35724 6.77122
#
# Compressibility (1/GPa) = 0.05443856
#
# Stress axis : x y z
#
# Youngs Moduli (GPa) = 55.20934 38.14778 107.35824
#
# Poissons Ratio (x) = 0.02649 0.39350
# Poissons Ratio (y) = 0.03834 -0.51085
# Poissons Ratio (z) = 0.20236 -0.18152
#
# Static dielectric constant tensor:
#      x y z
#    x 1.825220 0.000000 -0.012030 
#    y 0.000000 1.871560 0.000000 
#    z -0.012030 0.000000 1.790740 
# 
# From -- ./inp_files/180676.got.cif
#   From: 2010.05.17/outbox.cif.g08.bks.cpg/sg12_91_cif.got.tgz:180676.got - 2010.06.03 13:09:07.
