data_PCOD9209894
_publ_section_title
;
Structure prediction by ZEFSAII (Michael W. Deem and Ramdas Pophale) SiO2 
 PCOD9209894
Probable space group: C 2/M
;
_chemical_formula_sum "Si O2"
_cell_formula_units_Z 52
_cell_length_a 17.922004
_cell_length_b 14.007036
_cell_length_c 11.861431
_cell_angle_alpha 90.000000
_cell_angle_beta 56.599650
_cell_angle_gamma 90.000000
_cell_volume 2485.853281
_symmetry_space_group_name_H-M "C 2/M"
_symmetry_group_IT_number 12
_symmetry_cell_setting 'monoclinic'
loop_
_space_group_symop_operation_xyz
x,y,z
-x,y,-z
-x,-y,-z
x,-y,z
1/2+x,1/2+y,z
1/2-x,1/2+y,-z
1/2-x,1/2-y,-z
1/2+x,1/2-y,z
loop_
_atom_site_type_symbol
_atom_site_label
_atom_site_fract_x
_atom_site_fract_y
_atom_site_fract_z
Si Si1 0.882609 0.214678 0.476245
Si Si2 0.919361 0.763820 0.708595
Si Si3 0.839848 0.109199 0.165774
Si Si4 0.784224 0.892381 0.957670
Si Si5 0.228125 0.390897 0.487329
Si Si6 0.423548 0.109609 0.873661
Si Si7 0.000000 0.254689 0.000000
O O1 0.890536 0.231044 0.603266
O O2 0.849445 0.312212 0.444056
O O3 0.807037 0.138067 0.507845
O O4 0.982982 0.188713 0.356245
O O5 0.846671 0.816765 0.845026
O O6 0.929848 0.656282 0.744888
O O7 0.773584 0.119807 0.326084
O O8 0.875079 0.000000 0.141080
O O9 0.790308 0.120364 0.087361
O O10 0.918215 0.186219 0.102173
O O11 0.816426 0.000000 0.905611
O O12 0.681524 0.886109 0.007100
O O13 0.199378 0.500000 0.527108
O O14 0.452665 0.000000 0.853036
O O15 0.474666 0.177629 0.917189
#
# Coordination Sequence:
#
# PCOD9209894 Si02
#       7
#     8   8   8   8   8   8   4
#     4  10  24  40  63  91 117 166 218 244 303 362
#     4  11  22  42  64  87 123 163 208 262 296 359
#     4  10  21  38  66  98 123 158 205 255 312 364
#     4  10  22  40  64  93 121 159 207 254 314 372
#     4  10  22  42  63  90 127 161 202 257 305 362
#     4  11  24  40  61  93 127 164 203 248 313 374
#     4  12  22  36  62  94 136 160 188 250 312 376
#
# _framework density 20.918369999999999
#
# number of rings (size 3 to 8) (size 9 to 14) (size 15 to 20)
#    0.000    1.538    1.538    2.769    2.154    3.692 
#    0.000    3.077    0.000    0.000    0.000    0.000 
#    0.000    0.000    0.000    0.000    0.000    0.000 
#
# Total GULP energy -145396.508021 kJ/mol
# GULP energy per Si atom -5592.173385 kJ/mol
# Density = 2.087076 g / cm^3
# Si number density = 20.918370 Si / 1000 Ang^3
#
#
#
# Elastic Constant Matrix: (Units=GPa)
#
#
# Indices 1 2 3 4 5 6 
#
# 1 78.0854 15.8348 0.4268 0.0000 9.4630 0.0000
# 2 15.8348 88.6949 -2.0060 0.0000 8.7971 0.0000
# 3 0.4268 -2.0060 34.7166 0.0000 13.3267 0.0000
# 4 0.0000 0.0000 0.0000 11.0212 0.0000 9.0585
# 5 9.4630 8.7971 13.3267 0.0000 21.4151 0.0000
# 6 0.0000 0.0000 0.0000 9.0585 0.0000 20.1945
#
#
#
# Elastic Compliance Matrix: (Units=1/GPa)
#
#
# Indices 1 2 3 4 5 6 
#
# 1 0.013992 -0.001754 0.002396 0.000000 -0.006953 0.000000
# 2 -0.001754 0.012273 0.003112 0.000000 -0.006203 0.000000
# 3 0.002396 0.003112 0.039222 0.000000 -0.026745 0.000000
# 4 0.000000 0.000000 0.000000 0.143722 0.000000 -0.064469
# 5 -0.006953 -0.006203 -0.026745 0.000000 0.068960 0.000000
# 6 0.000000 0.000000 0.000000 -0.064469 0.000000 0.078437
#
#
# Mechanical properties :
#
#
# Convention : Reuss Voigt Hill
#
# Bulk Modulus (GPa) = 13.69975 25.55644 19.62810
# Shear Modulus (GPa) = 13.38938 23.00891 18.19914
#
# Velocity S-wave (km/s) = 2.53272 3.32013 2.95279
# Velocity P-wave (km/s) = 3.88796 5.19051 4.58572
#
# Compressibility (1/GPa) = 0.07299403
#
# Stress axis : x y z
#
# Youngs Moduli (GPa) = 71.47074 81.47678 25.49610
#
# Poissons Ratio (x) = 0.14292 -0.06108
# Poissons Ratio (y) = 0.12537 -0.07934
# Poissons Ratio (z) = -0.17122 -0.25356
#
# Static dielectric constant tensor:
#      x y z
#    x 1.745730 0.000000 -0.008510 
#    y 0.000000 1.750390 0.000000 
#    z -0.008510 0.000000 1.741760 
# 
# From -- ./inp_files/155915.got.cif
#   From: 2010.05.17/outbox.cif.g08.bks.cpg/sg12_78_cif.got.tgz:155915.got - 2010.06.03 13:09:07.
