data_PCOD9209289
_publ_section_title
;
Structure prediction by ZEFSAII (Michael W. Deem and Ramdas Pophale) SiO2 
 PCOD9209289
Probable space group: C 2/M
;
_chemical_formula_sum "Si O2"
_cell_formula_units_Z 64
_cell_length_a 19.822715
_cell_length_b 9.029487
_cell_length_c 30.355770
_cell_angle_alpha 90.000000
_cell_angle_beta 141.952528
_cell_angle_gamma 90.000000
_cell_volume 3348.648914
_symmetry_space_group_name_H-M "C 2/M"
_symmetry_group_IT_number 12
_symmetry_cell_setting 'monoclinic'
loop_
_space_group_symop_operation_xyz
x,y,z
-x,y,-z
-x,-y,-z
x,-y,z
1/2+x,1/2+y,z
1/2-x,1/2+y,-z
1/2-x,1/2-y,-z
1/2+x,1/2-y,z
loop_
_atom_site_type_symbol
_atom_site_label
_atom_site_fract_x
_atom_site_fract_y
_atom_site_fract_z
Si Si1 0.519308 0.176033 0.215757
Si Si2 0.413106 0.821712 0.491990
Si Si3 0.050722 0.824248 0.395344
Si Si4 0.663202 0.678423 0.364775
Si Si5 0.888802 0.174054 0.822220
Si Si6 0.066018 0.175625 0.989833
Si Si7 0.795448 0.824565 0.119463
Si Si8 0.189960 0.174315 0.768184
O O1 0.577699 0.243274 0.288825
O O2 0.586930 0.232170 0.208576
O O3 0.397189 0.241568 0.149922
O O4 0.516315 0.000000 0.216572
O O5 0.500000 0.770084 0.500000
O O6 0.438285 0.759002 0.553128
O O7 0.287491 0.782951 0.416175
O O8 0.418887 0.000000 0.496833
O O9 0.137734 0.780772 0.402357
O O10 0.931449 0.799081 0.312568
O O11 0.062605 0.000000 0.409344
O O12 0.648521 0.500000 0.353624
O O13 0.777770 0.226610 0.788246
O O14 0.986424 0.196860 0.907532
O O15 0.883731 0.000000 0.808649
O O16 0.090206 0.000000 0.006469
O O17 0.178555 0.263875 0.044021
O O18 0.000000 0.220884 0.000000
O O19 0.804116 0.797598 0.176557
O O20 0.804588 0.000000 0.116493
O O21 0.215663 0.000000 0.774625
#
# Coordination Sequence:
#
# PCOD9209289 Si02
#       8
#     8   8   8   8   8   8   8   8
#     4  12  26  42  63  92 126 161 209 260 307 369
#     4  10  23  40  60  92 127 161 205 253 303 363
#     4  10  21  39  63  89 122 163 205 253 302 361
#     4  10  21  42  65  87 124 166 205 251 308 368
#     4  11  24  41  63  89 125 166 203 254 317 370
#     4  10  21  39  62  92 125 160 209 260 308 367
#     4  11  22  40  66  92 125 165 206 253 312 371
#     4  10  21  38  61  92 125 158 206 257 305 366
#
# _framework density 19.112186000000001
#
# number of rings (size 3 to 8) (size 9 to 14) (size 15 to 20)
#    0.000    1.500    2.500    2.250    1.750    4.000 
#    0.000    0.000    0.000    0.000    0.000    0.000 
#    0.000    0.000    0.000    0.000    0.000    0.000 
#
# Total GULP energy -178893.112971 kJ/mol
# GULP energy per Si atom -5590.409780 kJ/mol
# Density = 1.906869 g / cm^3
# Si number density = 19.112186 Si / 1000 Ang^3
#
#
#
# Elastic Constant Matrix: (Units=GPa)
#
#
# Indices 1 2 3 4 5 6 
#
# 1 90.2502 41.3873 20.1780 0.0000 12.2854 0.0000
# 2 41.3873 43.2841 22.4610 0.0000 8.1508 -0.0001
# 3 20.1780 22.4610 40.4688 0.0000 14.7664 0.0000
# 4 0.0000 0.0000 0.0000 26.3830 0.0000 1.6101
# 5 12.2854 8.1508 14.7664 0.0000 30.2437 0.0000
# 6 0.0000 -0.0001 0.0000 1.6101 0.0000 27.2709
#
#
#
# Elastic Compliance Matrix: (Units=1/GPa)
#
#
# Indices 1 2 3 4 5 6 
#
# 1 0.020151 -0.019745 0.002381 0.000000 -0.004027 0.000000
# 2 -0.019745 0.051796 -0.020364 0.000000 0.004004 0.000000
# 3 0.002381 -0.020364 0.040368 0.000000 -0.015188 0.000000
# 4 0.000000 0.000000 0.000000 0.038040 0.000000 -0.002246
# 5 -0.004027 0.004004 -0.015188 0.000000 0.041037 0.000000
# 6 0.000000 0.000000 0.000000 -0.002246 0.000000 0.036802
#
#
# Mechanical properties :
#
#
# Convention : Reuss Voigt Hill
#
# Bulk Modulus (GPa) = 27.13084 38.00619 32.56852
# Shear Modulus (GPa) = 15.82594 22.77794 19.30194
#
# Velocity S-wave (km/s) = 2.88072 3.45599 3.18138
# Velocity P-wave (km/s) = 5.02902 5.98784 5.52925
#
# Compressibility (1/GPa) = 0.03685842
#
# Stress axis : x y z
#
# Youngs Moduli (GPa) = 49.62545 19.30637 24.77224
#
# Poissons Ratio (x) = 0.38121 -0.05898
# Poissons Ratio (y) = 0.97986 0.50446
# Poissons Ratio (z) = -0.11815 0.39315
#
# Static dielectric constant tensor:
#      x y z
#    x 1.652890 0.000000 0.004610 
#    y 0.000000 1.635470 0.000000 
#    z 0.004610 0.000000 1.637340 
# 
# From -- ./inp_files/378424.got.cif
#   From: 2010.05.17/outbox.cif.g08.bks.cpg/sg12_190_cif.got.tgz:378424.got - 2010.06.03 13:09:07.
