data_PCOD9209208
_publ_section_title
;
Structure prediction by ZEFSAII (Michael W. Deem and Ramdas Pophale) SiO2 
 PCOD9209208
Probable space group: C 2/M
;
_chemical_formula_sum "Si O2"
_cell_formula_units_Z 28
_cell_length_a 13.727423
_cell_length_b 11.294687
_cell_length_c 11.563804
_cell_angle_alpha 90.000000
_cell_angle_beta 133.225722
_cell_angle_gamma 90.000000
_cell_volume 1306.440411
_symmetry_space_group_name_H-M "C 2/M"
_symmetry_group_IT_number 12
_symmetry_cell_setting 'monoclinic'
loop_
_space_group_symop_operation_xyz
x,y,z
-x,y,-z
-x,-y,-z
x,-y,z
1/2+x,1/2+y,z
1/2-x,1/2+y,-z
1/2-x,1/2-y,-z
1/2+x,1/2-y,z
loop_
_atom_site_type_symbol
_atom_site_label
_atom_site_fract_x
_atom_site_fract_y
_atom_site_fract_z
Si Si1 0.835895 0.864531 0.702147
Si Si2 0.835777 0.370323 0.082594
Si Si3 0.500000 0.200324 0.000000
Si Si4 0.046054 0.263929 0.415006
O O1 0.921843 0.831596 0.657950
O O2 0.683168 0.834500 0.547650
O O3 0.851632 0.000000 0.746337
O O4 0.889658 0.781714 0.847805
O O5 0.768099 0.500000 0.036791
O O6 0.931924 0.348672 0.270374
O O7 0.750000 0.250000 0.000000
O O8 0.928699 0.370561 0.044002
O O9 0.000000 0.212621 0.500000
#
# Coordination Sequence:
#
# PCOD9209208 Si02
#       4
#     8   8   4   8
#     4  10  21  38  61  89 120 157 202 248 296 355
#     4  11  24  41  63  90 121 160 203 248 300 357
#     4  10  22  40  62  88 121 156 197 246 303 358
#     4  10  22  39  58  86 121 158 199 245 301 358
#
# _framework density 21.432282000000001
#
# number of rings (size 3 to 8) (size 9 to 14) (size 15 to 20)
#    0.000    1.714    0.000    3.429    0.000   10.857 
#    0.000   10.000    0.000    0.000    0.000    0.000 
#    0.000    0.000    0.000    0.000    0.000    0.000 
#
# Total GULP energy -78240.448595 kJ/mol
# GULP energy per Si atom -5588.603471 kJ/mol
# Density = 2.138350 g / cm^3
# Si number density = 21.432282 Si / 1000 Ang^3
#
#
#
# Elastic Constant Matrix: (Units=GPa)
#
#
# Indices 1 2 3 4 5 6 
#
# 1 53.3706 -0.1661 15.3521 0.0000 -8.9101 0.0000
# 2 -0.1661 134.4303 44.2385 0.0000 26.4308 0.0000
# 3 15.3521 44.2385 121.4190 0.0000 -6.6970 0.0000
# 4 0.0000 0.0000 0.0000 3.6209 0.0000 14.6960
# 5 -8.9101 26.4308 -6.6970 0.0000 34.0821 0.0000
# 6 0.0000 0.0000 0.0000 14.6960 0.0000 -7.3122
#
#
#
# Elastic Compliance Matrix: (Units=1/GPa)
#
#
# Indices 1 2 3 4 5 6 
#
# 1 0.020207 -0.000247 -0.002187 0.000000 0.005045 0.000000
# 2 -0.000247 0.010688 -0.004371 0.000000 -0.009212 0.000000
# 3 -0.002187 -0.004371 0.010373 0.000000 0.004856 0.000000
# 4 0.000000 0.000000 0.000000 0.030159 0.000000 0.060615
# 5 0.005045 -0.009212 0.004856 0.000000 0.038758 0.000000
# 6 0.000000 0.000000 0.000000 0.060615 0.000000 -0.014935
#
#
# Mechanical properties :
#
#
# Convention : Reuss Voigt Hill
#
# Bulk Modulus (GPa) = 36.15542 47.56322 41.85932
# Shear Modulus (GPa) = 42.34388 22.73119 32.53753
#
# Velocity S-wave (km/s) = 4.44971 3.26023 3.90058
# Velocity P-wave (km/s) = 6.58074 6.03429 6.31343
#
# Compressibility (1/GPa) = 0.02765837
#
# Stress axis : x y z
#
# Youngs Moduli (GPa) = 49.48686 93.56137 96.40565
#
# Poissons Ratio (x) = 0.02314 0.21080
# Poissons Ratio (y) = 0.01224 0.42139
# Poissons Ratio (z) = 0.10821 0.40896
#
# Static dielectric constant tensor:
#      x y z
#    x 1.806090 0.000000 0.015240 
#    y 0.000000 1.756190 0.000000 
#    z 0.015240 0.000000 1.737860 
# 
# From -- ./inp_files/139790.got.cif
#   From: 2010.05.17/outbox.cif.g08.bks.cpg/sg12_70_cif.got.tgz:139790.got - 2010.06.03 13:09:07.
