data_PCOD9209165
_publ_section_title
;
Structure prediction by ZEFSAII (Michael W. Deem and Ramdas Pophale) SiO2 
 PCOD9209165
Probable space group: C 2/M
;
_chemical_formula_sum "Si O2"
_cell_formula_units_Z 52
_cell_length_a 13.565487
_cell_length_b 9.554760
_cell_length_c 16.657897
_cell_angle_alpha 90.000000
_cell_angle_beta 97.659790
_cell_angle_gamma 90.000000
_cell_volume 2139.847070
_symmetry_space_group_name_H-M "C 2/M"
_symmetry_group_IT_number 12
_symmetry_cell_setting 'monoclinic'
loop_
_space_group_symop_operation_xyz
x,y,z
-x,y,-z
-x,-y,-z
x,-y,z
1/2+x,1/2+y,z
1/2-x,1/2+y,-z
1/2-x,1/2-y,-z
1/2+x,1/2-y,z
loop_
_atom_site_type_symbol
_atom_site_label
_atom_site_fract_x
_atom_site_fract_y
_atom_site_fract_z
Si Si1 0.280378 0.000000 0.010175
Si Si2 0.505248 0.661207 0.172556
Si Si3 0.131250 0.240095 0.045483
Si Si4 0.722478 0.336900 0.796474
Si Si5 0.939402 0.339078 0.671381
Si Si6 0.829584 0.660475 0.360566
Si Si7 0.115862 0.838487 0.483940
O O1 0.192217 0.881871 0.010178
O O2 0.364676 0.877223 0.007852
O O3 0.536497 0.500000 0.192991
O O4 0.533434 0.693977 0.084018
O O5 0.388476 0.671305 0.178807
O O6 0.554992 0.768852 0.240667
O O7 0.202378 0.281842 0.129384
O O8 0.742143 0.500000 0.783329
O O9 0.722663 0.247788 0.715342
O O10 0.903099 0.500000 0.666678
O O11 0.885629 0.237022 0.602381
O O12 0.054073 0.344402 0.653341
O O13 0.795278 0.500000 0.361403
O O14 0.829939 0.742244 0.444543
O O15 0.000000 0.842785 0.500000
O O16 0.149997 0.000000 0.487083
#
# Coordination Sequence:
#
# PCOD9209165 Si02
#       7
#     4   8   8   8   8   8   8
#     4  10  24  42  66  88 122 150 192 232 300 358
#     4  10  21  38  61  88 119 158 199 238 289 353
#     4  11  22  44  64  91 118 156 186 245 290 356
#     4  10  21  38  61  88 119 158 199 238 289 353
#     4   9  17  28  47  78 114 151 198 247 289 335
#     4   9  17  28  47  78 114 151 198 247 289 335
#     4   9  15  25  43  70 111 158 198 241 290 339
#
# _framework density 24.300802999999998
#
# number of rings (size 3 to 8) (size 9 to 14) (size 15 to 20)
#    0.000    2.308    1.538    1.385    2.154    5.538 
#    0.000    4.615    0.000    0.923    0.000    0.000 
#    0.000    0.000    0.000    0.000    0.000    0.000 
#
# Total GULP energy -145060.075047 kJ/mol
# GULP energy per Si atom -5579.233656 kJ/mol
# Density = 2.424549 g / cm^3
# Si number density = 24.300803 Si / 1000 Ang^3
#
#
#
# Elastic Constant Matrix: (Units=GPa)
#
#
# Indices 1 2 3 4 5 6 
#
# 1 93.8035 18.4293 -3.8270 0.0000 -28.4943 0.0000
# 2 18.4293 245.9184 59.1444 0.0000 -2.2847 0.0000
# 3 -3.8270 59.1444 126.5027 0.0000 -11.8103 0.0000
# 4 0.0000 0.0000 0.0000 95.7528 0.0000 65.6812
# 5 -28.4943 -2.2847 -11.8103 0.0000 49.9218 0.0000
# 6 0.0000 0.0000 0.0000 65.6812 0.0000 93.5174
#
#
#
# Elastic Compliance Matrix: (Units=1/GPa)
#
#
# Indices 1 2 3 4 5 6 
#
# 1 0.013443 -0.001364 0.001795 0.000000 0.008035 0.000000
# 2 -0.001364 0.004725 -0.002355 0.000000 -0.001120 0.000000
# 3 0.001795 -0.002355 0.009352 0.000000 0.003129 0.000000
# 4 0.000000 0.000000 0.000000 0.020152 0.000000 -0.014154
# 5 0.008035 -0.001120 0.003129 0.000000 0.025306 0.000000
# 6 0.000000 0.000000 0.000000 -0.014154 0.000000 0.020634
#
#
# Mechanical properties :
#
#
# Convention : Reuss Voigt Hill
#
# Bulk Modulus (GPa) = 42.24635 68.19089 55.21862
# Shear Modulus (GPa) = 47.46030 74.00360 60.73195
#
# Velocity S-wave (km/s) = 4.42411 5.52442 5.00460
# Velocity P-wave (km/s) = 6.59693 8.29545 7.49446
#
# Compressibility (1/GPa) = 0.02367069
#
# Stress axis : x y z
#
# Youngs Moduli (GPa) = 74.39046 211.66036 106.92551
#
# Poissons Ratio (x) = 0.28879 -0.19190
# Poissons Ratio (y) = 0.10150 0.25178
# Poissons Ratio (z) = -0.13351 0.49840
#
# Static dielectric constant tensor:
#      x y z
#    x 1.956770 0.000000 0.007360 
#    y 0.000000 1.852000 0.000000 
#    z 0.007360 0.000000 1.907950 
# 
# From -- ./inp_files/274401.got.cif
#   From: 2010.05.17/outbox.cif.g08.bks.cpg/sg12_138_cif.got.tgz:274401.got - 2010.06.03 13:09:07.
