data_PCOD9209210
_publ_section_title
;
Structure prediction by ZEFSAII (Michael W. Deem and Ramdas Pophale) SiO2 
 PCOD9209210
Probable space group: C 2/M
;
_chemical_formula_sum "Si O2"
_cell_formula_units_Z 56
_cell_length_a 29.155032
_cell_length_b 17.023332
_cell_length_c 9.991134
_cell_angle_alpha 90.000000
_cell_angle_beta 147.117322
_cell_angle_gamma 90.000000
_cell_volume 2692.211560
_symmetry_space_group_name_H-M "C 2/M"
_symmetry_group_IT_number 12
_symmetry_cell_setting 'monoclinic'
loop_
_space_group_symop_operation_xyz
x,y,z
-x,y,-z
-x,-y,-z
x,-y,z
1/2+x,1/2+y,z
1/2-x,1/2+y,-z
1/2-x,1/2-y,-z
1/2+x,1/2-y,z
loop_
_atom_site_type_symbol
_atom_site_label
_atom_site_fract_x
_atom_site_fract_y
_atom_site_fract_z
Si Si1 0.710862 0.703458 0.527820
Si Si2 0.727517 0.090169 0.108422
Si Si3 0.935251 0.730094 0.642682
Si Si4 0.328445 0.690176 0.175869
Si Si5 0.584541 0.586288 0.795514
Si Si6 0.059170 0.408360 0.522775
Si Si7 0.944270 0.132350 0.979872
O O1 0.750000 0.750000 0.500000
O O2 0.775264 0.655013 0.780318
O O3 0.646930 0.755707 0.463957
O O4 0.648163 0.640912 0.306995
O O5 0.810023 0.116089 0.227441
O O6 0.729567 0.000000 0.160018
O O7 0.652399 0.097388 0.816142
O O8 0.908594 0.767178 0.434817
O O9 0.951648 0.641183 0.639231
O O10 0.012629 0.781525 0.887313
O O11 0.350395 0.655023 0.086056
O O12 0.250000 0.750000 0.000000
O O13 0.500000 0.594176 0.500000
O O14 0.621725 0.500000 0.859718
O O15 0.558813 0.591798 0.885941
O O16 0.040346 0.500000 0.452166
O O17 0.000000 0.381027 0.500000
O O18 0.000000 0.094825 0.000000
#
# Coordination Sequence:
#
# PCOD9209210 Si02
#       7
#     8   8   8   8   8   8   8
#     4  10  24  39  61  87 117 165 216 251 305 381
#     4  10  22  40  60  90 130 162 201 263 325 377
#     4  10  21  38  61  89 120 159 206 262 308 374
#     4  11  21  36  61  95 122 159 201 259 323 372
#     4  11  24  40  63  97 128 161 213 269 321 377
#     4  10  22  37  61  94 124 160 202 257 323 374
#     4  10  23  42  60  89 125 167 209 250 315 383
#
# _framework density 20.800743000000001
#
# number of rings (size 3 to 8) (size 9 to 14) (size 15 to 20)
#    0.000    1.714    2.857    0.429    8.000    0.857 
#    0.000    0.714    0.000    3.857    0.000    0.000 
#    0.000    0.000    0.000    0.000    0.000    0.000 
#
# Total GULP energy -156194.397411 kJ/mol
# GULP energy per Si atom -5578.371336 kJ/mol
# Density = 2.075340 g / cm^3
# Si number density = 20.800743 Si / 1000 Ang^3
#
#
#
# Elastic Constant Matrix: (Units=GPa)
#
#
# Indices 1 2 3 4 5 6 
#
# 1 94.7302 48.0693 -8.2499 0.0000 -24.4110 0.0000
# 2 48.0693 95.1552 6.2679 0.0000 -8.9379 0.0000
# 3 -8.2499 6.2679 37.1485 0.0000 -12.2317 0.0000
# 4 0.0000 0.0000 0.0000 15.8591 0.0000 9.7721
# 5 -24.4110 -8.9379 -12.2317 0.0000 30.7815 0.0000
# 6 0.0000 0.0000 0.0000 9.7721 0.0000 10.0670
#
#
#
# Elastic Compliance Matrix: (Units=1/GPa)
#
#
# Indices 1 2 3 4 5 6 
#
# 1 0.021816 -0.010040 0.012973 0.000000 0.019541 0.000000
# 2 -0.010040 0.015451 -0.006881 0.000000 -0.006210 0.000000
# 3 0.012973 -0.006881 0.038763 0.000000 0.023693 0.000000
# 4 0.000000 0.000000 0.000000 0.156904 0.000000 -0.152307
# 5 0.019541 -0.006210 0.023693 0.000000 0.055596 0.000000
# 6 0.000000 0.000000 0.000000 -0.152307 0.000000 0.247180
#
#
# Mechanical properties :
#
#
# Convention : Reuss Voigt Hill
#
# Bulk Modulus (GPa) = 14.67708 35.46761 25.07235
# Shear Modulus (GPa) = 8.82898 23.40462 16.11680
#
# Velocity S-wave (km/s) = 2.06247 3.35801 2.78658
# Velocity P-wave (km/s) = 3.56974 5.66773 4.73636
#
# Compressibility (1/GPa) = 0.06813343
#
# Stress axis : x y z
#
# Youngs Moduli (GPa) = 45.83735 64.72093 25.79810
#
# Poissons Ratio (x) = 0.64979 -0.33468
# Poissons Ratio (y) = 0.46020 0.17753
# Poissons Ratio (z) = -0.59466 0.44537
#
# Static dielectric constant tensor:
#      x y z
#    x 1.734790 0.000000 0.050790 
#    y 0.000000 1.807870 0.000000 
#    z 0.050790 0.000000 1.748080 
# 
# From -- ./inp_files/106051.got.cif
#   From: 2010.05.17/outbox.cif.g08.bks.cpg/sg12_54_cif.got.tgz:106051.got - 2010.06.03 13:09:07.
