data_PCOD9209593
_publ_section_title
;
Structure prediction by ZEFSAII (Michael W. Deem and Ramdas Pophale) SiO2 
 PCOD9209593
Probable space group: C 2/M
;
_chemical_formula_sum "Si O2"
_cell_formula_units_Z 60
_cell_length_a 19.727561
_cell_length_b 9.354116
_cell_length_c 20.566500
_cell_angle_alpha 90.000000
_cell_angle_beta 130.262103
_cell_angle_gamma 90.000000
_cell_volume 2896.114277
_symmetry_space_group_name_H-M "C 2/M"
_symmetry_group_IT_number 12
_symmetry_cell_setting 'monoclinic'
loop_
_space_group_symop_operation_xyz
x,y,z
-x,y,-z
-x,-y,-z
x,-y,z
1/2+x,1/2+y,z
1/2-x,1/2+y,-z
1/2-x,1/2-y,-z
1/2+x,1/2-y,z
loop_
_atom_site_type_symbol
_atom_site_label
_atom_site_fract_x
_atom_site_fract_y
_atom_site_fract_z
Si Si1 0.064294 0.669159 0.477640
Si Si2 0.262253 0.334229 0.216794
Si Si3 0.998226 0.163805 0.927921
Si Si4 0.738910 0.671324 0.630728
Si Si5 0.288116 0.000000 0.023308
Si Si6 0.803049 0.220613 0.946591
Si Si7 0.916707 0.828679 0.745076
Si Si8 0.033946 0.165017 0.695728
O O1 0.081768 0.500000 0.483199
O O2 0.154931 0.756063 0.544605
O O3 0.013900 0.729509 0.383691
O O4 0.000000 0.692424 0.500000
O O5 0.232898 0.500000 0.195486
O O6 0.268300 0.297064 0.296319
O O7 0.202806 0.233136 0.134967
O O8 0.360677 0.324151 0.247135
O O9 0.944075 0.225828 0.833863
O O10 0.966600 0.000000 0.916615
O O11 0.101779 0.159965 0.972472
O O12 0.000000 0.235802 0.000000
O O13 0.739147 0.500000 0.621800
O O14 0.831077 0.744167 0.666927
O O15 0.272494 0.123360 0.069610
O O16 0.294722 0.123809 0.971520
O O17 0.998146 0.808883 0.745952
O O18 0.899207 0.000000 0.737530
O O19 0.010135 0.000000 0.663999
#
# Coordination Sequence:
#
# PCOD9209593 Si02
#       8
#     8   8   8   8   4   8   8   8
#     4  11  23  42  66  98 129 156 196 257 316 369
#     4  10  21  38  63  90 123 159 211 257 309 365
#     4  10  21  39  63  87 121 169 215 254 306 367
#     4  11  23  42  67  92 123 167 203 250 309 379
#     4  10  24  34  60  86 124 160 206 256 324 360
#     4  11  21  40  57  90 120 165 206 260 309 370
#     4  10  23  41  63  91 127 166 210 260 307 360
#     4  10  22  40  65  93 122 168 209 255 308 372
#
# _framework density 20.717413000000001
#
# number of rings (size 3 to 8) (size 9 to 14) (size 15 to 20)
#    0.000    1.600    2.667    1.600    3.733    1.600 
#    4.800    0.333    0.000    0.000    0.000    0.000 
#    0.000    0.000    0.000    0.000    0.000    0.000 
#
# Total GULP energy -167024.689106 kJ/mol
# GULP energy per Si atom -5567.489637 kJ/mol
# Density = 2.067026 g / cm^3
# Si number density = 20.717413 Si / 1000 Ang^3
#
#
#
# Elastic Constant Matrix: (Units=GPa)
#
#
# Indices 1 2 3 4 5 6 
#
# 1 49.2113 16.7349 -8.0393 0.0000 -0.6884 0.0000
# 2 16.7349 74.7859 17.4807 0.0000 -0.0941 0.0000
# 3 -8.0393 17.4807 66.0885 0.0000 5.1521 0.0000
# 4 0.0000 0.0000 0.0000 15.1917 0.0000 -3.8874
# 5 -0.6884 -0.0941 5.1521 0.0000 32.3144 0.0000
# 6 0.0000 0.0000 0.0000 -3.8874 0.0000 28.6749
#
#
#
# Elastic Compliance Matrix: (Units=1/GPa)
#
#
# Indices 1 2 3 4 5 6 
#
# 1 0.023170 -0.006234 0.004486 0.000000 -0.000240 0.000000
# 2 -0.006234 0.015943 -0.005031 0.000000 0.000716 0.000000
# 3 0.004486 -0.005031 0.017215 0.000000 -0.002664 0.000000
# 4 0.000000 0.000000 0.000000 0.068191 0.000000 0.009245
# 5 -0.000240 0.000716 -0.002664 0.000000 0.031368 0.000000
# 6 0.000000 0.000000 0.000000 0.009245 0.000000 0.036127
#
#
# Mechanical properties :
#
#
# Convention : Reuss Voigt Hill
#
# Bulk Modulus (GPa) = 23.38036 26.93761 25.15899
# Shear Modulus (GPa) = 22.74500 26.16349 24.45425
#
# Velocity S-wave (km/s) = 3.31700 3.55755 3.43938
# Velocity P-wave (km/s) = 5.09705 5.46859 5.28609
#
# Compressibility (1/GPa) = 0.04277094
#
# Stress axis : x y z
#
# Youngs Moduli (GPa) = 43.15949 62.72219 58.08764
#
# Poissons Ratio (x) = 0.39099 -0.26058
# Poissons Ratio (y) = 0.26904 0.29225
# Poissons Ratio (z) = -0.19361 0.31557
#
# Static dielectric constant tensor:
#      x y z
#    x 1.789870 0.000000 -0.010060 
#    y 0.000000 1.702210 0.000000 
#    z -0.010060 0.000000 1.743970 
# 
# From -- ./inp_files/320548.got.cif
#   From: 2010.05.17/outbox.cif.g08.bks.cpg/sg12_161_cif.got.tgz:320548.got - 2010.06.03 13:09:07.
