data_PCOD9209792
_publ_section_title
;
Structure prediction by ZEFSAII (Michael W. Deem and Ramdas Pophale) SiO2 
 PCOD9209792
Probable space group: C 2/M
;
_chemical_formula_sum "Si O2"
_cell_formula_units_Z 48
_cell_length_a 18.545348
_cell_length_b 27.380929
_cell_length_c 5.110900
_cell_angle_alpha 90.000000
_cell_angle_beta 58.696227
_cell_angle_gamma 90.000000
_cell_volume 2217.452382
_symmetry_space_group_name_H-M "C 2/M"
_symmetry_group_IT_number 12
_symmetry_cell_setting 'monoclinic'
loop_
_space_group_symop_operation_xyz
x,y,z
-x,y,-z
-x,-y,-z
x,-y,z
1/2+x,1/2+y,z
1/2-x,1/2+y,-z
1/2-x,1/2-y,-z
1/2+x,1/2-y,z
loop_
_atom_site_type_symbol
_atom_site_label
_atom_site_fract_x
_atom_site_fract_y
_atom_site_fract_z
Si Si1 0.349820 0.260680 0.834513
Si Si2 0.737407 0.056103 0.023736
Si Si3 0.418015 0.448505 0.827656
Si Si4 0.406818 0.344136 0.080755
Si Si5 0.770114 0.378975 0.447075
Si Si6 0.594089 0.797842 0.763381
O O1 0.378495 0.314458 0.874044
O O2 0.396662 0.240781 0.489821
O O3 0.250000 0.250000 0.000000
O O4 0.377393 0.228831 0.028963
O O5 0.837828 0.054089 0.787892
O O6 0.704815 0.093791 0.868107
O O7 0.705252 0.000000 0.073342
O O8 0.733551 0.079730 0.319951
O O9 0.500000 0.448928 0.500000
O O10 0.409922 0.500000 0.992057
O O11 0.420243 0.400728 0.994130
O O12 0.500000 0.326000 0.000000
O O13 0.318176 0.347985 0.411437
O O14 0.841102 0.341356 0.405636
O O15 0.500000 0.815217 0.000000
#
# Coordination Sequence:
#
# PCOD9209792 Si02
#       6
#     8   8   8   8   8   8
#     4  12  26  47  70  97 140 179 228 295 348 409
#     4  10  21  38  64  97 132 176 223 278 347 413
#     4   9  19  35  56  89 134 176 221 270 328 402
#     4  11  24  39  66  98 137 181 234 278 344 408
#     4  11  23  41  68  94 135 177 227 283 343 410
#     4  12  27  47  70  99 133 182 231 286 351 417
#
# _framework density 21.646464000000002
#
# number of rings (size 3 to 8) (size 9 to 14) (size 15 to 20)
#    0.000    1.167    1.667    4.000    2.333    3.667 
#    0.000    0.000    0.000    3.000    0.000    0.000 
#    0.000    0.000    0.000    0.000    0.000    0.000 
#
# Total GULP energy -134059.890482 kJ/mol
# GULP energy per Si atom -5585.828770 kJ/mol
# Density = 2.159720 g / cm^3
# Si number density = 21.646464 Si / 1000 Ang^3
#
#
#
# Elastic Constant Matrix: (Units=GPa)
#
#
# Indices 1 2 3 4 5 6 
#
# 1 142.7353 29.7438 8.0102 0.0000 -34.6375 0.0000
# 2 29.7438 109.1846 28.4790 0.0000 2.3223 0.0000
# 3 8.0102 28.4790 81.6948 0.0000 15.3855 0.0000
# 4 0.0000 0.0000 0.0000 21.4977 0.0000 9.5968
# 5 -34.6375 2.3223 15.3855 0.0000 65.1323 0.0000
# 6 0.0000 0.0000 0.0000 9.5968 0.0000 24.7969
#
#
#
# Elastic Compliance Matrix: (Units=1/GPa)
#
#
# Indices 1 2 3 4 5 6 
#
# 1 0.008729 -0.002218 -0.001017 0.000000 0.004962 0.000000
# 2 -0.002218 0.010654 -0.003352 0.000000 -0.000768 0.000000
# 3 -0.001017 -0.003352 0.014221 0.000000 -0.003781 0.000000
# 4 0.000000 0.000000 0.000000 0.056232 0.000000 -0.021762
# 5 0.004962 -0.000768 -0.003781 0.000000 0.018912 0.000000
# 6 0.000000 0.000000 0.000000 -0.021762 0.000000 0.048750
#
#
# Mechanical properties :
#
#
# Convention : Reuss Voigt Hill
#
# Bulk Modulus (GPa) = 48.94851 51.78676 50.36763
# Shear Modulus (GPa) = 28.17186 40.11081 34.14134
#
# Velocity S-wave (km/s) = 3.61148 4.30931 3.97574
# Velocity P-wave (km/s) = 6.32868 6.98112 6.66289
#
# Compressibility (1/GPa) = 0.02042963
#
# Stress axis : x y z
#
# Youngs Moduli (GPa) = 114.55619 93.86413 70.31935
#
# Poissons Ratio (x) = 0.20822 0.07152
# Poissons Ratio (y) = 0.25412 0.23570
# Poissons Ratio (z) = 0.11651 0.31461
#
# Static dielectric constant tensor:
#      x y z
#    x 1.656480 0.000000 -0.147210 
#    y 0.000000 1.850000 0.000000 
#    z -0.147210 0.000000 1.700070 
# 
# From -- ./inp_files/17326.got.cif
#   From: 2010.05.17/outbox.cif.g08.bks.cpg/sg12_9_cif.got.tgz:17326.got - 2010.06.03 13:09:07.
