data_PCOD9209982
_publ_section_title
;
Structure prediction by ZEFSAII (Michael W. Deem and Ramdas Pophale) SiO2 
 PCOD9209982
Probable space group: C 2/M
;
_chemical_formula_sum "Si O2"
_cell_formula_units_Z 48
_cell_length_a 26.358824
_cell_length_b 13.915902
_cell_length_c 12.668223
_cell_angle_alpha 90.000000
_cell_angle_beta 150.216358
_cell_angle_gamma 90.000000
_cell_volume 2308.182548
_symmetry_space_group_name_H-M "C 2/M"
_symmetry_group_IT_number 12
_symmetry_cell_setting 'monoclinic'
loop_
_space_group_symop_operation_xyz
x,y,z
-x,y,-z
-x,-y,-z
x,-y,z
1/2+x,1/2+y,z
1/2-x,1/2+y,-z
1/2-x,1/2-y,-z
1/2+x,1/2-y,z
loop_
_atom_site_type_symbol
_atom_site_label
_atom_site_fract_x
_atom_site_fract_y
_atom_site_fract_z
Si Si1 0.023921 0.113828 0.166556
Si Si2 0.065045 0.615377 0.015382
Si Si3 0.517618 0.883159 0.698858
Si Si4 0.162539 0.383963 0.786176
Si Si5 0.227218 0.775478 0.579265
Si Si6 0.303588 0.385765 0.865890
O O1 0.119539 0.170929 0.385121
O O2 0.921067 0.129916 0.047751
O O3 0.047574 0.000000 0.211398
O O4 0.000000 0.137157 0.000000
O O5 0.068980 0.500000 0.025617
O O6 0.179158 0.655666 0.219554
O O7 0.013784 0.646491 0.812978
O O8 0.000000 0.646609 0.000000
O O9 0.621525 0.851870 0.826000
O O10 0.423884 0.853978 0.455041
O O11 0.515501 0.000000 0.696027
O O12 0.160534 0.500000 0.788228
O O13 0.269265 0.359985 0.923082
O O14 0.250000 0.750000 0.500000
O O15 0.238247 0.679753 0.668714
O O16 0.282332 0.500000 0.810949
#
# Coordination Sequence:
#
# PCOD9209982 Si02
#       6
#     8   8   8   8   8   8
#     4  10  21  39  58  80 115 160 202 244 292 356
#     4  10  23  38  58  90 123 153 186 241 308 364
#     4   8  15  31  57  87 121 150 190 245 299 346
#     4   8  15  31  57  87 114 155 201 241 283 348
#     4  12  25  36  58  83 120 155 200 240 302 350
#     4  10  22  38  60  85 114 156 206 246 287 351
#
# _framework density 20.795583000000001
#
# number of rings (size 3 to 8) (size 9 to 14) (size 15 to 20)
#    0.000    2.333    1.667    1.500    4.667    0.667 
#    0.000    0.833    0.000    1.500    0.000    5.833 
#    0.000    0.000    0.000    0.000    0.000    0.000 
#
# Total GULP energy -133984.127821 kJ/mol
# GULP energy per Si atom -5582.671993 kJ/mol
# Density = 2.074825 g / cm^3
# Si number density = 20.795583 Si / 1000 Ang^3
#
#
#
# Elastic Constant Matrix: (Units=GPa)
#
#
# Indices 1 2 3 4 5 6 
#
# 1 167.5500 20.7894 38.9758 0.0000 11.4411 0.0000
# 2 20.7894 98.3305 37.4971 0.0000 15.8783 0.0000
# 3 38.9758 37.4971 87.6047 0.0000 17.0765 0.0000
# 4 0.0000 0.0000 0.0000 30.7520 0.0000 4.2886
# 5 11.4411 15.8783 17.0765 0.0000 36.5070 0.0000
# 6 0.0000 0.0000 0.0000 4.2886 0.0000 0.0372
#
#
#
# Elastic Compliance Matrix: (Units=1/GPa)
#
#
# Indices 1 2 3 4 5 6 
#
# 1 0.006683 -0.000260 -0.002724 0.000000 -0.000707 0.000000
# 2 -0.000260 0.012500 -0.004611 0.000000 -0.003198 0.000000
# 3 -0.002724 -0.004611 0.015452 0.000000 -0.004369 0.000000
# 4 0.000000 0.000000 0.000000 -0.002154 0.000000 0.248625
# 5 -0.000707 -0.003198 -0.004369 0.000000 0.031048 0.000000
# 6 0.000000 0.000000 0.000000 0.248625 0.000000 -1.782803
#
#
# Mechanical properties :
#
#
# Convention : Reuss Voigt Hill
#
# Bulk Modulus (GPa) = 51.42941 60.88999 56.15970
# Shear Modulus (GPa) = -2.94533 30.54076 13.79771
#
# Velocity S-wave (km/s) = -1.19139 3.83641 2.57863
# Velocity P-wave (km/s) = 4.78457 6.99771 5.99416
#
# Compressibility (1/GPa) = 0.01944413
#
# Stress axis : x y z
#
# Youngs Moduli (GPa) = 149.64304 80.00275 64.71620
#
# Poissons Ratio (x) = 0.02079 0.17629
# Poissons Ratio (y) = 0.03889 0.29841
# Poissons Ratio (z) = 0.40763 0.36890
#
# Static dielectric constant tensor:
#      x y z
#    x 1.805230 0.000000 0.031300 
#    y 0.000000 1.760290 0.000000 
#    z 0.031300 0.000000 1.751700 
# 
# From -- ./inp_files/183879.got.cif
#   From: 2010.05.17/outbox.cif.g08.bks.cpg/sg12_92_cif.got.tgz:183879.got - 2010.06.03 13:09:07.
