data_PCOD9209678
_publ_section_title
;
Structure prediction by ZEFSAII (Michael W. Deem and Ramdas Pophale) SiO2 
 PCOD9209678
Probable space group: C 2/M
;
_chemical_formula_sum "Si O2"
_cell_formula_units_Z 44
_cell_length_a 15.810122
_cell_length_b 13.193241
_cell_length_c 9.996804
_cell_angle_alpha 90.000000
_cell_angle_beta 126.090879
_cell_angle_gamma 90.000000
_cell_volume 1685.016757
_symmetry_space_group_name_H-M "C 2/M"
_symmetry_group_IT_number 12
_symmetry_cell_setting 'monoclinic'
loop_
_space_group_symop_operation_xyz
x,y,z
-x,y,-z
-x,-y,-z
x,-y,z
1/2+x,1/2+y,z
1/2-x,1/2+y,-z
1/2-x,1/2-y,-z
1/2+x,1/2-y,z
loop_
_atom_site_type_symbol
_atom_site_label
_atom_site_fract_x
_atom_site_fract_y
_atom_site_fract_z
Si Si1 0.045249 0.117747 0.245416
Si Si2 0.862846 0.617530 0.529990
Si Si3 0.808434 0.119626 0.089843
Si Si4 0.785118 0.827732 0.375878
Si Si5 0.000000 0.730452 0.000000
Si Si6 0.412316 0.878872 0.168528
O O1 0.118480 0.132215 0.441928
O O2 0.926177 0.152227 0.165652
O O3 0.049193 0.000000 0.210266
O O4 0.073971 0.192049 0.151079
O O5 0.847971 0.500000 0.473708
O O6 0.802208 0.706256 0.397312
O O7 0.815516 0.630635 0.636165
O O8 0.986282 0.643775 0.646684
O O9 0.791442 0.133463 0.232135
O O10 0.811973 0.000000 0.064778
O O11 0.705657 0.158526 0.914985
O O12 0.940825 0.659742 0.048142
O O13 0.408834 0.000000 0.164959
#
# Coordination Sequence:
#
# PCOD9209678 Si02
#       6
#     8   8   8   8   4   8
#     4  11  24  41  61  92 130 167 209 257 315 377
#     4  10  21  38  63  95 129 164 210 260 307 371
#     4  10  22  40  67  95 124 163 210 263 311 369
#     4  11  21  38  63  96 126 163 210 256 318 370
#     4  12  22  38  60  94 122 168 204 256 314 368
#     4  10  21  40  65  94 123 160 213 261 306 366
#
# _framework density 26.112501999999999
#
# number of rings (size 3 to 8) (size 9 to 14) (size 15 to 20)
#    0.000    1.455    1.818    3.818    2.545    5.091 
#    0.000    0.000    0.000    4.364    0.000    0.000 
#    0.000    0.000    0.000    0.000    0.000    0.000 
#
# Total GULP energy -123217.011309 kJ/mol
# GULP energy per Si atom -5600.773241 kJ/mol
# Density = 2.605307 g / cm^3
# Si number density = 26.112502 Si / 1000 Ang^3
#
#
#
# Elastic Constant Matrix: (Units=GPa)
#
#
# Indices 1 2 3 4 5 6 
#
# 1 75.4319 10.0151 66.0094 0.0000 25.6210 0.0000
# 2 10.0151 98.7520 12.8289 0.0000 24.2738 0.0000
# 3 66.0094 12.8289 116.5114 0.0000 34.1347 0.0000
# 4 0.0000 0.0000 0.0000 26.6703 0.0000 9.0039
# 5 25.6210 24.2738 34.1347 0.0000 56.2836 0.0000
# 6 0.0000 0.0000 0.0000 9.0039 0.0000 32.3774
#
#
#
# Elastic Compliance Matrix: (Units=1/GPa)
#
#
# Indices 1 2 3 4 5 6 
#
# 1 0.026895 0.000011 -0.014168 0.000000 -0.003656 0.000000
# 2 0.000011 0.011332 0.000218 0.000000 -0.005025 0.000000
# 3 -0.014168 0.000218 0.017905 0.000000 -0.004504 0.000000
# 4 0.000000 0.000000 0.000000 0.041380 0.000000 -0.011507
# 5 -0.003656 -0.005025 -0.004504 0.000000 0.024330 0.000000
# 6 0.000000 0.000000 0.000000 -0.011507 0.000000 0.034086
#
#
# Mechanical properties :
#
#
# Convention : Reuss Voigt Hill
#
# Bulk Modulus (GPa) = 35.39165 52.04468 43.71817
# Shear Modulus (GPa) = 25.87694 36.52239 31.19966
#
# Velocity S-wave (km/s) = 3.15140 3.74392 3.46036
# Velocity P-wave (km/s) = 5.17926 6.21799 5.72224
#
# Compressibility (1/GPa) = 0.02825525
#
# Stress axis : x y z
#
# Youngs Moduli (GPa) = 37.18162 88.24584 55.85046
#
# Poissons Ratio (x) = -0.00101 0.79127
# Poissons Ratio (y) = -0.00043 -0.01217
# Poissons Ratio (z) = 0.52678 -0.01922
#
# Static dielectric constant tensor:
#      x y z
#    x 2.113630 0.000000 0.071570 
#    y 0.000000 2.050690 0.000000 
#    z 0.071570 0.000000 2.056490 
# 
# From -- ./inp_files/156302.got.cif
#   From: 2010.05.17/outbox.cif.g08.bks.cpg/sg12_79_cif.got.tgz:156302.got - 2010.06.03 13:09:07.
