data_PCOD9209154
_publ_section_title
;
Structure prediction by ZEFSAII (Michael W. Deem and Ramdas Pophale) SiO2 
 PCOD9209154
Probable space group: C 2/M
;
_chemical_formula_sum "Si O2"
_cell_formula_units_Z 40
_cell_length_a 11.687885
_cell_length_b 27.080449
_cell_length_c 8.277051
_cell_angle_alpha 90.000000
_cell_angle_beta 49.897613
_cell_angle_gamma 90.000000
_cell_volume 2003.867479
_symmetry_space_group_name_H-M "C 2/M"
_symmetry_group_IT_number 12
_symmetry_cell_setting 'monoclinic'
loop_
_space_group_symop_operation_xyz
x,y,z
-x,y,-z
-x,-y,-z
x,-y,z
1/2+x,1/2+y,z
1/2-x,1/2+y,-z
1/2-x,1/2-y,-z
1/2+x,1/2-y,z
loop_
_atom_site_type_symbol
_atom_site_label
_atom_site_fract_x
_atom_site_fract_y
_atom_site_fract_z
Si Si1 0.333842 0.302959 0.721501
Si Si2 0.830364 0.401466 0.100093
Si Si3 0.329847 0.894950 0.715646
Si Si4 0.320087 0.500000 0.635740
Si Si5 0.677052 0.000000 0.404446
Si Si6 0.828721 0.796349 0.116762
O O1 0.500000 0.307339 0.500000
O O2 0.239802 0.351638 0.760925
O O3 0.263133 0.250646 0.736070
O O4 0.325212 0.300627 0.924876
O O5 0.738445 0.449870 0.229788
O O6 0.831575 0.396550 0.906725
O O7 0.000000 0.407732 0.000000
O O8 0.500000 0.889359 0.500000
O O9 0.267289 0.947457 0.712696
O O10 0.234726 0.847205 0.752965
O O11 0.500000 0.500000 0.500000
O O12 0.234821 0.500000 0.537651
O O13 0.500000 0.000000 0.500000
O O14 0.000000 0.788809 0.000000
#
# Coordination Sequence:
#
# PCOD9209154 Si02
#       6
#     8   8   8   4   4   8
#     4  10  22  39  59  87 120 154 197 248 301 357
#     4  11  22  39  63  90 122 159 204 250 301 366
#     4  10  21  38  61  88 118 156 201 248 300 359
#     4  12  26  42  63  93 127 161 205 257 310 362
#     4  10  21  40  64  87 118 161 205 245 301 364
#     4  10  22  38  58  86 118 155 197 243 298 363
#
# _framework density 19.961400000000001
#
# number of rings (size 3 to 8) (size 9 to 14) (size 15 to 20)
#    0.000    1.600    0.000    5.100    0.000    7.200 
#    0.000    1.500    0.000    0.000    0.000    0.000 
#    0.000    0.000    0.000    0.000    0.000    0.000 
#
# Total GULP energy -111597.324880 kJ/mol
# GULP energy per Si atom -5579.866244 kJ/mol
# Density = 1.991597 g / cm^3
# Si number density = 19.961400 Si / 1000 Ang^3
#
#
#
# Elastic Constant Matrix: (Units=GPa)
#
#
# Indices 1 2 3 4 5 6 
#
# 1 77.4359 36.2873 29.9907 0.0000 -21.0631 0.0000
# 2 36.2873 188.2657 70.2085 0.0000 -29.5702 0.0000
# 3 29.9907 70.2085 97.4747 0.0000 -26.1615 0.0000
# 4 0.0000 0.0000 0.0000 66.6073 0.0000 -120.5352
# 5 -21.0631 -29.5702 -26.1615 0.0000 38.9735 0.0000
# 6 0.0000 0.0000 0.0000 -120.5352 0.0000 548.4440
#
#
#
# Elastic Compliance Matrix: (Units=1/GPa)
#
#
# Indices 1 2 3 4 5 6 
#
# 1 0.016099 -0.001239 -0.002413 0.000000 0.006141 0.000000
# 2 -0.001239 0.007553 -0.004514 0.000000 0.002031 0.000000
# 3 -0.002413 -0.004514 0.015837 0.000000 0.005902 0.000000
# 4 0.000000 0.000000 0.000000 0.024927 0.000000 0.005478
# 5 0.006141 0.002031 0.005902 0.000000 0.034480 0.000000
# 6 0.000000 0.000000 0.000000 0.005478 0.000000 0.003027
#
#
# Mechanical properties :
#
#
# Convention : Reuss Voigt Hill
#
# Bulk Modulus (GPa) = 43.18173 70.68325 56.93249
# Shear Modulus (GPa) = 39.69083 145.91762 92.80422
#
# Velocity S-wave (km/s) = 4.46396 8.55912 6.82589
# Velocity P-wave (km/s) = 6.94614 11.53971 9.52402
#
# Compressibility (1/GPa) = 0.02315794
#
# Stress axis : x y z
#
# Youngs Moduli (GPa) = 62.11420 132.40327 63.14477
#
# Poissons Ratio (x) = 0.16400 0.15237
# Poissons Ratio (y) = 0.07694 0.28502
# Poissons Ratio (z) = 0.14988 0.59764
#
# Static dielectric constant tensor:
#      x y z
#    x 1.726220 0.000000 0.024420 
#    y 0.000000 1.712690 0.000000 
#    z 0.024420 0.000000 1.682910 
# 
# From -- ./inp_files/52356.got.cif
#   From: 2010.05.17/outbox.cif.g08.bks.cpg/sg12_27_cif.got.tgz:52356.got - 2010.06.03 13:09:07.
