data_PCOD9209967
_publ_section_title
;
Structure prediction by ZEFSAII (Michael W. Deem and Ramdas Pophale) SiO2 
 PCOD9209967
Probable space group: C 2/M
;
_chemical_formula_sum "Si O2"
_cell_formula_units_Z 44
_cell_length_a 9.590348
_cell_length_b 11.553905
_cell_length_c 16.917008
_cell_angle_alpha 90.000000
_cell_angle_beta 104.362417
_cell_angle_gamma 90.000000
_cell_volume 1815.919832
_symmetry_space_group_name_H-M "C 2/M"
_symmetry_group_IT_number 12
_symmetry_cell_setting 'monoclinic'
loop_
_space_group_symop_operation_xyz
x,y,z
-x,y,-z
-x,-y,-z
x,-y,z
1/2+x,1/2+y,z
1/2-x,1/2+y,-z
1/2-x,1/2-y,-z
1/2+x,1/2-y,z
loop_
_atom_site_type_symbol
_atom_site_label
_atom_site_fract_x
_atom_site_fract_y
_atom_site_fract_z
Si Si1 0.756623 0.500000 0.004469
Si Si2 0.855686 0.760397 0.653598
Si Si3 0.357336 0.000000 0.181163
Si Si4 0.276191 0.500000 0.681855
Si Si5 0.439858 0.500000 0.166512
Si Si6 0.500000 0.189779 0.000000
Si Si7 0.508327 0.748450 0.828579
Si Si8 0.088188 0.870718 0.593432
O O1 0.733428 0.500000 0.095581
O O2 0.859808 0.391214 0.995163
O O3 0.615896 0.500000 0.931516
O O4 0.786107 0.886490 0.630889
O O5 0.753104 0.663610 0.605173
O O6 0.873592 0.750507 0.750181
O O7 0.012567 0.775298 0.638022
O O8 0.429636 0.123155 0.172456
O O9 0.352452 0.000000 0.275056
O O10 0.405136 0.500000 0.766874
O O11 0.398042 0.634405 0.182038
O O12 0.473338 0.261157 0.916423
O O13 0.000000 0.870372 0.500000
O O14 0.079048 0.000000 0.627628
#
# Coordination Sequence:
#
# PCOD9209967 Si02
#       8
#     4   8   4   4   4   4   8   8
#     4   9  20  37  56  78 120 168 224 283 341 386
#     4  11  23  45  70 104 143 181 225 293 344 416
#     4  10  21  39  57  86 124 174 235 284 329 419
#     4  10  22  39  60  92 134 165 219 286 335 405
#     4  10  23  35  53  84 115 164 208 278 343 385
#     4   9  20  39  56  86 122 168 228 282 318 408
#     4  10  23  39  62  91 129 174 231 276 339 403
#     4  11  25  47  75 106 142 181 229 285 351 428
#
# _framework density 24.230143000000002
#
# number of rings (size 3 to 8) (size 9 to 14) (size 15 to 20)
#    0.000    1.818    0.909    2.182    1.273   12.364 
#    1.636    0.455    0.000    0.000    0.000    0.000 
#    0.000    0.000    0.000    0.000    0.000    0.000 
#
# Total GULP energy -122611.120175 kJ/mol
# GULP energy per Si atom -5573.232735 kJ/mol
# Density = 2.417499 g / cm^3
# Si number density = 24.230143 Si / 1000 Ang^3
#
#
#
# Elastic Constant Matrix: (Units=GPa)
#
#
# Indices 1 2 3 4 5 6 
#
# 1 35.4661 33.7323 2.2551 0.0000 2.2112 0.0000
# 2 33.7323 147.3109 18.8961 0.0000 14.0889 0.0000
# 3 2.2551 18.8961 69.0388 0.0000 14.2635 0.0000
# 4 0.0000 0.0000 0.0000 22.1667 0.0000 -9.1961
# 5 2.2112 14.0889 14.2635 0.0000 34.5025 0.0000
# 6 0.0000 0.0000 0.0000 -9.1961 0.0000 12.9042
#
#
#
# Elastic Compliance Matrix: (Units=1/GPa)
#
#
# Indices 1 2 3 4 5 6 
#
# 1 0.036147 -0.008474 0.000987 0.000000 0.000736 0.000000
# 2 -0.008474 0.009189 -0.001722 0.000000 -0.002497 0.000000
# 3 0.000987 -0.001722 0.016173 0.000000 -0.006046 0.000000
# 4 0.000000 0.000000 0.000000 0.064048 0.000000 0.045643
# 5 0.000736 -0.002497 -0.006046 0.000000 0.032455 0.000000
# 6 0.000000 0.000000 0.000000 0.045643 0.000000 0.110021
#
#
# Mechanical properties :
#
#
# Convention : Reuss Voigt Hill
#
# Bulk Modulus (GPa) = 23.20774 40.17587 31.69180
# Shear Modulus (GPa) = 16.62147 27.04352 21.83249
#
# Velocity S-wave (km/s) = 2.62197 3.34445 3.00500
# Velocity P-wave (km/s) = 4.33187 5.61522 5.01477
#
# Compressibility (1/GPa) = 0.04308908
#
# Stress axis : x y z
#
# Youngs Moduli (GPa) = 27.66465 108.83087 61.83205
#
# Poissons Ratio (x) = 0.92225 -0.06101
# Poissons Ratio (y) = 0.23444 0.10649
# Poissons Ratio (z) = -0.02730 0.18743
#
# Static dielectric constant tensor:
#      x y z
#    x 1.997410 0.000000 -0.057560 
#    y 0.000000 1.986230 0.000000 
#    z -0.057560 0.000000 1.910290 
# 
# From -- ./inp_files/261870.got.cif
#   From: 2010.05.17/outbox.cif.g08.bks.cpg/sg12_131_cif.got.tgz:261870.got - 2010.06.03 13:09:07.
