data_PCOD9209278
_publ_section_title
;
Structure prediction by ZEFSAII (Michael W. Deem and Ramdas Pophale) SiO2 
 PCOD9209278
Probable space group: C 2/M
;
_chemical_formula_sum "Si O2"
_cell_formula_units_Z 56
_cell_length_a 8.437621
_cell_length_b 18.984090
_cell_length_c 26.833726
_cell_angle_alpha 90.000000
_cell_angle_beta 43.477289
_cell_angle_gamma 90.000000
_cell_volume 2957.477887
_symmetry_space_group_name_H-M "C 2/M"
_symmetry_group_IT_number 12
_symmetry_cell_setting 'monoclinic'
loop_
_space_group_symop_operation_xyz
x,y,z
-x,y,-z
-x,-y,-z
x,-y,z
1/2+x,1/2+y,z
1/2-x,1/2+y,-z
1/2-x,1/2-y,-z
1/2+x,1/2-y,z
loop_
_atom_site_type_symbol
_atom_site_label
_atom_site_fract_x
_atom_site_fract_y
_atom_site_fract_z
Si Si1 0.139675 0.174521 0.804066
Si Si2 0.697483 0.915110 0.322666
Si Si3 0.832771 0.914461 0.582619
Si Si4 0.025186 0.915107 0.337502
Si Si5 0.229626 0.676826 0.975375
Si Si6 0.470723 0.167793 0.205099
Si Si7 0.275595 0.078876 0.935453
O O1 0.148913 0.122116 0.754992
O O2 0.381210 0.168909 0.778152
O O3 0.096746 0.253410 0.794522
O O4 0.941026 0.161095 0.890314
O O5 0.431492 0.894096 0.371007
O O6 0.800985 0.897331 0.354225
O O7 0.710233 0.000000 0.314922
O O8 0.940933 0.893521 0.611844
O O9 0.000000 0.890950 0.500000
O O10 0.831015 0.000000 0.583524
O O11 0.244014 0.879301 0.261678
O O12 0.042695 0.000000 0.332532
O O13 0.250000 0.750000 0.000000
O O14 0.170070 0.611127 0.023813
O O15 0.000000 0.691404 0.000000
O O16 0.631018 0.132198 0.126916
O O17 0.362761 0.000000 0.906678
O O18 0.000000 0.077587 0.000000
#
# Coordination Sequence:
#
# PCOD9209278 Si02
#       7
#     8   8   8   8   8   8   8
#     4  12  24  38  63  88 118 165 208 261 312 369
#     4  10  22  39  60  95 130 161 209 257 307 373
#     4   9  18  36  64  96 128 164 204 249 305 368
#     4  10  21  38  61  91 129 164 200 256 309 360
#     4  12  24  41  61  84 120 157 209 263 315 367
#     4  12  23  39  60  88 117 159 211 256 309 376
#     4  11  24  41  60  85 116 156 202 254 317 372
#
# _framework density 18.935054000000001
#
# number of rings (size 3 to 8) (size 9 to 14) (size 15 to 20)
#    0.000    1.143    4.286    2.571    2.000    2.000 
#    0.000    2.857    0.000    0.857    0.000    0.000 
#    0.000    0.000    0.000    0.000    0.000    0.000 
#
# Total GULP energy -156104.451113 kJ/mol
# GULP energy per Si atom -5575.158968 kJ/mol
# Density = 1.889196 g / cm^3
# Si number density = 18.935054 Si / 1000 Ang^3
#
#
#
# Elastic Constant Matrix: (Units=GPa)
#
#
# Indices 1 2 3 4 5 6 
#
# 1 169.4014 36.9639 48.5800 -0.0067 9.9701 -0.0057
# 2 36.9639 43.2263 25.9621 -0.1258 0.9676 0.0109
# 3 48.5800 25.9621 102.8620 -0.3597 12.3227 0.0329
# 4 -0.0067 -0.1258 -0.3597 -248.6829 0.1178 25.6764
# 5 9.9701 0.9676 12.3227 0.1178 24.0939 -0.0046
# 6 -0.0057 0.0109 0.0329 25.6764 -0.0046 21.4486
#
#
#
# Elastic Compliance Matrix: (Units=1/GPa)
#
#
# Indices 1 2 3 4 5 6 
#
# 1 0.007786 -0.005358 -0.002093 0.000005 -0.001936 0.000002
# 2 -0.005358 0.031106 -0.005791 -0.000005 0.003930 -0.000001
# 3 -0.002093 -0.005791 0.012826 -0.000018 -0.005461 0.000003
# 4 0.000005 -0.000005 -0.000018 -0.003579 0.000026 0.004284
# 5 -0.001936 0.003930 -0.005461 0.000026 0.044941 -0.000015
# 6 0.000002 -0.000001 0.000003 0.004284 -0.000015 0.041494
#
#
# Mechanical properties :
#
#
# Convention : Reuss Voigt Hill
#
# Bulk Modulus (GPa) = 39.62926 59.83350 49.73138
# Shear Modulus (GPa) = 29.50352 -27.02916 1.23718
#
# Velocity S-wave (km/s) = 3.95161 -3.78228 0.80920
# Velocity P-wave (km/s) = 6.46489 3.54876 5.21481
#
# Compressibility (1/GPa) = 0.02523388
#
# Stress axis : x y z
#
# Youngs Moduli (GPa) = 128.42802 32.14796 77.96529
#
# Poissons Ratio (x) = 0.17225 0.16319
# Poissons Ratio (y) = 0.68810 0.45153
# Poissons Ratio (z) = 0.26881 0.18618
#
# Static dielectric constant tensor:
#      x y z
#    x 1.685610 0.000000 0.005290 
#    y 0.000000 1.857310 0.000000 
#    z 0.005290 0.000000 1.645370 
# 
# From -- ./inp_files/356672.got.cif
#   From: 2010.05.17/outbox.cif.g08.bks.cpg/sg12_179_cif.got.tgz:356672.got - 2010.06.03 13:09:07.
