data_PCOD9209812
_publ_section_title
;
Structure prediction by ZEFSAII (Michael W. Deem and Ramdas Pophale) SiO2 
 PCOD9209812
Probable space group: C 2/M
;
_chemical_formula_sum "Si O2"
_cell_formula_units_Z 58
_cell_length_a 19.855046
_cell_length_b 16.332079
_cell_length_c 9.283999
_cell_angle_alpha 90.000000
_cell_angle_beta 71.004417
_cell_angle_gamma 90.000000
_cell_volume 2846.617053
_symmetry_space_group_name_H-M "C 2/M"
_symmetry_group_IT_number 12
_symmetry_cell_setting 'monoclinic'
loop_
_space_group_symop_operation_xyz
x,y,z
-x,y,-z
-x,-y,-z
x,-y,z
1/2+x,1/2+y,z
1/2-x,1/2+y,-z
1/2-x,1/2-y,-z
1/2+x,1/2-y,z
loop_
_atom_site_type_symbol
_atom_site_label
_atom_site_fract_x
_atom_site_fract_y
_atom_site_fract_z
Si Si1 0.500000 0.500000 0.000000
Si Si2 0.396528 0.245157 0.209922
Si Si3 0.146484 0.404905 0.608839
Si Si4 0.516724 0.306763 0.330665
Si Si5 0.894752 0.865001 0.977801
Si Si6 0.367263 0.816233 0.679427
Si Si7 0.232828 0.598040 0.015858
Si Si8 0.749005 0.810965 0.698792
O O1 0.437853 0.429396 0.040865
O O2 0.400159 0.149310 0.246779
O O3 0.446039 0.292050 0.287047
O O4 0.311577 0.258089 0.288659
O O5 0.409825 0.276851 0.040312
O O6 0.136709 0.500000 0.632895
O O7 0.128492 0.374609 0.461518
O O8 0.227629 0.377468 0.593315
O O9 0.500000 0.339551 0.500000
O O10 0.569248 0.364361 0.203769
O O11 0.557611 0.220382 0.323535
O O12 0.812014 0.885335 0.022918
O O13 0.324036 0.860222 0.837380
O O14 0.322809 0.735702 0.658646
O O15 0.221833 0.500000 0.008718
O O16 0.232746 0.644933 0.862598
#
# Coordination Sequence:
#
# PCOD9209812 Si02
#       8
#     2   8   8   8   8   8   8   8
#     4  12  24  40  70 100 134 172 206 268 326 390
#     4  10  22  41  66  88 125 178 213 261 327 394
#     4  10  22  40  62  94 130 167 212 273 325 384
#     4  12  23  42  65  97 127 174 219 265 325 395
#     4  12  23  41  69  94 134 172 219 263 326 400
#     4  12  22  39  67  95 125 171 224 265 327 402
#     4  12  23  38  63  99 128 163 216 280 324 370
#     4  10  21  38  65  89 121 171 216 264 319 392
#
# _framework density 20.375062
#
# number of rings (size 3 to 8) (size 9 to 14) (size 15 to 20)
#    0.828    0.000    6.207    2.483    0.000    0.000 
#    0.000    2.414    0.000    2.483    0.000    0.000 
#    0.000    0.000    0.000    0.000    0.000    0.000 
#
# Total GULP energy -161453.314042 kJ/mol
# GULP energy per Si atom -5567.355657 kJ/mol
# Density = 2.032869 g / cm^3
# Si number density = 20.375062 Si / 1000 Ang^3
#
#
#
# Elastic Constant Matrix: (Units=GPa)
#
#
# Indices 1 2 3 4 5 6 
#
# 1 83.5885 -5.5542 4.9885 0.0000 13.6762 0.0000
# 2 -5.5542 90.0691 29.2577 0.0000 0.5354 0.0000
# 3 4.9885 29.2577 75.9458 0.0000 1.5860 0.0000
# 4 0.0000 0.0000 0.0000 9.7322 0.0000 -8.6045
# 5 13.6762 0.5354 1.5860 0.0000 24.4497 0.0000
# 6 0.0000 0.0000 0.0000 -8.6045 0.0000 14.5489
#
#
#
# Elastic Compliance Matrix: (Units=1/GPa)
#
#
# Indices 1 2 3 4 5 6 
#
# 1 0.013331 0.001258 -0.001205 0.000000 -0.007406 0.000000
# 2 0.001258 0.012809 -0.005004 0.000000 -0.000659 0.000000
# 3 -0.001205 -0.005004 0.015178 0.000000 -0.000201 0.000000
# 4 0.000000 0.000000 0.000000 0.215364 0.000000 0.127371
# 5 -0.007406 -0.000659 -0.000201 0.000000 0.045070 0.000000
# 6 0.000000 0.000000 0.000000 0.127371 0.000000 0.144063
#
#
# Mechanical properties :
#
#
# Convention : Reuss Voigt Hill
#
# Bulk Modulus (GPa) = 31.83149 34.10973 32.97061
# Shear Modulus (GPa) = 10.72522 24.47358 17.59940
#
# Velocity S-wave (km/s) = 2.29681 3.46953 2.94219
# Velocity P-wave (km/s) = 4.76345 5.72952 5.26867
#
# Compressibility (1/GPa) = 0.03141543
#
# Stress axis : x y z
#
# Youngs Moduli (GPa) = 75.01546 78.06767 65.88372
#
# Poissons Ratio (x) = -0.09818 0.07942
# Poissons Ratio (y) = -0.09434 0.32965
# Poissons Ratio (z) = 0.09043 0.39062
#
# Static dielectric constant tensor:
#      x y z
#    x 1.748950 0.000000 0.005400 
#    y 0.000000 1.708790 0.000000 
#    z 0.005400 0.000000 1.764480 
# 
# From -- ./inp_files/87895.got.cif
#   From: 2010.05.17/outbox.cif.g08.bks.cpg/sg12_44_cif.got.tgz:87895.got - 2010.06.03 13:09:07.
