data_PCOD9209968
_publ_section_title
;
Structure prediction by ZEFSAII (Michael W. Deem and Ramdas Pophale) SiO2 
 PCOD9209968
Probable space group: C 2/M
;
_chemical_formula_sum "Si O2"
_cell_formula_units_Z 36
_cell_length_a 11.069425
_cell_length_b 26.755427
_cell_length_c 5.132996
_cell_angle_alpha 90.000000
_cell_angle_beta 74.423303
_cell_angle_gamma 90.000000
_cell_volume 1464.389978
_symmetry_space_group_name_H-M "C 2/M"
_symmetry_group_IT_number 12
_symmetry_cell_setting 'monoclinic'
loop_
_space_group_symop_operation_xyz
x,y,z
-x,y,-z
-x,-y,-z
x,-y,z
1/2+x,1/2+y,z
1/2-x,1/2+y,-z
1/2-x,1/2-y,-z
1/2+x,1/2-y,z
loop_
_atom_site_type_symbol
_atom_site_label
_atom_site_fract_x
_atom_site_fract_y
_atom_site_fract_z
Si Si1 0.000000 0.870919 0.500000
Si Si2 0.306486 0.706716 0.791007
Si Si3 0.136757 0.307042 0.481923
Si Si4 0.723417 0.601997 0.727909
Si Si5 0.142697 0.560020 0.851418
O O1 0.912220 0.835355 0.731181
O O2 0.910386 0.899701 0.345750
O O3 0.181616 0.681959 0.746027
O O4 0.363926 0.747079 0.545458
O O5 0.250000 0.750000 0.000000
O O6 0.239930 0.339010 0.262752
O O7 0.000000 0.325701 0.500000
O O8 0.816434 0.579105 0.456563
O O9 0.757894 0.576842 0.981854
O O10 0.143852 0.500000 0.846007
O O11 0.000000 0.576144 0.000000
#
# Coordination Sequence:
#
# PCOD9209968 Si02
#       5
#     4   8   8   8   8
#     4  10  24  48  63 104 148 188 243 286 348 424
#     4  10  22  41  61  89 131 187 233 283 340 401
#     4  10  21  39  57  93 129 169 234 281 335 404
#     4  11  25  44  70 106 142 186 234 292 359 427
#     4  11  24  47  77 108 139 177 233 301 364 428
#
# _framework density 24.583615999999999
#
# number of rings (size 3 to 8) (size 9 to 14) (size 15 to 20)
#    0.000    1.556    1.111    2.667    6.222    3.556 
#    8.000    3.333    0.000    0.000    0.000    0.000 
#    0.000    0.000    0.000    0.000    0.000    0.000 
#
# Total GULP energy -100369.477937 kJ/mol
# GULP energy per Si atom -5576.082108 kJ/mol
# Density = 2.452766 g / cm^3
# Si number density = 24.583616 Si / 1000 Ang^3
#
#
#
# Elastic Constant Matrix: (Units=GPa)
#
#
# Indices 1 2 3 4 5 6 
#
# 1 158.6676 8.9048 15.1152 0.0000 5.3712 0.0000
# 2 8.9048 85.0695 0.5652 0.0000 1.1408 0.0000
# 3 15.1152 0.5652 77.5608 0.0000 1.7340 0.0000
# 4 0.0000 0.0000 0.0000 26.2406 0.0000 6.7889
# 5 5.3712 1.1408 1.7340 0.0000 32.5066 0.0000
# 6 0.0000 0.0000 0.0000 6.7889 0.0000 34.4564
#
#
#
# Elastic Compliance Matrix: (Units=1/GPa)
#
#
# Indices 1 2 3 4 5 6 
#
# 1 0.006491 -0.000658 -0.001238 0.000000 -0.000983 0.000000
# 2 -0.000658 0.011828 0.000049 0.000000 -0.000309 0.000000
# 3 -0.001238 0.000049 0.013145 0.000000 -0.000498 0.000000
# 4 0.000000 0.000000 0.000000 0.040156 0.000000 -0.007912
# 5 -0.000983 -0.000309 -0.000498 0.000000 0.030963 0.000000
# 6 0.000000 0.000000 0.000000 -0.007912 0.000000 0.030581
#
#
# Mechanical properties :
#
#
# Convention : Reuss Voigt Hill
#
# Bulk Modulus (GPa) = 36.01108 41.16317 38.58712
# Shear Modulus (GPa) = 34.21980 38.42156 36.32068
#
# Velocity S-wave (km/s) = 3.73497 3.95763 3.84791
# Velocity P-wave (km/s) = 5.76890 6.13713 5.95586
#
# Compressibility (1/GPa) = 0.02776923
#
# Stress axis : x y z
#
# Youngs Moduli (GPa) = 154.06779 84.54664 76.07347
#
# Poissons Ratio (x) = 0.05563 0.09419
# Poissons Ratio (y) = 0.10138 -0.00372
# Poissons Ratio (z) = 0.19076 -0.00414
#
# Static dielectric constant tensor:
#      x y z
#    x 1.997380 0.000000 0.012200 
#    y 0.000000 -2.056050 0.000000 
#    z 0.012200 0.000000 1.801900 
# 
# From -- ./inp_files/7947.got.cif
#   From: 2010.05.17/outbox.cif.g08.bks.cpg/sg12_4_cif.got.tgz:7947.got - 2010.06.03 13:09:07.
