data_PCOD9209873
_publ_section_title
;
Structure prediction by ZEFSAII (Michael W. Deem and Ramdas Pophale) SiO2 
 PCOD9209873
Probable space group: C 2/M
;
_chemical_formula_sum "Si O2"
_cell_formula_units_Z 40
_cell_length_a 9.460007
_cell_length_b 22.939642
_cell_length_c 9.769700
_cell_angle_alpha 90.000000
_cell_angle_beta 51.377925
_cell_angle_gamma 90.000000
_cell_volume 1656.403173
_symmetry_space_group_name_H-M "C 2/M"
_symmetry_group_IT_number 12
_symmetry_cell_setting 'monoclinic'
loop_
_space_group_symop_operation_xyz
x,y,z
-x,y,-z
-x,-y,-z
x,-y,z
1/2+x,1/2+y,z
1/2-x,1/2+y,-z
1/2-x,1/2-y,-z
1/2+x,1/2-y,z
loop_
_atom_site_type_symbol
_atom_site_label
_atom_site_fract_x
_atom_site_fract_y
_atom_site_fract_z
Si Si1 0.938377 0.114199 0.895048
Si Si2 0.282416 0.313911 0.295325
Si Si3 0.311219 0.372412 0.674878
Si Si4 0.304659 0.000000 0.277482
Si Si5 0.970142 0.292093 0.291491
Si Si6 0.283104 0.000000 0.959852
O O1 0.823576 0.131615 0.831837
O O2 0.144110 0.121208 0.712193
O O3 0.836530 0.056168 0.004289
O O4 0.000000 0.145418 0.000000
O O5 0.146586 0.294728 0.498470
O O6 0.445563 0.268459 0.226598
O O7 0.170260 0.306170 0.223153
O O8 0.500000 0.347127 0.500000
O O9 0.293116 0.439043 0.633768
O O10 0.130463 0.339706 0.739534
O O11 0.304915 0.000000 0.111276
O O12 0.508828 0.000000 0.214002
#
# Coordination Sequence:
#
# PCOD9209873 Si02
#       6
#     8   8   8   4   8   4
#     4  11  23  40  64  92 129 169 212 260 312 378
#     4  10  21  39  62  95 126 166 210 254 321 379
#     4  11  21  40  66  94 127 165 213 264 315 369
#     4   9  21  38  65  94 121 169 215 259 312 381
#     4  10  21  38  66  91 128 163 205 266 319 374
#     4   9  21  42  63  85 131 177 207 253 321 376
#
# _framework density 24.148710000000001
#
# number of rings (size 3 to 8) (size 9 to 14) (size 15 to 20)
#    0.000    1.800    2.000    1.800    5.600    0.000 
#    0.000    4.000    0.000    3.600    0.000    0.000 
#    0.000    0.000    0.000    0.000    0.000    0.000 
#
# Total GULP energy -111337.599908 kJ/mol
# GULP energy per Si atom -5566.879995 kJ/mol
# Density = 2.409375 g / cm^3
# Si number density = 24.148710 Si / 1000 Ang^3
#
#
#
# Elastic Constant Matrix: (Units=GPa)
#
#
# Indices 1 2 3 4 5 6 
#
# 1 264.6678 89.6213 48.8248 0.0000 -0.8922 0.0000
# 2 89.6213 103.0626 14.8583 0.0000 -10.1700 0.0000
# 3 48.8248 14.8583 33.1046 0.0000 1.5955 0.0000
# 4 0.0000 0.0000 0.0000 16.5301 0.0000 -10.8824
# 5 -0.8922 -10.1700 1.5955 0.0000 55.2546 0.0000
# 6 0.0000 0.0000 0.0000 -10.8824 0.0000 43.2761
#
#
#
# Elastic Compliance Matrix: (Units=1/GPa)
#
#
# Indices 1 2 3 4 5 6 
#
# 1 0.006909 -0.004916 -0.007956 0.000000 -0.000564 0.000000
# 2 -0.004916 0.014109 0.000798 0.000000 0.002494 0.000000
# 3 -0.007956 0.000798 0.041640 0.000000 -0.001184 0.000000
# 4 0.000000 0.000000 0.000000 0.072498 0.000000 0.018231
# 5 -0.000564 0.002494 -0.001184 0.000000 0.018582 0.000000
# 6 0.000000 0.000000 0.000000 0.018231 0.000000 0.027692
#
#
# Mechanical properties :
#
#
# Convention : Reuss Voigt Hill
#
# Bulk Modulus (GPa) = 25.96737 78.60487 52.28612
# Shear Modulus (GPa) = 22.89229 39.51421 31.20325
#
# Velocity S-wave (km/s) = 3.08226 4.04949 3.59852
# Velocity P-wave (km/s) = 4.84185 7.38143 6.24216
#
# Compressibility (1/GPa) = 0.03850987
#
# Stress axis : x y z
#
# Youngs Moduli (GPa) = 144.74100 70.87587 24.01545
#
# Poissons Ratio (x) = 0.34846 0.19106
# Poissons Ratio (y) = 0.71162 -0.01917
# Poissons Ratio (z) = 1.15154 -0.05658
#
# Static dielectric constant tensor:
#      x y z
#    x 1.905860 0.000000 -0.032180 
#    y 0.000000 2.066440 0.000000 
#    z -0.032180 0.000000 2.410980 
# 
# From -- ./inp_files/121695.got.cif
#   From: 2010.05.17/outbox.cif.g08.bks.cpg/sg12_61_cif.got.tgz:121695.got - 2010.06.03 13:09:07.
