data_PCOD9209950
_publ_section_title
;
Structure prediction by ZEFSAII (Michael W. Deem and Ramdas Pophale) SiO2 
 PCOD9209950
Probable space group: C 2/M
;
_chemical_formula_sum "Si O2"
_cell_formula_units_Z 28
_cell_length_a 18.216184
_cell_length_b 14.460163
_cell_length_c 6.072531
_cell_angle_alpha 90.000000
_cell_angle_beta 51.291191
_cell_angle_gamma 90.000000
_cell_volume 1248.190904
_symmetry_space_group_name_H-M "C 2/M"
_symmetry_group_IT_number 12
_symmetry_cell_setting 'monoclinic'
loop_
_space_group_symop_operation_xyz
x,y,z
-x,y,-z
-x,-y,-z
x,-y,z
1/2+x,1/2+y,z
1/2-x,1/2+y,-z
1/2-x,1/2-y,-z
1/2+x,1/2-y,z
loop_
_atom_site_type_symbol
_atom_site_label
_atom_site_fract_x
_atom_site_fract_y
_atom_site_fract_z
Si Si1 0.806121 0.192376 0.090919
Si Si2 0.889807 0.000000 0.750802
Si Si3 0.209282 0.500000 0.913737
Si Si4 0.634053 0.845469 0.742743
Si Si5 0.075571 0.500000 0.548453
O O1 0.723105 0.171833 0.418144
O O2 0.882629 0.252391 0.087210
O O3 0.750000 0.250000 0.000000
O O4 0.856328 0.097451 0.921852
O O5 0.000000 0.000000 0.500000
O O6 0.820710 0.000000 0.669244
O O7 0.165657 0.413398 0.876344
O O8 0.174911 0.500000 0.230929
O O9 0.568153 0.907055 0.707393
O O10 0.000000 0.500000 0.500000
#
# Coordination Sequence:
#
# PCOD9209950 Si02
#       5
#     8   4   4   8   4
#     4  11  21  43  72  97 139 194 241 296 359 442
#     4  12  24  43  71 105 146 189 233 304 360 432
#     4  11  20  44  69  99 143 182 234 301 367 424
#     4  10  21  38  75  97 134 196 236 289 381 421
#     4  11  22  40  68 108 141 179 241 313 359 430
#
# _framework density 22.432465000000001
#
# number of rings (size 3 to 8) (size 9 to 14) (size 15 to 20)
#    0.000    1.143    5.714    0.857    0.000    2.286 
#    0.000   11.429    6.286    0.000    0.000    1.000 
#    0.000    0.000    0.000    0.000    0.000    0.000 
#
# Total GULP energy -77997.095153 kJ/mol
# GULP energy per Si atom -5571.221082 kJ/mol
# Density = 2.238141 g / cm^3
# Si number density = 22.432465 Si / 1000 Ang^3
#
#
#
# Elastic Constant Matrix: (Units=GPa)
#
#
# Indices 1 2 3 4 5 6 
#
# 1 145.4481 72.1195 30.9921 0.0000 2.6383 0.0000
# 2 72.1195 185.5811 57.5464 0.0000 16.1127 0.0000
# 3 30.9921 57.5464 112.0151 0.0000 0.1226 0.0000
# 4 0.0000 0.0000 0.0000 18.8106 0.0000 -15.5295
# 5 2.6383 16.1127 0.1226 0.0000 37.2471 0.0000
# 6 0.0000 0.0000 0.0000 -15.5295 0.0000 -19.3480
#
#
#
# Elastic Compliance Matrix: (Units=1/GPa)
#
#
# Indices 1 2 3 4 5 6 
#
# 1 0.008595 -0.003175 -0.000748 0.000000 0.000767 0.000000
# 2 -0.003175 0.007880 -0.003166 0.000000 -0.003173 0.000000
# 3 -0.000748 -0.003166 0.010759 0.000000 0.001387 0.000000
# 4 0.000000 0.000000 0.000000 0.031974 0.000000 -0.025664
# 5 0.000767 -0.003173 0.001387 0.000000 0.028162 0.000000
# 6 0.000000 0.000000 0.000000 -0.025664 0.000000 -0.031086
#
#
# Mechanical properties :
#
#
# Convention : Reuss Voigt Hill
#
# Bulk Modulus (GPa) = 76.59193 84.92894 80.76043
# Shear Modulus (GPa) = 66.83298 26.16767 46.50032
#
# Velocity S-wave (km/s) = 5.46422 3.41912 4.55785
# Velocity P-wave (km/s) = 8.60393 7.31637 7.98614
#
# Compressibility (1/GPa) = 0.01305621
#
# Stress axis : x y z
#
# Youngs Moduli (GPa) = 116.34719 126.91059 92.94255
#
# Poissons Ratio (x) = 0.40292 0.06951
# Poissons Ratio (y) = 0.36938 0.29427
# Poissons Ratio (z) = 0.08701 0.40182
#
# Static dielectric constant tensor:
#      x y z
#    x 1.961810 0.000000 -0.051480 
#    y 0.000000 1.938250 0.000000 
#    z -0.051480 0.000000 1.858930 
# 
# From -- ./inp_files/14259.got.cif
#   From: 2010.05.17/outbox.cif.g08.bks.cpg/sg12_8_cif.got.tgz:14259.got - 2010.06.03 13:09:07.
