data_PCOD9209057
_publ_section_title
;
Structure prediction by ZEFSAII (Michael W. Deem and Ramdas Pophale) SiO2 
 PCOD9209057
Probable space group: C 2/M
;
_chemical_formula_sum "Si O2"
_cell_formula_units_Z 44
_cell_length_a 9.916732
_cell_length_b 15.930039
_cell_length_c 31.136587
_cell_angle_alpha 90.000000
_cell_angle_beta 28.683890
_cell_angle_gamma 90.000000
_cell_volume 2360.895216
_symmetry_space_group_name_H-M "C 2/M"
_symmetry_group_IT_number 12
_symmetry_cell_setting 'monoclinic'
loop_
_space_group_symop_operation_xyz
x,y,z
-x,y,-z
-x,-y,-z
x,-y,z
1/2+x,1/2+y,z
1/2-x,1/2+y,-z
1/2-x,1/2-y,-z
1/2+x,1/2-y,z
loop_
_atom_site_type_symbol
_atom_site_label
_atom_site_fract_x
_atom_site_fract_y
_atom_site_fract_z
Si Si1 0.500000 0.273764 0.000000
Si Si2 0.305173 0.402777 0.289703
Si Si3 0.203355 0.727204 0.562377
Si Si4 0.625672 0.661677 0.281431
Si Si5 0.272380 0.904266 0.858994
Si Si6 0.054727 0.825178 0.836949
O O1 0.595840 0.335802 0.935169
O O2 0.764843 0.214023 0.934827
O O3 0.242987 0.500000 0.300047
O O4 0.471232 0.390613 0.287822
O O5 0.479301 0.366583 0.200435
O O6 0.025777 0.346352 0.370053
O O7 0.500000 0.702774 0.500000
O O8 0.250000 0.750000 0.500000
O O9 0.079023 0.806242 0.623788
O O10 0.735844 0.746645 0.227633
O O11 0.900691 0.616409 0.223467
O O12 0.190445 0.888890 0.832577
O O13 0.212127 0.000000 0.888522
#
# Coordination Sequence:
#
# PCOD9209057 Si02
#       6
#     4   8   8   8   8   8
#     4  10  21  38  61  84 118 158 200 236 289 360
#     4  11  23  40  60  89 122 153 192 247 300 343
#     4  11  22  40  65  89 117 158 202 239 286 353
#     4  10  21  39  62  83 118 160 196 231 295 361
#     4  11  22  37  59  89 118 150 196 251 294 338
#     4  10  21  39  61  85 115 158 201 238 289 356
#
# _framework density 18.636997999999998
#
# number of rings (size 3 to 8) (size 9 to 14) (size 15 to 20)
#    0.000    1.455    1.818    5.182    2.545    1.818 
#    0.000    8.182    0.000    0.000    0.000    0.000 
#    0.000    0.000    0.000    0.000    0.000    0.000 
#
# Total GULP energy -122866.834878 kJ/mol
# GULP energy per Si atom -5584.856131 kJ/mol
# Density = 1.859458 g / cm^3
# Si number density = 18.636998 Si / 1000 Ang^3
#
#
#
# Elastic Constant Matrix: (Units=GPa)
#
#
# Indices 1 2 3 4 5 6 
#
# 1 119.0110 37.9188 52.0626 0.0195 -7.0032 -0.0185
# 2 37.9188 96.6237 26.2715 0.0019 -8.9027 0.0029
# 3 52.0626 26.2715 97.7655 0.0145 -10.4693 -0.0183
# 4 0.0195 0.0019 0.0145 -3.4097 -0.0011 16.7185
# 5 -7.0032 -8.9027 -10.4693 -0.0011 16.6269 0.0002
# 6 -0.0185 0.0029 -0.0183 16.7185 0.0002 -8.9648
#
#
#
# Elastic Compliance Matrix: (Units=1/GPa)
#
#
# Indices 1 2 3 4 5 6 
#
# 1 0.011780 -0.003158 -0.005441 0.000003 -0.000155 -0.000008
# 2 -0.003158 0.012318 -0.001142 -0.000006 0.004547 0.000002
# 3 -0.005441 -0.001142 0.014071 0.000007 0.005957 -0.000004
# 4 0.000003 -0.000006 0.000007 0.036012 0.000004 0.067158
# 5 -0.000155 0.004547 0.005957 0.000004 0.066263 0.000000
# 6 -0.000008 0.000002 -0.000004 0.067158 0.000000 0.013697
#
#
# Mechanical properties :
#
#
# Convention : Reuss Voigt Hill
#
# Bulk Modulus (GPa) = 53.51151 60.65620 57.08386
# Shear Modulus (GPa) = 27.80087 13.99364 20.89725
#
# Velocity S-wave (km/s) = 3.86645 2.74314 3.35218
# Velocity P-wave (km/s) = 6.97907 6.53069 6.75860
#
# Compressibility (1/GPa) = 0.01868757
#
# Stress axis : x y z
#
# Youngs Moduli (GPa) = 84.89085 81.18228 71.06943
#
# Poissons Ratio (x) = 0.25635 0.38670
# Poissons Ratio (y) = 0.26806 0.08113
# Poissons Ratio (z) = 0.46190 0.09268
#
# Static dielectric constant tensor:
#      x y z
#    x 1.649810 0.000000 0.003120 
#    y 0.000000 1.609030 -0.000010 
#    z 0.003120 -0.000010 1.652030 
# 
# From -- ./inp_files/372760.got.cif
#   From: 2010.05.17/outbox.cif.g08.bks.cpg/sg12_187_cif.got.tgz:372760.got - 2010.06.03 13:09:07.
