data_PCOD9209845
_publ_section_title
;
Structure prediction by ZEFSAII (Michael W. Deem and Ramdas Pophale) SiO2 
 PCOD9209845
Probable space group: C 2/M
;
_chemical_formula_sum "Si O2"
_cell_formula_units_Z 46
_cell_length_a 14.906703
_cell_length_b 21.755448
_cell_length_c 6.866594
_cell_angle_alpha 90.000000
_cell_angle_beta 53.372754
_cell_angle_gamma 90.000000
_cell_volume 1787.122672
_symmetry_space_group_name_H-M "C 2/M"
_symmetry_group_IT_number 12
_symmetry_cell_setting 'monoclinic'
loop_
_space_group_symop_operation_xyz
x,y,z
-x,y,-z
-x,-y,-z
x,-y,z
1/2+x,1/2+y,z
1/2-x,1/2+y,-z
1/2-x,1/2-y,-z
1/2+x,1/2-y,z
loop_
_atom_site_type_symbol
_atom_site_label
_atom_site_fract_x
_atom_site_fract_y
_atom_site_fract_z
Si Si1 0.797982 0.340314 0.148805
Si Si2 0.098689 0.928229 0.093485
Si Si3 0.500000 0.246370 0.000000
Si Si4 0.500000 0.000000 0.500000
Si Si5 0.851619 0.070688 0.503302
Si Si6 0.646071 0.750201 0.484506
Si Si7 0.166244 0.386399 0.311458
O O1 0.754933 0.385215 0.375168
O O2 0.691118 0.294589 0.256592
O O3 0.899938 0.297513 0.068728
O O4 0.839793 0.379855 0.915473
O O5 0.123513 0.924776 0.294771
O O6 0.967559 0.913126 0.248082
O O7 0.109303 0.000000 0.029685
O O8 0.198033 0.894577 0.849471
O O9 0.543705 0.276432 0.743471
O O10 0.589763 0.945014 0.456142
O O11 0.824726 0.000000 0.497214
O O12 0.750000 0.750000 0.500000
O O13 0.627462 0.819759 0.440177
#
# Coordination Sequence:
#
# PCOD9209845 Si02
#       7
#     8   8   4   2   8   8   8
#     4  10  21  38  65  95 131 174 231 286 350 419
#     4   8  14  29  51  85 120 157 206 265 330 392
#     4  10  22  42  59  86 131 178 224 284 356 414
#     4  12  24  36  64 108 156 184 218 286 352 438
#     4   8  15  28  53  85 125 161 211 269 337 408
#     4  10  23  42  63  86 128 178 233 286 342 416
#     4  11  21  38  65 100 134 179 225 281 353 415
#
# _framework density 25.739697
#
# number of rings (size 3 to 8) (size 9 to 14) (size 15 to 20)
#    0.000    2.435    0.870    2.609    1.217    2.783 
#    0.000    7.391   11.478    0.000    0.000   10.348 
#    0.000    0.000    0.000    0.000    0.000    0.000 
#
# Total GULP energy -128189.065433 kJ/mol
# GULP energy per Si atom -5573.437628 kJ/mol
# Density = 2.568111 g / cm^3
# Si number density = 25.739697 Si / 1000 Ang^3
#
#
#
# Elastic Constant Matrix: (Units=GPa)
#
#
# Indices 1 2 3 4 5 6 
#
# 1 45.1672 1.3388 8.7133 0.0000 -17.6715 0.0000
# 2 1.3388 178.8023 38.7912 0.0000 -14.4057 0.0000
# 3 8.7133 38.7912 144.4960 0.0000 -11.2356 0.0000
# 4 0.0000 0.0000 0.0000 -1.0003 0.0000 -14.5731
# 5 -17.6715 -14.4057 -11.2356 0.0000 36.7111 0.0000
# 6 0.0000 0.0000 0.0000 -14.5731 0.0000 29.6310
#
#
#
# Elastic Compliance Matrix: (Units=1/GPa)
#
#
# Indices 1 2 3 4 5 6 
#
# 1 0.027522 0.001069 -0.000905 0.000000 0.013391 0.000000
# 2 0.001069 0.006111 -0.001515 0.000000 0.002449 0.000000
# 3 -0.000905 -0.001515 0.007480 0.000000 0.001259 0.000000
# 4 0.000000 0.000000 0.000000 -0.122435 0.000000 -0.060216
# 5 0.013391 0.002449 0.001259 0.000000 0.035032 0.000000
# 6 0.000000 0.000000 0.000000 -0.060216 0.000000 0.004133
#
#
# Mechanical properties :
#
#
# Convention : Reuss Voigt Hill
#
# Bulk Modulus (GPa) = 26.03429 51.79469 38.91449
# Shear Modulus (GPa) = -187.59908 34.37649 -76.61129
#
# Velocity S-wave (km/s) = -8.54643 3.65847 -5.46155
# Velocity P-wave (km/s) = 9.34088 6.16539 4.96186
#
# Compressibility (1/GPa) = 0.03841088
#
# Stress axis : x y z
#
# Youngs Moduli (GPa) = 36.33458 163.64882 133.69538
#
# Poissons Ratio (x) = -0.17498 0.12105
# Poissons Ratio (y) = -0.03885 0.20248
# Poissons Ratio (z) = 0.03290 0.24785
#
# Static dielectric constant tensor:
#      x y z
#    x 2.183740 0.000000 0.094280 
#    y 0.000000 2.102340 0.000000 
#    z 0.094280 0.000000 2.095900 
# 
# From -- ./inp_files/89450.got.cif
#   From: 2010.05.17/outbox.cif.g08.bks.cpg/sg12_45_cif.got.tgz:89450.got - 2010.06.03 13:09:07.
