data_PCOD9209790
_publ_section_title
;
Structure prediction by ZEFSAII (Michael W. Deem and Ramdas Pophale) SiO2 
 PCOD9209790
Probable space group: C 2/M
;
_chemical_formula_sum "Si O2"
_cell_formula_units_Z 64
_cell_length_a 14.701198
_cell_length_b 17.696234
_cell_length_c 13.543885
_cell_angle_alpha 90.000000
_cell_angle_beta 124.683263
_cell_angle_gamma 90.000000
_cell_volume 2897.427433
_symmetry_space_group_name_H-M "C 2/M"
_symmetry_group_IT_number 12
_symmetry_cell_setting 'monoclinic'
loop_
_space_group_symop_operation_xyz
x,y,z
-x,y,-z
-x,-y,-z
x,-y,z
1/2+x,1/2+y,z
1/2-x,1/2+y,-z
1/2-x,1/2-y,-z
1/2+x,1/2-y,z
loop_
_atom_site_type_symbol
_atom_site_label
_atom_site_fract_x
_atom_site_fract_y
_atom_site_fract_z
Si Si1 0.238643 0.589936 0.241113
Si Si2 0.280782 0.169630 0.115495
Si Si3 0.971261 0.328089 0.366115
Si Si4 0.975666 0.152652 0.370219
Si Si5 0.944079 0.914811 0.071922
Si Si6 0.883395 0.695141 0.971305
Si Si7 0.317964 0.908832 0.571990
Si Si8 0.631896 0.413530 0.323843
O O1 0.238879 0.500000 0.240018
O O2 0.354519 0.621648 0.274103
O O3 0.144252 0.622737 0.112304
O O4 0.223848 0.615691 0.345845
O O5 0.350061 0.145555 0.254451
O O6 0.216024 0.245518 0.105537
O O7 0.177519 0.120045 0.012455
O O8 0.368130 0.179063 0.078976
O O9 0.984832 0.240006 0.342293
O O10 0.000000 0.333023 0.500000
O O11 0.059329 0.379750 0.365516
O O12 0.000000 0.155578 0.500000
O O13 0.061637 0.092684 0.380341
O O14 0.042159 0.875683 0.195783
O O15 0.930229 0.000000 0.103573
O O16 0.000000 0.919083 0.000000
O O17 0.000000 0.724886 0.000000
O O18 0.246608 0.879502 0.433587
O O19 0.311413 0.000000 0.564420
O O20 0.651044 0.500000 0.301793
#
# Coordination Sequence:
#
# PCOD9209790 Si02
#       8
#     8   8   8   8   8   8   8   8
#     4  11  22  41  69 100 134 170 215 270 331 395
#     4  11  24  44  65  95 134 174 226 273 329 401
#     4  11  26  44  63  95 132 175 222 272 330 389
#     4  11  21  39  61  96 134 167 210 264 329 390
#     4  10  23  42  66  96 128 172 228 282 332 389
#     4  11  24  43  67  95 132 178 220 269 333 402
#     4  10  23  43  67  98 133 173 218 270 332 400
#     4  10  21  38  64  97 131 168 217 271 329 390
#
# _framework density 22.088560999999999
#
# number of rings (size 3 to 8) (size 9 to 14) (size 15 to 20)
#    0.000    1.375    2.500    2.250    3.500    3.500 
#    2.250    0.000    0.000    0.000    0.000    0.000 
#    0.000    0.000    0.000    0.000    0.000    0.000 
#
# Total GULP energy -178485.671928 kJ/mol
# GULP energy per Si atom -5577.677248 kJ/mol
# Density = 2.203829 g / cm^3
# Si number density = 22.088561 Si / 1000 Ang^3
#
#
#
# Elastic Constant Matrix: (Units=GPa)
#
#
# Indices 1 2 3 4 5 6 
#
# 1 80.8162 1.2754 26.6405 0.0000 3.1896 0.0000
# 2 1.2754 24.9436 17.0931 0.0000 1.8130 0.0000
# 3 26.6405 17.0931 144.2623 0.0000 12.5734 0.0000
# 4 0.0000 0.0000 0.0000 24.6056 0.0000 -1.1623
# 5 3.1896 1.8130 12.5734 0.0000 23.9728 0.0000
# 6 0.0000 0.0000 0.0000 -1.1623 0.0000 23.9789
#
#
#
# Elastic Compliance Matrix: (Units=1/GPa)
#
#
# Indices 1 2 3 4 5 6 
#
# 1 0.013209 0.001091 -0.002524 0.000000 -0.000516 0.000000
# 2 0.001091 0.043732 -0.005326 0.000000 -0.000659 0.000000
# 3 -0.002524 -0.005326 0.008346 0.000000 -0.003639 0.000000
# 4 0.000000 0.000000 0.000000 0.040734 0.000000 0.001974
# 5 -0.000516 -0.000659 -0.003639 0.000000 0.043741 0.000000
# 6 0.000000 0.000000 0.000000 0.001974 0.000000 0.041799
#
#
# Mechanical properties :
#
#
# Convention : Reuss Voigt Hill
#
# Bulk Modulus (GPa) = 19.31574 37.78224 28.54899
# Shear Modulus (GPa) = 22.48866 28.17898 25.33382
#
# Velocity S-wave (km/s) = 3.19425 3.57561 3.39030
# Velocity P-wave (km/s) = 4.72948 5.84711 5.31774
#
# Compressibility (1/GPa) = 0.05177124
#
# Stress axis : x y z
#
# Youngs Moduli (GPa) = 75.70716 22.86648 119.81761
#
# Poissons Ratio (x) = -0.02496 0.30237
# Poissons Ratio (y) = -0.08263 0.63812
# Poissons Ratio (z) = 0.19105 0.12178
#
# Static dielectric constant tensor:
#      x y z
#    x 1.805170 0.000000 -0.027810 
#    y 0.000000 1.845970 0.000000 
#    z -0.027810 0.000000 1.933760 
# 
# From -- ./inp_files/216829.got.cif
#   From: 2010.05.17/outbox.cif.g08.bks.cpg/sg12_109_cif.got.tgz:216829.got - 2010.06.03 13:09:07.
