data_PCOD9209656
_publ_section_title
;
Structure prediction by ZEFSAII (Michael W. Deem and Ramdas Pophale) SiO2 
 PCOD9209656
Probable space group: C 2/M
;
_chemical_formula_sum "Si O2"
_cell_formula_units_Z 32
_cell_length_a 5.769859
_cell_length_b 28.335151
_cell_length_c 7.595252
_cell_angle_alpha 90.000000
_cell_angle_beta 66.410920
_cell_angle_gamma 90.000000
_cell_volume 1137.984874
_symmetry_space_group_name_H-M "C 2/M"
_symmetry_group_IT_number 12
_symmetry_cell_setting 'monoclinic'
loop_
_space_group_symop_operation_xyz
x,y,z
-x,y,-z
-x,-y,-z
x,-y,z
1/2+x,1/2+y,z
1/2-x,1/2+y,-z
1/2-x,1/2-y,-z
1/2+x,1/2-y,z
loop_
_atom_site_type_symbol
_atom_site_label
_atom_site_fract_x
_atom_site_fract_y
_atom_site_fract_z
Si Si1 0.297854 0.855420 0.903656
Si Si2 0.500000 0.395404 0.500000
Si Si3 0.146586 0.738629 0.190222
Si Si4 0.060743 0.551535 0.778615
Si Si5 0.000000 0.347537 0.500000
O O1 0.233492 0.788407 0.023307
O O2 0.390344 0.904932 0.762210
O O3 0.500000 0.861156 0.000000
O O4 0.000000 0.864213 0.000000
O O5 0.653761 0.429981 0.325564
O O6 0.280175 0.363967 0.481220
O O7 0.349987 0.750342 0.277844
O O8 0.096312 0.680325 0.288295
O O9 0.025568 0.500000 0.703851
O O10 0.000000 0.545722 0.000000
#
# Coordination Sequence:
#
# PCOD9209656 Si02
#       5
#     8   4   8   8   4
#     4  11  22  40  67  91 135 170 211 272 324 371
#     4  10  21  44  64  89 137 172 215 261 318 372
#     4  10  21  38  63  94 119 163 220 252 318 393
#     4  10  22  38  63  99 131 172 219 260 320 385
#     4  10  24  40  63 103 121 172 223 257 319 392
#
# _framework density 28.119882
#
# number of rings (size 3 to 8) (size 9 to 14) (size 15 to 20)
#    0.000    1.750    2.500    1.875    3.500    4.500 
#    0.000   19.375    0.000    0.000    0.000    0.000 
#    0.000    0.000    0.000    0.000    0.000    0.000 
#
# Total GULP energy -89140.953121 kJ/mol
# GULP energy per Si atom -5571.309570 kJ/mol
# Density = 2.805588 g / cm^3
# Si number density = 28.119882 Si / 1000 Ang^3
#
#
#
# Elastic Constant Matrix: (Units=GPa)
#
#
# Indices 1 2 3 4 5 6 
#
# 1 266.8837 135.0563 119.6502 0.0000 -44.9739 0.0000
# 2 135.0563 242.5544 26.9514 0.0000 -54.1762 0.0000
# 3 119.6502 26.9514 219.8879 0.0000 -27.8688 0.0000
# 4 0.0000 0.0000 0.0000 17.5282 0.0000 57.4941
# 5 -44.9739 -54.1762 -27.8688 0.0000 57.5984 0.0000
# 6 0.0000 0.0000 0.0000 57.4941 0.0000 -128.6799
#
#
#
# Elastic Compliance Matrix: (Units=1/GPa)
#
#
# Indices 1 2 3 4 5 6 
#
# 1 0.007103 -0.003426 -0.003357 0.000000 0.000700 0.000000
# 2 -0.003426 0.006872 0.001600 0.000000 0.004563 0.000000
# 3 -0.003357 0.001600 0.006431 0.000000 0.001996 0.000000
# 4 0.000000 0.000000 0.000000 0.023139 0.000000 0.010339
# 5 0.000700 0.004563 0.001996 0.000000 0.023165 0.000000
# 6 0.000000 0.000000 0.000000 0.010339 0.000000 -0.003152
#
#
# Mechanical properties :
#
#
# Convention : Reuss Voigt Hill
#
# Bulk Modulus (GPa) = 99.58721 143.62687 121.60704
# Shear Modulus (GPa) = 64.70734 19.13387 41.92060
#
# Velocity S-wave (km/s) = 4.80221 2.61135 3.86525
# Velocity P-wave (km/s) = 8.13882 7.76400 7.95362
#
# Compressibility (1/GPa) = 0.01004145
#
# Stress axis : x y z
#
# Youngs Moduli (GPa) = 140.77593 145.52506 155.49456
#
# Poissons Ratio (x) = 0.49856 0.52194
# Poissons Ratio (y) = 0.48229 -0.24883
# Poissons Ratio (z) = 0.47254 -0.23287
#
# Static dielectric constant tensor:
#      x y z
#    x 1.887140 0.000000 -0.262470 
#    y 0.000000 4.836130 0.000000 
#    z -0.262470 0.000000 -1.281300 
# 
# From -- ./inp_files/115795.got.cif
#   From: 2010.05.17/outbox.cif.g08.bks.cpg/sg12_58_cif.got.tgz:115795.got - 2010.06.03 13:09:07.
