data_PCOD9209843
_publ_section_title
;
Structure prediction by ZEFSAII (Michael W. Deem and Ramdas Pophale) SiO2 
 PCOD9209843
Probable space group: C 2/M
;
_chemical_formula_sum "Si O2"
_cell_formula_units_Z 56
_cell_length_a 11.194793
_cell_length_b 19.632130
_cell_length_c 25.428354
_cell_angle_alpha 90.000000
_cell_angle_beta 152.964442
_cell_angle_gamma 90.000000
_cell_volume 2540.253565
_symmetry_space_group_name_H-M "C 2/M"
_symmetry_group_IT_number 12
_symmetry_cell_setting 'monoclinic'
loop_
_space_group_symop_operation_xyz
x,y,z
-x,y,-z
-x,-y,-z
x,-y,z
1/2+x,1/2+y,z
1/2-x,1/2+y,-z
1/2-x,1/2-y,-z
1/2+x,1/2-y,z
loop_
_atom_site_type_symbol
_atom_site_label
_atom_site_fract_x
_atom_site_fract_y
_atom_site_fract_z
Si Si1 0.051115 0.080097 0.236893
Si Si2 0.083703 0.883644 0.660570
Si Si3 0.792465 0.198581 0.629966
Si Si4 0.493449 0.580444 0.904710
Si Si5 0.512495 0.836354 0.744369
Si Si6 0.256718 0.072902 0.563806
Si Si7 0.434745 0.075985 0.891690
O O1 0.751452 0.101771 0.134682
O O2 0.225946 0.131927 0.339637
O O3 0.084186 0.000000 0.264536
O O4 0.081893 0.084548 0.186681
O O5 0.947680 0.822090 0.638202
O O6 0.852865 0.919337 0.537479
O O7 0.308869 0.863680 0.707725
O O8 0.232138 0.925300 0.763722
O O9 0.500000 0.222951 0.500000
O O10 0.969202 0.255924 0.726995
O O11 0.479940 0.500000 0.915966
O O12 0.704649 0.627917 0.140192
O O13 0.794268 0.607363 0.022446
O O14 0.411197 0.863842 0.647841
O O15 0.000000 0.069480 0.500000
O O16 0.397702 0.000000 0.625493
O O17 0.517300 0.000000 0.940016
#
# Coordination Sequence:
#
# PCOD9209843 Si02
#       7
#     8   8   8   8   8   8   8
#     4   9  20  40  64  92 123 159 208 261 307 357
#     4  10  22  39  59  86 122 158 201 256 310 361
#     4  11  25  41  63  89 121 167 209 254 306 367
#     4  10  21  38  65  95 126 162 206 254 301 370
#     4  11  24  38  58  90 126 163 204 244 307 374
#     4   9  18  34  56  83 117 156 194 239 297 360
#     4   9  18  37  65  93 121 160 205 254 310 357
#
# _framework density 22.045043
#
# number of rings (size 3 to 8) (size 9 to 14) (size 15 to 20)
#    0.000    2.143    0.000    2.571    4.000    6.000 
#    0.000    4.286    6.286    0.000    0.000    0.000 
#    0.000    0.000    0.000    0.000    0.000    0.000 
#
# Total GULP energy -156148.699571 kJ/mol
# GULP energy per Si atom -5576.739270 kJ/mol
# Density = 2.199487 g / cm^3
# Si number density = 22.045043 Si / 1000 Ang^3
#
#
#
# Elastic Constant Matrix: (Units=GPa)
#
#
# Indices 1 2 3 4 5 6 
#
# 1 95.4046 18.7940 19.3336 0.0015 23.0711 0.0009
# 2 18.7940 76.7065 2.9303 -0.0085 7.2118 0.0003
# 3 19.3336 2.9303 40.6920 -0.0313 11.5973 -0.0005
# 4 0.0015 -0.0085 -0.0313 -3.1538 -0.0043 1.9275
# 5 23.0711 7.2118 11.5973 -0.0043 42.7918 0.0012
# 6 0.0009 0.0003 -0.0005 1.9275 0.0012 10.5564
#
#
#
# Elastic Compliance Matrix: (Units=1/GPa)
#
#
# Indices 1 2 3 4 5 6 
#
# 1 0.013228 -0.002553 -0.004542 0.000059 -0.005471 -0.000011
# 2 -0.002553 0.013744 0.000532 -0.000038 -0.001084 0.000007
# 3 -0.004542 0.000532 0.028200 -0.000248 -0.005284 0.000048
# 4 0.000059 -0.000038 -0.000248 -0.285248 0.000012 0.052083
# 5 -0.005471 -0.001084 -0.005284 0.000012 0.027933 -0.000005
# 6 -0.000011 0.000007 0.000048 0.052083 -0.000005 0.085219
#
#
# Mechanical properties :
#
#
# Convention : Reuss Voigt Hill
#
# Bulk Modulus (GPa) = 23.78323 32.76877 28.27600
# Shear Modulus (GPa) = -55.68981 21.48857 -17.10062
#
# Velocity S-wave (km/s) = -5.03157 3.12550 -2.78818
# Velocity P-wave (km/s) = 4.78995 5.28410 1.57766
#
# Compressibility (1/GPa) = 0.04204643
#
# Stress axis : x y z
#
# Youngs Moduli (GPa) = 75.59760 72.75990 35.46079
#
# Poissons Ratio (x) = 0.18577 0.16106
# Poissons Ratio (y) = 0.19301 -0.01887
# Poissons Ratio (z) = 0.34335 -0.03873
#
# Static dielectric constant tensor:
#      x y z
#    x 1.836640 0.000000 0.027630 
#    y 0.000000 1.833630 0.000000 
#    z 0.027630 0.000000 1.868280 
# 
# From -- ./inp_files/336797.got.cif
#   From: 2010.05.17/outbox.cif.g08.bks.cpg/sg12_169_cif.got.tgz:336797.got - 2010.06.03 13:09:07.
