data_PCOD9209066
_publ_section_title
;
Structure prediction by ZEFSAII (Michael W. Deem and Ramdas Pophale) SiO2 
 PCOD9209066
Probable space group: C 2/M
;
_chemical_formula_sum "Si O2"
_cell_formula_units_Z 56
_cell_length_a 29.499725
_cell_length_b 9.084443
_cell_length_c 19.412814
_cell_angle_alpha 90.000000
_cell_angle_beta 146.950637
_cell_angle_gamma 90.000000
_cell_volume 2837.194770
_symmetry_space_group_name_H-M "C 2/M"
_symmetry_group_IT_number 12
_symmetry_cell_setting 'monoclinic'
loop_
_space_group_symop_operation_xyz
x,y,z
-x,y,-z
-x,-y,-z
x,-y,z
1/2+x,1/2+y,z
1/2-x,1/2+y,-z
1/2-x,1/2-y,-z
1/2+x,1/2-y,z
loop_
_atom_site_type_symbol
_atom_site_label
_atom_site_fract_x
_atom_site_fract_y
_atom_site_fract_z
Si Si1 0.174292 0.676501 0.862544
Si Si2 0.277318 0.173472 0.231931
Si Si3 0.166640 0.171525 0.559085
Si Si4 0.034984 0.326082 0.193647
Si Si5 0.183417 0.829206 0.316059
Si Si6 0.901623 0.831566 0.942938
Si Si7 0.517836 0.673114 0.733678
O O1 0.175097 0.500000 0.872922
O O2 0.187324 0.706858 0.798032
O O3 0.089686 0.745668 0.783246
O O4 0.250000 0.750000 0.000000
O O5 0.317038 0.267172 0.343676
O O6 0.177689 0.195045 0.108622
O O7 0.290798 0.000000 0.264365
O O8 0.226676 0.260812 0.584145
O O9 0.070741 0.186535 0.417081
O O10 0.189975 0.000000 0.585484
O O11 0.038133 0.500000 0.205992
O O12 0.125972 0.260400 0.294957
O O13 0.995068 0.247882 0.208896
O O14 0.974589 0.279212 0.053978
O O15 0.136184 0.821126 0.181714
O O16 0.188942 0.000000 0.343066
O O17 0.932011 0.000000 0.991195
O O18 0.537795 0.500000 0.767059
#
# Coordination Sequence:
#
# PCOD9209066 Si02
#       7
#     8   8   8   8   8   8   8
#     4  11  23  40  64  93 122 154 192 235 287 345
#     4   9  20  38  61  87 118 155 189 232 292 349
#     4  10  22  40  62  87 114 149 197 246 287 335
#     4  12  24  36  56  86 117 153 197 244 293 344
#     4  10  21  38  61  85 115 155 192 235 293 352
#     4   9  18  35  58  85 118 154 190 231 288 352
#     4  11  25  43  60  82 117 157 196 241 290 342
#
# _framework density 19.737805000000002
#
# number of rings (size 3 to 8) (size 9 to 14) (size 15 to 20)
#    0.000    1.714    0.000    5.143    0.000   10.286 
#    0.000    2.857    0.000    0.000    0.000    0.000 
#    0.000    0.000    0.000    0.000    0.000    0.000 
#
# Total GULP energy -156597.903135 kJ/mol
# GULP energy per Si atom -5592.782255 kJ/mol
# Density = 1.969288 g / cm^3
# Si number density = 19.737805 Si / 1000 Ang^3
#
#
#
# Elastic Constant Matrix: (Units=GPa)
#
#
# Indices 1 2 3 4 5 6 
#
# 1 106.4275 46.9190 17.3507 0.0000 27.0155 0.0000
# 2 46.9190 112.7661 43.6887 0.0000 11.9702 0.0000
# 3 17.3507 43.6887 52.3375 0.0000 8.4306 0.0000
# 4 0.0000 0.0000 0.0000 32.2732 0.0000 5.5398
# 5 27.0155 11.9702 8.4306 0.0000 24.9994 0.0000
# 6 0.0000 0.0000 0.0000 5.5398 0.0000 36.2632
#
#
#
# Elastic Compliance Matrix: (Units=1/GPa)
#
#
# Indices 1 2 3 4 5 6 
#
# 1 0.015174 -0.005520 0.001896 0.000000 -0.014394 0.000000
# 2 -0.005520 0.015294 -0.011334 0.000000 0.002465 0.000000
# 3 0.001896 -0.011334 0.028968 0.000000 -0.006392 0.000000
# 4 0.000000 0.000000 0.000000 0.031820 0.000000 -0.004861
# 5 -0.014394 0.002465 -0.006392 0.000000 0.056532 0.000000
# 6 0.000000 0.000000 0.000000 -0.004861 0.000000 0.028319
#
#
# Mechanical properties :
#
#
# Convention : Reuss Voigt Hill
#
# Bulk Modulus (GPa) = 33.87367 54.16088 44.01728
# Shear Modulus (GPa) = 23.16277 29.61200 26.38739
#
# Velocity S-wave (km/s) = 3.42939 3.87753 3.66033
# Velocity P-wave (km/s) = 5.73411 6.89541 6.34140
#
# Compressibility (1/GPa) = 0.02952146
#
# Stress axis : x y z
#
# Youngs Moduli (GPa) = 65.90005 65.38447 34.52032
#
# Poissons Ratio (x) = 0.36095 -0.06546
# Poissons Ratio (y) = 0.36379 0.39124
# Poissons Ratio (z) = -0.12496 0.74105
#
# Static dielectric constant tensor:
#      x y z
#    x 1.689900 0.000000 -0.012600 
#    y 0.000000 1.660470 0.000000 
#    z -0.012600 0.000000 1.694780 
# 
# From -- ./inp_files/329691.got.cif
#   From: 2010.05.17/outbox.cif.g08.bks.cpg/sg12_165_cif.got.tgz:329691.got - 2010.06.03 13:09:07.
