data_PCOD9209498
_publ_section_title
;
Structure prediction by ZEFSAII (Michael W. Deem and Ramdas Pophale) SiO2 
 PCOD9209498
Probable space group: C 2/M
;
_chemical_formula_sum "Si O2"
_cell_formula_units_Z 44
_cell_length_a 11.368273
_cell_length_b 26.792822
_cell_length_c 7.271657
_cell_angle_alpha 90.000000
_cell_angle_beta 114.090454
_cell_angle_gamma 90.000000
_cell_volume 2021.950830
_symmetry_space_group_name_H-M "C 2/M"
_symmetry_group_IT_number 12
_symmetry_cell_setting 'monoclinic'
loop_
_space_group_symop_operation_xyz
x,y,z
-x,y,-z
-x,-y,-z
x,-y,z
1/2+x,1/2+y,z
1/2-x,1/2+y,-z
1/2-x,1/2-y,-z
1/2+x,1/2-y,z
loop_
_atom_site_type_symbol
_atom_site_label
_atom_site_fract_x
_atom_site_fract_y
_atom_site_fract_z
Si Si1 0.276139 0.056269 0.212344
Si Si2 0.500000 0.129247 0.500000
Si Si3 0.140341 0.850249 0.043108
Si Si4 0.635203 0.945059 0.142960
Si Si5 0.227997 0.694426 0.555315
Si Si6 0.642535 0.620171 0.620337
O O1 0.398328 0.090074 0.348239
O O2 0.157863 0.094944 0.150953
O O3 0.267634 0.000000 0.285338
O O4 0.293110 0.049756 0.004723
O O5 0.589394 0.167234 0.437596
O O6 0.242326 0.814445 0.209531
O O7 0.156501 0.857902 0.835828
O O8 0.000000 0.830673 0.000000
O O9 0.738085 0.917490 0.333875
O O10 0.601975 0.000000 0.197954
O O11 0.500000 0.919769 0.000000
O O12 0.250000 0.750000 0.500000
O O13 0.334458 0.663360 0.511117
O O14 0.500000 0.598383 0.500000
#
# Coordination Sequence:
#
# PCOD9209498 Si02
#       6
#     8   4   8   8   8   8
#     4   9  18  33  57  87 124 164 204 253 310 374
#     4  10  21  38  62  92 128 160 213 264 316 380
#     4  10  21  40  61  90 128 168 206 255 313 380
#     4   9  18  34  57  88 127 168 211 256 312 384
#     4  11  25  42  65  92 124 162 216 270 320 383
#     4  11  22  39  67  91 129 170 210 267 326 377
#
# _framework density 21.761161999999999
#
# number of rings (size 3 to 8) (size 9 to 14) (size 15 to 20)
#    0.000    2.000    1.818    1.364    1.273    1.455 
#    0.000    8.182    0.000    0.000    0.000    0.000 
#    0.000    0.000    0.000    0.000    0.000    0.000 
#
# Total GULP energy -122535.116482 kJ/mol
# GULP energy per Si atom -5569.778022 kJ/mol
# Density = 2.171163 g / cm^3
# Si number density = 21.761162 Si / 1000 Ang^3
#
#
#
# Elastic Constant Matrix: (Units=GPa)
#
#
# Indices 1 2 3 4 5 6 
#
# 1 57.3664 14.9272 12.9136 0.0000 14.3886 0.0000
# 2 14.9272 108.0072 32.2407 0.0000 8.0690 0.0000
# 3 12.9136 32.2407 94.0605 0.0000 10.3257 0.0000
# 4 0.0000 0.0000 0.0000 12.0808 0.0000 -2.9267
# 5 14.3886 8.0690 10.3257 0.0000 42.8939 0.0000
# 6 0.0000 0.0000 0.0000 -2.9267 0.0000 29.3136
#
#
#
# Elastic Compliance Matrix: (Units=1/GPa)
#
#
# Indices 1 2 3 4 5 6 
#
# 1 0.019721 -0.001859 -0.001420 0.000000 -0.005924 0.000000
# 2 -0.001859 0.010542 -0.003296 0.000000 -0.000566 0.000000
# 3 -0.001420 -0.003296 0.012157 0.000000 -0.001830 0.000000
# 4 0.000000 0.000000 0.000000 0.084828 0.000000 0.008469
# 5 -0.005924 -0.000566 -0.001830 0.000000 0.025848 0.000000
# 6 0.000000 0.000000 0.000000 0.008469 0.000000 0.034959
#
#
# Mechanical properties :
#
#
# Convention : Reuss Voigt Hill
#
# Bulk Modulus (GPa) = 34.16506 42.17746 38.17126
# Shear Modulus (GPa) = 23.70099 30.14782 26.92441
#
# Velocity S-wave (km/s) = 3.30380 3.72613 3.52130
# Velocity P-wave (km/s) = 5.50341 6.15923 5.84053
#
# Compressibility (1/GPa) = 0.02926967
#
# Stress axis : x y z
#
# Youngs Moduli (GPa) = 50.70730 94.86107 82.25678
#
# Poissons Ratio (x) = 0.17636 0.11680
# Poissons Ratio (y) = 0.09427 0.27112
# Poissons Ratio (z) = 0.07200 0.31266
#
# Static dielectric constant tensor:
#      x y z
#    x 1.794180 0.000000 0.006550 
#    y 0.000000 1.836920 0.000000 
#    z 0.006550 0.000000 1.909720 
# 
# From -- ./inp_files/51542.got.cif
#   From: 2010.05.17/outbox.cif.g08.bks.cpg/sg12_26_cif.got.tgz:51542.got - 2010.06.03 13:09:07.
