data_PCOD9209874
_publ_section_title
;
Structure prediction by ZEFSAII (Michael W. Deem and Ramdas Pophale) SiO2 
 PCOD9209874
Probable space group: C 2/M
;
_chemical_formula_sum "Si O2"
_cell_formula_units_Z 44
_cell_length_a 22.366054
_cell_length_b 16.234631
_cell_length_c 14.738959
_cell_angle_alpha 90.000000
_cell_angle_beta 157.149108
_cell_angle_gamma 90.000000
_cell_volume 2078.281213
_symmetry_space_group_name_H-M "C 2/M"
_symmetry_group_IT_number 12
_symmetry_cell_setting 'monoclinic'
loop_
_space_group_symop_operation_xyz
x,y,z
-x,y,-z
-x,-y,-z
x,-y,z
1/2+x,1/2+y,z
1/2-x,1/2+y,-z
1/2-x,1/2-y,-z
1/2+x,1/2-y,z
loop_
_atom_site_type_symbol
_atom_site_label
_atom_site_fract_x
_atom_site_fract_y
_atom_site_fract_z
Si Si1 0.643604 0.597089 0.132376
Si Si2 0.029155 0.000000 0.688258
Si Si3 0.545186 0.156326 0.336826
Si Si4 0.814957 0.500000 0.801688
Si Si5 0.131142 0.661117 0.245199
Si Si6 0.494918 0.329846 0.748917
Si Si7 0.357919 0.000000 0.064376
O O1 0.675075 0.500000 0.151138
O O2 0.792041 0.637109 0.387771
O O3 0.500000 0.593472 0.000000
O O4 0.586933 0.653056 0.969765
O O5 0.024330 0.914728 0.737543
O O6 0.860442 0.000000 0.410193
O O7 0.179378 0.000000 0.837977
O O8 0.569884 0.154023 0.261804
O O9 0.466723 0.244404 0.247040
O O10 0.434381 0.082117 0.209690
O O11 0.845648 0.577606 0.780834
O O12 0.900027 0.500000 0.016083
O O13 0.310656 0.685963 0.506067
O O14 0.000000 0.706563 0.000000
#
# Coordination Sequence:
#
# PCOD9209874 Si02
#       7
#     8   4   8   4   8   8   4
#     4  11  23  40  65  98 142 177 214 258 337 419
#     4  10  25  46  66  86 128 184 234 277 327 371
#     4  12  25  38  67 103 133 171 220 274 339 399
#     4  10  21  38  66  91 131 168 213 267 343 399
#     4  11  21  36  62 101 139 160 202 271 346 400
#     4  11  25  42  65  97 135 177 222 267 334 410
#     4  12  24  45  63  93 131 175 234 288 316 384
#
# _framework density 21.171341999999999
#
# number of rings (size 3 to 8) (size 9 to 14) (size 15 to 20)
#    0.000    0.909    5.455    1.636    2.545    0.727 
#    0.000    1.818    0.000    0.000    0.000    0.000 
#    0.000    0.000    0.000    0.000    0.000    0.000 
#
# Total GULP energy -122670.170791 kJ/mol
# GULP energy per Si atom -5575.916854 kJ/mol
# Density = 2.112315 g / cm^3
# Si number density = 21.171342 Si / 1000 Ang^3
#
#
#
# Elastic Constant Matrix: (Units=GPa)
#
#
# Indices 1 2 3 4 5 6 
#
# 1 43.5014 27.4382 36.2859 0.0000 7.8345 0.0000
# 2 27.4382 185.2265 52.9305 0.0000 -3.3456 0.0000
# 3 36.2859 52.9305 144.3094 0.0000 -22.0000 0.0000
# 4 0.0000 0.0000 0.0000 -59.5943 0.0000 41.1790
# 5 7.8345 -3.3456 -22.0000 0.0000 29.8326 0.0000
# 6 0.0000 0.0000 0.0000 41.1790 0.0000 -28.8149
#
#
#
# Elastic Compliance Matrix: (Units=1/GPa)
#
#
# Indices 1 2 3 4 5 6 
#
# 1 0.037321 -0.002657 -0.011210 0.000000 -0.018366 0.000000
# 2 -0.002657 0.006251 -0.001590 0.000000 0.000226 0.000000
# 3 -0.011210 -0.001590 0.012115 0.000000 0.011700 0.000000
# 4 0.000000 0.000000 0.000000 -1.340488 0.000000 -1.915674
# 5 -0.018366 0.000226 0.011700 0.000000 0.046997 0.000000
# 6 0.000000 0.000000 0.000000 -1.915674 0.000000 -2.772369
#
#
# Mechanical properties :
#
#
# Convention : Reuss Voigt Hill
#
# Bulk Modulus (GPa) = 40.36514 67.37184 53.86849
# Shear Modulus (GPa) = -1.25913 5.37687 2.05887
#
# Velocity S-wave (km/s) = -0.77203 1.59537 0.98721
# Velocity P-wave (km/s) = 4.27933 5.94011 5.17675
#
# Compressibility (1/GPa) = 0.02477385
#
# Stress axis : x y z
#
# Youngs Moduli (GPa) = 26.79422 159.97753 82.54225
#
# Poissons Ratio (x) = 0.42506 0.92526
# Poissons Ratio (y) = 0.07119 0.13126
# Poissons Ratio (z) = 0.30035 0.25439
#
# Static dielectric constant tensor:
#      x y z
#    x 1.730340 0.000000 0.000100 
#    y 0.000000 1.848020 0.000000 
#    z 0.000100 0.000000 1.802400 
# 
# From -- ./inp_files/241579.got.cif
#   From: 2010.05.17/outbox.cif.g08.bks.cpg/sg12_121_cif.got.tgz:241579.got - 2010.06.03 13:09:07.
