data_PCOD9209176
_publ_section_title
;
Structure prediction by ZEFSAII (Michael W. Deem and Ramdas Pophale) SiO2 
 PCOD9209176
Probable space group: C 2/M
;
_chemical_formula_sum "Si O2"
_cell_formula_units_Z 48
_cell_length_a 16.892224
_cell_length_b 8.232021
_cell_length_c 29.454918
_cell_angle_alpha 90.000000
_cell_angle_beta 29.936858
_cell_angle_gamma 90.000000
_cell_volume 2044.048019
_symmetry_space_group_name_H-M "C 2/M"
_symmetry_group_IT_number 12
_symmetry_cell_setting 'monoclinic'
loop_
_space_group_symop_operation_xyz
x,y,z
-x,y,-z
-x,-y,-z
x,-y,z
1/2+x,1/2+y,z
1/2-x,1/2+y,-z
1/2-x,1/2-y,-z
1/2+x,1/2-y,z
loop_
_atom_site_type_symbol
_atom_site_label
_atom_site_fract_x
_atom_site_fract_y
_atom_site_fract_z
Si Si1 0.334920 0.814732 0.387806
Si Si2 0.996196 0.191679 0.781934
Si Si3 0.502807 0.188221 0.550627
Si Si4 0.017401 0.804973 0.874561
Si Si5 0.844130 0.804231 0.047963
Si Si6 0.364235 0.311571 0.708119
O O1 0.385260 0.779484 0.311011
O O2 0.185995 0.703885 0.474670
O O3 0.491897 0.778516 0.338565
O O4 0.285062 0.000000 0.418691
O O5 0.815669 0.220883 0.855873
O O6 0.001626 0.254863 0.830904
O O7 0.032838 0.000000 0.763064
O O8 0.500000 0.246221 0.500000
O O9 0.395469 0.285306 0.639010
O O10 0.452017 0.000000 0.576681
O O11 0.192440 0.759412 0.804668
O O12 0.005605 0.000000 0.879240
O O13 0.887473 0.747741 0.975323
O O14 0.820249 0.000000 0.060534
O O15 0.000000 0.769611 0.000000
O O16 0.371285 0.500000 0.716520
#
# Coordination Sequence:
#
# PCOD9209176 Si02
#       6
#     8   8   8   8   8   8
#     4  12  25  42  64  89 122 161 204 253 304 361
#     4  11  23  39  61  90 124 161 204 253 304 360
#     4  11  24  43  66  92 125 162 201 248 301 357
#     4  10  22  40  61  89 126 164 202 249 305 360
#     4  10  21  38  61  88 120 162 208 252 302 360
#     4  12  25  41  64  93 124 159 203 251 302 362
#
# _framework density 23.482814999999999
#
# number of rings (size 3 to 8) (size 9 to 14) (size 15 to 20)
#    0.000    1.000    0.000    7.000    0.000    9.000 
#    0.000    0.000    0.000    0.000    0.000    0.000 
#    0.000    0.000    0.000    0.000    0.000    0.000 
#
# Total GULP energy -134481.523891 kJ/mol
# GULP energy per Si atom -5603.396829 kJ/mol
# Density = 2.342937 g / cm^3
# Si number density = 23.482815 Si / 1000 Ang^3
#
#
#
# Elastic Constant Matrix: (Units=GPa)
#
#
# Indices 1 2 3 4 5 6 
#
# 1 64.9203 -2.2178 -8.2053 -0.0002 2.4556 -0.0009
# 2 -2.2178 18.8247 -12.8647 0.0029 12.1248 -0.0031
# 3 -8.2053 -12.8647 91.8328 0.0003 -1.6138 -0.0004
# 4 -0.0002 0.0029 0.0003 30.0486 -0.0002 0.9106
# 5 2.4556 12.1248 -1.6138 -0.0002 41.8544 0.0000
# 6 -0.0009 -0.0031 -0.0004 0.9106 0.0000 24.8687
#
#
#
# Elastic Compliance Matrix: (Units=1/GPa)
#
#
# Indices 1 2 3 4 5 6 
#
# 1 0.015905 0.004694 0.002040 0.000000 -0.002214 0.000001
# 2 0.004694 0.074713 0.010508 -0.000008 -0.021514 0.000010
# 3 0.002040 0.010508 0.012496 -0.000001 -0.002682 0.000002
# 4 0.000000 -0.000008 -0.000001 0.033316 0.000002 -0.001220
# 5 -0.002214 -0.021514 -0.002682 0.000002 0.030151 -0.000003
# 6 0.000001 0.000010 0.000002 -0.001220 -0.000003 0.040256
#
#
# Mechanical properties :
#
#
# Convention : Reuss Voigt Hill
#
# Bulk Modulus (GPa) = 7.26754 14.33356 10.80055
# Shear Modulus (GPa) = 22.91261 32.61204 27.76232
#
# Velocity S-wave (km/s) = 3.12704 3.73065 3.44210
# Velocity P-wave (km/s) = 4.01738 4.96731 4.51738
#
# Compressibility (1/GPa) = 0.13759805
#
# Stress axis : x y z
#
# Youngs Moduli (GPa) = 62.87154 13.38463 80.02242
#
# Poissons Ratio (x) = -0.06283 -0.16323
# Poissons Ratio (y) = -0.29513 -0.84085
# Poissons Ratio (z) = -0.12825 -0.14064
#
# Static dielectric constant tensor:
#      x y z
#    x 1.951920 0.000000 0.025200 
#    y 0.000000 1.789690 0.000000 
#    z 0.025200 0.000000 1.831600 
# 
# From -- ./inp_files/274591.got.cif
#   From: 2010.05.17/outbox.cif.g08.bks.cpg/sg12_138_cif.got.tgz:274591.got - 2010.06.03 13:09:07.
