data_PCOD9209433
_publ_section_title
;
Structure prediction by ZEFSAII (Michael W. Deem and Ramdas Pophale) SiO2 
 PCOD9209433
Probable space group: C 2/M
;
_chemical_formula_sum "Si O2"
_cell_formula_units_Z 64
_cell_length_a 25.918913
_cell_length_b 8.825856
_cell_length_c 14.366989
_cell_angle_alpha 90.000000
_cell_angle_beta 94.491380
_cell_angle_gamma 90.000000
_cell_volume 3276.450907
_symmetry_space_group_name_H-M "C 2/M"
_symmetry_group_IT_number 12
_symmetry_cell_setting 'monoclinic'
loop_
_space_group_symop_operation_xyz
x,y,z
-x,y,-z
-x,-y,-z
x,-y,z
1/2+x,1/2+y,z
1/2-x,1/2+y,-z
1/2-x,1/2-y,-z
1/2+x,1/2-y,z
loop_
_atom_site_type_symbol
_atom_site_label
_atom_site_fract_x
_atom_site_fract_y
_atom_site_fract_z
Si Si1 0.140460 0.181983 0.603991
Si Si2 0.947890 0.179356 0.937533
Si Si3 0.843088 0.819283 0.609442
Si Si4 0.230572 0.320826 0.901116
Si Si5 0.880582 0.821890 0.106300
Si Si6 0.444702 0.819625 0.278716
Si Si7 0.562193 0.820357 0.265721
Si Si8 0.749570 0.819083 0.288034
O O1 0.148847 0.221534 0.497450
O O2 0.091706 0.264635 0.642819
O O3 0.192862 0.220452 0.667501
O O4 0.133035 0.000000 0.610077
O O5 0.939804 0.271002 0.842392
O O6 0.952822 0.000000 0.915796
O O7 0.901601 0.197215 0.004809
O O8 0.000000 0.224678 0.000000
O O9 0.892866 0.767407 0.674766
O O10 0.792812 0.741226 0.646173
O O11 0.836794 0.000000 0.614295
O O12 0.237196 0.500000 0.903927
O O13 0.170570 0.274386 0.884047
O O14 0.258565 0.252635 0.814620
O O15 0.250000 0.250000 0.000000
O O16 0.924040 0.767469 0.184625
O O17 0.869508 0.000000 0.120395
O O18 0.505373 0.786916 0.299602
O O19 0.439097 0.000000 0.264048
O O20 0.571556 0.000000 0.273707
O O21 0.746343 0.000000 0.281003
#
# Coordination Sequence:
#
# PCOD9209433 Si02
#       8
#     8   8   8   8   8   8   8   8
#     4  10  23  43  69  96 124 163 212 264 322 386
#     4  10  21  38  62  90 121 163 208 251 304 369
#     4  11  25  44  66  94 127 168 214 263 322 384
#     4  12  26  43  64  94 131 171 212 257 315 375
#     4  11  22  39  63  91 126 165 211 263 315 376
#     4  11  23  39  64  95 128 168 214 265 320 378
#     4  11  25  42  61  92 132 171 213 264 319 377
#     4  11  23  43  69  97 129 166 210 264 321 382
#
# _framework density 19.533329999999999
#
# number of rings (size 3 to 8) (size 9 to 14) (size 15 to 20)
#    0.000    1.125    2.500    3.375    1.750    4.750 
#    0.000    2.500    0.000    0.000    0.000    0.000 
#    0.000    0.000    0.000    0.000    0.000    0.000 
#
# Total GULP energy -179019.285535 kJ/mol
# GULP energy per Si atom -5594.352673 kJ/mol
# Density = 1.948887 g / cm^3
# Si number density = 19.533330 Si / 1000 Ang^3
#
#
#
# Elastic Constant Matrix: (Units=GPa)
#
#
# Indices 1 2 3 4 5 6 
#
# 1 44.1158 22.7399 17.9141 0.0000 -15.7281 0.0000
# 2 22.7399 70.0991 39.4197 0.0000 -12.4280 0.0000
# 3 17.9141 39.4197 110.9807 0.0000 -14.3063 0.0000
# 4 0.0000 0.0000 0.0000 29.0808 0.0000 -6.4516
# 5 -15.7281 -12.4280 -14.3063 0.0000 31.5615 0.0000
# 6 0.0000 0.0000 0.0000 -6.4516 0.0000 29.6334
#
#
#
# Elastic Compliance Matrix: (Units=1/GPa)
#
#
# Indices 1 2 3 4 5 6 
#
# 1 0.031228 -0.007513 -0.000794 0.000000 0.012244 0.000000
# 2 -0.007513 0.020230 -0.005766 0.000000 0.001609 0.000000
# 3 -0.000794 -0.005766 0.011516 0.000000 0.002554 0.000000
# 4 0.000000 0.000000 0.000000 0.036132 0.000000 0.007866
# 5 0.012244 0.001609 0.002554 0.000000 0.039577 0.000000
# 6 0.000000 0.000000 0.000000 0.007866 0.000000 0.035458
#
#
# Mechanical properties :
#
#
# Convention : Reuss Voigt Hill
#
# Bulk Modulus (GPa) = 28.71178 42.81588 35.76383
# Shear Modulus (GPa) = 23.37591 27.72992 25.55292
#
# Velocity S-wave (km/s) = 3.46312 3.77187 3.62079
# Velocity P-wave (km/s) = 5.54271 6.39815 5.98573
#
# Compressibility (1/GPa) = 0.03482891
#
# Stress axis : x y z
#
# Youngs Moduli (GPa) = 32.02280 49.43119 86.83711
#
# Poissons Ratio (x) = 0.37138 0.06893
# Poissons Ratio (y) = 0.24059 0.50066
# Poissons Ratio (z) = 0.02542 0.28500
#
# Static dielectric constant tensor:
#      x y z
#    x 1.679350 0.000000 -0.004020 
#    y 0.000000 1.650950 0.000000 
#    z -0.004020 0.000000 1.663030 
# 
# From -- ./inp_files/238706.got.cif
#   From: 2010.05.17/outbox.cif.g08.bks.cpg/sg12_120_cif.got.tgz:238706.got - 2010.06.03 13:09:07.
