data_PCOD9209180
_publ_section_title
;
Structure prediction by ZEFSAII (Michael W. Deem and Ramdas Pophale) SiO2 
 PCOD9209180
Probable space group: C 2/M
;
_chemical_formula_sum "Si O2"
_cell_formula_units_Z 64
_cell_length_a 30.324221
_cell_length_b 8.514795
_cell_length_c 13.705151
_cell_angle_alpha 90.000000
_cell_angle_beta 53.144902
_cell_angle_gamma 90.000000
_cell_volume 2831.533951
_symmetry_space_group_name_H-M "C 2/M"
_symmetry_group_IT_number 12
_symmetry_cell_setting 'monoclinic'
loop_
_space_group_symop_operation_xyz
x,y,z
-x,y,-z
-x,-y,-z
x,-y,z
1/2+x,1/2+y,z
1/2-x,1/2+y,-z
1/2-x,1/2-y,-z
1/2+x,1/2-y,z
loop_
_atom_site_type_symbol
_atom_site_label
_atom_site_fract_x
_atom_site_fract_y
_atom_site_fract_z
Si Si1 0.827921 0.811105 0.148333
Si Si2 0.966548 0.684031 0.143118
Si Si3 0.273841 0.683936 0.819286
Si Si4 0.054172 0.678630 0.474974
Si Si5 0.654876 0.188249 0.453692
Si Si6 0.366176 0.175257 0.817868
Si Si7 0.153603 0.814522 0.664280
Si Si8 0.934175 0.182330 0.895706
O O1 0.787924 0.735974 0.122216
O O2 0.817227 0.761681 0.273930
O O3 0.821901 0.000000 0.150911
O O4 0.890681 0.772588 0.037721
O O5 0.952104 0.500000 0.158003
O O6 0.011088 0.715732 0.168996
O O7 0.911352 0.781522 0.232749
O O8 0.000000 0.726910 0.000000
O O9 0.277649 0.500000 0.832060
O O10 0.305838 0.729559 0.676722
O O11 0.305954 0.772784 0.862707
O O12 0.037652 0.500000 0.525864
O O13 0.091836 0.742646 0.512779
O O14 0.097566 0.670271 0.328831
O O15 0.000000 0.756933 0.500000
O O16 0.670093 0.227589 0.543810
O O17 0.657189 0.000000 0.435124
O O18 0.398668 0.289742 0.846078
O O19 0.365037 0.000000 0.861898
O O20 0.162740 0.000000 0.640811
O O21 0.948890 0.000000 0.886830
#
# Coordination Sequence:
#
# PCOD9209180 Si02
#       8
#     8   8   8   8   8   8   8   8
#     4  10  23  42  63  86 118 160 203 251 310 363
#     4  11  23  39  61  88 123 164 205 249 299 362
#     4  11  23  41  65  89 119 157 202 256 305 359
#     4   8  16  32  54  81 114 151 193 238 289 346
#     4  10  21  38  61  88 122 160 199 249 303 362
#     4  10  21  38  61  88 122 160 199 249 303 362
#     4  11  23  40  62  90 124 161 202 252 306 361
#     4  11  23  40  62  90 124 161 202 252 306 361
#
# _framework density 22.602589999999999
#
# number of rings (size 3 to 8) (size 9 to 14) (size 15 to 20)
#    0.000    1.750    1.250    3.750    1.750    3.500 
#    0.000    0.000    0.000    2.250    0.000    0.000 
#    0.000    0.000    0.000    0.000    0.000    0.000 
#
# Total GULP energy -178878.349341 kJ/mol
# GULP energy per Si atom -5589.948417 kJ/mol
# Density = 2.255115 g / cm^3
# Si number density = 22.602590 Si / 1000 Ang^3
#
#
#
# Elastic Constant Matrix: (Units=GPa)
#
#
# Indices 1 2 3 4 5 6 
#
# 1 89.3582 0.8367 -2.4134 0.0000 1.1108 0.0000
# 2 0.8367 17.9387 -4.7597 0.0000 -9.6963 0.0000
# 3 -2.4134 -4.7597 35.1497 0.0000 10.1175 0.0000
# 4 0.0000 0.0000 0.0000 24.8208 0.0000 3.8135
# 5 1.1108 -9.6963 10.1175 0.0000 34.6328 0.0000
# 6 0.0000 0.0000 0.0000 3.8135 0.0000 29.9212
#
#
#
# Elastic Compliance Matrix: (Units=1/GPa)
#
#
# Indices 1 2 3 4 5 6 
#
# 1 0.011233 -0.000731 0.000911 0.000000 -0.000831 0.000000
# 2 -0.000731 0.066235 0.003902 0.000000 0.017427 0.000000
# 3 0.000911 0.003902 0.031373 0.000000 -0.008102 0.000000
# 4 0.000000 0.000000 0.000000 0.041093 0.000000 -0.005237
# 5 -0.000831 0.017427 -0.008102 0.000000 0.036147 0.000000
# 6 0.000000 0.000000 0.000000 -0.005237 0.000000 0.034089
#
#
# Mechanical properties :
#
#
# Convention : Reuss Voigt Hill
#
# Bulk Modulus (GPa) = 8.54661 14.41931 11.48296
# Shear Modulus (GPa) = 19.91984 27.79385 23.85685
#
# Velocity S-wave (km/s) = 2.97190 3.51048 3.25236
# Velocity P-wave (km/s) = 3.94534 4.77751 4.38123
#
# Compressibility (1/GPa) = 0.11700549
#
# Stress axis : x y z
#
# Youngs Moduli (GPa) = 89.02568 15.09780 31.87479
#
# Poissons Ratio (x) = 0.01104 -0.02905
# Poissons Ratio (y) = 0.06511 -0.12439
# Poissons Ratio (z) = -0.08115 -0.05892
#
# Static dielectric constant tensor:
#      x y z
#    x 1.867090 0.000000 0.005580 
#    y 0.000000 1.757900 0.000000 
#    z 0.005580 0.000000 1.873730 
# 
# From -- ./inp_files/249077.got.cif
#   From: 2010.05.17/outbox.cif.g08.bks.cpg/sg12_125_cif.got.tgz:249077.got - 2010.06.03 13:09:07.
