data_PCOD9209680
_publ_section_title
;
Structure prediction by ZEFSAII (Michael W. Deem and Ramdas Pophale) SiO2 
 PCOD9209680
Probable space group: C 2/M
;
_chemical_formula_sum "Si O2"
_cell_formula_units_Z 32
_cell_length_a 11.091494
_cell_length_b 13.589275
_cell_length_c 9.371923
_cell_angle_alpha 90.000000
_cell_angle_beta 98.650121
_cell_angle_gamma 90.000000
_cell_volume 1396.518589
_symmetry_space_group_name_H-M "C 2/M"
_symmetry_group_IT_number 12
_symmetry_cell_setting 'monoclinic'
loop_
_space_group_symop_operation_xyz
x,y,z
-x,y,-z
-x,-y,-z
x,-y,z
1/2+x,1/2+y,z
1/2-x,1/2+y,-z
1/2-x,1/2-y,-z
1/2+x,1/2-y,z
loop_
_atom_site_type_symbol
_atom_site_label
_atom_site_fract_x
_atom_site_fract_y
_atom_site_fract_z
Si Si1 0.103187 0.672259 0.415244
Si Si2 0.624848 0.885075 0.094042
Si Si3 0.842057 0.885818 0.635708
Si Si4 0.859765 0.114857 0.972841
O O1 0.112336 0.629223 0.259553
O O2 0.077108 0.789484 0.384884
O O3 0.225664 0.641342 0.519465
O O4 0.000000 0.632058 0.500000
O O5 0.629415 0.000000 0.059458
O O6 0.500000 0.848921 0.000000
O O7 0.754146 0.844887 0.058284
O O8 0.815966 0.879202 0.800701
O O9 0.882132 0.000000 0.616230
O O10 0.871942 0.000000 0.015159
O O11 0.000000 0.150782 0.000000
#
# Coordination Sequence:
#
# PCOD9209680 Si02
#       4
#     8   8   8   8
#     4  11  24  40  63  95 127 167 217 263 315 383
#     4  10  21  38  63  95 129 166 211 265 322 379
#     4  10  23  42  62  88 126 168 211 263 321 380
#     4   9  19  37  62  91 123 163 209 258 317 380
#
# _framework density 22.914124000000001
#
# number of rings (size 3 to 8) (size 9 to 14) (size 15 to 20)
#    0.000    2.000    0.000    2.250    0.000   10.500 
#    0.000    2.500    0.000    0.000    0.000    0.000 
#    0.000    0.000    0.000    0.000    0.000    0.000 
#
# Total GULP energy -89190.783385 kJ/mol
# GULP energy per Si atom -5574.423962 kJ/mol
# Density = 2.286197 g / cm^3
# Si number density = 22.914124 Si / 1000 Ang^3
#
#
#
# Elastic Constant Matrix: (Units=GPa)
#
#
# Indices 1 2 3 4 5 6 
#
# 1 161.8906 -0.2465 75.1534 0.0000 -22.9860 0.0000
# 2 -0.2465 105.5315 -35.8223 0.0000 1.2395 0.0000
# 3 75.1534 -35.8223 122.7179 0.0000 5.0209 0.0000
# 4 0.0000 0.0000 0.0000 50.7050 0.0000 -8.3903
# 5 -22.9860 1.2395 5.0209 0.0000 32.1778 0.0000
# 6 0.0000 0.0000 0.0000 -8.3903 0.0000 -22.9246
#
#
#
# Elastic Compliance Matrix: (Units=1/GPa)
#
#
# Indices 1 2 3 4 5 6 
#
# 1 0.011286 -0.002844 -0.008128 0.000000 0.009440 0.000000
# 2 -0.002844 0.011260 0.005162 0.000000 -0.003270 0.000000
# 3 -0.008128 0.005162 0.014975 0.000000 -0.008342 0.000000
# 4 0.000000 0.000000 0.000000 0.018596 0.000000 -0.006806
# 5 0.009440 -0.003270 -0.008342 0.000000 0.039248 0.000000
# 6 0.000000 0.000000 0.000000 -0.006806 0.000000 -0.041130
#
#
# Mechanical properties :
#
#
# Convention : Reuss Voigt Hill
#
# Bulk Modulus (GPa) = 38.60769 52.03435 45.32102
# Shear Modulus (GPa) = 67.12533 35.39533 51.26033
#
# Velocity S-wave (km/s) = 5.41829 3.93452 4.73489
# Velocity P-wave (km/s) = 7.48527 6.58774 7.05080
#
# Compressibility (1/GPa) = 0.02590158
#
# Stress axis : x y z
#
# Youngs Moduli (GPa) = 88.60323 88.81107 66.77972
#
# Poissons Ratio (x) = 0.25254 0.54279
# Poissons Ratio (y) = 0.25195 -0.34472
# Poissons Ratio (z) = 0.72017 -0.45845
#
# Static dielectric constant tensor:
#      x y z
#    x 1.875920 0.000000 0.009850 
#    y 0.000000 1.932560 0.000000 
#    z 0.009850 0.000000 1.765590 
# 
# From -- ./inp_files/44937.got.cif
#   From: 2010.05.17/outbox.cif.g08.bks.cpg/sg12_23_cif.got.tgz:44937.got - 2010.06.03 13:09:07.
