data_PCOD9209444
_publ_section_title
;
Structure prediction by ZEFSAII (Michael W. Deem and Ramdas Pophale) SiO2 
 PCOD9209444
Probable space group: C 2/M
;
_chemical_formula_sum "Si O2"
_cell_formula_units_Z 34
_cell_length_a 10.119323
_cell_length_b 7.347583
_cell_length_c 25.898251
_cell_angle_alpha 90.000000
_cell_angle_beta 45.555286
_cell_angle_gamma 90.000000
_cell_volume 1374.737758
_symmetry_space_group_name_H-M "C 2/M"
_symmetry_group_IT_number 12
_symmetry_cell_setting 'monoclinic'
loop_
_space_group_symop_operation_xyz
x,y,z
-x,y,-z
-x,-y,-z
x,-y,z
1/2+x,1/2+y,z
1/2-x,1/2+y,-z
1/2-x,1/2-y,-z
1/2+x,1/2-y,z
loop_
_atom_site_type_symbol
_atom_site_label
_atom_site_fract_x
_atom_site_fract_y
_atom_site_fract_z
Si Si1 0.465472 0.283813 0.427296
Si Si2 0.704574 0.783302 0.953175
Si Si3 0.964438 0.788634 0.707396
Si Si4 0.557853 0.279521 0.792973
Si Si5 0.000000 0.500000 0.500000
O O1 0.503427 0.500000 0.420754
O O2 0.250000 0.250000 0.500000
O O3 0.494611 0.216121 0.360920
O O4 0.568323 0.159675 0.440520
O O5 0.871424 0.714735 0.871847
O O6 0.697630 0.000000 0.945495
O O7 0.500000 0.708612 0.000000
O O8 0.750000 0.750000 0.000000
O O9 0.741790 0.775891 0.773036
O O10 0.058322 0.713211 0.733348
O O11 0.014727 0.000000 0.690886
O O12 0.555947 0.500000 0.792331
#
# Coordination Sequence:
#
# PCOD9209444 Si02
#       5
#     8   8   8   8   2
#     4  11  25  44  69 100 130 177 228 278 338 404
#     4  10  21  38  62  90 125 165 208 259 315 381
#     4  10  24  42  64  93 127 165 212 269 324 390
#     4  10  22  40  63  92 125 164 211 260 322 385
#     4  12  26  44  72  92 140 176 218 288 334 402
#
# _framework density 24.731991000000001
#
# number of rings (size 3 to 8) (size 9 to 14) (size 15 to 20)
#    0.000    1.647    1.176    1.765    4.941    4.235 
#    0.000    0.000    0.000    0.000    0.000    0.000 
#    0.000    0.000    0.000    0.000    0.000    0.000 
#
# Total GULP energy -94902.304764 kJ/mol
# GULP energy per Si atom -5582.488516 kJ/mol
# Density = 2.467570 g / cm^3
# Si number density = 24.731991 Si / 1000 Ang^3
#
#
#
# Elastic Constant Matrix: (Units=GPa)
#
#
# Indices 1 2 3 4 5 6 
#
# 1 104.0152 -0.7652 4.1467 0.0000 0.3540 0.0000
# 2 -0.7652 142.2454 2.9817 0.0000 9.8632 0.0000
# 3 4.1467 2.9817 105.0331 0.0000 3.1544 0.0000
# 4 0.0000 0.0000 0.0000 19.1579 0.0000 -0.0854
# 5 0.3540 9.8632 3.1544 0.0000 54.3988 0.0000
# 6 0.0000 0.0000 0.0000 -0.0854 0.0000 24.7303
#
#
#
# Elastic Compliance Matrix: (Units=1/GPa)
#
#
# Indices 1 2 3 4 5 6 
#
# 1 0.009630 0.000063 -0.000380 0.000000 -0.000052 0.000000
# 2 0.000063 0.007123 -0.000166 0.000000 -0.001282 0.000000
# 3 -0.000380 -0.000166 0.009556 0.000000 -0.000522 0.000000
# 4 0.000000 0.000000 0.000000 0.052199 0.000000 0.000180
# 5 -0.000052 -0.001282 -0.000522 0.000000 0.018646 0.000000
# 6 0.000000 0.000000 0.000000 0.000180 0.000000 0.040437
#
#
# Mechanical properties :
#
#
# Convention : Reuss Voigt Hill
#
# Bulk Modulus (GPa) = 39.45959 40.44668 39.95313
# Shear Modulus (GPa) = 34.01266 42.65275 38.33271
#
# Velocity S-wave (km/s) = 3.71246 4.15733 3.94118
# Velocity P-wave (km/s) = 5.86225 6.27965 6.07454
#
# Compressibility (1/GPa) = 0.02534238
#
# Stress axis : x y z
#
# Youngs Moduli (GPa) = 103.84441 140.39348 104.64405
#
# Poissons Ratio (x) = -0.00890 0.03981
# Poissons Ratio (y) = -0.00658 0.01739
# Poissons Ratio (z) = 0.03950 0.02333
#
# Static dielectric constant tensor:
#      x y z
#    x 2.119070 0.000000 -0.081200 
#    y 0.000000 1.845410 0.000000 
#    z -0.081200 0.000000 1.970390 
# 
# From -- ./inp_files/260789.got.cif
#   From: 2010.05.17/outbox.cif.g08.bks.cpg/sg12_131_cif.got.tgz:260789.got - 2010.06.03 13:09:07.
