data_PCOD9209573
_publ_section_title
;
Structure prediction by ZEFSAII (Michael W. Deem and Ramdas Pophale) SiO2 
 PCOD9209573
Probable space group: C 2/M
;
_chemical_formula_sum "Si O2"
_cell_formula_units_Z 48
_cell_length_a 21.459437
_cell_length_b 23.159965
_cell_length_c 5.973182
_cell_angle_alpha 90.000000
_cell_angle_beta 53.195639
_cell_angle_gamma 90.000000
_cell_volume 2376.972093
_symmetry_space_group_name_H-M "C 2/M"
_symmetry_group_IT_number 12
_symmetry_cell_setting 'monoclinic'
loop_
_space_group_symop_operation_xyz
x,y,z
-x,y,-z
-x,-y,-z
x,-y,z
1/2+x,1/2+y,z
1/2-x,1/2+y,-z
1/2-x,1/2-y,-z
1/2+x,1/2-y,z
loop_
_atom_site_type_symbol
_atom_site_label
_atom_site_fract_x
_atom_site_fract_y
_atom_site_fract_z
Si Si1 0.920076 0.135869 0.542483
Si Si2 0.678265 0.132995 0.980892
Si Si3 0.968426 0.430977 0.820951
Si Si4 0.831933 0.757614 0.953788
Si Si5 0.789676 0.067619 0.046891
Si Si6 0.326679 0.346505 0.350436
O O1 0.860660 0.083795 0.728082
O O2 0.908176 0.146325 0.304783
O O3 0.000000 0.125666 0.500000
O O4 0.884508 0.195338 0.716933
O O5 0.634315 0.193328 0.114975
O O6 0.714221 0.102146 0.120828
O O7 0.753034 0.151124 0.673728
O O8 0.621283 0.088323 0.987287
O O9 0.977845 0.500000 0.801058
O O10 0.000000 0.412297 0.500000
O O11 0.000000 0.410581 0.000000
O O12 0.821980 0.788165 0.215670
O O13 0.750000 0.750000 0.000000
O O14 0.775793 0.000000 0.091023
O O15 0.815624 0.098217 0.217342
#
# Coordination Sequence:
#
# PCOD9209573 Si02
#       6
#     8   8   8   8   8   8
#     4  10  23  41  60  87 124 163 201 252 313 375
#     4  11  22  38  64  89 122 159 213 258 311 381
#     4  10  24  44  62  89 132 174 213 266 327 380
#     4  11  20  38  60  91 121 157 198 255 309 376
#     4  10  22  38  61  92 118 155 210 258 310 378
#     4  10  21  38  63  88 125 158 204 253 319 372
#
# _framework density 20.193759
#
# number of rings (size 3 to 8) (size 9 to 14) (size 15 to 20)
#    0.000    1.667    5.000    1.000    2.333    7.000 
#    3.000    0.833    0.000    0.000    0.000    0.000 
#    0.000    0.000    0.000    0.000    0.000    0.000 
#
# Total GULP energy -133661.400972 kJ/mol
# GULP energy per Si atom -5569.225040 kJ/mol
# Density = 2.014780 g / cm^3
# Si number density = 20.193759 Si / 1000 Ang^3
#
#
#
# Elastic Constant Matrix: (Units=GPa)
#
#
# Indices 1 2 3 4 5 6 
#
# 1 128.8128 8.1108 37.5468 0.0000 31.1055 0.0000
# 2 8.1108 102.8203 25.5497 0.0000 15.4758 0.0000
# 3 37.5468 25.5497 46.5854 0.0000 24.7426 0.0000
# 4 0.0000 0.0000 0.0000 14.5901 0.0000 -4.3709
# 5 31.1055 15.4758 24.7426 0.0000 30.8883 0.0000
# 6 0.0000 0.0000 0.0000 -4.3709 0.0000 22.9406
#
#
#
# Elastic Compliance Matrix: (Units=1/GPa)
#
#
# Indices 1 2 3 4 5 6 
#
# 1 0.011184 0.001727 -0.006126 0.000000 -0.007220 0.000000
# 2 0.001727 0.011553 -0.006492 0.000000 -0.002327 0.000000
# 3 -0.006126 -0.006492 0.043442 0.000000 -0.025377 0.000000
# 4 0.000000 0.000000 0.000000 0.072688 0.000000 0.013850
# 5 -0.007220 -0.002327 -0.025377 0.000000 0.061140 0.000000
# 6 0.000000 0.000000 0.000000 0.013850 0.000000 0.046230
#
#
# Mechanical properties :
#
#
# Convention : Reuss Voigt Hill
#
# Bulk Modulus (GPa) = 22.52431 46.73700 34.63065
# Shear Modulus (GPa) = 17.67921 27.48455 22.58188
#
# Velocity S-wave (km/s) = 2.96206 3.69323 3.34767
# Velocity P-wave (km/s) = 4.78296 6.43282 5.66824
#
# Compressibility (1/GPa) = 0.04439648
#
# Stress axis : x y z
#
# Youngs Moduli (GPa) = 89.41630 86.55817 23.01902
#
# Poissons Ratio (x) = -0.14947 0.14101
# Poissons Ratio (y) = -0.15440 0.14944
# Poissons Ratio (z) = 0.54775 0.56194
#
# Static dielectric constant tensor:
#      x y z
#    x 1.754720 0.000000 0.063700 
#    y 0.000000 1.710970 0.000000 
#    z 0.063700 0.000000 1.897730 
# 
# From -- ./inp_files/16875.got.cif
#   From: 2010.05.17/outbox.cif.g08.bks.cpg/sg12_9_cif.got.tgz:16875.got - 2010.06.03 13:09:07.
