data_PCOD9209460
_publ_section_title
;
Structure prediction by ZEFSAII (Michael W. Deem and Ramdas Pophale) SiO2 
 PCOD9209460
Probable space group: C 2/M
;
_chemical_formula_sum "Si O2"
_cell_formula_units_Z 50
_cell_length_a 12.772717
_cell_length_b 13.161546
_cell_length_c 14.660092
_cell_angle_alpha 90.000000
_cell_angle_beta 117.827527
_cell_angle_gamma 90.000000
_cell_volume 2179.487653
_symmetry_space_group_name_H-M "C 2/M"
_symmetry_group_IT_number 12
_symmetry_cell_setting 'monoclinic'
loop_
_space_group_symop_operation_xyz
x,y,z
-x,y,-z
-x,-y,-z
x,-y,z
1/2+x,1/2+y,z
1/2-x,1/2+y,-z
1/2-x,1/2-y,-z
1/2+x,1/2-y,z
loop_
_atom_site_type_symbol
_atom_site_label
_atom_site_fract_x
_atom_site_fract_y
_atom_site_fract_z
Si Si1 0.563167 0.315438 0.659626
Si Si2 0.324461 0.379755 0.483764
Si Si3 0.000000 0.500000 0.000000
Si Si4 0.953087 0.113338 0.083841
Si Si5 0.247694 0.112904 0.880084
Si Si6 0.434219 0.116322 0.640841
Si Si7 0.945494 0.324888 0.847766
O O1 0.430705 0.360451 0.597191
O O2 0.631456 0.328511 0.591911
O O3 0.638183 0.375435 0.765669
O O4 0.538728 0.196025 0.665748
O O5 0.320048 0.500000 0.462578
O O6 0.190183 0.352910 0.457343
O O7 0.975687 0.407755 0.068570
O O8 0.001398 0.215195 0.149218
O O9 0.811800 0.120044 0.045857
O O10 0.986291 0.000000 0.131725
O O11 0.000000 0.117182 0.000000
O O12 0.338163 0.191783 0.875149
O O13 0.309282 0.000000 0.893825
O O14 0.405380 0.126257 0.736817
O O15 0.463749 0.000000 0.630247
#
# Coordination Sequence:
#
# PCOD9209460 Si02
#       7
#     8   8   2   8   8   8   8
#     4  11  20  35  61  92 119 158 199 255 298 358
#     4  10  21  38  62  91 123 157 210 254 294 365
#     4  12  24  40  66  92 120 158 212 270 304 366
#     4  10  23  42  61  88 124 158 196 256 319 367
#     4  11  21  37  65  89 117 161 203 247 306 363
#     4  11  22  38  60  87 125 162 200 254 311 362
#     4  12  22  41  63  91 121 158 212 256 304 370
#
# _framework density 22.94117
#
# number of rings (size 3 to 8) (size 9 to 14) (size 15 to 20)
#    0.000    1.120    5.600    2.400    0.000    0.640 
#    0.000    2.400    0.000    2.880    0.000    0.000 
#    0.000    0.000    0.000    0.000    0.000    0.000 
#
# Total GULP energy -139347.070601 kJ/mol
# GULP energy per Si atom -5573.882824 kJ/mol
# Density = 2.288895 g / cm^3
# Si number density = 22.941170 Si / 1000 Ang^3
#
#
#
# Elastic Constant Matrix: (Units=GPa)
#
#
# Indices 1 2 3 4 5 6 
#
# 1 60.5077 28.3438 -14.0073 0.0000 -11.6715 0.0000
# 2 28.3438 148.1373 8.7288 0.0000 8.6815 0.0000
# 3 -14.0073 8.7288 41.9972 0.0000 10.0602 0.0000
# 4 0.0000 0.0000 0.0000 27.7130 0.0000 2.9317
# 5 -11.6715 8.6815 10.0602 0.0000 28.0490 0.0000
# 6 0.0000 0.0000 0.0000 2.9317 0.0000 40.0303
#
#
#
# Elastic Compliance Matrix: (Units=1/GPa)
#
#
# Indices 1 2 3 4 5 6 
#
# 1 0.022013 -0.005082 0.006375 0.000000 0.008446 0.000000
# 2 -0.005082 0.008088 -0.002483 0.000000 -0.003727 0.000000
# 3 0.006375 -0.002483 0.028043 0.000000 -0.006637 0.000000
# 4 0.000000 0.000000 0.000000 0.036366 0.000000 -0.002663
# 5 0.008446 -0.003727 -0.006637 0.000000 0.042701 0.000000
# 6 0.000000 0.000000 0.000000 -0.002663 0.000000 0.025176
#
#
# Mechanical properties :
#
#
# Convention : Reuss Voigt Hill
#
# Bulk Modulus (GPa) = 17.93329 32.97476 25.45403
# Shear Modulus (GPa) = 27.26951 34.33026 30.79988
#
# Velocity S-wave (km/s) = 3.45145 3.87259 3.66807
# Velocity P-wave (km/s) = 4.87005 5.86522 5.39065
#
# Compressibility (1/GPa) = 0.05576220
#
# Stress axis : x y z
#
# Youngs Moduli (GPa) = 45.42856 123.64458 35.65915
#
# Poissons Ratio (x) = 0.62841 -0.22732
# Poissons Ratio (y) = 0.23089 0.08855
# Poissons Ratio (z) = -0.28960 0.30704
#
# Static dielectric constant tensor:
#      x y z
#    x 1.813200 0.000000 0.000580 
#    y 0.000000 1.859610 0.000000 
#    z 0.000580 0.000000 1.866010 
# 
# From -- ./inp_files/213468.got.cif
#   From: 2010.05.17/outbox.cif.g08.bks.cpg/sg12_107_cif.got.tgz:213468.got - 2010.06.03 13:09:07.
