data_PCOD9209758
_publ_section_title
;
Structure prediction by ZEFSAII (Michael W. Deem and Ramdas Pophale) SiO2 
 PCOD9209758
Probable space group: C 2/M
;
_chemical_formula_sum "Si O2"
_cell_formula_units_Z 64
_cell_length_a 19.487472
_cell_length_b 8.970531
_cell_length_c 32.100548
_cell_angle_alpha 90.000000
_cell_angle_beta 36.363806
_cell_angle_gamma 90.000000
_cell_volume 3327.170882
_symmetry_space_group_name_H-M "C 2/M"
_symmetry_group_IT_number 12
_symmetry_cell_setting 'monoclinic'
loop_
_space_group_symop_operation_xyz
x,y,z
-x,y,-z
-x,-y,-z
x,-y,z
1/2+x,1/2+y,z
1/2-x,1/2+y,-z
1/2-x,1/2-y,-z
1/2+x,1/2-y,z
loop_
_atom_site_type_symbol
_atom_site_label
_atom_site_fract_x
_atom_site_fract_y
_atom_site_fract_z
Si Si1 0.360922 0.179710 0.294622
Si Si2 0.719770 0.176709 0.209267
Si Si3 0.704210 0.822144 0.980452
Si Si4 0.336496 0.678424 0.674936
Si Si5 0.622041 0.178418 0.168992
Si Si6 0.679161 0.676804 0.596002
Si Si7 0.572959 0.176379 0.567722
Si Si8 0.456653 0.825086 0.068583
O O1 0.265435 0.222908 0.307113
O O2 0.492759 0.217692 0.217526
O O3 0.336782 0.254159 0.350831
O O4 0.356752 0.000000 0.301487
O O5 0.690988 0.262672 0.265456
O O6 0.637023 0.213980 0.210602
O O7 0.847806 0.223862 0.132061
O O8 0.712444 0.000000 0.220224
O O9 0.779724 0.759855 0.905385
O O10 0.715219 0.000000 0.976020
O O11 0.750000 0.750000 0.000000
O O12 0.568765 0.787682 0.041070
O O13 0.343400 0.500000 0.671743
O O14 0.460670 0.747468 0.602919
O O15 0.637810 0.000000 0.156703
O O16 0.656668 0.500000 0.607367
O O17 0.598784 0.754132 0.600525
O O18 0.811154 0.700729 0.515879
O O19 0.553997 0.000000 0.581273
O O20 0.425615 0.000000 0.090056
O O21 0.500000 0.809326 0.000000
#
# Coordination Sequence:
#
# PCOD9209758 Si02
#       8
#     8   8   8   8   8   8   8   8
#     4  10  23  41  60  85 122 163 199 245 302 356
#     4  11  23  38  62  90 118 154 198 253 304 351
#     4  11  24  40  61  87 117 154 194 243 298 355
#     4  11  24  40  60  88 122 162 204 245 297 357
#     4  10  22  41  61  84 116 155 197 243 299 354
#     4  10  21  38  64  94 121 157 200 246 296 354
#     4  10  21  39  63  91 124 158 199 247 296 350
#     4  10  21  40  62  85 116 154 197 244 297 355
#
# _framework density 19.23556
#
# number of rings (size 3 to 8) (size 9 to 14) (size 15 to 20)
#    0.000    1.625    1.250    2.625    1.750    6.250 
#    0.000    2.500    0.000    0.000    0.000    0.000 
#    0.000    0.000    0.000    0.000    0.000    0.000 
#
# Total GULP energy -178881.569122 kJ/mol
# GULP energy per Si atom -5590.049035 kJ/mol
# Density = 1.919178 g / cm^3
# Si number density = 19.235560 Si / 1000 Ang^3
#
#
#
# Elastic Constant Matrix: (Units=GPa)
#
#
# Indices 1 2 3 4 5 6 
#
# 1 102.3709 34.4036 17.2242 0.0000 -25.1423 -0.0003
# 2 34.4036 35.2226 22.5577 -0.0003 -13.0016 -0.0001
# 3 17.2242 22.5577 46.9357 0.0001 -12.6943 0.0001
# 4 0.0000 -0.0003 0.0001 37.5689 0.0000 1.4916
# 5 -25.1423 -13.0016 -12.6943 0.0000 31.4586 0.0000
# 6 -0.0003 -0.0001 0.0001 1.4916 0.0000 31.5224
#
#
#
# Elastic Compliance Matrix: (Units=1/GPa)
#
#
# Indices 1 2 3 4 5 6 
#
# 1 0.016264 -0.015117 0.003505 0.000000 0.008166 0.000000
# 2 -0.015117 0.058138 -0.021511 0.000000 0.003266 0.000000
# 3 0.003505 -0.021511 0.032228 0.000000 0.006916 0.000000
# 4 0.000000 0.000000 0.000000 0.026668 0.000000 -0.001262
# 5 0.008166 0.003266 0.006916 0.000000 0.042455 0.000000
# 6 0.000000 0.000000 0.000000 -0.001262 0.000000 0.031783
#
#
# Mechanical properties :
#
#
# Convention : Reuss Voigt Hill
#
# Bulk Modulus (GPa) = 24.76128 36.98892 30.87510
# Shear Modulus (GPa) = 17.40683 27.46624 22.43653
#
# Velocity S-wave (km/s) = 3.01147 3.78284 3.41898
# Velocity P-wave (km/s) = 4.99925 6.19282 5.62777
#
# Compressibility (1/GPa) = 0.04038563
#
# Stress axis : x y z
#
# Youngs Moduli (GPa) = 61.48385 17.20039 31.02866
#
# Poissons Ratio (x) = 0.26002 -0.10876
# Poissons Ratio (y) = 0.92945 0.66745
# Poissons Ratio (z) = -0.21551 0.37000
#
# Static dielectric constant tensor:
#      x y z
#    x 1.663670 0.000000 -0.016240 
#    y 0.000000 1.639300 0.000000 
#    z -0.016240 0.000000 1.663620 
# 
# From -- ./inp_files/377978.got.cif
#   From: 2010.05.17/outbox.cif.g08.bks.cpg/sg12_189_cif.got.tgz:377978.got - 2010.06.03 13:09:07.
