data_PCOD9209297
_publ_section_title
;
Structure prediction by ZEFSAII (Michael W. Deem and Ramdas Pophale) SiO2 
 PCOD9209297
Probable space group: C 2/M
;
_chemical_formula_sum "Si O2"
_cell_formula_units_Z 40
_cell_length_a 11.346584
_cell_length_b 18.894062
_cell_length_c 12.053803
_cell_angle_alpha 90.000000
_cell_angle_beta 45.775801
_cell_angle_gamma 90.000000
_cell_volume 1851.830002
_symmetry_space_group_name_H-M "C 2/M"
_symmetry_group_IT_number 12
_symmetry_cell_setting 'monoclinic'
loop_
_space_group_symop_operation_xyz
x,y,z
-x,y,-z
-x,-y,-z
x,-y,z
1/2+x,1/2+y,z
1/2-x,1/2+y,-z
1/2-x,1/2-y,-z
1/2+x,1/2-y,z
loop_
_atom_site_type_symbol
_atom_site_label
_atom_site_fract_x
_atom_site_fract_y
_atom_site_fract_z
Si Si1 0.518818 0.286760 0.365939
Si Si2 0.649883 0.210388 0.966863
Si Si3 0.485490 0.146137 0.747455
Si Si4 0.192937 0.919444 0.553660
Si Si5 0.178775 0.917633 0.828278
O O1 0.500000 0.254971 0.500000
O O2 0.706710 0.305498 0.213704
O O3 0.458563 0.226150 0.320620
O O4 0.417417 0.358492 0.426245
O O5 0.500000 0.247455 0.000000
O O6 0.750000 0.250000 0.000000
O O7 0.561726 0.146893 0.092054
O O8 0.624201 0.093679 0.612993
O O9 0.317539 0.130824 0.791490
O O10 0.181242 0.908387 0.694242
O O11 0.141118 0.000000 0.564686
O O12 0.222022 0.000000 0.822196
O O13 0.000000 0.906276 0.000000
#
# Coordination Sequence:
#
# PCOD9209297 Si02
#       5
#     8   8   8   8   8
#     4  11  23  39  62  89 123 162 209 261 320 380
#     4  10  23  41  63  94 130 166 208 260 317 379
#     4  11  22  38  64  92 124 161 209 264 321 377
#     4  11  23  39  60  88 124 167 215 264 316 377
#     4  10  21  38  61  92 129 168 212 263 320 380
#
# _framework density 21.600255000000001
#
# number of rings (size 3 to 8) (size 9 to 14) (size 15 to 20)
#    0.000    1.400    0.000    5.400    0.000   13.200 
#    0.000    1.000    0.000    4.200    0.000    0.000 
#    0.000    0.000    0.000    0.000    0.000    0.000 
#
# Total GULP energy -111734.217942 kJ/mol
# GULP energy per Si atom -5586.710897 kJ/mol
# Density = 2.155109 g / cm^3
# Si number density = 21.600255 Si / 1000 Ang^3
#
#
#
# Elastic Constant Matrix: (Units=GPa)
#
#
# Indices 1 2 3 4 5 6 
#
# 1 71.9940 8.6643 16.6074 -0.0002 -17.7107 0.0003
# 2 8.6643 70.7774 0.6653 -0.0001 -4.4840 0.0002
# 3 16.6074 0.6653 152.5112 -0.0003 -1.1877 0.0004
# 4 -0.0002 -0.0001 -0.0003 26.5019 0.0002 -3.3618
# 5 -17.7107 -4.4840 -1.1877 0.0002 36.6347 -0.0003
# 6 0.0003 0.0002 0.0004 -3.3618 -0.0003 30.3683
#
#
#
# Elastic Compliance Matrix: (Units=1/GPa)
#
#
# Indices 1 2 3 4 5 6 
#
# 1 0.016352 -0.001500 -0.001714 0.000000 0.007666 0.000000
# 2 -0.001500 0.014377 0.000109 0.000000 0.001038 0.000000
# 3 -0.001714 0.000109 0.006738 0.000000 -0.000597 0.000000
# 4 0.000000 0.000000 0.000000 0.038270 0.000000 0.004237
# 5 0.007666 0.001038 -0.000597 0.000000 0.031110 0.000000
# 6 0.000000 0.000000 0.000000 0.004237 0.000000 0.033398
#
#
# Mechanical properties :
#
#
# Convention : Reuss Voigt Hill
#
# Bulk Modulus (GPa) = 31.99358 38.57296 35.28327
# Shear Modulus (GPa) = 31.87224 36.65737 34.26481
#
# Velocity S-wave (km/s) = 3.84546 4.12403 3.98718
# Velocity P-wave (km/s) = 5.87882 6.36971 6.12918
#
# Compressibility (1/GPa) = 0.03125627
#
# Stress axis : x y z
#
# Youngs Moduli (GPa) = 61.15508 69.55477 148.40198
#
# Poissons Ratio (x) = 0.10433 0.25442
# Poissons Ratio (y) = 0.09173 -0.01613
# Poissons Ratio (z) = 0.10484 -0.00756
#
# Static dielectric constant tensor:
#      x y z
#    x 1.795930 0.000000 0.002660 
#    y 0.000000 1.787460 0.000000 
#    z 0.002660 0.000000 1.816080 
# 
# From -- ./inp_files/47153.got.cif
#   From: 2010.05.17/outbox.cif.g08.bks.cpg/sg12_24_cif.got.tgz:47153.got - 2010.06.03 13:09:07.
