data_PCOD9209038
_publ_section_title
;
Structure prediction by ZEFSAII (Michael W. Deem and Ramdas Pophale) SiO2 
 PCOD9209038
Probable space group: C 2/M
;
_chemical_formula_sum "Si O2"
_cell_formula_units_Z 58
_cell_length_a 22.086139
_cell_length_b 24.035852
_cell_length_c 15.803589
_cell_angle_alpha 90.000000
_cell_angle_beta 160.605581
_cell_angle_gamma 90.000000
_cell_volume 2785.888402
_symmetry_space_group_name_H-M "C 2/M"
_symmetry_group_IT_number 12
_symmetry_cell_setting 'monoclinic'
loop_
_space_group_symop_operation_xyz
x,y,z
-x,y,-z
-x,-y,-z
x,-y,z
1/2+x,1/2+y,z
1/2-x,1/2+y,-z
1/2-x,1/2-y,-z
1/2+x,1/2-y,z
loop_
_atom_site_type_symbol
_atom_site_label
_atom_site_fract_x
_atom_site_fract_y
_atom_site_fract_z
Si Si1 0.033133 0.938024 0.252355
Si Si2 0.754009 0.891229 0.142796
Si Si3 0.500000 0.500000 0.500000
Si Si4 0.787693 0.286635 0.216059
Si Si5 0.123333 0.564715 0.413331
Si Si6 0.316711 0.911655 0.311747
Si Si7 0.058254 0.169675 0.759491
Si Si8 0.810323 0.309648 0.797231
O O1 0.992345 0.889822 0.265104
O O2 0.205541 0.922551 0.421485
O O3 0.062068 0.000000 0.328025
O O4 0.856199 0.939664 0.959557
O O5 0.857820 0.949889 0.282007
O O6 0.852503 0.846352 0.212243
O O7 0.737377 0.865471 0.214022
O O8 0.551887 0.899707 0.840815
O O9 0.784798 0.345608 0.260643
O O10 0.674861 0.240376 0.116505
O O11 0.000000 0.269317 0.500000
O O12 0.700718 0.299613 0.009576
O O13 0.080450 0.500000 0.342409
O O14 0.166808 0.572465 0.569216
O O15 0.500000 0.924729 0.500000
O O16 0.867181 0.201345 0.494960
O O17 0.000000 0.316247 0.000000
#
# Coordination Sequence:
#
# PCOD9209038 Si02
#       8
#     8   8   2   8   8   8   8   8
#     4  10  22  37  58  92 131 169 210 261 321 381
#     4  12  24  44  67  97 127 163 219 260 313 379
#     4  12  24  44  70 100 120 168 214 268 304 380
#     4  10  23  43  66  95 124 165 216 262 320 371
#     4  11  22  36  59  90 130 172 208 262 325 378
#     4  10  21  38  60  92 127 168 218 264 311 376
#     4  11  24  43  68  94 127 169 213 269 317 376
#     4  12  27  45  66  95 130 166 210 265 320 381
#
# _framework density 20.819212
#
# number of rings (size 3 to 8) (size 9 to 14) (size 15 to 20)
#    0.000    1.103    2.069    4.966    0.966    9.379 
#    0.000    0.345    0.000    0.000    0.000    0.000 
#    0.000    0.000    0.000    0.000    0.000    0.000 
#
# Total GULP energy -161903.622354 kJ/mol
# GULP energy per Si atom -5582.883529 kJ/mol
# Density = 2.077183 g / cm^3
# Si number density = 20.819212 Si / 1000 Ang^3
#
#
#
# Elastic Constant Matrix: (Units=GPa)
#
#
# Indices 1 2 3 4 5 6 
#
# 1 90.5804 28.5370 48.2930 0.0000 9.8297 -0.0001
# 2 28.5370 61.8189 26.8739 0.0000 2.7872 0.0000
# 3 48.2930 26.8739 124.6041 0.0000 14.4748 0.0000
# 4 0.0000 0.0000 0.0000 26.1584 0.0000 -13.6375
# 5 9.8297 2.7872 14.4748 0.0000 26.2619 -0.0001
# 6 -0.0001 0.0000 0.0000 -13.6375 -0.0001 89.9073
#
#
#
# Elastic Compliance Matrix: (Units=1/GPa)
#
#
# Indices 1 2 3 4 5 6 
#
# 1 0.015328 -0.004974 -0.004554 0.000000 -0.002699 0.000000
# 2 -0.004974 0.019466 -0.002400 0.000000 0.001119 0.000000
# 3 -0.004554 -0.002400 0.010770 0.000000 -0.003977 0.000000
# 4 0.000000 0.000000 0.000000 0.041511 0.000000 0.006297
# 5 -0.002699 0.001119 -0.003977 0.000000 0.041161 0.000000
# 6 0.000000 0.000000 0.000000 0.006297 0.000000 0.012078
#
#
# Mechanical properties :
#
#
# Convention : Reuss Voigt Hill
#
# Bulk Modulus (GPa) = 46.07026 53.82347 49.94686
# Shear Modulus (GPa) = 29.17025 40.01881 34.59453
#
# Velocity S-wave (km/s) = 3.74722 4.38905 4.08077
# Velocity P-wave (km/s) = 6.39523 7.18289 6.80047
#
# Compressibility (1/GPa) = 0.02170598
#
# Stress axis : x y z
#
# Youngs Moduli (GPa) = 65.23957 51.37283 92.84855
#
# Poissons Ratio (x) = 0.25554 0.42287
# Poissons Ratio (y) = 0.32452 0.22287
# Poissons Ratio (z) = 0.29713 0.12331
#
# Static dielectric constant tensor:
#      x y z
#    x 1.730270 0.000000 -0.001190 
#    y 0.000000 1.729990 0.000000 
#    z -0.001190 0.000000 1.742130 
# 
# From -- ./inp_files/235813.got.cif
#   From: 2010.05.17/outbox.cif.g08.bks.cpg/sg12_118_cif.got.tgz:235813.got - 2010.06.03 13:09:07.
