data_PCOD9209949
_publ_section_title
;
Structure prediction by ZEFSAII (Michael W. Deem and Ramdas Pophale) SiO2 
 PCOD9209949
Probable space group: C 2/M
;
_chemical_formula_sum "Si O2"
_cell_formula_units_Z 48
_cell_length_a 7.625381
_cell_length_b 23.829329
_cell_length_c 11.767504
_cell_angle_alpha 90.000000
_cell_angle_beta 110.208908
_cell_angle_gamma 90.000000
_cell_volume 2006.614357
_symmetry_space_group_name_H-M "C 2/M"
_symmetry_group_IT_number 12
_symmetry_cell_setting 'monoclinic'
loop_
_space_group_symop_operation_xyz
x,y,z
-x,y,-z
-x,-y,-z
x,-y,z
1/2+x,1/2+y,z
1/2-x,1/2+y,-z
1/2-x,1/2-y,-z
1/2+x,1/2-y,z
loop_
_atom_site_type_symbol
_atom_site_label
_atom_site_fract_x
_atom_site_fract_y
_atom_site_fract_z
Si Si1 0.500000 0.317854 0.500000
Si Si2 0.088906 0.199946 0.261599
Si Si3 0.723103 0.100979 0.319307
Si Si4 0.622487 0.000000 0.420589
Si Si5 0.890459 0.000000 0.090764
Si Si6 0.659069 0.376720 0.938228
Si Si7 0.011472 0.000000 0.347101
Si Si8 0.575425 0.182877 0.834699
O O1 0.434627 0.290530 0.606874
O O2 0.677219 0.355638 0.573875
O O3 0.287253 0.184024 0.246876
O O4 0.945419 0.151002 0.192590
O O5 0.019147 0.256302 0.184278
O O6 0.583513 0.056592 0.345376
O O7 0.589785 0.137624 0.210808
O O8 0.885305 0.055764 0.327749
O O9 0.500000 0.000000 0.500000
O O10 0.829097 0.000000 0.524242
O O11 0.778646 0.941011 0.071730
O O12 0.053877 0.000000 0.223174
O O13 0.000000 0.000000 0.000000
O O14 0.500000 0.381136 0.000000
O O15 0.805551 0.334760 0.028918
#
# Coordination Sequence:
#
# PCOD9209949 Si02
#       8
#     4   8   8   4   4   8   4   8
#     4  12  24  43  70  96 138 183 236 290 364 410
#     4  11  25  44  69 100 140 193 234 298 354 429
#     4  11  24  42  68 101 136 187 227 294 348 418
#     4  11  25  40  69 104 137 186 226 280 350 427
#     4  10  21  38  73 104 134 182 224 288 349 407
#     4   9  21  42  69 102 139 181 229 290 351 420
#     4  11  22  48  67 100 146 183 229 285 359 422
#     4  11  25  45  70 101 138 183 248 291 359 427
#
# _framework density 23.920888999999999
#
# number of rings (size 3 to 8) (size 9 to 14) (size 15 to 20)
#    0.000    1.333    1.667    3.000    2.333    6.667 
#    0.000    8.333    0.000    0.000    0.000    0.000 
#    0.000    0.000    0.000    0.000    0.000    0.000 
#
# Total GULP energy -133922.360714 kJ/mol
# GULP energy per Si atom -5580.098363 kJ/mol
# Density = 2.386644 g / cm^3
# Si number density = 23.920889 Si / 1000 Ang^3
#
#
#
# Elastic Constant Matrix: (Units=GPa)
#
#
# Indices 1 2 3 4 5 6 
#
# 1 87.6849 20.1350 2.0617 0.0000 -1.0113 0.0000
# 2 20.1350 150.7505 30.8664 0.0000 15.5986 0.0000
# 3 2.0617 30.8664 109.2836 0.0000 -2.1128 0.0000
# 4 0.0000 0.0000 0.0000 41.2851 0.0000 -16.1149
# 5 -1.0113 15.5986 -2.1128 0.0000 33.3355 0.0000
# 6 0.0000 0.0000 0.0000 -16.1149 0.0000 94.0832
#
#
#
# Elastic Compliance Matrix: (Units=1/GPa)
#
#
# Indices 1 2 3 4 5 6 
#
# 1 0.011816 -0.001764 0.000299 0.000000 0.001203 0.000000
# 2 -0.001764 0.007717 -0.002220 0.000000 -0.003805 0.000000
# 3 0.000299 -0.002220 0.009804 0.000000 0.001669 0.000000
# 4 0.000000 0.000000 0.000000 0.025957 0.000000 0.004446
# 5 0.001203 -0.003805 0.001669 0.000000 0.031921 0.000000
# 6 0.000000 0.000000 0.000000 0.004446 0.000000 0.011390
#
#
# Mechanical properties :
#
#
# Convention : Reuss Voigt Hill
#
# Bulk Modulus (GPa) = 45.52232 50.42724 47.97478
# Shear Modulus (GPa) = 44.13080 53.38449 48.75765
#
# Velocity S-wave (km/s) = 4.29985 4.72922 4.51964
# Velocity P-wave (km/s) = 6.61236 7.13774 6.88007
#
# Compressibility (1/GPa) = 0.02196725
#
# Stress axis : x y z
#
# Youngs Moduli (GPa) = 84.62845 129.57791 101.99741
#
# Poissons Ratio (x) = 0.22855 -0.03045
# Poissons Ratio (y) = 0.14927 0.22644
# Poissons Ratio (z) = -0.02526 0.28766
#
# Static dielectric constant tensor:
#      x y z
#    x 2.160190 0.000000 -0.158380 
#    y 0.000000 1.879850 0.000000 
#    z -0.158380 0.000000 1.946720 
# 
# From -- ./inp_files/122642.got.cif
#   From: 2010.05.17/outbox.cif.g08.bks.cpg/sg12_62_cif.got.tgz:122642.got - 2010.06.03 13:09:07.
