data_PCOD9209800
_publ_section_title
;
Structure prediction by ZEFSAII (Michael W. Deem and Ramdas Pophale) SiO2 
 PCOD9209800
Probable space group: C 2/M
;
_chemical_formula_sum "Si O2"
_cell_formula_units_Z 64
_cell_length_a 17.116312
_cell_length_b 13.816848
_cell_length_c 18.624986
_cell_angle_alpha 90.000000
_cell_angle_beta 41.076218
_cell_angle_gamma 90.000000
_cell_volume 2894.154742
_symmetry_space_group_name_H-M "C 2/M"
_symmetry_group_IT_number 12
_symmetry_cell_setting 'monoclinic'
loop_
_space_group_symop_operation_xyz
x,y,z
-x,y,-z
-x,-y,-z
x,-y,z
1/2+x,1/2+y,z
1/2-x,1/2+y,-z
1/2-x,1/2-y,-z
1/2+x,1/2-y,z
loop_
_atom_site_type_symbol
_atom_site_label
_atom_site_fract_x
_atom_site_fract_y
_atom_site_fract_z
Si Si1 0.299186 0.732546 0.240039
Si Si2 0.972925 0.111953 0.363398
Si Si3 0.784009 0.616838 0.971181
Si Si4 0.245535 0.609125 0.614578
Si Si5 0.990099 0.117178 0.830420
Si Si6 0.360523 0.891181 0.080628
Si Si7 0.487815 0.888886 0.725540
Si Si8 0.444392 0.209765 0.615745
O O1 0.242411 0.800581 0.341261
O O2 0.413191 0.675033 0.189693
O O3 0.323958 0.806362 0.158888
O O4 0.188741 0.667606 0.291859
O O5 0.837063 0.120741 0.485355
O O6 0.987070 0.138414 0.269975
O O7 0.050284 0.178469 0.362345
O O8 0.007472 0.000000 0.346076
O O9 0.786601 0.500000 0.964403
O O10 0.877676 0.653865 0.847232
O O11 0.646388 0.644682 0.057115
O O12 0.829651 0.636304 0.020249
O O13 0.268111 0.500000 0.628719
O O14 0.107660 0.612571 0.688476
O O15 0.002622 0.000000 0.830920
O O16 0.309191 0.000000 0.128849
O O17 0.500000 0.900075 0.000000
O O18 0.514123 0.839117 0.632280
O O19 0.458876 0.000000 0.730525
O O20 0.500000 0.196019 0.500000
#
# Coordination Sequence:
#
# PCOD9209800 Si02
#       8
#     8   8   8   8   8   8   8   8
#     4  12  24  38  61  95 133 167 209 262 326 382
#     4  10  22  42  66  92 126 170 218 263 317 379
#     4   9  19  42  69  92 124 168 222 267 310 374
#     4  10  21  39  65  93 124 166 215 263 314 381
#     4  10  23  42  67  94 125 175 225 265 306 371
#     4  10  21  38  64  99 134 162 201 263 330 386
#     4  10  23  43  68  93 124 171 215 260 316 380
#     4  12  26  41  60  94 132 166 208 264 327 386
#
# _framework density 22.113537000000001
#
# number of rings (size 3 to 8) (size 9 to 14) (size 15 to 20)
#    0.000    1.625    1.250    2.625    1.750    7.000 
#    0.000    3.750    0.000    2.625    0.000    0.875 
#    0.000    0.000    0.000    0.000    0.000    0.000 
#
# Total GULP energy -178834.390188 kJ/mol
# GULP energy per Si atom -5588.574693 kJ/mol
# Density = 2.206321 g / cm^3
# Si number density = 22.113537 Si / 1000 Ang^3
#
#
#
# Elastic Constant Matrix: (Units=GPa)
#
#
# Indices 1 2 3 4 5 6 
#
# 1 54.2579 16.7296 19.8611 0.0000 -8.8173 0.0000
# 2 16.7296 65.0807 22.2340 0.0000 5.5468 0.0000
# 3 19.8611 22.2340 80.0855 0.0000 -2.6438 0.0000
# 4 0.0000 0.0000 0.0000 20.9573 0.0000 -4.8754
# 5 -8.8173 5.5468 -2.6438 0.0000 39.6758 0.0000
# 6 0.0000 0.0000 0.0000 -4.8754 0.0000 30.6223
#
#
#
# Elastic Compliance Matrix: (Units=1/GPa)
#
#
# Indices 1 2 3 4 5 6 
#
# 1 0.022248 -0.004806 -0.004007 0.000000 0.005349 0.000000
# 2 -0.004806 0.018306 -0.004019 0.000000 -0.003895 0.000000
# 3 -0.004007 -0.004019 0.014617 0.000000 0.000645 0.000000
# 4 0.000000 0.000000 0.000000 0.049551 0.000000 0.007889
# 5 0.005349 -0.003895 0.000645 0.000000 0.026981 0.000000
# 6 0.000000 0.000000 0.000000 0.007889 0.000000 0.033912
#
#
# Mechanical properties :
#
#
# Convention : Reuss Voigt Hill
#
# Bulk Modulus (GPa) = 33.88893 35.23041 34.55967
# Shear Modulus (GPa) = 24.86136 27.62437 26.24286
#
# Velocity S-wave (km/s) = 3.35664 3.53825 3.44864
# Velocity P-wave (km/s) = 5.51189 5.71476 5.61424
#
# Compressibility (1/GPa) = 0.02950816
#
# Stress axis : x y z
#
# Youngs Moduli (GPa) = 44.94710 54.62686 68.41178
#
# Poissons Ratio (x) = 0.26255 0.27410
# Poissons Ratio (y) = 0.21603 0.27494
# Poissons Ratio (z) = 0.18009 0.21954
#
# Static dielectric constant tensor:
#      x y z
#    x 1.781590 0.000000 -0.021560 
#    y 0.000000 1.874780 0.000000 
#    z -0.021560 0.000000 1.816220 
# 
# From -- ./inp_files/278121.got.cif
#   From: 2010.05.17/outbox.cif.g08.bks.cpg/sg12_140_cif.got.tgz:278121.got - 2010.06.03 13:09:07.
