data_PCOD9209189
_publ_section_title
;
Structure prediction by ZEFSAII (Michael W. Deem and Ramdas Pophale) SiO2 
 PCOD9209189
Probable space group: C 2/M
;
_chemical_formula_sum "Si O2"
_cell_formula_units_Z 64
_cell_length_a 28.750403
_cell_length_b 9.020039
_cell_length_c 18.173188
_cell_angle_alpha 90.000000
_cell_angle_beta 136.781515
_cell_angle_gamma 90.000000
_cell_volume 3227.274957
_symmetry_space_group_name_H-M "C 2/M"
_symmetry_group_IT_number 12
_symmetry_cell_setting 'monoclinic'
loop_
_space_group_symop_operation_xyz
x,y,z
-x,y,-z
-x,-y,-z
x,-y,z
1/2+x,1/2+y,z
1/2-x,1/2+y,-z
1/2-x,1/2-y,-z
1/2+x,1/2-y,z
loop_
_atom_site_type_symbol
_atom_site_label
_atom_site_fract_x
_atom_site_fract_y
_atom_site_fract_z
Si Si1 0.682265 0.822581 0.455513
Si Si2 0.451253 0.671129 0.013883
Si Si3 0.455244 0.678739 0.740140
Si Si4 0.433205 0.324799 0.245142
Si Si5 0.298925 0.674131 0.998252
Si Si6 0.920984 0.673621 0.386832
Si Si7 0.689815 0.825558 0.143176
Si Si8 0.321745 0.323648 0.389916
O O1 0.750000 0.750000 0.500000
O O2 0.615574 0.762996 0.336733
O O3 0.672822 0.764383 0.527892
O O4 0.686555 0.000000 0.457643
O O5 0.429665 0.500000 0.002155
O O6 0.384498 0.766198 0.923235
O O7 0.500000 0.675065 0.000000
O O8 0.494966 0.717653 0.135121
O O9 0.444728 0.500000 0.729983
O O10 0.495340 0.714678 0.710734
O O11 0.434677 0.500000 0.265266
O O12 0.415364 0.234586 0.297406
O O13 0.375291 0.304083 0.116646
O O14 0.285596 0.500000 0.979866
O O15 0.289361 0.744276 0.907730
O O16 0.250000 0.750000 0.000000
O O17 0.902385 0.500000 0.368431
O O18 0.874804 0.764807 0.390432
O O19 0.000000 0.688503 0.500000
O O20 0.746470 0.799574 0.270156
O O21 0.687337 0.000000 0.126013
O O22 0.331837 0.500000 0.413780
#
# Coordination Sequence:
#
# PCOD9209189 Si02
#       8
#     8   8   8   8   8   8   8   8
#     4  12  27  46  69  97 128 167 213 265 322 379
#     4  10  22  41  67  98 129 169 215 260 319 386
#     4  10  21  42  67  96 131 169 213 264 319 381
#     4  10  21  38  61  88 124 166 208 254 312 377
#     4  11  22  38  59  89 126 167 213 257 311 377
#     4  11  24  40  61  93 127 163 214 267 321 380
#     4  11  24  41  63  94 131 169 213 265 319 377
#     4  11  25  45  66  94 130 170 217 264 320 384
#
# _framework density 19.830973
#
# number of rings (size 3 to 8) (size 9 to 14) (size 15 to 20)
#    0.000    1.250    1.250    4.125    1.750   10.250 
#    0.000    0.000    0.000    0.000    0.000    0.000 
#    0.000    0.000    0.000    0.000    0.000    0.000 
#
# Total GULP energy -179019.462826 kJ/mol
# GULP energy per Si atom -5594.358213 kJ/mol
# Density = 1.978584 g / cm^3
# Si number density = 19.830973 Si / 1000 Ang^3
#
#
#
# Elastic Constant Matrix: (Units=GPa)
#
#
# Indices 1 2 3 4 5 6 
#
# 1 91.0057 34.5728 26.0581 0.0000 13.0499 0.0000
# 2 34.5728 85.2067 53.9974 0.0000 15.3670 0.0000
# 3 26.0581 53.9974 65.5606 0.0000 9.0718 0.0000
# 4 0.0000 0.0000 0.0000 33.8676 0.0000 1.1568
# 5 13.0499 15.3670 9.0718 0.0000 36.2541 0.0000
# 6 0.0000 0.0000 0.0000 1.1568 0.0000 32.8385
#
#
#
# Elastic Compliance Matrix: (Units=1/GPa)
#
#
# Indices 1 2 3 4 5 6 
#
# 1 0.013332 -0.003758 -0.001823 0.000000 -0.002750 0.000000
# 2 -0.003758 0.026732 -0.019829 0.000000 -0.005016 0.000000
# 3 -0.001823 -0.019829 0.032170 0.000000 0.001012 0.000000
# 4 0.000000 0.000000 0.000000 0.029562 0.000000 -0.001041
# 5 -0.002750 -0.005016 0.001012 0.000000 0.030446 0.000000
# 6 0.000000 0.000000 0.000000 -0.001041 0.000000 0.030489
#
#
# Mechanical properties :
#
#
# Convention : Reuss Voigt Hill
#
# Bulk Modulus (GPa) = 46.70169 52.33662 49.51916
# Shear Modulus (GPa) = 22.65616 29.06835 25.86225
#
# Velocity S-wave (km/s) = 3.38370 3.83274 3.61520
# Velocity P-wave (km/s) = 6.23433 6.78492 6.51545
#
# Compressibility (1/GPa) = 0.02141250
#
# Stress axis : x y z
#
# Youngs Moduli (GPa) = 75.00480 37.40829 31.08514
#
# Poissons Ratio (x) = 0.14059 0.05668
# Poissons Ratio (y) = 0.28189 0.61640
# Poissons Ratio (z) = 0.13675 0.74178
#
# Static dielectric constant tensor:
#      x y z
#    x 1.673150 0.000000 0.006030 
#    y 0.000000 1.665190 0.000000 
#    z 0.006030 0.000000 1.689180 
# 
# From -- ./inp_files/295774.got.cif
#   From: 2010.05.17/outbox.cif.g08.bks.cpg/sg12_148_cif.got.tgz:295774.got - 2010.06.03 13:09:07.
