data_PCOD9209299
_publ_section_title
;
Structure prediction by ZEFSAII (Michael W. Deem and Ramdas Pophale) SiO2 
 PCOD9209299
Probable space group: C 2/M
;
_chemical_formula_sum "Si O2"
_cell_formula_units_Z 58
_cell_length_a 20.152136
_cell_length_b 20.662567
_cell_length_c 12.782956
_cell_angle_alpha 90.000000
_cell_angle_beta 33.228057
_cell_angle_gamma 90.000000
_cell_volume 2916.726742
_symmetry_space_group_name_H-M "C 2/M"
_symmetry_group_IT_number 12
_symmetry_cell_setting 'monoclinic'
loop_
_space_group_symop_operation_xyz
x,y,z
-x,y,-z
-x,-y,-z
x,-y,z
1/2+x,1/2+y,z
1/2-x,1/2+y,-z
1/2-x,1/2-y,-z
1/2+x,1/2-y,z
loop_
_atom_site_type_symbol
_atom_site_label
_atom_site_fract_x
_atom_site_fract_y
_atom_site_fract_z
Si Si1 0.614607 0.117567 0.978380
Si Si2 0.823713 0.269804 0.247494
Si Si3 0.300264 0.166293 0.736190
Si Si4 0.903151 0.924644 0.918628
Si Si5 0.000000 0.500000 0.000000
Si Si6 0.923774 0.804051 0.312468
Si Si7 0.534286 0.812767 0.289469
Si Si8 0.625518 0.424586 0.292509
O O1 0.611258 0.174399 0.899822
O O2 0.756317 0.106837 0.815877
O O3 0.552542 0.055879 0.010419
O O4 0.556225 0.140137 0.163687
O O5 0.777893 0.220246 0.219522
O O6 0.899992 0.231217 0.233435
O O7 0.707988 0.302382 0.458804
O O8 0.353582 0.188115 0.778124
O O9 0.418129 0.160816 0.506714
O O10 0.213680 0.104547 0.867509
O O11 0.873936 0.922590 0.833361
O O12 0.013927 0.873728 0.785834
O O13 0.928509 0.000000 0.912521
O O14 0.005715 0.757822 0.278459
O O15 0.500000 0.395167 0.500000
O O16 0.627687 0.500000 0.322642
#
# Coordination Sequence:
#
# PCOD9209299 Si02
#       8
#     8   8   8   8   2   8   8   8
#     4  12  22  41  64 100 129 177 215 279 333 400
#     4  10  23  41  69  93 133 171 217 280 341 392
#     4  10  22  42  64 100 129 170 228 275 329 394
#     4  11  23  40  64  97 132 173 220 267 328 405
#     4  12  28  40  62  98 136 166 232 258 336 418
#     4  10  22  43  65  97 132 171 222 275 338 405
#     4  10  22  40  69  95 130 172 225 282 326 382
#     4  10  21  38  61  92 133 171 211 264 330 397
#
# _framework density 19.885304999999999
#
# number of rings (size 3 to 8) (size 9 to 14) (size 15 to 20)
#    0.000    1.517    2.069    2.483    1.931    2.759 
#    2.483    2.069    0.000    0.000    0.000    0.000 
#    0.000    0.000    0.000    0.000    0.000    0.000 
#
# Total GULP energy -161781.312260 kJ/mol
# GULP energy per Si atom -5578.665940 kJ/mol
# Density = 1.984005 g / cm^3
# Si number density = 19.885305 Si / 1000 Ang^3
#
#
#
# Elastic Constant Matrix: (Units=GPa)
#
#
# Indices 1 2 3 4 5 6 
#
# 1 126.3400 91.1109 50.9866 0.0001 6.2444 0.0007
# 2 91.1109 147.8309 76.7032 -0.0002 2.0219 -0.0027
# 3 50.9866 76.7032 90.6767 -0.0003 7.6076 -0.0043
# 4 0.0001 -0.0002 -0.0003 26.9981 0.0000 12.4337
# 5 6.2444 2.0219 7.6076 0.0000 31.0759 0.0008
# 6 0.0007 -0.0027 -0.0043 12.4337 0.0008 237.7138
#
#
#
# Elastic Compliance Matrix: (Units=1/GPa)
#
#
# Indices 1 2 3 4 5 6 
#
# 1 0.014443 -0.008469 -0.000775 0.000000 -0.002161 0.000000
# 2 -0.008469 0.017116 -0.009970 0.000000 0.003029 0.000000
# 3 -0.000775 -0.009970 0.020246 0.000000 -0.004152 0.000000
# 4 0.000000 0.000000 0.000000 0.037954 0.000000 -0.001985
# 5 -0.002161 0.003029 -0.004152 0.000000 0.033433 0.000000
# 6 0.000000 0.000000 0.000000 -0.001985 0.000000 0.004311
#
#
# Mechanical properties :
#
#
# Convention : Reuss Voigt Hill
#
# Bulk Modulus (GPa) = 74.76687 89.16099 81.96393
# Shear Modulus (GPa) = 29.34428 68.89403 49.11916
#
# Velocity S-wave (km/s) = 3.84562 5.89245 4.97543
# Velocity P-wave (km/s) = 7.57622 9.55141 8.62057
#
# Compressibility (1/GPa) = 0.01337491
#
# Stress axis : x y z
#
# Youngs Moduli (GPa) = 69.23937 58.42463 49.39154
#
# Poissons Ratio (x) = 0.49482 0.03830
# Poissons Ratio (y) = 0.58642 0.49245
# Poissons Ratio (z) = 0.05369 0.58251
#
# Static dielectric constant tensor:
#      x y z
#    x 1.614120 0.000000 -0.043290 
#    y 0.000000 1.692260 0.000000 
#    z -0.043290 0.000000 1.747950 
# 
# From -- ./inp_files/159738.got.cif
#   From: 2010.05.17/outbox.cif.g08.bks.cpg/sg12_80_cif.got.tgz:159738.got - 2010.06.03 13:09:07.
