data_PCOD9209006
_publ_section_title
;
Structure prediction by ZEFSAII (Michael W. Deem and Ramdas Pophale) SiO2 
 PCOD9209006
Probable space group: C 2/M
;
_chemical_formula_sum "Si O2"
_cell_formula_units_Z 40
_cell_length_a 14.833407
_cell_length_b 8.602633
_cell_length_c 30.781706
_cell_angle_alpha 90.000000
_cell_angle_beta 146.841712
_cell_angle_gamma 90.000000
_cell_volume 2148.402858
_symmetry_space_group_name_H-M "C 2/M"
_symmetry_group_IT_number 12
_symmetry_cell_setting 'monoclinic'
loop_
_space_group_symop_operation_xyz
x,y,z
-x,y,-z
-x,-y,-z
x,-y,z
1/2+x,1/2+y,z
1/2-x,1/2+y,-z
1/2-x,1/2-y,-z
1/2+x,1/2-y,z
loop_
_atom_site_type_symbol
_atom_site_label
_atom_site_fract_x
_atom_site_fract_y
_atom_site_fract_z
Si Si1 0.530159 0.185542 0.373017
Si Si2 0.723210 0.816679 0.197041
Si Si3 0.691089 0.682709 0.088970
Si Si4 0.880567 0.817361 0.087201
Si Si5 0.615851 0.187472 0.506362
O O1 0.378656 0.268216 0.288585
O O2 0.539351 0.225281 0.428146
O O3 0.703120 0.237164 0.421302
O O4 0.511936 0.000000 0.361999
O O5 0.723536 0.725643 0.151665
O O6 0.553541 0.768681 0.151725
O O7 0.724537 0.000000 0.189097
O O8 0.721970 0.500000 0.093532
O O9 0.804118 0.784344 0.103257
O O10 0.500000 0.713019 0.000000
O O11 0.902984 0.000000 0.088208
O O12 0.750000 0.750000 0.000000
O O13 0.500000 0.234831 0.500000
O O14 0.634778 0.000000 0.516013
#
# Coordination Sequence:
#
# PCOD9209006 Si02
#       5
#     8   8   8   8   8
#     4  10  21  38  60  89 124 158 198 251 306 361
#     4  12  25  41  62  88 124 165 208 257 306 362
#     4  11  23  40  63  88 117 155 203 257 309 365
#     4  12  24  40  62  88 119 158 205 253 307 364
#     4   9  19  38  64  90 120 158 199 243 300 367
#
# _framework density 18.618483000000001
#
# number of rings (size 3 to 8) (size 9 to 14) (size 15 to 20)
#    0.000    1.200    2.000    4.800    0.000    3.600 
#    0.000    6.000    0.000    0.000    0.000    0.000 
#    0.000    0.000    0.000    0.000    0.000    0.000 
#
# Total GULP energy -111828.332754 kJ/mol
# GULP energy per Si atom -5591.416638 kJ/mol
# Density = 1.857611 g / cm^3
# Si number density = 18.618483 Si / 1000 Ang^3
#
#
#
# Elastic Constant Matrix: (Units=GPa)
#
#
# Indices 1 2 3 4 5 6 
#
# 1 103.0189 1.7195 28.8526 0.0000 4.7309 0.0000
# 2 1.7195 40.2535 22.4455 0.0000 1.5974 0.0000
# 3 28.8526 22.4455 111.4422 0.0000 7.8129 0.0000
# 4 0.0000 0.0000 0.0000 31.6212 0.0000 2.6468
# 5 4.7309 1.5974 7.8129 0.0000 16.8833 0.0000
# 6 0.0000 0.0000 0.0000 2.6468 0.0000 29.2347
#
#
#
# Elastic Compliance Matrix: (Units=1/GPa)
#
#
# Indices 1 2 3 4 5 6 
#
# 1 0.010567 0.001211 -0.002857 0.000000 -0.001754 0.000000
# 2 0.001211 0.028124 -0.005961 0.000000 -0.000242 0.000000
# 3 -0.002857 -0.005961 0.011181 0.000000 -0.003809 0.000000
# 4 0.000000 0.000000 0.000000 0.031866 0.000000 -0.002885
# 5 -0.001754 -0.000242 -0.003809 0.000000 0.061507 0.000000
# 6 0.000000 0.000000 0.000000 -0.002885 0.000000 0.034467
#
#
# Mechanical properties :
#
#
# Convention : Reuss Voigt Hill
#
# Bulk Modulus (GPa) = 28.85279 40.08332 34.46805
# Shear Modulus (GPa) = 24.45235 28.99431 26.72333
#
# Velocity S-wave (km/s) = 3.62793 3.95053 3.79266
# Velocity P-wave (km/s) = 5.75149 6.51033 6.14264
#
# Compressibility (1/GPa) = 0.03465870
#
# Stress axis : x y z
#
# Youngs Moduli (GPa) = 94.63047 35.55636 89.44042
#
# Poissons Ratio (x) = -0.04307 0.25553
# Poissons Ratio (y) = -0.11462 0.53317
# Poissons Ratio (z) = 0.27035 0.21196
#
# Static dielectric constant tensor:
#      x y z
#    x 1.631760 0.000000 -0.012630 
#    y 0.000000 1.625160 0.000000 
#    z -0.012630 0.000000 1.604940 
# 
# From -- ./inp_files/211189.got.cif
#   From: 2010.05.17/outbox.cif.g08.bks.cpg/sg12_106_cif.got.tgz:211189.got - 2010.06.03 13:09:07.
