data_PCOD9209527
_publ_section_title
;
Structure prediction by ZEFSAII (Michael W. Deem and Ramdas Pophale) SiO2 
 PCOD9209527
Probable space group: C 2/M
;
_chemical_formula_sum "Si O2"
_cell_formula_units_Z 52
_cell_length_a 8.878642
_cell_length_b 16.815785
_cell_length_c 18.139134
_cell_angle_alpha 90.000000
_cell_angle_beta 90.839852
_cell_angle_gamma 90.000000
_cell_volume 2707.905982
_symmetry_space_group_name_H-M "C 2/M"
_symmetry_group_IT_number 12
_symmetry_cell_setting 'monoclinic'
loop_
_space_group_symop_operation_xyz
x,y,z
-x,y,-z
-x,-y,-z
x,-y,z
1/2+x,1/2+y,z
1/2-x,1/2+y,-z
1/2-x,1/2-y,-z
1/2+x,1/2-y,z
loop_
_atom_site_type_symbol
_atom_site_label
_atom_site_fract_x
_atom_site_fract_y
_atom_site_fract_z
Si Si1 0.423039 0.645265 0.273426
Si Si2 0.495513 0.631860 0.105510
Si Si3 0.000000 0.279210 0.000000
Si Si4 0.088531 0.333540 0.573512
Si Si5 0.914201 0.000000 0.384302
Si Si6 0.746050 0.086203 0.988706
Si Si7 0.666310 0.236219 0.337727
Si Si8 0.753920 0.000000 0.539505
O O1 0.457119 0.623169 0.190097
O O2 0.394323 0.575342 0.331351
O O3 0.565969 0.693309 0.304967
O O4 0.275399 0.700030 0.277292
O O5 0.655811 0.595312 0.084626
O O6 0.502065 0.721418 0.071333
O O7 0.367103 0.590797 0.055454
O O8 0.140621 0.338092 0.997011
O O9 0.220801 0.273220 0.599786
O O10 0.160329 0.420378 0.559423
O O11 0.000000 0.306217 0.500000
O O12 0.954662 0.327538 0.632797
O O13 0.801065 0.000000 0.453289
O O14 0.085538 0.000000 0.416932
O O15 0.671361 0.000000 0.989057
#
# Coordination Sequence:
#
# PCOD9209527 Si02
#       8
#     8   8   4   8   4   8   8   4
#     4  11  24  41  63  87 130 159 204 252 312 369
#     4  10  21  38  63  85 122 167 200 240 301 364
#     4  10  21  38  63  94 122 152 210 252 293 352
#     4  11  21  40  64  89 118 158 205 257 308 364
#     4  11  24  42  62  93 122 163 205 256 312 369
#     4  10  21  38  62  94 120 155 210 246 293 355
#     4  10  24  40  59  95 121 158 203 258 307 373
#     4  11  23  42  66  88 122 163 208 257 310 364
#
# _framework density 19.203029999999998
#
# number of rings (size 3 to 8) (size 9 to 14) (size 15 to 20)
#    0.000    1.692    1.538    4.615    6.462    1.846 
#    0.000    0.000    0.000    0.000    0.000    0.000 
#    0.000    0.000    0.000    0.000    0.000    0.000 
#
# Total GULP energy -145092.398144 kJ/mol
# GULP energy per Si atom -5580.476852 kJ/mol
# Density = 1.915932 g / cm^3
# Si number density = 19.203030 Si / 1000 Ang^3
#
#
#
# Elastic Constant Matrix: (Units=GPa)
#
#
# Indices 1 2 3 4 5 6 
#
# 1 100.5456 37.5704 27.2874 0.0000 -19.6963 0.0000
# 2 37.5704 111.7410 33.2466 0.0000 -15.0513 0.0000
# 3 27.2874 33.2466 109.0149 0.0000 -19.6996 0.0000
# 4 0.0000 0.0000 0.0000 -14.9776 0.0000 0.2161
# 5 -19.6963 -15.0513 -19.6996 0.0000 15.6510 0.0000
# 6 0.0000 0.0000 0.0000 0.2161 0.0000 23.3195
#
#
#
# Elastic Compliance Matrix: (Units=1/GPa)
#
#
# Indices 1 2 3 4 5 6 
#
# 1 0.013852 -0.002659 0.000041 0.000000 0.014927 0.000000
# 2 -0.002659 0.011055 -0.001798 0.000000 0.005021 0.000000
# 3 0.000041 -0.001798 0.012178 0.000000 0.013650 0.000000
# 4 0.000000 0.000000 0.000000 -0.066758 0.000000 0.000619
# 5 0.014927 0.005021 0.013650 0.000000 0.104689 0.000000
# 6 0.000000 0.000000 0.000000 0.000619 0.000000 0.042877
#
#
# Mechanical properties :
#
#
# Convention : Reuss Voigt Hill
#
# Bulk Modulus (GPa) = 35.39578 57.50115 46.44846
# Shear Modulus (GPa) = 36.72593 19.67840 28.20216
#
# Velocity S-wave (km/s) = 4.37797 3.20465 3.83643
# Velocity P-wave (km/s) = 6.63535 6.61074 6.62306
#
# Compressibility (1/GPa) = 0.02825196
#
# Stress axis : x y z
#
# Youngs Moduli (GPa) = 72.18977 90.45878 82.11569
#
# Poissons Ratio (x) = 0.24054 -0.00337
# Poissons Ratio (y) = 0.19196 0.14768
# Poissons Ratio (z) = -0.00296 0.16269
#
# Static dielectric constant tensor:
#      x y z
#    x 1.675740 0.000000 -0.013380 
#    y 0.000000 1.701410 0.000000 
#    z -0.013380 0.000000 1.649290 
# 
# From -- ./inp_files/256579.got.cif
#   From: 2010.05.17/outbox.cif.g08.bks.cpg/sg12_129_cif.got.tgz:256579.got - 2010.06.03 13:09:07.
