data_PCOD9209451
_publ_section_title
;
Structure prediction by ZEFSAII (Michael W. Deem and Ramdas Pophale) SiO2 
 PCOD9209451
Probable space group: C 2/M
;
_chemical_formula_sum "Si O2"
_cell_formula_units_Z 48
_cell_length_a 15.558210
_cell_length_b 10.588542
_cell_length_c 23.090359
_cell_angle_alpha 90.000000
_cell_angle_beta 35.563304
_cell_angle_gamma 90.000000
_cell_volume 2212.342868
_symmetry_space_group_name_H-M "C 2/M"
_symmetry_group_IT_number 12
_symmetry_cell_setting 'monoclinic'
loop_
_space_group_symop_operation_xyz
x,y,z
-x,y,-z
-x,-y,-z
x,-y,z
1/2+x,1/2+y,z
1/2-x,1/2+y,-z
1/2-x,1/2-y,-z
1/2+x,1/2-y,z
loop_
_atom_site_type_symbol
_atom_site_label
_atom_site_fract_x
_atom_site_fract_y
_atom_site_fract_z
Si Si1 0.349393 0.140807 0.845608
Si Si2 0.715062 0.858460 0.472847
Si Si3 0.381111 0.148434 0.213072
Si Si4 0.949104 0.801903 0.587135
Si Si5 0.539719 0.634564 0.285327
Si Si6 0.974634 0.857196 0.945031
O O1 0.493327 0.146510 0.806739
O O2 0.368045 0.247761 0.787415
O O3 0.338920 0.000000 0.825245
O O4 0.202099 0.159131 0.964064
O O5 0.750000 0.750000 0.500000
O O6 0.561673 0.817600 0.527675
O O7 0.871442 0.859636 0.353421
O O8 0.698486 0.000000 0.506473
O O9 0.227038 0.205669 0.319980
O O10 0.439768 0.243496 0.131971
O O11 0.358453 0.000000 0.208207
O O12 0.970348 0.862322 0.639260
O O13 0.000000 0.867862 0.500000
O O14 0.604829 0.500000 0.231568
O O15 0.014342 0.000000 0.902687
O O16 0.000000 0.854224 0.000000
#
# Coordination Sequence:
#
# PCOD9209451 Si02
#       6
#     8   8   8   8   8   8
#     4  10  22  41  64  91 124 163 205 252 315 384
#     4   9  20  38  59  85 118 158 205 252 300 358
#     4  11  24  40  62  93 124 161 210 258 310 372
#     4  11  23  39  59  88 126 165 206 260 315 368
#     4  10  21  38  62  91 120 158 209 259 311 370
#     4  10  22  41  65  93 126 163 202 250 313 379
#
# _framework density 21.696456000000001
#
# number of rings (size 3 to 8) (size 9 to 14) (size 15 to 20)
#    0.000    1.833    0.000    3.000    0.000    7.333 
#    0.000    6.667    0.000    0.000    0.000    0.000 
#    0.000    0.000    0.000    0.000    0.000    0.000 
#
# Total GULP energy -133764.994923 kJ/mol
# GULP energy per Si atom -5573.541455 kJ/mol
# Density = 2.164707 g / cm^3
# Si number density = 21.696456 Si / 1000 Ang^3
#
#
#
# Elastic Constant Matrix: (Units=GPa)
#
#
# Indices 1 2 3 4 5 6 
#
# 1 93.3757 33.3363 34.9209 0.0000 -24.5296 0.0000
# 2 33.3363 174.5061 72.3432 0.0000 15.1932 0.0000
# 3 34.9209 72.3432 109.9470 -0.0001 -13.6002 0.0000
# 4 0.0000 0.0000 -0.0001 0.5782 0.0000 2.6407
# 5 -24.5296 15.1932 -13.6002 0.0000 41.3845 0.0000
# 6 0.0000 0.0000 0.0000 2.6407 0.0000 6.2686
#
#
#
# Elastic Compliance Matrix: (Units=1/GPa)
#
#
# Indices 1 2 3 4 5 6 
#
# 1 0.014831 -0.002993 -0.001582 0.000001 0.009370 0.000000
# 2 -0.002993 0.009515 -0.006214 0.000000 -0.007309 0.000000
# 3 -0.001582 -0.006214 0.014440 -0.000003 0.006089 0.000001
# 4 0.000001 0.000000 -0.000003 -1.871929 0.000002 0.788578
# 5 0.009370 -0.007309 0.006089 0.000002 0.034402 -0.000001
# 6 0.000000 0.000000 0.000001 0.788578 -0.000001 -0.172675
#
#
# Mechanical properties :
#
#
# Convention : Reuss Voigt Hill
#
# Bulk Modulus (GPa) = 58.11602 73.22549 65.67075
# Shear Modulus (GPa) = -2.57188 25.46149 11.44480
#
# Velocity S-wave (km/s) = -1.08994 3.42940 2.29922
# Velocity P-wave (km/s) = 5.02595 7.03593 6.11410
#
# Compressibility (1/GPa) = 0.01720696
#
# Stress axis : x y z
#
# Youngs Moduli (GPa) = 67.42599 105.10103 69.25369
#
# Poissons Ratio (x) = 0.31457 0.10957
# Poissons Ratio (y) = 0.20181 0.43034
# Poissons Ratio (z) = 0.10668 0.65309
#
# Static dielectric constant tensor:
#      x y z
#    x 1.864240 0.000000 -0.025000 
#    y 0.000000 1.802420 0.000000 
#    z -0.025000 0.000000 1.774220 
# 
# From -- ./inp_files/310195.got.cif
#   From: 2010.05.17/outbox.cif.g08.bks.cpg/sg12_156_cif.got.tgz:310195.got - 2010.06.03 13:09:07.
