data_PCOD9209462
_publ_section_title
;
Structure prediction by ZEFSAII (Michael W. Deem and Ramdas Pophale) SiO2 
 PCOD9209462
Probable space group: C 2/M
;
_chemical_formula_sum "Si O2"
_cell_formula_units_Z 56
_cell_length_a 22.579154
_cell_length_b 22.535390
_cell_length_c 18.834208
_cell_angle_alpha 90.000000
_cell_angle_beta 162.413562
_cell_angle_gamma 90.000000
_cell_volume 2895.572580
_symmetry_space_group_name_H-M "C 2/M"
_symmetry_group_IT_number 12
_symmetry_cell_setting 'monoclinic'
loop_
_space_group_symop_operation_xyz
x,y,z
-x,y,-z
-x,-y,-z
x,-y,z
1/2+x,1/2+y,z
1/2-x,1/2+y,-z
1/2-x,1/2-y,-z
1/2+x,1/2-y,z
loop_
_atom_site_type_symbol
_atom_site_label
_atom_site_fract_x
_atom_site_fract_y
_atom_site_fract_z
Si Si1 0.580525 0.430677 0.376251
Si Si2 0.887870 0.363397 0.532440
Si Si3 0.676741 0.757554 0.835883
Si Si4 0.453905 0.647715 0.100468
Si Si5 0.407192 0.373087 0.316477
Si Si6 0.715845 0.566496 0.210332
Si Si7 0.021007 0.569339 0.823094
O O1 0.523985 0.500000 0.303274
O O2 0.474055 0.388608 0.197003
O O3 0.531704 0.407077 0.398399
O O4 0.810780 0.426412 0.621148
O O5 0.670035 0.348988 0.313196
O O6 0.858400 0.407434 0.432732
O O7 0.000424 0.304810 0.636880
O O8 0.001739 0.395500 0.726815
O O9 0.613411 0.695589 0.729869
O O10 0.750000 0.750000 0.000000
O O11 0.856819 0.788705 0.001129
O O12 0.313697 0.610225 0.888790
O O13 0.500000 0.378705 0.500000
O O14 0.192187 0.402131 0.065013
O O15 0.767405 0.500000 0.247486
O O16 0.500000 0.563911 0.000000
O O17 0.060727 0.500000 0.854836
#
# Coordination Sequence:
#
# PCOD9209462 Si02
#       7
#     8   8   8   8   8   8   8
#     4  10  21  40  66  92 118 153 198 247 305 367
#     4  10  21  38  62  91 123 160 198 242 296 355
#     4  12  24  42  61  83 118 158 208 248 286 350
#     4  10  21  38  62  91 123 160 198 242 296 355
#     4  12  27  43  60  87 122 158 201 255 301 343
#     4   9  18  35  61  95 130 159 191 240 300 358
#     4  10  21  40  66  92 118 153 198 247 305 367
#
# _framework density 19.339870999999999
#
# number of rings (size 3 to 8) (size 9 to 14) (size 15 to 20)
#    0.000    1.571    2.857    1.286    2.000    6.857 
#    0.000    4.286    0.000    0.000    0.000    0.000 
#    0.000    0.000    0.000    0.000    0.000    0.000 
#
# Total GULP energy -156524.586718 kJ/mol
# GULP energy per Si atom -5590.163811 kJ/mol
# Density = 1.929585 g / cm^3
# Si number density = 19.339871 Si / 1000 Ang^3
#
#
#
# Elastic Constant Matrix: (Units=GPa)
#
#
# Indices 1 2 3 4 5 6 
#
# 1 52.9077 0.2437 25.2126 0.0070 -16.3068 -0.0113
# 2 0.2437 81.4960 19.0788 0.0027 7.3698 -0.0042
# 3 25.2126 19.0788 77.5065 0.0065 -13.0874 -0.0124
# 4 0.0070 0.0027 0.0065 40.2522 0.0037 -4.5066
# 5 -16.3068 7.3698 -13.0874 0.0037 33.3666 -0.0071
# 6 -0.0113 -0.0042 -0.0124 -4.5066 -0.0071 43.8001
#
#
#
# Elastic Compliance Matrix: (Units=1/GPa)
#
#
# Indices 1 2 3 4 5 6 
#
# 1 0.025001 0.000637 -0.006694 -0.000004 0.009452 0.000006
# 2 0.000637 0.013678 -0.004318 0.000000 -0.004403 0.000000
# 3 -0.006694 -0.004318 0.016868 -0.000001 0.004299 0.000003
# 4 -0.000004 0.000000 -0.000001 0.025133 -0.000004 0.002586
# 5 0.009452 -0.004403 0.004299 -0.000004 0.037248 0.000009
# 6 0.000006 0.000000 0.000003 0.002586 0.000009 0.023097
#
#
# Mechanical properties :
#
#
# Convention : Reuss Voigt Hill
#
# Bulk Modulus (GPa) = 28.73630 33.44225 31.08927
# Shear Modulus (GPa) = 28.83973 34.64213 31.74093
#
# Velocity S-wave (km/s) = 3.86580 4.23688 4.05559
# Velocity P-wave (km/s) = 5.90057 6.42373 6.16770
#
# Compressibility (1/GPa) = 0.03479919
#
# Stress axis : x y z
#
# Youngs Moduli (GPa) = 39.99852 73.11224 59.28305
#
# Poissons Ratio (x) = -0.04661 0.39682
# Poissons Ratio (y) = -0.02550 0.25597
# Poissons Ratio (z) = 0.26773 0.31567
#
# Static dielectric constant tensor:
#      x y z
#    x 1.663060 0.000000 0.032300 
#    y 0.000000 1.657710 0.000000 
#    z 0.032300 0.000000 1.675190 
# 
# From -- ./inp_files/286087.got.cif
#   From: 2010.05.17/outbox.cif.g08.bks.cpg/sg12_144_cif.got.tgz:286087.got - 2010.06.03 13:09:07.
