data_PCOD9209397
_publ_section_title
;
Structure prediction by ZEFSAII (Michael W. Deem and Ramdas Pophale) SiO2 
 PCOD9209397
Probable space group: C 2/M
;
_chemical_formula_sum "Si O2"
_cell_formula_units_Z 48
_cell_length_a 27.634211
_cell_length_b 8.784569
_cell_length_c 14.636798
_cell_angle_alpha 90.000000
_cell_angle_beta 138.642674
_cell_angle_gamma 90.000000
_cell_volume 2347.754865
_symmetry_space_group_name_H-M "C 2/M"
_symmetry_group_IT_number 12
_symmetry_cell_setting 'monoclinic'
loop_
_space_group_symop_operation_xyz
x,y,z
-x,y,-z
-x,-y,-z
x,-y,z
1/2+x,1/2+y,z
1/2-x,1/2+y,-z
1/2-x,1/2-y,-z
1/2+x,1/2-y,z
loop_
_atom_site_type_symbol
_atom_site_label
_atom_site_fract_x
_atom_site_fract_y
_atom_site_fract_z
Si Si1 0.235003 0.678073 0.077593
Si Si2 0.505220 0.178782 0.659901
Si Si3 0.620853 0.821133 0.668974
Si Si4 0.866081 0.816421 0.917619
Si Si5 0.522916 0.681371 0.186343
Si Si6 0.182298 0.815643 0.347674
O O1 0.223306 0.500000 0.050922
O O2 0.308486 0.717466 0.237966
O O3 0.168601 0.749998 0.039832
O O4 0.250000 0.750000 0.000000
O O5 0.435846 0.196651 0.494194
O O6 0.575896 0.214346 0.697935
O O7 0.494793 0.278193 0.734263
O O8 0.509873 0.000000 0.691692
O O9 0.642321 0.000000 0.702930
O O10 0.819823 0.773215 0.762526
O O11 0.865156 0.000000 0.922170
O O12 0.950900 0.766651 0.028885
O O13 0.526503 0.500000 0.178533
O O14 0.603447 0.738894 0.274500
O O15 0.250000 0.750000 0.500000
O O16 0.185247 0.000000 0.357351
#
# Coordination Sequence:
#
# PCOD9209397 Si02
#       6
#     8   8   8   8   8   8
#     4  12  25  39  59  88 123 160 203 252 301 360
#     4   9  19  35  58  86 118 158 199 246 303 360
#     4   9  19  37  57  82 119 160 203 247 298 360
#     4  10  22  42  65  88 121 166 207 249 304 361
#     4  10  21  38  62  89 119 156 203 252 299 358
#     4  10  23  42  64  91 123 159 203 253 307 364
#
# _framework density 20.445065
#
# number of rings (size 3 to 8) (size 9 to 14) (size 15 to 20)
#    0.000    2.000    0.000    4.000    2.333    8.000 
#    0.000    1.667    0.000    3.000    0.000    0.000 
#    0.000    0.000    0.000    0.000    0.000    0.000 
#
# Total GULP energy -134083.826697 kJ/mol
# GULP energy per Si atom -5586.826112 kJ/mol
# Density = 2.039853 g / cm^3
# Si number density = 20.445065 Si / 1000 Ang^3
#
#
#
# Elastic Constant Matrix: (Units=GPa)
#
#
# Indices 1 2 3 4 5 6 
#
# 1 98.1606 30.1434 59.7773 0.0000 8.3238 0.0000
# 2 30.1434 25.6310 33.8220 0.0000 4.2080 0.0000
# 3 59.7773 33.8220 120.2328 0.0000 9.2814 0.0000
# 4 0.0000 0.0000 0.0000 26.4242 0.0000 3.2667
# 5 8.3238 4.2080 9.2814 0.0000 33.0698 0.0000
# 6 0.0000 0.0000 0.0000 3.2667 0.0000 28.4764
#
#
#
# Elastic Compliance Matrix: (Units=1/GPa)
#
#
# Indices 1 2 3 4 5 6 
#
# 1 0.017470 -0.014318 -0.004558 0.000000 -0.001296 0.000000
# 2 -0.014318 0.074087 -0.013567 0.000000 -0.002016 0.000000
# 3 -0.004558 -0.013567 0.014492 0.000000 -0.001194 0.000000
# 4 0.000000 0.000000 0.000000 0.038389 0.000000 -0.004404
# 5 -0.001296 -0.002016 -0.001194 0.000000 0.031157 0.000000
# 6 0.000000 0.000000 0.000000 -0.004404 0.000000 0.035622
#
#
# Mechanical properties :
#
#
# Convention : Reuss Voigt Hill
#
# Bulk Modulus (GPa) = 24.29343 54.61219 39.45281
# Shear Modulus (GPa) = 17.25194 25.61286 21.43240
#
# Velocity S-wave (km/s) = 2.90801 3.54328 3.24125
# Velocity P-wave (km/s) = 4.81492 6.59617 5.77464
#
# Compressibility (1/GPa) = 0.04116338
#
# Stress axis : x y z
#
# Youngs Moduli (GPa) = 57.24194 13.49761 69.00468
#
# Poissons Ratio (x) = 0.19326 0.31451
# Poissons Ratio (y) = 0.81960 0.93617
# Poissons Ratio (z) = 0.26090 0.18312
#
# Static dielectric constant tensor:
#      x y z
#    x 1.720520 0.000000 0.010400 
#    y 0.000000 1.692950 0.000000 
#    z 0.010400 0.000000 1.757070 
# 
# From -- ./inp_files/244856.got.cif
#   From: 2010.05.17/outbox.cif.g08.bks.cpg/sg12_123_cif.got.tgz:244856.got - 2010.06.03 13:09:07.
