data_PCOD9209814
_publ_section_title
;
Structure prediction by ZEFSAII (Michael W. Deem and Ramdas Pophale) SiO2 
 PCOD9209814
Probable space group: C 2/M
;
_chemical_formula_sum "Si O2"
_cell_formula_units_Z 52
_cell_length_a 7.257804
_cell_length_b 14.621451
_cell_length_c 25.318377
_cell_angle_alpha 90.000000
_cell_angle_beta 51.206743
_cell_angle_gamma 90.000000
_cell_volume 2094.105193
_symmetry_space_group_name_H-M "C 2/M"
_symmetry_group_IT_number 12
_symmetry_cell_setting 'monoclinic'
loop_
_space_group_symop_operation_xyz
x,y,z
-x,y,-z
-x,-y,-z
x,-y,z
1/2+x,1/2+y,z
1/2-x,1/2+y,-z
1/2-x,1/2-y,-z
1/2+x,1/2-y,z
loop_
_atom_site_type_symbol
_atom_site_label
_atom_site_fract_x
_atom_site_fract_y
_atom_site_fract_z
Si Si1 0.373767 0.500000 0.911468
Si Si2 0.372157 0.000000 0.937563
Si Si3 0.764629 0.102197 0.508212
Si Si4 0.458879 0.646325 0.193808
Si Si5 0.853805 0.500000 0.287419
Si Si6 0.679263 0.858536 0.339479
Si Si7 0.934853 0.362416 0.175362
Si Si8 0.027049 0.846315 0.367922
O O1 0.510482 0.588053 0.864434
O O2 0.118531 0.500000 0.927321
O O3 0.327179 0.500000 0.981883
O O4 0.383061 0.088925 0.897778
O O5 0.544940 0.112453 0.586346
O O6 0.814367 0.165096 0.448530
O O7 0.000000 0.112465 0.500000
O O8 0.751311 0.000000 0.487796
O O9 0.240395 0.609741 0.269255
O O10 0.685425 0.627429 0.189776
O O11 0.460041 0.754330 0.181691
O O12 0.926972 0.419821 0.230585
O O13 0.719831 0.420758 0.347968
O O14 0.901086 0.879631 0.337212
O O15 0.652624 0.749880 0.338898
#
# Coordination Sequence:
#
# PCOD9209814 Si02
#       8
#     4   4   8   8   4   8   8   8
#     4   9  20  36  63  93 130 159 215 240 306 363
#     4   8  18  39  63  92 123 175 198 252 289 380
#     4  11  26  43  61  90 125 165 212 264 317 373
#     4  11  21  38  61  95 123 163 202 265 301 375
#     4  11  20  39  62  88 116 162 207 256 301 381
#     4  12  24  39  65  89 124 160 210 263 319 371
#     4  10  21  38  65  89 128 158 211 247 315 359
#     4  12  24  42  65  87 121 164 214 263 317 372
#
# _framework density 24.831609
#
# number of rings (size 3 to 8) (size 9 to 14) (size 15 to 20)
#    0.000    1.231    3.846    2.308    2.154    1.231 
#    0.000    1.538    0.000    0.923    0.000    0.000 
#    0.000    0.000    0.000    0.000    0.000    0.000 
#
# Total GULP energy -145096.736090 kJ/mol
# GULP energy per Si atom -5580.643696 kJ/mol
# Density = 2.477509 g / cm^3
# Si number density = 24.831609 Si / 1000 Ang^3
#
#
#
# Elastic Constant Matrix: (Units=GPa)
#
#
# Indices 1 2 3 4 5 6 
#
# 1 94.0952 -23.5400 23.2571 -0.0011 6.6911 0.0014
# 2 -23.5400 110.3466 51.2388 -0.0002 10.1315 0.0003
# 3 23.2571 51.2388 230.6412 -0.0006 32.4439 0.0004
# 4 -0.0011 -0.0002 -0.0006 35.1798 0.0007 19.2204
# 5 6.6911 10.1315 32.4439 0.0007 39.8335 -0.0008
# 6 0.0014 0.0003 0.0004 19.2204 -0.0008 -13.2745
#
#
#
# Elastic Compliance Matrix: (Units=1/GPa)
#
#
# Indices 1 2 3 4 5 6 
#
# 1 0.012062 0.003542 -0.001797 0.000000 -0.001463 0.000001
# 2 0.003542 0.011170 -0.002660 0.000000 -0.001269 0.000000
# 3 -0.001797 -0.002660 0.005613 0.000000 -0.003594 0.000000
# 4 0.000000 0.000000 0.000000 0.015871 0.000000 0.022979
# 5 -0.001463 -0.001269 -0.003594 0.000000 0.028600 -0.000002
# 6 0.000001 0.000000 0.000000 0.022979 -0.000002 -0.042060
#
#
# Mechanical properties :
#
#
# Convention : Reuss Voigt Hill
#
# Bulk Modulus (GPa) = 37.01726 59.66610 48.34168
# Shear Modulus (GPa) = 118.78947 37.95622 78.37285
#
# Velocity S-wave (km/s) = 6.92401 3.91390 5.62408
# Velocity P-wave (km/s) = 8.88044 6.67123 7.85390
#
# Compressibility (1/GPa) = 0.02701442
#
# Stress axis : x y z
#
# Youngs Moduli (GPa) = 82.90523 89.52782 178.14398
#
# Poissons Ratio (x) = -0.31712 0.32019
# Poissons Ratio (y) = -0.29366 0.47387
# Poissons Ratio (z) = 0.14901 0.23815
#
# Static dielectric constant tensor:
#      x y z
#    x 2.052480 0.000000 -0.045110 
#    y 0.000000 1.931990 0.000000 
#    z -0.045110 0.000000 1.985690 
# 
# From -- ./inp_files/372517.got.cif
#   From: 2010.05.17/outbox.cif.g08.bks.cpg/sg12_187_cif.got.tgz:372517.got - 2010.06.03 13:09:07.
