data_PCOD9209391
_publ_section_title
;
Structure prediction by ZEFSAII (Michael W. Deem and Ramdas Pophale) SiO2 
 PCOD9209391
Probable space group: C 2/M
;
_chemical_formula_sum "Si O2"
_cell_formula_units_Z 48
_cell_length_a 19.677699
_cell_length_b 7.564947
_cell_length_c 15.027979
_cell_angle_alpha 90.000000
_cell_angle_beta 99.397937
_cell_angle_gamma 90.000000
_cell_volume 2207.050281
_symmetry_space_group_name_H-M "C 2/M"
_symmetry_group_IT_number 12
_symmetry_cell_setting 'monoclinic'
loop_
_space_group_symop_operation_xyz
x,y,z
-x,y,-z
-x,-y,-z
x,-y,z
1/2+x,1/2+y,z
1/2-x,1/2+y,-z
1/2-x,1/2-y,-z
1/2+x,1/2-y,z
loop_
_atom_site_type_symbol
_atom_site_label
_atom_site_fract_x
_atom_site_fract_y
_atom_site_fract_z
Si Si1 0.566799 0.215977 0.960551
Si Si2 0.191038 0.790084 0.415559
Si Si3 0.926358 0.717071 0.244073
Si Si4 0.793808 0.289934 0.922406
Si Si5 0.967856 0.291219 0.585287
Si Si6 0.778102 0.702281 0.272395
O O1 0.569997 0.274403 0.858324
O O2 0.568394 0.000000 0.958048
O O3 0.500000 0.271117 0.000000
O O4 0.630962 0.272809 0.033987
O O5 0.250000 0.750000 0.500000
O O6 0.114538 0.726545 0.424087
O O7 0.224855 0.717496 0.331678
O O8 0.182637 0.000000 0.405596
O O9 0.924744 0.500000 0.241042
O O10 0.854511 0.777999 0.273678
O O11 0.990316 0.775052 0.319128
O O12 0.795247 0.500000 0.906034
O O13 0.758965 0.203252 0.830328
O O14 0.750000 0.250000 0.000000
O O15 0.982430 0.500000 0.587052
O O16 0.000000 0.218089 0.500000
O O17 0.790017 0.500000 0.304901
#
# Coordination Sequence:
#
# PCOD9209391 Si02
#       6
#     8   8   8   8   8   8
#     4   9  18  31  51  80 110 147 194 237 277 331
#     4  11  24  41  63  89 121 155 195 249 302 360
#     4   9  17  33  56  78 110 153 192 236 284 345
#     4  11  21  35  58  85 116 154 198 245 291 347
#     4  10  21  38  62  89 117 153 198 241 293 361
#     4  10  21  39  60  84 116 154 196 242 297 352
#
# _framework density 21.748484000000001
#
# number of rings (size 3 to 8) (size 9 to 14) (size 15 to 20)
#    0.000    2.000    1.667    2.000    2.333    4.333 
#    0.000    0.833    0.000    2.000    0.000    0.000 
#    0.000    0.000    0.000    0.000    0.000    0.000 
#
# Total GULP energy -133991.407225 kJ/mol
# GULP energy per Si atom -5582.975301 kJ/mol
# Density = 2.169898 g / cm^3
# Si number density = 21.748484 Si / 1000 Ang^3
#
#
#
# Elastic Constant Matrix: (Units=GPa)
#
#
# Indices 1 2 3 4 5 6 
#
# 1 185.9335 -15.9520 58.8042 0.0000 0.1626 0.0000
# 2 -15.9520 50.7464 -13.0012 0.0000 -1.2110 0.0000
# 3 58.8042 -13.0012 110.4637 0.0000 -3.5628 0.0000
# 4 0.0000 0.0000 0.0000 9.0188 0.0000 6.3468
# 5 0.1626 -1.2110 -3.5628 0.0000 43.2080 0.0000
# 6 0.0000 0.0000 0.0000 6.3468 0.0000 10.0146
#
#
#
# Elastic Compliance Matrix: (Units=1/GPa)
#
#
# Indices 1 2 3 4 5 6 
#
# 1 0.006540 0.001191 -0.003350 0.000000 -0.000267 0.000000
# 2 0.001191 0.020561 0.001809 0.000000 0.000721 0.000000
# 3 -0.003350 0.001809 0.011081 0.000000 0.000977 0.000000
# 4 0.000000 0.000000 0.000000 0.200139 0.000000 -0.126838
# 5 -0.000267 0.000721 0.000977 0.000000 0.023246 0.000000
# 6 0.000000 0.000000 0.000000 -0.126838 0.000000 0.180238
#
#
# Mechanical properties :
#
#
# Convention : Reuss Voigt Hill
#
# Bulk Modulus (GPa) = 26.67929 45.20508 35.94218
# Shear Modulus (GPa) = 10.98906 33.60112 22.29509
#
# Velocity S-wave (km/s) = 2.25028 3.93490 3.20524
# Velocity P-wave (km/s) = 4.36412 6.44011 5.50093
#
# Compressibility (1/GPa) = 0.03748226
#
# Stress axis : x y z
#
# Youngs Moduli (GPa) = 152.90058 48.63579 90.24839
#
# Poissons Ratio (x) = -0.05794 0.30233
# Poissons Ratio (y) = -0.18214 -0.16327
# Poissons Ratio (z) = 0.51222 -0.08799
#
# Static dielectric constant tensor:
#      x y z
#    x 1.756920 0.000000 -0.022080 
#    y 0.000000 1.933700 0.000000 
#    z -0.022080 0.000000 1.759680 
# 
# From -- ./inp_files/221538.got.cif
#   From: 2010.05.17/outbox.cif.g08.bks.cpg/sg12_111_cif.got.tgz:221538.got - 2010.06.03 13:09:07.
