data_PCOD9209963
_publ_section_title
;
Structure prediction by ZEFSAII (Michael W. Deem and Ramdas Pophale) SiO2 
 PCOD9209963
Probable space group: C 2/M
;
_chemical_formula_sum "Si O2"
_cell_formula_units_Z 56
_cell_length_a 14.525808
_cell_length_b 28.024782
_cell_length_c 9.059363
_cell_angle_alpha 90.000000
_cell_angle_beta 126.014083
_cell_angle_gamma 90.000000
_cell_volume 2983.048211
_symmetry_space_group_name_H-M "C 2/M"
_symmetry_group_IT_number 12
_symmetry_cell_setting 'monoclinic'
loop_
_space_group_symop_operation_xyz
x,y,z
-x,y,-z
-x,-y,-z
x,-y,z
1/2+x,1/2+y,z
1/2-x,1/2+y,-z
1/2-x,1/2-y,-z
1/2+x,1/2-y,z
loop_
_atom_site_type_symbol
_atom_site_label
_atom_site_fract_x
_atom_site_fract_y
_atom_site_fract_z
Si Si1 0.731006 0.804147 0.032432
Si Si2 0.866976 0.139199 0.382197
Si Si3 0.616787 0.862520 0.664486
Si Si4 0.611677 0.762789 0.183324
Si Si5 0.030895 0.555298 0.785793
Si Si6 0.315279 0.944159 0.775498
Si Si7 0.263980 0.817193 0.467830
O O1 0.837763 0.829935 0.208265
O O2 0.645257 0.800594 0.089053
O O3 0.750000 0.750000 0.000000
O O4 0.677887 0.833686 0.851052
O O5 0.789619 0.091798 0.315261
O O6 0.824774 0.168894 0.486780
O O7 0.000000 0.128880 0.500000
O O8 0.500000 0.838352 0.500000
O O9 0.577883 0.911951 0.700376
O O10 0.698452 0.860725 0.599897
O O11 0.625758 0.793311 0.347398
O O12 0.703912 0.721679 0.304652
O O13 0.500000 0.740898 0.000000
O O14 0.025381 0.500000 0.737070
O O15 0.907348 0.569058 0.735613
O O16 0.116128 0.559245 0.005603
O O17 0.284244 0.000000 0.725791
#
# Coordination Sequence:
#
# PCOD9209963 Si02
#       7
#     8   8   8   8   8   8   8
#     4  11  23  39  57  84 118 161 211 248 302 355
#     4  11  24  40  62  87 123 165 209 251 297 370
#     4  12  22  36  61  92 125 154 199 255 315 367
#     4  10  21  39  57  75 114 162 206 251 299 350
#     4   9  19  37  66  96 125 156 192 253 319 377
#     4   9  18  38  66  95 122 155 203 250 309 374
#     4  10  23  38  53  87 118 153 205 254 297 356
#
# _framework density 18.772743999999999
#
# number of rings (size 3 to 8) (size 9 to 14) (size 15 to 20)
#    0.000    1.714    2.857    2.571    2.000    2.286 
#    0.000    0.714    0.000    0.000    0.000    2.000 
#    0.000    0.000    0.000    0.000    0.000    0.000 
#
# Total GULP energy -156064.839357 kJ/mol
# GULP energy per Si atom -5573.744263 kJ/mol
# Density = 1.873002 g / cm^3
# Si number density = 18.772744 Si / 1000 Ang^3
#
#
#
# Elastic Constant Matrix: (Units=GPa)
#
#
# Indices 1 2 3 4 5 6 
#
# 1 88.8187 54.3971 53.6753 0.0000 -0.8544 0.0000
# 2 54.3971 102.6789 56.7166 0.0000 -1.0916 0.0000
# 3 53.6753 56.7166 131.7994 0.0000 1.4899 0.0000
# 4 0.0000 0.0000 0.0000 13.5463 0.0000 -20.4552
# 5 -0.8544 -1.0916 1.4899 0.0000 31.3356 0.0000
# 6 0.0000 0.0000 0.0000 -20.4552 0.0000 25.3863
#
#
#
# Elastic Compliance Matrix: (Units=1/GPa)
#
#
# Indices 1 2 3 4 5 6 
#
# 1 0.018374 -0.007337 -0.004330 0.000000 0.000451 0.000000
# 2 -0.007337 0.015722 -0.003783 0.000000 0.000527 0.000000
# 3 -0.004330 -0.003783 0.010988 0.000000 -0.000772 0.000000
# 4 0.000000 0.000000 0.000000 -0.340633 0.000000 -0.274468
# 5 0.000451 0.000527 -0.000772 0.000000 0.031980 0.000000
# 6 0.000000 0.000000 0.000000 -0.274468 0.000000 -0.181763
#
#
# Mechanical properties :
#
#
# Convention : Reuss Voigt Hill
#
# Bulk Modulus (GPa) = 70.51618 72.54167 71.52892
# Shear Modulus (GPa) = -12.20395 24.62083 6.20844
#
# Velocity S-wave (km/s) = -2.55245 3.62542 1.82053
# Velocity P-wave (km/s) = 5.38126 7.50005 6.52720
#
# Compressibility (1/GPa) = 0.01418114
#
# Stress axis : x y z
#
# Youngs Moduli (GPa) = 54.42465 63.60668 91.01145
#
# Poissons Ratio (x) = 0.46670 0.39412
# Poissons Ratio (y) = 0.39933 0.34432
# Poissons Ratio (z) = 0.23568 0.24064
#
# Static dielectric constant tensor:
#      x y z
#    x 1.701990 0.000000 0.002570 
#    y 0.000000 1.671780 0.000000 
#    z 0.002570 0.000000 1.691820 
# 
# From -- ./inp_files/68316.got.cif
#   From: 2010.05.17/outbox.cif.g08.bks.cpg/sg12_35_cif.got.tgz:68316.got - 2010.06.03 13:09:07.
