data_PCOD9209139
_publ_section_title
;
Structure prediction by ZEFSAII (Michael W. Deem and Ramdas Pophale) SiO2 
 PCOD9209139
Probable space group: C 2/M
;
_chemical_formula_sum "Si O2"
_cell_formula_units_Z 42
_cell_length_a 16.194100
_cell_length_b 8.815186
_cell_length_c 26.019455
_cell_angle_alpha 90.000000
_cell_angle_beta 39.540816
_cell_angle_gamma 90.000000
_cell_volume 2364.678233
_symmetry_space_group_name_H-M "C 2/M"
_symmetry_group_IT_number 12
_symmetry_cell_setting 'monoclinic'
loop_
_space_group_symop_operation_xyz
x,y,z
-x,y,-z
-x,-y,-z
x,-y,z
1/2+x,1/2+y,z
1/2-x,1/2+y,-z
1/2-x,1/2-y,-z
1/2+x,1/2-y,z
loop_
_atom_site_type_symbol
_atom_site_label
_atom_site_fract_x
_atom_site_fract_y
_atom_site_fract_z
Si Si1 0.295345 0.167862 0.666970
Si Si2 0.500000 0.000000 0.500000
Si Si3 0.428176 0.318438 0.087674
Si Si4 0.160491 0.819323 0.247023
Si Si5 0.020511 0.182816 0.754496
Si Si6 0.614472 0.181052 0.083663
O O1 0.409797 0.129929 0.572406
O O2 0.337557 0.267306 0.694908
O O3 0.167376 0.226403 0.699039
O O4 0.258687 0.000000 0.706694
O O5 0.433067 0.500000 0.091083
O O6 0.281536 0.260026 0.160734
O O7 0.504554 0.239740 0.097470
O O8 0.500000 0.279135 0.000000
O O9 0.030293 0.778668 0.278026
O O10 0.178120 0.000000 0.236071
O O11 0.925427 0.258155 0.841376
O O12 0.012306 0.000000 0.763047
O O13 0.621268 0.000000 0.080369
O O14 0.750000 0.250000 0.000000
#
# Coordination Sequence:
#
# PCOD9209139 Si02
#       6
#     8   2   8   8   8   8
#     4   9  19  40  66  88 119 161 207 247 315 384
#     4   8  20  40  74  92 114 166 216 248 318 400
#     4  11  23  38  56  83 121 168 216 262 308 367
#     4  11  22  36  60  93 124 162 205 258 315 367
#     4  10  21  38  61  87 125 165 201 256 309 373
#     4  12  24  37  56  85 122 166 216 265 309 358
#
# _framework density 17.761400999999999
#
# number of rings (size 3 to 8) (size 9 to 14) (size 15 to 20)
#    0.571    0.952    1.905    4.000    0.000    6.095 
#    0.000    1.429    0.000    0.000    0.000    0.000 
#    0.000    0.000    0.000    0.000    0.000    0.000 
#
# Total GULP energy -116902.805502 kJ/mol
# GULP energy per Si atom -5566.800262 kJ/mol
# Density = 1.772098 g / cm^3
# Si number density = 17.761401 Si / 1000 Ang^3
#
#
#
# Elastic Constant Matrix: (Units=GPa)
#
#
# Indices 1 2 3 4 5 6 
#
# 1 148.0748 45.8467 54.4190 0.0000 -5.6244 0.0000
# 2 45.8467 40.7137 25.8457 0.0000 -1.0379 0.0000
# 3 54.4190 25.8457 126.0562 0.0000 3.0628 0.0000
# 4 0.0000 0.0000 0.0000 18.2882 0.0000 5.5007
# 5 -5.6244 -1.0379 3.0628 0.0000 6.1576 0.0000
# 6 0.0000 0.0000 0.0000 5.5007 0.0000 25.3867
#
#
#
# Elastic Compliance Matrix: (Units=1/GPa)
#
#
# Indices 1 2 3 4 5 6 
#
# 1 0.011642 -0.010918 -0.003037 0.000000 0.010304 0.000000
# 2 -0.010918 0.038846 -0.003207 0.000000 -0.001830 0.000000
# 3 -0.003037 -0.003207 0.010104 0.000000 -0.008341 0.000000
# 4 0.000000 0.000000 0.000000 0.058492 0.000000 -0.012674
# 5 0.010304 -0.001830 -0.008341 0.000000 0.175654 0.000000
# 6 0.000000 0.000000 0.000000 -0.012674 0.000000 0.042137
#
#
# Mechanical properties :
#
#
# Convention : Reuss Voigt Hill
#
# Bulk Modulus (GPa) = 38.07107 63.00748 50.53927
# Shear Modulus (GPa) = 13.15946 22.54871 17.85408
#
# Velocity S-wave (km/s) = 2.72491 3.56692 3.17396
# Velocity P-wave (km/s) = 5.60191 7.24674 6.47675
#
# Compressibility (1/GPa) = 0.02626666
#
# Stress axis : x y z
#
# Youngs Moduli (GPa) = 85.89941 25.74287 98.96711
#
# Poissons Ratio (x) = 0.28107 0.30060
# Poissons Ratio (y) = 0.93788 0.31736
# Poissons Ratio (z) = 0.26091 0.08255
#
# Static dielectric constant tensor:
#      x y z
#    x 1.638010 0.000000 -0.016160 
#    y 0.000000 1.605830 0.000000 
#    z -0.016160 0.000000 1.584780 
# 
# From -- ./inp_files/266995.got.cif
#   From: 2010.05.17/outbox.cif.g08.bks.cpg/sg12_134_cif.got.tgz:266995.got - 2010.06.03 13:09:07.
