data_PCOD9209567
_publ_section_title
;
Structure prediction by ZEFSAII (Michael W. Deem and Ramdas Pophale) SiO2 
 PCOD9209567
Probable space group: C 2/M
;
_chemical_formula_sum "Si O2"
_cell_formula_units_Z 20
_cell_length_a 5.191660
_cell_length_b 18.484948
_cell_length_c 9.448624
_cell_angle_alpha 90.000000
_cell_angle_beta 72.144431
_cell_angle_gamma 90.000000
_cell_volume 863.084974
_symmetry_space_group_name_H-M "C 2/M"
_symmetry_group_IT_number 12
_symmetry_cell_setting 'monoclinic'
loop_
_space_group_symop_operation_xyz
x,y,z
-x,y,-z
-x,-y,-z
x,-y,z
1/2+x,1/2+y,z
1/2-x,1/2+y,-z
1/2-x,1/2-y,-z
1/2+x,1/2-y,z
loop_
_atom_site_type_symbol
_atom_site_label
_atom_site_fract_x
_atom_site_fract_y
_atom_site_fract_z
Si Si1 0.702107 0.500000 0.599504
Si Si2 0.904038 0.918386 0.859161
Si Si3 0.169815 0.200607 0.338585
O O1 0.500000 0.500000 0.500000
O O2 0.656708 0.432885 0.712711
O O3 0.000000 0.500000 0.500000
O O4 0.759952 0.854957 0.799541
O O5 0.775672 0.000000 0.880444
O O6 0.000000 0.901292 0.000000
O O7 0.450830 0.238588 0.331088
O O8 0.000000 0.166388 0.500000
#
# Coordination Sequence:
#
# PCOD9209567 Si02
#       3
#     4   8   8
#     4  10  21  38  63  88 118 160 206 252 303 358
#     4   9  21  42  64  96 129 165 209 260 316 375
#     4  10  22  40  63  92 125 164 211 257 308 372
#
# _framework density 23.172692000000001
#
# number of rings (size 3 to 8) (size 9 to 14) (size 15 to 20)
#    1.200    1.200    0.000    1.200    0.000    9.600 
#    0.000    8.000    0.000    0.000    0.000    0.000 
#    0.000    0.000    0.000    0.000    0.000    0.000 
#
# Total GULP energy -55716.444033 kJ/mol
# GULP energy per Si atom -5571.644403 kJ/mol
# Density = 2.311995 g / cm^3
# Si number density = 23.172692 Si / 1000 Ang^3
#
#
#
# Elastic Constant Matrix: (Units=GPa)
#
#
# Indices 1 2 3 4 5 6 
#
# 1 91.6631 2.6607 46.7635 0.0000 -4.4416 0.0000
# 2 2.6607 69.4899 39.1900 0.0000 30.5801 0.0000
# 3 46.7635 39.1900 164.4130 0.0000 40.0483 0.0000
# 4 0.0000 0.0000 0.0000 38.4457 0.0000 30.1956
# 5 -4.4416 30.5801 40.0483 0.0000 37.2293 0.0000
# 6 0.0000 0.0000 0.0000 30.1956 0.0000 13.7007
#
#
#
# Elastic Compliance Matrix: (Units=1/GPa)
#
#
# Indices 1 2 3 4 5 6 
#
# 1 0.014506 -0.001197 -0.006100 0.000000 0.009276 0.000000
# 2 -0.001197 0.022803 -0.000674 0.000000 -0.018148 0.000000
# 3 -0.006100 -0.000674 0.010868 0.000000 -0.011865 0.000000
# 4 0.000000 0.000000 0.000000 -0.035582 0.000000 0.078421
# 5 0.009276 -0.018148 -0.011865 0.000000 0.055637 0.000000
# 6 0.000000 0.000000 0.000000 0.078421 0.000000 -0.099848
#
#
# Mechanical properties :
#
#
# Convention : Reuss Voigt Hill
#
# Bulk Modulus (GPa) = 31.02341 55.86604 43.44473
# Shear Modulus (GPa) = -1014.36594 33.67192 -490.34701
#
# Velocity S-wave (km/s) = -20.94498 3.81607 -14.56245
# Velocity P-wave (km/s) = 23.90619 6.60132 16.24698
#
# Compressibility (1/GPa) = 0.03223372
#
# Stress axis : x y z
#
# Youngs Moduli (GPa) = 68.93862 43.85404 92.01336
#
# Poissons Ratio (x) = 0.05250 0.56127
# Poissons Ratio (y) = 0.08253 0.06205
# Poissons Ratio (z) = 0.42051 0.02958
#
# Static dielectric constant tensor:
#      x y z
#    x 1.878000 0.000000 -0.019430 
#    y 0.000000 2.042290 0.000000 
#    z -0.019430 0.000000 1.911380 
# 
# From -- ./inp_files/32948.got.cif
#   From: 2010.05.17/outbox.cif.g08.bks.cpg/sg12_17_cif.got.tgz:32948.got - 2010.06.03 13:09:07.
