data_PCOD9209356
_publ_section_title
;
Structure prediction by ZEFSAII (Michael W. Deem and Ramdas Pophale) SiO2 
 PCOD9209356
Probable space group: C 2/M
;
_chemical_formula_sum "Si O2"
_cell_formula_units_Z 56
_cell_length_a 18.862245
_cell_length_b 8.981489
_cell_length_c 18.670523
_cell_angle_alpha 90.000000
_cell_angle_beta 112.320674
_cell_angle_gamma 90.000000
_cell_volume 2925.998442
_symmetry_space_group_name_H-M "C 2/M"
_symmetry_group_IT_number 12
_symmetry_cell_setting 'monoclinic'
loop_
_space_group_symop_operation_xyz
x,y,z
-x,y,-z
-x,-y,-z
x,-y,z
1/2+x,1/2+y,z
1/2-x,1/2+y,-z
1/2-x,1/2-y,-z
1/2+x,1/2-y,z
loop_
_atom_site_type_symbol
_atom_site_label
_atom_site_fract_x
_atom_site_fract_y
_atom_site_fract_z
Si Si1 0.819510 0.321422 0.981511
Si Si2 0.220435 0.678922 0.699216
Si Si3 0.863186 0.179030 0.848270
Si Si4 0.071149 0.320971 0.727813
Si Si5 0.476661 0.328381 0.567912
Si Si6 0.801612 0.830260 0.462123
Si Si7 0.525321 0.178792 0.870088
O O1 0.809001 0.500000 0.973138
O O2 0.827665 0.249240 0.906497
O O3 0.750000 0.250000 0.000000
O O4 0.900856 0.292979 0.052042
O O5 0.216884 0.500000 0.690247
O O6 0.304538 0.716994 0.761251
O O7 0.155635 0.723590 0.732428
O O8 0.200958 0.751289 0.615784
O O9 0.947958 0.242201 0.866532
O O10 0.865660 0.000000 0.855985
O O11 0.069385 0.500000 0.727241
O O12 0.048570 0.272160 0.798767
O O13 0.011715 0.259090 0.647129
O O14 0.500000 0.262636 0.500000
O O15 0.505449 0.500000 0.581909
O O16 0.385784 0.330567 0.528820
O O17 0.750000 0.750000 0.500000
O O18 0.776825 0.000000 0.442067
O O19 0.512062 0.000000 0.864996
#
# Coordination Sequence:
#
# PCOD9209356 Si02
#       7
#     8   8   8   8   8   8   8
#     4  11  23  42  68  94 126 163 202 249 301 361
#     4  10  22  41  61  86 121 160 202 251 303 356
#     4  11  24  41  63  92 127 162 203 253 302 358
#     4  10  21  38  62  87 116 156 202 247 296 359
#     4  10  21  39  59  84 118 153 195 251 304 350
#     4  11  24  40  60  85 119 158 200 252 306 364
#     4  10  23  42  62  91 127 161 199 248 303 359
#
# _framework density 19.138766
#
# number of rings (size 3 to 8) (size 9 to 14) (size 15 to 20)
#    0.000    1.571    1.429    2.571    2.000    8.286 
#    0.000    1.429    0.000    0.000    0.000    0.000 
#    0.000    0.000    0.000    0.000    0.000    0.000 
#
# Total GULP energy -156420.196266 kJ/mol
# GULP energy per Si atom -5586.435581 kJ/mol
# Density = 1.909520 g / cm^3
# Si number density = 19.138766 Si / 1000 Ang^3
#
#
#
# Elastic Constant Matrix: (Units=GPa)
#
#
# Indices 1 2 3 4 5 6 
#
# 1 113.2447 42.6915 24.2585 0.0000 1.5038 0.0000
# 2 42.6915 41.3811 22.3323 0.0000 6.6157 0.0000
# 3 24.2585 22.3323 68.2680 0.0000 9.4787 0.0000
# 4 0.0000 0.0000 0.0000 29.7931 0.0000 -1.8105
# 5 1.5038 6.6157 9.4787 0.0000 32.4761 0.0000
# 6 0.0000 0.0000 0.0000 -1.8105 0.0000 32.7075
#
#
#
# Elastic Compliance Matrix: (Units=1/GPa)
#
#
# Indices 1 2 3 4 5 6 
#
# 1 0.014660 -0.015221 -0.000591 0.000000 0.002594 0.000000
# 2 -0.015221 0.045494 -0.008635 0.000000 -0.006043 0.000000
# 3 -0.000591 -0.008635 0.018171 0.000000 -0.003517 0.000000
# 4 0.000000 0.000000 0.000000 0.033678 0.000000 0.001864
# 5 0.002594 -0.006043 -0.003517 0.000000 0.032929 0.000000
# 6 0.000000 0.000000 0.000000 0.001864 0.000000 0.030677
#
#
# Mechanical properties :
#
#
# Convention : Reuss Voigt Hill
#
# Bulk Modulus (GPa) = 33.97476 44.60647 39.29061
# Shear Modulus (GPa) = 21.33887 27.90278 24.62082
#
# Velocity S-wave (km/s) = 3.34272 3.82241 3.59058
# Velocity P-wave (km/s) = 5.71740 6.54512 6.14521
#
# Compressibility (1/GPa) = 0.02943362
#
# Stress axis : x y z
#
# Youngs Moduli (GPa) = 68.21061 21.98069 55.03258
#
# Poissons Ratio (x) = 0.33456 0.03250
# Poissons Ratio (y) = 1.03822 0.47520
# Poissons Ratio (z) = 0.04028 0.18980
#
# Static dielectric constant tensor:
#      x y z
#    x 1.628040 0.000000 -0.007110 
#    y 0.000000 1.655250 0.000000 
#    z -0.007110 0.000000 1.638280 
# 
# From -- ./inp_files/274994.got.cif
#   From: 2010.05.17/outbox.cif.g08.bks.cpg/sg12_138_cif.got.tgz:274994.got - 2010.06.03 13:09:07.
