data_PCOD9209012
_publ_section_title
;
Structure prediction by ZEFSAII (Michael W. Deem and Ramdas Pophale) SiO2 
 PCOD9209012
Probable space group: C 2/M
;
_chemical_formula_sum "Si O2"
_cell_formula_units_Z 40
_cell_length_a 13.166690
_cell_length_b 22.257148
_cell_length_c 8.114225
_cell_angle_alpha 90.000000
_cell_angle_beta 135.030904
_cell_angle_gamma 90.000000
_cell_volume 1680.520435
_symmetry_space_group_name_H-M "C 2/M"
_symmetry_group_IT_number 12
_symmetry_cell_setting 'monoclinic'
loop_
_space_group_symop_operation_xyz
x,y,z
-x,y,-z
-x,-y,-z
x,-y,z
1/2+x,1/2+y,z
1/2-x,1/2+y,-z
1/2-x,1/2-y,-z
1/2+x,1/2-y,z
loop_
_atom_site_type_symbol
_atom_site_label
_atom_site_fract_x
_atom_site_fract_y
_atom_site_fract_z
Si Si1 0.440945 0.126699 0.112968
Si Si2 0.190480 0.570958 0.557021
Si Si3 0.409225 0.433130 0.542816
Si Si4 0.847822 0.879931 0.041497
Si Si5 0.424934 0.744453 0.230944
O O1 0.524119 0.082731 0.332000
O O2 0.270859 0.118436 0.947756
O O3 0.480327 0.195187 0.207745
O O4 0.500000 0.114513 0.000000
O O5 0.216692 0.500000 0.615264
O O6 0.273385 0.590218 0.484577
O O7 0.252402 0.612989 0.770371
O O8 0.500000 0.402607 0.500000
O O9 0.370230 0.500000 0.439981
O O10 0.537620 0.433123 0.823616
O O11 0.944276 0.819782 0.165698
O O12 0.500000 0.743107 0.500000
O O13 0.250000 0.750000 0.000000
#
# Coordination Sequence:
#
# PCOD9209012 Si02
#       5
#     8   8   8   8   8
#     4  11  24  41  63  95 132 174 224 281 343 404
#     4  11  24  42  66  96 131 176 229 282 341 408
#     4  10  21  38  60  89 125 165 213 270 332 399
#     4  11  22  40  64  93 128 173 222 275 335 403
#     4  10  22  43  67  95 135 179 226 281 342 410
#
# _framework density 23.802149
#
# number of rings (size 3 to 8) (size 9 to 14) (size 15 to 20)
#    0.000    1.400    0.000    6.000    0.000    7.600 
#    0.000    6.000    0.000    0.000    0.000    0.000 
#    0.000    0.000    0.000    0.000    0.000    0.000 
#
# Total GULP energy -111488.005932 kJ/mol
# GULP energy per Si atom -5574.400297 kJ/mol
# Density = 2.374797 g / cm^3
# Si number density = 23.802149 Si / 1000 Ang^3
#
#
#
# Elastic Constant Matrix: (Units=GPa)
#
#
# Indices 1 2 3 4 5 6 
#
# 1 86.9041 -2.6784 16.5096 0.0000 0.5780 0.0000
# 2 -2.6784 76.9960 18.2113 0.0000 -0.4992 0.0000
# 3 16.5096 18.2113 126.5806 0.0000 5.5278 0.0000
# 4 0.0000 0.0000 0.0000 41.0519 0.0000 5.8587
# 5 0.5780 -0.4992 5.5278 0.0000 38.2877 0.0000
# 6 0.0000 0.0000 0.0000 5.8587 0.0000 -8.2895
#
#
#
# Elastic Compliance Matrix: (Units=1/GPa)
#
#
# Indices 1 2 3 4 5 6 
#
# 1 0.011847 0.000806 -0.001664 0.000000 0.000072 0.000000
# 2 0.000806 0.013508 -0.002069 0.000000 0.000463 0.000000
# 3 -0.001664 -0.002069 0.008468 0.000000 -0.001224 0.000000
# 4 0.000000 0.000000 0.000000 0.022128 0.000000 0.015639
# 5 0.000072 0.000463 -0.001224 0.000000 0.026300 0.000000
# 6 0.000000 0.000000 0.000000 0.015639 0.000000 -0.109581
#
#
# Mechanical properties :
#
#
# Convention : Reuss Voigt Hill
#
# Bulk Modulus (GPa) = 35.75255 39.39620 37.57438
# Shear Modulus (GPa) = -411.41361 31.43924 -189.98718
#
# Velocity S-wave (km/s) = -13.16140 3.63830 -8.94386
# Velocity P-wave (km/s) = 14.69388 5.85125 9.53081
#
# Compressibility (1/GPa) = 0.02797003
#
# Stress axis : x y z
#
# Youngs Moduli (GPa) = 84.40605 74.02999 118.08754
#
# Poissons Ratio (x) = -0.05969 0.19654
# Poissons Ratio (y) = -0.06805 0.24430
# Poissons Ratio (z) = 0.14048 0.15315
#
# Static dielectric constant tensor:
#      x y z
#    x 1.922830 0.000000 -0.078830 
#    y 0.000000 1.997580 0.000000 
#    z -0.078830 0.000000 1.990920 
# 
# From -- ./inp_files/65598.got.cif
#   From: 2010.05.17/outbox.cif.g08.bks.cpg/sg12_33_cif.got.tgz:65598.got - 2010.06.03 13:09:07.
