data_PCOD9209596
_publ_section_title
;
Structure prediction by ZEFSAII (Michael W. Deem and Ramdas Pophale) SiO2 
 PCOD9209596
Probable space group: C 2/M
;
_chemical_formula_sum "Si O2"
_cell_formula_units_Z 52
_cell_length_a 23.706328
_cell_length_b 12.873867
_cell_length_c 11.133853
_cell_angle_alpha 90.000000
_cell_angle_beta 129.700283
_cell_angle_gamma 90.000000
_cell_volume 2614.381370
_symmetry_space_group_name_H-M "C 2/M"
_symmetry_group_IT_number 12
_symmetry_cell_setting 'monoclinic'
loop_
_space_group_symop_operation_xyz
x,y,z
-x,y,-z
-x,-y,-z
x,-y,z
1/2+x,1/2+y,z
1/2-x,1/2+y,-z
1/2-x,1/2-y,-z
1/2+x,1/2-y,z
loop_
_atom_site_type_symbol
_atom_site_label
_atom_site_fract_x
_atom_site_fract_y
_atom_site_fract_z
Si Si1 0.151710 0.117859 0.583314
Si Si2 0.653066 0.611476 0.104759
Si Si3 0.000000 0.838567 0.000000
Si Si4 0.707471 0.803944 0.333992
Si Si5 0.426550 0.209152 0.694806
Si Si6 0.458848 0.880877 0.320911
Si Si7 0.333602 0.709735 0.130239
O O1 0.235676 0.119483 0.650444
O O2 0.109292 0.204988 0.445313
O O3 0.154306 0.154018 0.725213
O O4 0.122209 0.000000 0.530209
O O5 0.691048 0.500000 0.177838
O O6 0.573442 0.605556 0.057616
O O7 0.689363 0.711833 0.215684
O O8 0.649337 0.634501 0.958406
O O9 0.977672 0.771072 0.855516
O O10 0.750000 0.750000 0.500000
O O11 0.634502 0.842600 0.301765
O O12 0.477955 0.132150 0.692108
O O13 0.500000 0.851291 0.500000
O O14 0.390889 0.805243 0.203772
O O15 0.434146 0.000000 0.296075
O O16 0.250000 0.750000 0.000000
#
# Coordination Sequence:
#
# PCOD9209596 Si02
#       7
#     8   8   4   8   8   8   8
#     4  11  23  41  64  92 130 172 211 263 330 386
#     4  11  22  38  63  92 123 165 208 257 320 382
#     4  10  21  38  63  90 128 160 203 264 317 378
#     4   9  21  39  60  90 129 166 210 263 312 381
#     4  10  21  42  65  94 129 162 215 273 316 383
#     4  11  24  45  72  95 125 173 220 271 332 386
#     4  12  24  44  64  95 134 168 217 274 322 395
#
# _framework density 19.889983000000001
#
# number of rings (size 3 to 8) (size 9 to 14) (size 15 to 20)
#    0.000    1.385    4.615    0.692    0.000    8.000 
#    0.000    3.462    0.000    0.000    0.000    0.000 
#    0.000    0.000    0.000    0.000    0.000    0.000 
#
# Total GULP energy -145002.954441 kJ/mol
# GULP energy per Si atom -5577.036709 kJ/mol
# Density = 1.984471 g / cm^3
# Si number density = 19.889983 Si / 1000 Ang^3
#
#
#
# Elastic Constant Matrix: (Units=GPa)
#
#
# Indices 1 2 3 4 5 6 
#
# 1 68.4765 23.0382 14.9585 0.0000 -13.5648 0.0000
# 2 23.0382 50.6481 17.1094 0.0000 7.1666 0.0000
# 3 14.9585 17.1094 82.0494 0.0000 -16.5014 0.0000
# 4 0.0000 0.0000 0.0000 12.1369 0.0000 3.6511
# 5 -13.5648 7.1666 -16.5014 0.0000 40.9076 0.0000
# 6 0.0000 0.0000 0.0000 3.6511 0.0000 1.2564
#
#
#
# Elastic Compliance Matrix: (Units=1/GPa)
#
#
# Indices 1 2 3 4 5 6 
#
# 1 0.019649 -0.010206 0.000235 0.000000 0.008398 0.000000
# 2 -0.010206 0.027983 -0.006139 0.000000 -0.010763 0.000000
# 3 0.000235 -0.006139 0.014863 0.000000 0.007149 0.000000
# 4 0.000000 0.000000 0.000000 0.654888 0.000000 -1.903076
# 5 0.008398 -0.010763 0.007149 0.000000 0.031999 0.000000
# 6 0.000000 0.000000 0.000000 -1.903076 0.000000 6.326166
#
#
# Mechanical properties :
#
#
# Convention : Reuss Voigt Hill
#
# Bulk Modulus (GPa) = 33.02993 34.59847 33.81420
# Shear Modulus (GPa) = 0.70246 20.59806 10.65026
#
# Velocity S-wave (km/s) = 0.59493 3.22156 2.31651
# Velocity P-wave (km/s) = 4.13694 5.59202 4.91858
#
# Compressibility (1/GPa) = 0.03027557
#
# Stress axis : x y z
#
# Youngs Moduli (GPa) = 50.89192 35.73586 67.28174
#
# Poissons Ratio (x) = 0.36471 -0.01580
# Poissons Ratio (y) = 0.51938 0.41306
# Poissons Ratio (z) = -0.01195 0.21939
#
# Static dielectric constant tensor:
#      x y z
#    x 1.740310 0.000000 0.016810 
#    y 0.000000 1.625130 0.000000 
#    z 0.016810 0.000000 1.689740 
# 
# From -- ./inp_files/175331.got.cif
#   From: 2010.05.17/outbox.cif.g08.bks.cpg/sg12_88_cif.got.tgz:175331.got - 2010.06.03 13:09:07.
