data_PCOD9209855
_publ_section_title
;
Structure prediction by ZEFSAII (Michael W. Deem and Ramdas Pophale) SiO2 
 PCOD9209855
Probable space group: C 2/M
;
_chemical_formula_sum "Si O2"
_cell_formula_units_Z 44
_cell_length_a 18.037335
_cell_length_b 15.872310
_cell_length_c 8.172922
_cell_angle_alpha 90.000000
_cell_angle_beta 127.527813
_cell_angle_gamma 90.000000
_cell_volume 1855.644030
_symmetry_space_group_name_H-M "C 2/M"
_symmetry_group_IT_number 12
_symmetry_cell_setting 'monoclinic'
loop_
_space_group_symop_operation_xyz
x,y,z
-x,y,-z
-x,-y,-z
x,-y,z
1/2+x,1/2+y,z
1/2-x,1/2+y,-z
1/2-x,1/2-y,-z
1/2+x,1/2-y,z
loop_
_atom_site_type_symbol
_atom_site_label
_atom_site_fract_x
_atom_site_fract_y
_atom_site_fract_z
Si Si1 0.766735 0.596142 0.569928
Si Si2 0.878363 0.600880 0.246727
Si Si3 0.809114 0.901996 0.167244
Si Si4 0.061613 0.863320 0.238172
Si Si5 0.500000 0.624403 0.500000
Si Si6 0.951270 0.670986 0.682946
O O1 0.773905 0.500000 0.523366
O O2 0.741879 0.599435 0.727258
O O3 0.673212 0.632579 0.358044
O O4 0.867152 0.636750 0.679298
O O5 0.887092 0.500000 0.286859
O O6 0.910533 0.652981 0.447111
O O7 0.948770 0.624757 0.193493
O O8 0.770575 0.620189 0.067400
O O9 0.899617 0.842878 0.299718
O O10 0.839904 0.000000 0.180358
O O11 0.038063 0.911558 0.376709
O O12 0.036909 0.767515 0.253144
O O13 0.000000 0.890046 0.000000
#
# Coordination Sequence:
#
# PCOD9209855 Si02
#       6
#     8   8   8   8   4   8
#     4  10  22  42  65  93 127 168 218 274 321 379
#     4  10  21  38  65  98 127 172 222 261 325 393
#     4   9  20  37  63  95 123 164 216 264 325 381
#     4  11  26  43  64  98 131 172 222 262 328 396
#     4  10  21  44  62  88 131 172 210 272 318 374
#     4  11  22  40  61  93 133 166 208 271 324 381
#
# _framework density 23.711445000000001
#
# number of rings (size 3 to 8) (size 9 to 14) (size 15 to 20)
#    0.000    1.818    0.000    4.091    5.091    1.091 
#    0.000    5.455    0.000    0.000    0.000    0.000 
#    0.000    0.000    0.000    0.000    0.000    0.000 
#
# Total GULP energy -122683.685789 kJ/mol
# GULP energy per Si atom -5576.531172 kJ/mol
# Density = 2.365748 g / cm^3
# Si number density = 23.711445 Si / 1000 Ang^3
#
#
#
# Elastic Constant Matrix: (Units=GPa)
#
#
# Indices 1 2 3 4 5 6 
#
# 1 125.4724 20.5684 16.0274 0.0000 17.0553 0.0000
# 2 20.5684 75.0831 6.7706 0.0000 -1.3603 0.0000
# 3 16.0274 6.7706 132.1336 0.0000 14.5810 0.0000
# 4 0.0000 0.0000 0.0000 5.4244 0.0000 15.6343
# 5 17.0553 -1.3603 14.5810 0.0000 31.8223 0.0000
# 6 0.0000 0.0000 0.0000 15.6343 0.0000 -13.1952
#
#
#
# Elastic Compliance Matrix: (Units=1/GPa)
#
#
# Indices 1 2 3 4 5 6 
#
# 1 0.009092 -0.002537 -0.000446 0.000000 -0.004777 0.000000
# 2 -0.002537 0.014115 -0.000666 0.000000 0.002268 0.000000
# 3 -0.000446 -0.000666 0.008040 0.000000 -0.003473 0.000000
# 4 0.000000 0.000000 0.000000 0.041756 0.000000 0.049475
# 5 -0.004777 0.002268 -0.003473 0.000000 0.035673 0.000000
# 6 0.000000 0.000000 0.000000 0.049475 0.000000 -0.017165
#
#
# Mechanical properties :
#
#
# Convention : Reuss Voigt Hill
#
# Bulk Modulus (GPa) = 41.75494 46.60243 44.17869
# Shear Modulus (GPa) = 46.82069 24.09848 35.45958
#
# Velocity S-wave (km/s) = 4.44847 3.19144 3.87132
# Velocity P-wave (km/s) = 6.63574 5.76863 6.21732
#
# Compressibility (1/GPa) = 0.02394926
#
# Stress axis : x y z
#
# Youngs Moduli (GPa) = 109.98603 70.84806 124.38503
#
# Poissons Ratio (x) = 0.17975 0.05544
# Poissons Ratio (y) = 0.27904 0.08282
# Poissons Ratio (z) = 0.04902 0.04717
#
# Static dielectric constant tensor:
#      x y z
#    x 1.939720 0.000000 -0.014720 
#    y 0.000000 1.944060 0.000000 
#    z -0.014720 0.000000 1.914040 
# 
# From -- ./inp_files/76105.got.cif
#   From: 2010.05.17/outbox.cif.g08.bks.cpg/sg12_39_cif.got.tgz:76105.got - 2010.06.03 13:09:07.
