data_PCOD9209218
_publ_section_title
;
Structure prediction by ZEFSAII (Michael W. Deem and Ramdas Pophale) SiO2 
 PCOD9209218
Probable space group: C 2/M
;
_chemical_formula_sum "Si O2"
_cell_formula_units_Z 64
_cell_length_a 8.613532
_cell_length_b 31.766727
_cell_length_c 24.745608
_cell_angle_alpha 90.000000
_cell_angle_beta 150.484780
_cell_angle_gamma 90.000000
_cell_volume 3335.758026
_symmetry_space_group_name_H-M "C 2/M"
_symmetry_group_IT_number 12
_symmetry_cell_setting 'monoclinic'
loop_
_space_group_symop_operation_xyz
x,y,z
-x,y,-z
-x,-y,-z
x,-y,z
1/2+x,1/2+y,z
1/2-x,1/2+y,-z
1/2-x,1/2-y,-z
1/2+x,1/2-y,z
loop_
_atom_site_type_symbol
_atom_site_label
_atom_site_fract_x
_atom_site_fract_y
_atom_site_fract_z
Si Si1 0.219392 0.205073 0.762755
Si Si2 0.768018 0.547385 0.232794
Si Si3 0.688462 0.674586 0.000001
Si Si4 0.094396 0.294921 0.762774
Si Si5 0.686628 0.424301 0.999979
Si Si6 0.629519 0.623614 0.377280
Si Si7 0.395867 0.547385 0.232760
Si Si8 0.743102 0.623623 0.622713
O O1 0.062775 0.249997 0.725120
O O2 0.408702 0.206111 0.763488
O O3 0.981849 0.165942 0.687110
O O4 0.476577 0.195992 0.887522
O O5 0.898634 0.500000 0.267697
O O6 0.582320 0.550615 0.232928
O O7 0.031784 0.583153 0.310663
O O8 0.522069 0.555168 0.109903
O O9 0.461066 0.696007 0.887543
O O10 0.500000 0.676276 0.000000
O O11 0.729454 0.625259 0.999976
O O12 0.953764 0.334055 0.687143
O O13 0.027367 0.444831 0.109856
O O14 0.500000 0.427301 0.000000
O O15 0.521393 0.583152 0.310618
O O16 0.447083 0.622936 0.378834
O O17 0.000000 0.623525 0.500000
O O18 0.439727 0.500000 0.267652
O O19 0.500000 0.623553 0.500000
#
# Coordination Sequence:
#
# PCOD9209218 Si02
#       8
#     8   8   8   8   8   8   8   8
#     4  10  21  38  61  89 122 158 198 246 300 361
#     4  11  24  41  62  92 127 160 201 252 304 363
#     4   9  17  35  59  87 122 155 193 241 295 357
#     4  10  21  38  61  89 122 158 198 246 300 361
#     4  11  20  37  64  92 126 164 202 246 301 363
#     4  11  24  43  65  88 119 160 207 257 305 361
#     4  11  24  41  62  92 127 160 201 252 304 363
#     4  11  24  43  65  88 119 160 207 257 305 361
#
# _framework density 19.186045
#
# number of rings (size 3 to 8) (size 9 to 14) (size 15 to 20)
#    0.000    1.500    2.500    2.625    0.000    6.500 
#    0.000    2.500    0.000    0.000    0.000    0.000 
#    0.000    0.000    0.000    0.000    0.000    0.000 
#
# Total GULP energy -178880.244689 kJ/mol
# GULP energy per Si atom -5590.007647 kJ/mol
# Density = 1.914238 g / cm^3
# Si number density = 19.186045 Si / 1000 Ang^3
#
#
#
# Elastic Constant Matrix: (Units=GPa)
#
#
# Indices 1 2 3 4 5 6 
#
# 1 40.6605 50.5424 38.4066 0.0709 2.7144 0.0049
# 2 50.5424 202.1454 96.7701 0.5703 3.1344 0.0388
# 3 38.4066 96.7701 163.3125 2.4139 5.7037 0.1649
# 4 0.0709 0.5703 2.4139-3551.8969 1.7293 -245.2578
# 5 2.7144 3.1344 5.7037 1.7293 21.1101 0.1186
# 6 0.0049 0.0388 0.1649 -245.2578 0.1186 14.7264
#
#
#
# Elastic Compliance Matrix: (Units=1/GPa)
#
#
# Indices 1 2 3 4 5 6 
#
# 1 0.038167 -0.007328 -0.004543 -0.000005 -0.002592 0.000000
# 2 -0.007328 0.008313 -0.003223 -0.000001 0.000579 0.000000
# 3 -0.004543 -0.003223 0.009150 0.000005 -0.001410 0.000000
# 4 -0.000005 -0.000001 0.000005 -0.000131 0.000022 -0.002181
# 5 -0.002592 0.000579 -0.001410 0.000022 0.047997 0.000001
# 6 0.000000 0.000000 0.000000 -0.002181 0.000001 0.031584
#
#
# Mechanical properties :
#
#
# Convention : Reuss Voigt Hill
#
# Bulk Modulus (GPa) = 39.30364 86.39518 62.84941
# Shear Modulus (GPa) = 28.77720 -688.51877 -329.87079
#
# Velocity S-wave (km/s) = 3.87706 -18.96427 -13.12653
# Velocity P-wave (km/s) = 6.36963 20.84218 14.03254
#
# Compressibility (1/GPa) = 0.02544293
#
# Stress axis : x y z
#
# Youngs Moduli (GPa) = 26.20073 120.29557 109.28480
#
# Poissons Ratio (x) = 0.88150 0.49650
# Poissons Ratio (y) = 0.19199 0.35219
# Poissons Ratio (z) = 0.11903 0.38767
#
# Static dielectric constant tensor:
#      x y z
#    x 1.647300 0.000000 -0.000600 
#    y 0.000000 1.661010 0.000000 
#    z -0.000600 0.000000 1.638720 
# 
# From -- ./inp_files/334357.got.cif
#   From: 2010.05.17/outbox.cif.g08.bks.cpg/sg12_168_cif.got.tgz:334357.got - 2010.06.03 13:09:07.
