data_PCOD9209607
_publ_section_title
;
Structure prediction by ZEFSAII (Michael W. Deem and Ramdas Pophale) SiO2 
 PCOD9209607
Probable space group: C 2/M
;
_chemical_formula_sum "Si O2"
_cell_formula_units_Z 56
_cell_length_a 11.687793
_cell_length_b 15.923194
_cell_length_c 13.828519
_cell_angle_alpha 90.000000
_cell_angle_beta 112.008468
_cell_angle_gamma 90.000000
_cell_volume 2386.043134
_symmetry_space_group_name_H-M "C 2/M"
_symmetry_group_IT_number 12
_symmetry_cell_setting 'monoclinic'
loop_
_space_group_symop_operation_xyz
x,y,z
-x,y,-z
-x,-y,-z
x,-y,z
1/2+x,1/2+y,z
1/2-x,1/2+y,-z
1/2-x,1/2-y,-z
1/2+x,1/2-y,z
loop_
_atom_site_type_symbol
_atom_site_label
_atom_site_fract_x
_atom_site_fract_y
_atom_site_fract_z
Si Si1 0.070577 0.598941 0.817302
Si Si2 0.185371 0.177613 0.074598
Si Si3 0.103616 0.399987 0.606290
Si Si4 0.324207 0.815987 0.771198
Si Si5 0.830367 0.193600 0.597125
Si Si6 0.436226 0.402831 0.338941
Si Si7 0.515890 0.594318 0.874388
O O1 0.094511 0.500000 0.828186
O O2 0.177936 0.647819 0.906254
O O3 0.082249 0.629372 0.709051
O O4 0.934799 0.618142 0.812513
O O5 0.187862 0.264875 0.132755
O O6 0.121868 0.113046 0.131665
O O7 0.098734 0.164083 0.954395
O O8 0.090992 0.500000 0.604866
O O9 0.236527 0.376075 0.608091
O O10 0.000000 0.365900 0.500000
O O11 0.363559 0.751045 0.699624
O O12 0.196309 0.858198 0.697058
O O13 0.750000 0.250000 0.500000
O O14 0.948468 0.150715 0.585494
O O15 0.431585 0.500000 0.370375
O O16 0.467952 0.403168 0.234261
O O17 0.553852 0.500000 0.916677
#
# Coordination Sequence:
#
# PCOD9209607 Si02
#       7
#     8   8   8   8   8   8   8
#     4  11  22  41  63  90 131 175 221 273 326 390
#     4  11  21  38  67  96 133 167 225 274 329 389
#     4  10  21  38  63  91 122 166 218 267 325 393
#     4  12  25  41  63 101 133 173 223 274 338 388
#     4  12  25  41  68  95 130 166 218 276 336 389
#     4  11  25  48  68  93 137 180 221 270 339 415
#     4  10  21  41  69 101 132 178 226 276 336 406
#
# _framework density 23.469818
#
# number of rings (size 3 to 8) (size 9 to 14) (size 15 to 20)
#    0.000    1.000    2.857    4.286    2.000    2.857 
#    2.571    2.857    0.000    2.571    0.000    0.000 
#    0.000    0.000    0.000    0.000    0.000    0.000 
#
# Total GULP energy -156760.079553 kJ/mol
# GULP energy per Si atom -5598.574270 kJ/mol
# Density = 2.341640 g / cm^3
# Si number density = 23.469818 Si / 1000 Ang^3
#
#
#
# Elastic Constant Matrix: (Units=GPa)
#
#
# Indices 1 2 3 4 5 6 
#
# 1 132.1120 44.0436 11.6899 0.0000 35.9369 0.0000
# 2 44.0436 86.8497 30.5481 0.0000 14.7077 0.0000
# 3 11.6899 30.5481 71.3841 0.0000 13.5026 0.0000
# 4 0.0000 0.0000 0.0000 22.1065 0.0000 12.4992
# 5 35.9369 14.7077 13.5026 0.0000 41.4669 0.0000
# 6 0.0000 0.0000 0.0000 12.4992 0.0000 42.7340
#
#
#
# Elastic Compliance Matrix: (Units=1/GPa)
#
#
# Indices 1 2 3 4 5 6 
#
# 1 0.011454 -0.004998 0.001924 0.000000 -0.008780 0.000000
# 2 -0.004998 0.016123 -0.006201 0.000000 0.000632 0.000000
# 3 0.001924 -0.006201 0.017313 0.000000 -0.005106 0.000000
# 4 0.000000 0.000000 0.000000 0.054199 0.000000 -0.015853
# 5 -0.008780 0.000632 -0.005106 0.000000 0.033163 0.000000
# 6 0.000000 0.000000 0.000000 -0.015853 0.000000 0.028037
#
#
# Mechanical properties :
#
#
# Convention : Reuss Voigt Hill
#
# Bulk Modulus (GPa) = 37.96565 51.43431 44.69998
# Shear Modulus (GPa) = 26.64986 34.86578 30.75782
#
# Velocity S-wave (km/s) = 3.37337 3.85848 3.62405
# Velocity P-wave (km/s) = 5.60217 6.46631 6.04969
#
# Compressibility (1/GPa) = 0.02633960
#
# Stress axis : x y z
#
# Youngs Moduli (GPa) = 87.30746 62.02374 57.76035
#
# Poissons Ratio (x) = 0.31002 -0.11114
# Poissons Ratio (y) = 0.43640 0.35815
# Poissons Ratio (z) = -0.16799 0.38459
#
# Static dielectric constant tensor:
#      x y z
#    x 1.861160 0.000000 -0.000230 
#    y 0.000000 1.863140 0.000000 
#    z -0.000230 0.000000 1.941720 
# 
# From -- ./inp_files/263441.got.cif
#   From: 2010.05.17/outbox.cif.g08.bks.cpg/sg12_132_cif.got.tgz:263441.got - 2010.06.03 13:09:07.
