data_PCOD9209709
_publ_section_title
;
Structure prediction by ZEFSAII (Michael W. Deem and Ramdas Pophale) SiO2 
 PCOD9209709
Probable space group: C 2/M
;
_chemical_formula_sum "Si O2"
_cell_formula_units_Z 56
_cell_length_a 13.522055
_cell_length_b 27.615223
_cell_length_c 10.821009
_cell_angle_alpha 90.000000
_cell_angle_beta 135.012579
_cell_angle_gamma 90.000000
_cell_volume 2856.594824
_symmetry_space_group_name_H-M "C 2/M"
_symmetry_group_IT_number 12
_symmetry_cell_setting 'monoclinic'
loop_
_space_group_symop_operation_xyz
x,y,z
-x,y,-z
-x,-y,-z
x,-y,z
1/2+x,1/2+y,z
1/2-x,1/2+y,-z
1/2-x,1/2-y,-z
1/2+x,1/2-y,z
loop_
_atom_site_type_symbol
_atom_site_label
_atom_site_fract_x
_atom_site_fract_y
_atom_site_fract_z
Si Si1 0.631151 0.443007 0.319522
Si Si2 0.236646 0.145017 0.550575
Si Si3 0.009286 0.783524 0.656918
Si Si4 0.691589 0.553842 0.936263
Si Si5 0.351730 0.088420 0.309571
Si Si6 0.465886 0.828183 0.258300
Si Si7 0.765400 0.648649 0.866303
O O1 0.662802 0.500000 0.367176
O O2 0.667740 0.407248 0.465203
O O3 0.465084 0.439395 0.148184
O O4 0.726714 0.422382 0.293670
O O5 0.125763 0.186719 0.416483
O O6 0.378823 0.149939 0.599704
O O7 0.274262 0.152658 0.727331
O O8 0.000000 0.782305 0.500000
O O9 0.022954 0.728992 0.714480
O O10 0.146098 0.814661 0.808434
O O11 0.698829 0.500000 0.890612
O O12 0.717941 0.594758 0.859087
O O13 0.806093 0.560440 0.144995
O O14 0.500000 0.073054 0.500000
O O15 0.373866 0.143640 0.279851
O O16 0.400861 0.839794 0.067060
#
# Coordination Sequence:
#
# PCOD9209709 Si02
#       7
#     8   8   8   8   8   8   8
#     4  11  23  40  63  90 123 161 203 252 305 360
#     4  11  22  40  61  90 122 160 200 250 296 364
#     4  10  21  38  64  88 117 158 204 249 302 355
#     4  10  22  40  63  87 119 162 202 250 306 357
#     4  11  22  39  61  91 124 155 202 252 300 363
#     4  11  22  40  62  87 124 162 197 249 306 362
#     4  10  22  40  61  89 124 154 203 251 299 358
#
# _framework density 19.603760999999999
#
# number of rings (size 3 to 8) (size 9 to 14) (size 15 to 20)
#    0.000    1.429    2.857    2.571    0.000    2.857 
#    0.000    1.429    3.143    2.571    0.000    0.000 
#    0.000    0.000    0.000    0.000    0.000    0.000 
#
# Total GULP energy -156308.803993 kJ/mol
# GULP energy per Si atom -5582.457285 kJ/mol
# Density = 1.955914 g / cm^3
# Si number density = 19.603761 Si / 1000 Ang^3
#
#
#
# Elastic Constant Matrix: (Units=GPa)
#
#
# Indices 1 2 3 4 5 6 
#
# 1 41.0501 32.7760 16.0362 0.0000 15.2181 0.0000
# 2 32.7760 160.5498 44.3147 0.0000 17.9051 0.0000
# 3 16.0362 44.3147 67.3334 0.0000 16.0665 0.0000
# 4 0.0000 0.0000 0.0000 17.4992 0.0000 -0.2443
# 5 15.2181 17.9051 16.0665 0.0000 21.5299 0.0000
# 6 0.0000 0.0000 0.0000 -0.2443 0.0000 14.4692
#
#
#
# Elastic Compliance Matrix: (Units=1/GPa)
#
#
# Indices 1 2 3 4 5 6 
#
# 1 0.036349 -0.004957 -0.000301 0.000000 -0.021346 0.000000
# 2 -0.004957 0.008467 -0.004317 0.000000 -0.000317 0.000000
# 3 -0.000301 -0.004317 0.020508 0.000000 -0.011502 0.000000
# 4 0.000000 0.000000 0.000000 0.057159 0.000000 0.000965
# 5 -0.021346 -0.000317 -0.011502 0.000000 0.070381 0.000000
# 6 0.000000 0.000000 0.000000 0.000965 0.000000 0.069129
#
#
# Mechanical properties :
#
#
# Convention : Reuss Voigt Hill
#
# Bulk Modulus (GPa) = 21.65648 50.57635 36.11641
# Shear Modulus (GPa) = 16.86140 22.42009 19.64074
#
# Velocity S-wave (km/s) = 2.93595 3.38548 3.16869
# Velocity P-wave (km/s) = 4.75017 6.41383 5.64364
#
# Compressibility (1/GPa) = 0.04617555
#
# Stress axis : x y z
#
# Youngs Moduli (GPa) = 27.51090 118.10105 48.76027
#
# Poissons Ratio (x) = 0.58542 0.01469
# Poissons Ratio (y) = 0.13637 0.21047
# Poissons Ratio (z) = 0.00829 0.50978
#
# Static dielectric constant tensor:
#      x y z
#    x 1.685730 0.000000 0.005610 
#    y 0.000000 1.668550 0.000000 
#    z 0.005610 0.000000 1.686420 
# 
# From -- ./inp_files/149513.got.cif
#   From: 2010.05.17/outbox.cif.g08.bks.cpg/sg12_75_cif.got.tgz:149513.got - 2010.06.03 13:09:07.
