data_PCOD9209275
_publ_section_title
;
Structure prediction by ZEFSAII (Michael W. Deem and Ramdas Pophale) SiO2 
 PCOD9209275
Probable space group: C 2/M
;
_chemical_formula_sum "Si O2"
_cell_formula_units_Z 60
_cell_length_a 13.723502
_cell_length_b 13.210694
_cell_length_c 15.524072
_cell_angle_alpha 90.000000
_cell_angle_beta 105.350143
_cell_angle_gamma 90.000000
_cell_volume 2714.064476
_symmetry_space_group_name_H-M "C 2/M"
_symmetry_group_IT_number 12
_symmetry_cell_setting 'monoclinic'
loop_
_space_group_symop_operation_xyz
x,y,z
-x,y,-z
-x,-y,-z
x,-y,z
1/2+x,1/2+y,z
1/2-x,1/2+y,-z
1/2-x,1/2-y,-z
1/2+x,1/2-y,z
loop_
_atom_site_type_symbol
_atom_site_label
_atom_site_fract_x
_atom_site_fract_y
_atom_site_fract_z
Si Si1 0.635711 0.384484 0.116360
Si Si2 0.820835 0.386954 0.360489
Si Si3 0.855333 0.698557 0.195296
Si Si4 0.500000 0.789787 0.500000
Si Si5 0.108203 0.615128 0.047505
Si Si6 0.160136 0.224030 0.410965
Si Si7 0.174815 0.120596 0.935308
Si Si8 0.417489 0.806844 0.781405
O O1 0.610352 0.500000 0.132745
O O2 0.757482 0.367396 0.147163
O O3 0.590229 0.302920 0.171808
O O4 0.614091 0.367587 0.009917
O O5 0.830908 0.500000 0.327249
O O6 0.837931 0.300441 0.293291
O O7 0.911329 0.363373 0.446574
O O8 0.710675 0.372652 0.376541
O O9 0.857583 0.806821 0.149371
O O10 0.967210 0.656939 0.204017
O O11 0.556484 0.722459 0.440761
O O12 0.101038 0.500000 0.017253
O O13 0.207732 0.654010 0.024967
O O14 0.128260 0.623712 0.154119
O O15 0.000000 0.662406 0.000000
O O16 0.250000 0.250000 0.500000
O O17 0.135932 0.298224 0.323928
O O18 0.173538 0.000000 0.914804
#
# Coordination Sequence:
#
# PCOD9209275 Si02
#       8
#     8   8   8   4   8   8   8   8
#     4  11  24  42  65  93 130 175 221 268 322 386
#     4  11  22  40  69  99 130 165 214 266 322 389
#     4  12  23  38  64  93 131 168 216 268 321 376
#     4  10  21  44  67  96 128 166 205 268 333 390
#     4  10  21  38  61  91 128 167 211 267 324 387
#     4  10  22  42  65  91 129 169 210 262 329 389
#     4  10  22  41  61  88 128 174 219 264 317 382
#     4  12  24  38  63  95 127 169 217 265 325 388
#
# _framework density 22.107064999999999
#
# number of rings (size 3 to 8) (size 9 to 14) (size 15 to 20)
#    0.000    1.200    4.000    1.800    1.867    2.667 
#    0.000    2.333    0.000    7.200    0.000    0.000 
#    0.000    0.000    0.000    0.000    0.000    0.000 
#
# Total GULP energy -167229.950685 kJ/mol
# GULP energy per Si atom -5574.331690 kJ/mol
# Density = 2.205675 g / cm^3
# Si number density = 22.107065 Si / 1000 Ang^3
#
#
#
# Elastic Constant Matrix: (Units=GPa)
#
#
# Indices 1 2 3 4 5 6 
#
# 1 137.8715 13.2217 24.0958 0.0000 -20.3937 0.0000
# 2 13.2217 76.2709 10.2692 0.0000 3.5650 0.0000
# 3 24.0958 10.2692 93.3159 0.0000 -10.2281 0.0000
# 4 0.0000 0.0000 0.0000 13.4228 0.0000 -3.3499
# 5 -20.3937 3.5650 -10.2281 0.0000 32.1000 0.0000
# 6 0.0000 0.0000 0.0000 -3.3499 0.0000 20.5461
#
#
#
# Elastic Compliance Matrix: (Units=1/GPa)
#
#
# Indices 1 2 3 4 5 6 
#
# 1 0.008395 -0.001495 -0.001451 0.000000 0.005037 0.000000
# 2 -0.001495 0.013702 -0.001443 0.000000 -0.002932 0.000000
# 3 -0.001451 -0.001443 0.011570 0.000000 0.002925 0.000000
# 4 0.000000 0.000000 0.000000 0.077660 0.000000 0.012662
# 5 0.005037 -0.002932 0.002925 0.000000 0.035611 0.000000
# 6 0.000000 0.000000 0.000000 0.012662 0.000000 0.050735
#
#
# Mechanical properties :
#
#
# Convention : Reuss Voigt Hill
#
# Bulk Modulus (GPa) = 40.17950 44.73683 42.45816
# Shear Modulus (GPa) = 23.28303 30.53856 26.91079
#
# Velocity S-wave (km/s) = 3.24882 3.72074 3.49276
# Velocity P-wave (km/s) = 5.68221 6.22406 5.95930
#
# Compressibility (1/GPa) = 0.02488832
#
# Stress axis : x y z
#
# Youngs Moduli (GPa) = 119.11472 72.98359 86.42745
#
# Poissons Ratio (x) = 0.10914 0.12542
# Poissons Ratio (y) = 0.17813 0.12472
# Poissons Ratio (z) = 0.17285 0.10532
#
# Static dielectric constant tensor:
#      x y z
#    x 1.873280 0.000000 0.045100 
#    y 0.000000 1.803660 0.000000 
#    z 0.045100 0.000000 1.910940 
# 
# From -- ./inp_files/214881.got.cif
#   From: 2010.05.17/outbox.cif.g08.bks.cpg/sg12_108_cif.got.tgz:214881.got - 2010.06.03 13:09:07.
