data_PCOD9209523
_publ_section_title
;
Structure prediction by ZEFSAII (Michael W. Deem and Ramdas Pophale) SiO2 
 PCOD9209523
Probable space group: C 2/M
;
_chemical_formula_sum "Si O2"
_cell_formula_units_Z 64
_cell_length_a 15.226113
_cell_length_b 8.738891
_cell_length_c 34.221594
_cell_angle_alpha 90.000000
_cell_angle_beta 43.997947
_cell_angle_gamma 90.000000
_cell_volume 3163.011449
_symmetry_space_group_name_H-M "C 2/M"
_symmetry_group_IT_number 12
_symmetry_cell_setting 'monoclinic'
loop_
_space_group_symop_operation_xyz
x,y,z
-x,y,-z
-x,-y,-z
x,-y,z
1/2+x,1/2+y,z
1/2-x,1/2+y,-z
1/2-x,1/2-y,-z
1/2+x,1/2-y,z
loop_
_atom_site_type_symbol
_atom_site_label
_atom_site_fract_x
_atom_site_fract_y
_atom_site_fract_z
Si Si1 0.607983 0.182539 0.587077
Si Si2 0.035589 0.819631 0.293721
Si Si3 0.577582 0.176647 0.887186
Si Si4 0.825391 0.316712 0.012292
Si Si5 0.407255 0.683868 0.493619
Si Si6 0.693897 0.677426 0.780478
Si Si7 0.226658 0.675719 0.123471
Si Si8 0.056532 0.324102 0.756424
O O1 0.526939 0.265634 0.645958
O O2 0.568905 0.239048 0.556225
O O3 0.757153 0.215057 0.547885
O O4 0.590610 0.000000 0.594962
O O5 0.182523 0.773774 0.248440
O O6 0.969917 0.733100 0.278641
O O7 0.022476 0.000000 0.292521
O O8 0.583116 0.277402 0.846483
O O9 0.708052 0.210583 0.867090
O O10 0.562108 0.000000 0.880778
O O11 0.470560 0.211978 0.953536
O O12 0.809278 0.500000 0.022237
O O13 0.774374 0.228896 0.066159
O O14 0.750000 0.250000 0.000000
O O15 0.500000 0.730981 0.500000
O O16 0.421458 0.500000 0.484977
O O17 0.723845 0.500000 0.775052
O O18 0.650716 0.719841 0.750920
O O19 0.267090 0.500000 0.118254
O O20 0.077515 0.681336 0.177978
O O21 0.100430 0.500000 0.742277
#
# Coordination Sequence:
#
# PCOD9209523 Si02
#       8
#     8   8   8   8   8   8   8   8
#     4  10  21  38  62  93 131 170 213 266 314 368
#     4  12  25  43  66  92 128 172 217 267 319 374
#     4  11  23  40  61  86 118 156 201 253 316 380
#     4  11  24  39  57  84 117 153 197 252 310 380
#     4   9  19  38  64  94 130 173 215 257 312 370
#     4  12  25  42  65  93 123 162 211 263 322 385
#     4  11  23  39  62  88 117 155 200 252 313 382
#     4  11  24  43  65  92 125 163 210 262 319 384
#
# _framework density 20.233882000000001
#
# number of rings (size 3 to 8) (size 9 to 14) (size 15 to 20)
#    0.000    1.125    1.250    5.250    0.000    9.750 
#    0.000    3.750    0.000    0.000    0.000    0.000 
#    0.000    0.000    0.000    0.000    0.000    0.000 
#
# Total GULP energy -178874.956747 kJ/mol
# GULP energy per Si atom -5589.842398 kJ/mol
# Density = 2.018783 g / cm^3
# Si number density = 20.233882 Si / 1000 Ang^3
#
#
#
# Elastic Constant Matrix: (Units=GPa)
#
#
# Indices 1 2 3 4 5 6 
#
# 1 75.1338 -0.5981 13.1506 -0.0004 24.1404 -0.0003
# 2 -0.5981 51.6426 34.2011 -0.0008 -0.8875 0.0000
# 3 13.1506 34.2011 91.9084 -0.0004 15.1243 -0.0008
# 4 -0.0004 -0.0008 -0.0004 32.8939 -0.0002 4.6722
# 5 24.1404 -0.8875 15.1243 -0.0002 19.3945 -0.0003
# 6 -0.0003 0.0000 -0.0008 4.6722 -0.0003 31.7258
#
#
#
# Elastic Compliance Matrix: (Units=1/GPa)
#
#
# Indices 1 2 3 4 5 6 
#
# 1 0.022502 -0.001841 0.002396 0.000000 -0.029961 0.000000
# 2 -0.001841 0.027620 -0.012160 0.000001 0.013038 0.000000
# 3 0.002396 -0.012160 0.017948 0.000000 -0.017535 0.000000
# 4 0.000000 0.000001 0.000000 0.031050 0.000000 -0.004573
# 5 -0.029961 0.013038 -0.017535 0.000000 0.103123 0.000000
# 6 0.000000 0.000000 0.000000 -0.004573 0.000000 0.032193
#
#
# Mechanical properties :
#
#
# Convention : Reuss Voigt Hill
#
# Bulk Modulus (GPa) = 22.29187 34.68799 28.48993
# Shear Modulus (GPa) = 18.34190 28.26494 23.30342
#
# Velocity S-wave (km/s) = 3.01407 3.74158 3.39736
# Velocity P-wave (km/s) = 4.81184 5.98721 5.43141
#
# Compressibility (1/GPa) = 0.04485940
#
# Stress axis : x y z
#
# Youngs Moduli (GPa) = 44.44068 36.20608 55.71637
#
# Poissons Ratio (x) = 0.06665 -0.13347
# Poissons Ratio (y) = 0.08180 0.67751
# Poissons Ratio (z) = -0.10646 0.44026
#
# Static dielectric constant tensor:
#      x y z
#    x 1.701130 0.000000 -0.046300 
#    y 0.000000 1.669420 0.000000 
#    z -0.046300 0.000000 1.746030 
# 
# From -- ./inp_files/375470.got.cif
#   From: 2010.05.17/outbox.cif.g08.bks.cpg/sg12_188_cif.got.tgz:375470.got - 2010.06.03 13:09:07.
