data_PCOD9209428
_publ_section_title
;
Structure prediction by ZEFSAII (Michael W. Deem and Ramdas Pophale) SiO2 
 PCOD9209428
Probable space group: C 2/M
;
_chemical_formula_sum "Si O2"
_cell_formula_units_Z 48
_cell_length_a 30.244267
_cell_length_b 8.676781
_cell_length_c 20.894096
_cell_angle_alpha 90.000000
_cell_angle_beta 28.334489
_cell_angle_gamma 90.000000
_cell_volume 2602.373352
_symmetry_space_group_name_H-M "C 2/M"
_symmetry_group_IT_number 12
_symmetry_cell_setting 'monoclinic'
loop_
_space_group_symop_operation_xyz
x,y,z
-x,y,-z
-x,-y,-z
x,-y,z
1/2+x,1/2+y,z
1/2-x,1/2+y,-z
1/2-x,1/2-y,-z
1/2+x,1/2-y,z
loop_
_atom_site_type_symbol
_atom_site_label
_atom_site_fract_x
_atom_site_fract_y
_atom_site_fract_z
Si Si1 0.990524 0.184900 0.087201
Si Si2 0.791544 0.685412 0.381495
Si Si3 0.818725 0.814524 0.605231
Si Si4 0.715542 0.185326 0.111188
Si Si5 0.181845 0.314678 0.895836
Si Si6 0.007956 0.314304 0.415866
O O1 0.895037 0.252596 0.236427
O O2 0.989008 0.000000 0.093726
O O3 0.000000 0.227420 0.000000
O O4 0.080006 0.250468 0.009802
O O5 0.793553 0.500000 0.380971
O O6 0.750000 0.750000 0.500000
O O7 0.727355 0.733613 0.402978
O O8 0.751267 0.766673 0.749665
O O9 0.921036 0.749515 0.487244
O O10 0.823115 0.000000 0.600228
O O11 0.777530 0.250063 0.090046
O O12 0.608303 0.231806 0.260782
O O13 0.720126 0.000000 0.105539
O O14 0.750000 0.250000 0.000000
O O15 0.179151 0.500000 0.901223
O O16 0.003157 0.500000 0.421540
O O17 0.000000 0.262704 0.500000
#
# Coordination Sequence:
#
# PCOD9209428 Si02
#       6
#     8   8   8   8   8   8
#     4  11  23  39  64  95 124 162 210 258 311 374
#     4  11  24  43  63  91 129 166 206 258 315 372
#     4  10  22  38  62  92 122 158 203 252 305 365
#     4  11  24  42  62  90 127 164 203 255 310 368
#     4  11  22  39  64  93 123 161 206 255 312 370
#     4  10  21  38  62  90 120 156 201 250 302 358
#
# _framework density 18.444700999999998
#
# number of rings (size 3 to 8) (size 9 to 14) (size 15 to 20)
#    0.000    1.333    3.333    2.000    0.000    5.667 
#    0.000    3.333    0.000    0.000    0.000    0.000 
#    0.000    0.000    0.000    0.000    0.000    0.000 
#
# Total GULP energy -134185.009587 kJ/mol
# GULP energy per Si atom -5591.042066 kJ/mol
# Density = 1.840272 g / cm^3
# Si number density = 18.444701 Si / 1000 Ang^3
#
#
#
# Elastic Constant Matrix: (Units=GPa)
#
#
# Indices 1 2 3 4 5 6 
#
# 1 202.6551 55.9156 130.5498 -0.0011 -7.8862 0.0003
# 2 55.9156 50.6918 57.6666 -0.0101 -0.0041 -0.0004
# 3 130.5498 57.6666 198.7987 -0.0080 -7.9367 -0.0012
# 4 -0.0011 -0.0101 -0.0080 40.2006 -0.0004 -1.5498
# 5 -7.8862 -0.0041 -7.9367 -0.0004 45.0834 -0.0006
# 6 0.0003 -0.0004 -0.0012 -1.5498 -0.0006 36.0121
#
#
#
# Elastic Compliance Matrix: (Units=1/GPa)
#
#
# Indices 1 2 3 4 5 6 
#
# 1 0.009346 -0.005021 -0.004648 -0.000002 0.000816 0.000000
# 2 -0.005021 0.032243 -0.006134 0.000007 -0.001955 0.000000
# 3 -0.004648 -0.006134 0.009899 0.000000 0.000929 0.000000
# 4 -0.000002 0.000007 0.000000 0.024917 0.000000 0.001072
# 5 0.000816 -0.001955 0.000929 0.000000 0.022487 0.000000
# 6 0.000000 0.000000 0.000000 0.001072 0.000000 0.027815
#
#
# Mechanical properties :
#
#
# Convention : Reuss Voigt Hill
#
# Bulk Modulus (GPa) = 50.29712 104.48994 77.39353
# Shear Modulus (GPa) = 30.31394 38.12679 34.22036
#
# Velocity S-wave (km/s) = 4.05841 4.55145 4.31199
# Velocity P-wave (km/s) = 7.02063 9.18664 8.17569
#
# Compressibility (1/GPa) = 0.01988185
#
# Stress axis : x y z
#
# Youngs Moduli (GPa) = 106.99523 31.01445 101.01884
#
# Poissons Ratio (x) = 0.15573 0.46959
# Poissons Ratio (y) = 0.53724 0.61961
# Poissons Ratio (z) = 0.49737 0.19023
#
# Static dielectric constant tensor:
#      x y z
#    x 1.607860 0.000000 0.004820 
#    y 0.000000 1.623450 0.000000 
#    z 0.004820 0.000000 1.605100 
# 
# From -- ./inp_files/327186.got.cif
#   From: 2010.05.17/outbox.cif.g08.bks.cpg/sg12_164_cif.got.tgz:327186.got - 2010.06.03 13:09:07.
