data_PCOD9209972
_publ_section_title
;
Structure prediction by ZEFSAII (Michael W. Deem and Ramdas Pophale) SiO2 
 PCOD9209972
Probable space group: C 2/M
;
_chemical_formula_sum "Si O2"
_cell_formula_units_Z 64
_cell_length_a 22.535714
_cell_length_b 9.445684
_cell_length_c 24.545824
_cell_angle_alpha 90.000000
_cell_angle_beta 45.426279
_cell_angle_gamma 90.000000
_cell_volume 3721.984588
_symmetry_space_group_name_H-M "C 2/M"
_symmetry_group_IT_number 12
_symmetry_cell_setting 'monoclinic'
loop_
_space_group_symop_operation_xyz
x,y,z
-x,y,-z
-x,-y,-z
x,-y,z
1/2+x,1/2+y,z
1/2-x,1/2+y,-z
1/2-x,1/2-y,-z
1/2+x,1/2-y,z
loop_
_atom_site_type_symbol
_atom_site_label
_atom_site_fract_x
_atom_site_fract_y
_atom_site_fract_z
Si Si1 0.000536 0.664754 0.347851
Si Si2 0.835520 0.830372 0.959483
Si Si3 0.386676 0.665083 0.223693
Si Si4 0.692904 0.166715 0.494594
Si Si5 0.474707 0.328443 0.955420
Si Si6 0.269168 0.662688 0.639392
Si Si7 0.057100 0.837768 0.413089
Si Si8 0.026936 0.837380 0.222750
O O1 0.021413 0.500000 0.333961
O O2 0.902189 0.679255 0.424052
O O3 0.045966 0.744112 0.367511
O O4 0.023497 0.734771 0.275868
O O5 0.888953 0.783952 0.979210
O O6 0.898936 0.810181 0.867920
O O7 0.820283 0.000000 0.974331
O O8 0.750000 0.750000 0.000000
O O9 0.361755 0.500000 0.232861
O O10 0.448729 0.703900 0.134487
O O11 0.308964 0.767030 0.280496
O O12 0.442229 0.674107 0.242495
O O13 0.750000 0.250000 0.500000
O O14 0.706704 0.242152 0.427950
O O15 0.714014 0.000000 0.477821
O O16 0.468755 0.500000 0.961553
O O17 0.500000 0.278901 0.000000
O O18 0.251580 0.500000 0.633992
O O19 0.348739 0.661240 0.627233
O O20 0.000000 0.785427 0.500000
O O21 0.030044 0.000000 0.419109
O O22 0.034695 0.000000 0.236676
#
# Coordination Sequence:
#
# PCOD9209972 Si02
#       8
#     8   8   8   8   8   8   8   8
#     4  11  23  36  54  80 105 133 178 232 272 306
#     4   9  18  34  57  84 113 147 184 223 272 327
#     4   9  18  34  57  82 108 143 181 221 270 318
#     4  11  23  36  53  79 108 137 174 222 269 316
#     4   8  15  32  58  84 111 145 185 224 269 331
#     4  11  22  36  55  78 105 140 181 221 266 321
#     4  10  21  39  58  73 100 147 185 212 265 334
#     4   9  19  36  56  77 108 149 182 213 264 331
#
# _framework density 17.195128
#
# number of rings (size 3 to 8) (size 9 to 14) (size 15 to 20)
#    0.000    2.250    1.250    3.375    0.000    5.750 
#    2.250    1.875    0.000    0.750    0.000    0.000 
#    0.000    0.000    0.000    0.000    0.000    0.000 
#
# Total GULP energy -178462.936063 kJ/mol
# GULP energy per Si atom -5576.966752 kJ/mol
# Density = 1.715599 g / cm^3
# Si number density = 17.195128 Si / 1000 Ang^3
#
#
#
# Elastic Constant Matrix: (Units=GPa)
#
#
# Indices 1 2 3 4 5 6 
#
# 1 105.8417 62.6944 53.8666 -0.0001 10.5685 0.0001
# 2 62.6944 91.7191 50.3820 -0.0002 6.8790 0.0004
# 3 53.8666 50.3820 67.6113 0.0000 7.2095 0.0001
# 4 -0.0001 -0.0002 0.0000 25.8333 0.0000 -5.9933
# 5 10.5685 6.8790 7.2095 0.0000 36.6549 0.0000
# 6 0.0001 0.0004 0.0001 -5.9933 0.0000 27.1572
#
#
#
# Elastic Compliance Matrix: (Units=1/GPa)
#
#
# Indices 1 2 3 4 5 6 
#
# 1 0.018852 -0.007787 -0.008982 0.000000 -0.002208 0.000000
# 2 -0.007787 0.021697 -0.009978 0.000000 0.000136 0.000000
# 3 -0.008982 -0.009978 0.029525 0.000000 -0.001345 0.000000
# 4 0.000000 0.000000 0.000000 0.040799 0.000000 0.009004
# 5 -0.002208 0.000136 -0.001345 0.000000 0.028157 0.000000
# 6 0.000000 0.000000 0.000000 0.009004 0.000000 0.038810
#
#
# Mechanical properties :
#
#
# Convention : Reuss Voigt Hill
#
# Bulk Modulus (GPa) = 60.31323 66.56201 63.43762
# Shear Modulus (GPa) = 21.10958 24.47768 22.79363
#
# Velocity S-wave (km/s) = 3.50758 3.77705 3.64481
# Velocity P-wave (km/s) = 7.18026 7.60364 7.39498
#
# Compressibility (1/GPa) = 0.01658011
#
# Stress axis : x y z
#
# Youngs Moduli (GPa) = 53.04412 46.09027 33.86971
#
# Poissons Ratio (x) = 0.35891 0.30420
# Poissons Ratio (y) = 0.41306 0.33795
# Poissons Ratio (z) = 0.47642 0.45989
#
# Static dielectric constant tensor:
#      x y z
#    x 1.577970 0.000000 0.000790 
#    y 0.000000 1.579560 0.000000 
#    z 0.000790 0.000000 1.548320 
# 
# From -- ./inp_files/346097.got.cif
#   From: 2010.05.17/outbox.cif.g08.bks.cpg/sg12_174_cif.got.tgz:346097.got - 2010.06.03 13:09:07.
