data_PCOD9209272
_publ_section_title
;
Structure prediction by ZEFSAII (Michael W. Deem and Ramdas Pophale) SiO2 
 PCOD9209272
Probable space group: C 2/M
;
_chemical_formula_sum "Si O2"
_cell_formula_units_Z 56
_cell_length_a 19.558813
_cell_length_b 8.016343
_cell_length_c 27.207423
_cell_angle_alpha 90.000000
_cell_angle_beta 40.969690
_cell_angle_gamma 90.000000
_cell_volume 2796.949839
_symmetry_space_group_name_H-M "C 2/M"
_symmetry_group_IT_number 12
_symmetry_cell_setting 'monoclinic'
loop_
_space_group_symop_operation_xyz
x,y,z
-x,y,-z
-x,-y,-z
x,-y,z
1/2+x,1/2+y,z
1/2-x,1/2+y,-z
1/2-x,1/2-y,-z
1/2+x,1/2-y,z
loop_
_atom_site_type_symbol
_atom_site_label
_atom_site_fract_x
_atom_site_fract_y
_atom_site_fract_z
Si Si1 0.086802 0.798906 0.490329
Si Si2 0.061722 0.000000 0.892092
Si Si3 0.227783 0.805030 0.676941
Si Si4 0.706165 0.310745 0.150571
Si Si5 0.196743 0.312528 0.795418
Si Si6 0.629732 0.299393 0.573601
Si Si7 0.972993 0.695124 0.269259
Si Si8 0.659588 0.500000 0.948806
O O1 0.197602 0.746147 0.408204
O O2 0.073149 0.745705 0.553905
O O3 0.000000 0.734712 0.500000
O O4 0.083851 0.000000 0.492003
O O5 0.110305 0.167288 0.842750
O O6 0.105760 0.000000 0.924034
O O7 0.937009 0.000000 0.961393
O O8 0.255664 0.708110 0.711738
O O9 0.110385 0.763404 0.724413
O O10 0.239506 0.000000 0.679556
O O11 0.737533 0.500000 0.120463
O O12 0.731849 0.289206 0.195010
O O13 0.583818 0.285914 0.208400
O O14 0.770607 0.166665 0.087888
O O15 0.152964 0.500000 0.822087
O O16 0.623585 0.500000 0.582307
O O17 0.750000 0.250000 0.500000
O O18 0.579365 0.219936 0.648891
O O19 0.990019 0.500000 0.251154
#
# Coordination Sequence:
#
# PCOD9209272 Si02
#       8
#     8   4   8   8   8   8   8   4
#     4  10  23  41  58  81 115 156 200 250 308 358
#     4   9  18  36  62  94 126 161 197 240 300 351
#     4  12  24  39  60  86 118 157 208 253 298 367
#     4  10  21  38  61  93 125 159 200 247 302 353
#     4  10  21  38  61  91 126 160 201 248 297 359
#     4  11  22  38  58  82 114 151 199 251 300 356
#     4  12  24  39  60  85 118 161 203 252 306 357
#     4   9  18  36  62  94 129 156 197 247 291 361
#
# _framework density 20.021809999999999
#
# number of rings (size 3 to 8) (size 9 to 14) (size 15 to 20)
#    0.000    1.429    2.857    3.000    2.000    1.429 
#    0.000    2.857    0.000    0.857    0.000    0.000 
#    0.000    0.000    0.000    0.000    0.000    0.000 
#
# Total GULP energy -156431.047618 kJ/mol
# GULP energy per Si atom -5586.823129 kJ/mol
# Density = 1.997624 g / cm^3
# Si number density = 20.021810 Si / 1000 Ang^3
#
#
#
# Elastic Constant Matrix: (Units=GPa)
#
#
# Indices 1 2 3 4 5 6 
#
# 1 62.3612 8.6709 -5.8119 -0.0001 -12.9374 -0.0007
# 2 8.6709 70.1498 -4.7377 -0.0001 -3.3725 -0.0005
# 3 -5.8119 -4.7377 25.3633 0.0000 -13.7219 0.0001
# 4 -0.0001 -0.0001 0.0000 12.4883 0.0000 -0.1498
# 5 -12.9374 -3.3725 -13.7219 0.0000 26.5485 -0.0001
# 6 -0.0007 -0.0005 0.0001 -0.1498 -0.0001 22.3089
#
#
#
# Elastic Compliance Matrix: (Units=1/GPa)
#
#
# Indices 1 2 3 4 5 6 
#
# 1 0.021094 -0.000812 0.014142 0.000000 0.017486 0.000001
# 2 -0.000812 0.014863 0.004717 0.000000 0.003931 0.000000
# 3 0.014142 0.004717 0.066079 0.000000 0.041645 0.000000
# 4 0.000000 0.000000 0.000000 0.080082 0.000000 0.000538
# 5 0.017486 0.003931 0.041645 0.000000 0.068212 0.000001
# 6 0.000001 0.000000 0.000000 0.000538 0.000001 0.044829
#
#
# Mechanical properties :
#
#
# Convention : Reuss Voigt Hill
#
# Bulk Modulus (GPa) = 7.23950 17.12408 12.18179
# Shear Modulus (GPa) = 16.38768 22.91934 19.65351
#
# Velocity S-wave (km/s) = 2.86403 3.38704 3.13646
# Velocity P-wave (km/s) = 3.81583 4.88542 4.38337
#
# Compressibility (1/GPa) = 0.13813109
#
# Stress axis : x y z
#
# Youngs Moduli (GPa) = 47.40677 67.28092 15.13336
#
# Poissons Ratio (x) = 0.05460 -0.21402
# Poissons Ratio (y) = 0.03847 -0.07138
# Poissons Ratio (z) = -0.67043 -0.31736
#
# Static dielectric constant tensor:
#      x y z
#    x 1.713310 0.000000 0.001010 
#    y 0.000000 1.705220 0.000000 
#    z 0.001010 0.000000 1.682950 
# 
# From -- ./inp_files/363059.got.cif
#   From: 2010.05.17/outbox.cif.g08.bks.cpg/sg12_182_cif.got.tgz:363059.got - 2010.06.03 13:09:07.
