data_PCOD9209770
_publ_section_title
;
Structure prediction by ZEFSAII (Michael W. Deem and Ramdas Pophale) SiO2 
 PCOD9209770
Probable space group: C 2/M
;
_chemical_formula_sum "Si O2"
_cell_formula_units_Z 40
_cell_length_a 7.940841
_cell_length_b 27.359065
_cell_length_c 8.658492
_cell_angle_alpha 90.000000
_cell_angle_beta 125.267744
_cell_angle_gamma 90.000000
_cell_volume 1535.841514
_symmetry_space_group_name_H-M "C 2/M"
_symmetry_group_IT_number 12
_symmetry_cell_setting 'monoclinic'
loop_
_space_group_symop_operation_xyz
x,y,z
-x,y,-z
-x,-y,-z
x,-y,z
1/2+x,1/2+y,z
1/2-x,1/2+y,-z
1/2-x,1/2-y,-z
1/2+x,1/2-y,z
loop_
_atom_site_type_symbol
_atom_site_label
_atom_site_fract_x
_atom_site_fract_y
_atom_site_fract_z
Si Si1 0.028421 0.295598 0.194826
Si Si2 0.238097 0.301958 0.688615
Si Si3 0.295249 0.587869 0.721050
Si Si4 0.757255 0.555896 0.969741
Si Si5 0.249555 0.897548 0.633363
O O1 0.134779 0.244542 0.295349
O O2 0.165247 0.342231 0.316550
O O3 0.804540 0.297258 0.152378
O O4 0.000000 0.298940 0.000000
O O5 0.340713 0.354297 0.722502
O O6 0.000000 0.302231 0.500000
O O7 0.507253 0.558511 0.834581
O O8 0.190508 0.577101 0.499260
O O9 0.197293 0.582304 0.840922
O O10 0.822485 0.500000 0.018518
O O11 0.813896 0.577286 0.829771
O O12 0.000000 0.897239 0.500000
#
# Coordination Sequence:
#
# PCOD9209770 Si02
#       5
#     8   8   8   8   8
#     4  12  26  41  64  98 138 181 228 272 328 403
#     4  12  25  41  65  95 137 183 222 270 336 398
#     4  10  21  38  64  94 133 170 217 271 338 389
#     4  10  22  40  70 101 128 168 230 288 332 396
#     4  10  22  40  66  97 134 174 223 276 336 394
#
# _framework density 26.044353999999998
#
# number of rings (size 3 to 8) (size 9 to 14) (size 15 to 20)
#    0.000    1.200    2.000    4.200    8.400    4.400 
#    0.000    0.000    0.000    9.000    0.000    0.000 
#    0.000    0.000    0.000    0.000    0.000    0.000 
#
# Total GULP energy -111892.980593 kJ/mol
# GULP energy per Si atom -5594.649030 kJ/mol
# Density = 2.598508 g / cm^3
# Si number density = 26.044354 Si / 1000 Ang^3
#
#
#
# Elastic Constant Matrix: (Units=GPa)
#
#
# Indices 1 2 3 4 5 6 
#
# 1 71.6864 18.5114 47.2343 0.0000 -36.0439 0.0000
# 2 18.5114 151.2703 47.1347 0.0000 -7.3081 0.0000
# 3 47.2343 47.1347 208.8061 0.0000 -31.8190 0.0000
# 4 0.0000 0.0000 0.0000 5.4029 0.0000 11.0624
# 5 -36.0439 -7.3081 -31.8190 0.0000 72.1427 0.0000
# 6 0.0000 0.0000 0.0000 11.0624 0.0000 32.6286
#
#
#
# Elastic Compliance Matrix: (Units=1/GPa)
#
#
# Indices 1 2 3 4 5 6 
#
# 1 0.020745 -0.001150 -0.003078 0.000000 0.008890 0.000000
# 2 -0.001150 0.007175 -0.001433 0.000000 -0.000480 0.000000
# 3 -0.003078 -0.001433 0.005952 0.000000 0.000942 0.000000
# 4 0.000000 0.000000 0.000000 0.605217 0.000000 -0.205193
# 5 0.008890 -0.000480 0.000942 0.000000 0.018670 0.000000
# 6 0.000000 0.000000 0.000000 -0.205193 0.000000 0.100217
#
#
# Mechanical properties :
#
#
# Convention : Reuss Voigt Hill
#
# Bulk Modulus (GPa) = 44.34508 73.05816 58.70162
# Shear Modulus (GPa) = 6.43654 43.29368 24.86511
#
# Velocity S-wave (km/s) = 1.57377 4.08156 3.09321
# Velocity P-wave (km/s) = 4.51287 7.09398 5.94519
#
# Compressibility (1/GPa) = 0.02255042
#
# Stress axis : x y z
#
# Youngs Moduli (GPa) = 48.20425 139.38082 167.99797
#
# Poissons Ratio (x) = 0.16028 0.51717
# Poissons Ratio (y) = 0.05543 0.24066
# Poissons Ratio (z) = 0.14839 0.19966
#
# Static dielectric constant tensor:
#      x y z
#    x 2.099740 0.000000 -0.088210 
#    y 0.000000 1.961670 0.000000 
#    z -0.088210 0.000000 2.203840 
# 
# From -- ./inp_files/50957.got.cif
#   From: 2010.05.17/outbox.cif.g08.bks.cpg/sg12_26_cif.got.tgz:50957.got - 2010.06.03 13:09:07.
