data_PCOD9209472
_publ_section_title
;
Structure prediction by ZEFSAII (Michael W. Deem and Ramdas Pophale) SiO2 
 PCOD9209472
Probable space group: C 2/M
;
_chemical_formula_sum "Si O2"
_cell_formula_units_Z 56
_cell_length_a 23.368710
_cell_length_b 8.722824
_cell_length_c 15.086251
_cell_angle_alpha 90.000000
_cell_angle_beta 65.283572
_cell_angle_gamma 90.000000
_cell_volume 2793.474578
_symmetry_space_group_name_H-M "C 2/M"
_symmetry_group_IT_number 12
_symmetry_cell_setting 'monoclinic'
loop_
_space_group_symop_operation_xyz
x,y,z
-x,y,-z
-x,-y,-z
x,-y,z
1/2+x,1/2+y,z
1/2-x,1/2+y,-z
1/2-x,1/2-y,-z
1/2+x,1/2-y,z
loop_
_atom_site_type_symbol
_atom_site_label
_atom_site_fract_x
_atom_site_fract_y
_atom_site_fract_z
Si Si1 0.150306 0.816768 0.548625
Si Si2 0.818920 0.682331 0.970016
Si Si3 0.531700 0.180414 0.882578
Si Si4 0.734947 0.817938 0.651210
Si Si5 0.660774 0.680843 0.851513
Si Si6 0.486445 0.182566 0.405674
Si Si7 0.063502 0.182683 0.200566
O O1 0.196176 0.787941 0.434698
O O2 0.185483 0.739819 0.609048
O O3 0.081408 0.749570 0.577731
O O4 0.147265 0.000000 0.564828
O O5 0.818925 0.500000 0.961712
O O6 0.839547 0.730270 0.055531
O O7 0.750000 0.750000 0.000000
O O8 0.868229 0.754260 0.869570
O O9 0.597161 0.270782 0.841972
O O10 0.484958 0.247653 0.839933
O O11 0.542843 0.000000 0.858881
O O12 0.500000 0.195845 0.000000
O O13 0.718692 0.732384 0.752467
O O14 0.727759 0.000000 0.668425
O O15 0.661964 0.500000 0.867052
O O16 0.500000 0.211594 0.500000
O O17 0.539239 0.260758 0.310950
O O18 0.486658 0.000000 0.390205
O O19 0.062779 0.000000 0.195550
#
# Coordination Sequence:
#
# PCOD9209472 Si02
#       7
#     8   8   8   8   8   8   8
#     4  10  21  39  63  92 124 161 207 262 318 373
#     4  12  26  46  67  91 125 166 211 256 309 374
#     4  11  22  38  64  94 128 169 209 259 314 375
#     4  10  21  38  62  91 127 166 205 255 316 379
#     4  12  24  39  62  94 129 166 210 259 313 375
#     4  11  25  44  66  91 124 168 215 263 315 376
#     4  12  25  43  68  97 130 167 209 264 321 378
#
# _framework density 20.046719
#
# number of rings (size 3 to 8) (size 9 to 14) (size 15 to 20)
#    0.000    0.857    1.429    6.429    0.000    4.571 
#    0.000    2.857    0.000    0.000    0.000    0.000 
#    0.000    0.000    0.000    0.000    0.000    0.000 
#
# Total GULP energy -156773.037282 kJ/mol
# GULP energy per Si atom -5599.037046 kJ/mol
# Density = 2.000109 g / cm^3
# Si number density = 20.046719 Si / 1000 Ang^3
#
#
#
# Elastic Constant Matrix: (Units=GPa)
#
#
# Indices 1 2 3 4 5 6 
#
# 1 65.8323 4.7662 21.4524 0.0000 -16.7169 0.0000
# 2 4.7662 80.2688 35.7073 0.0000 5.3012 0.0000
# 3 21.4524 35.7073 107.8710 0.0000 -14.1660 0.0000
# 4 0.0000 0.0000 0.0000 34.0834 0.0000 -3.4843
# 5 -16.7169 5.3012 -14.1660 0.0000 21.1576 0.0000
# 6 0.0000 0.0000 0.0000 -3.4843 0.0000 32.4092
#
#
#
# Elastic Compliance Matrix: (Units=1/GPa)
#
#
# Indices 1 2 3 4 5 6 
#
# 1 0.019539 -0.001501 -0.001439 0.000000 0.014851 0.000000
# 2 -0.001501 0.015919 -0.006195 0.000000 -0.009323 0.000000
# 3 -0.001439 -0.006195 0.012786 0.000000 0.008976 0.000000
# 4 0.000000 0.000000 0.000000 0.029666 0.000000 0.003189
# 5 0.014851 -0.009323 0.008976 0.000000 0.067344 0.000000
# 6 0.000000 0.000000 0.000000 0.003189 0.000000 0.031198
#
#
# Mechanical properties :
#
#
# Convention : Reuss Voigt Hill
#
# Bulk Modulus (GPa) = 33.36235 41.98044 37.67139
# Shear Modulus (GPa) = 24.42447 30.33310 27.37878
#
# Velocity S-wave (km/s) = 3.49431 3.89411 3.69961
# Velocity P-wave (km/s) = 5.74097 6.41915 6.08951
#
# Compressibility (1/GPa) = 0.02997391
#
# Stress axis : x y z
#
# Youngs Moduli (GPa) = 51.18066 62.81853 78.21075
#
# Poissons Ratio (x) = 0.09429 0.11251
# Poissons Ratio (y) = 0.07682 0.48453
# Poissons Ratio (z) = 0.07363 0.38917
#
# Static dielectric constant tensor:
#      x y z
#    x 1.652190 0.000000 -0.007480 
#    y 0.000000 1.664130 0.000000 
#    z -0.007480 0.000000 1.714060 
# 
# From -- ./inp_files/238389.got.cif
#   From: 2010.05.17/outbox.cif.g08.bks.cpg/sg12_120_cif.got.tgz:238389.got - 2010.06.03 13:09:07.
