data_PCOD9209213
_publ_section_title
;
Structure prediction by ZEFSAII (Michael W. Deem and Ramdas Pophale) SiO2 
 PCOD9209213
Probable space group: C 2/M
;
_chemical_formula_sum "Si O2"
_cell_formula_units_Z 56
_cell_length_a 14.812906
_cell_length_b 8.857987
_cell_length_c 19.383026
_cell_angle_alpha 90.000000
_cell_angle_beta 79.435649
_cell_angle_gamma 90.000000
_cell_volume 2500.186005
_symmetry_space_group_name_H-M "C 2/M"
_symmetry_group_IT_number 12
_symmetry_cell_setting 'monoclinic'
loop_
_space_group_symop_operation_xyz
x,y,z
-x,y,-z
-x,-y,-z
x,-y,z
1/2+x,1/2+y,z
1/2-x,1/2+y,-z
1/2-x,1/2-y,-z
1/2+x,1/2-y,z
loop_
_atom_site_type_symbol
_atom_site_label
_atom_site_fract_x
_atom_site_fract_y
_atom_site_fract_z
Si Si1 0.189947 0.820238 0.730707
Si Si2 0.642554 0.174354 0.940787
Si Si3 0.023254 0.179644 0.850880
Si Si4 0.665966 0.825034 0.103168
Si Si5 0.869080 0.178616 0.666557
Si Si6 0.158010 0.320674 0.480277
Si Si7 0.428949 0.321440 0.382570
O O1 0.107001 0.767129 0.790582
O O2 0.289813 0.749197 0.724478
O O3 0.153972 0.790593 0.658111
O O4 0.197402 0.000000 0.738312
O O5 0.562142 0.275518 0.920507
O O6 0.740377 0.233375 0.898558
O O7 0.626427 0.000000 0.923973
O O8 0.648922 0.182321 0.022645
O O9 0.925775 0.256767 0.851294
O O10 0.012970 0.000000 0.845192
O O11 0.679579 0.000000 0.120314
O O12 0.859640 0.247070 0.591202
O O13 0.975249 0.206181 0.670157
O O14 0.854550 0.000000 0.665955
O O15 0.166538 0.500000 0.472104
O O16 0.250000 0.250000 0.500000
O O17 0.081391 0.276180 0.547430
O O18 0.426864 0.500000 0.401163
#
# Coordination Sequence:
#
# PCOD9209213 Si02
#       7
#     8   8   8   8   8   8   8
#     4  10  23  42  60  82 117 160 199 243 289 342
#     4  10  21  38  61  89 121 157 198 247 302 355
#     4  11  23  38  59  88 122 161 202 244 297 355
#     4  10  21  38  61  90 121 155 198 249 301 355
#     4  11  23  39  62  90 117 153 195 240 297 353
#     4  12  23  37  61  90 119 151 191 242 297 351
#     4  10  22  41  62  85 117 153 192 240 294 351
#
# _framework density 22.398333000000001
#
# number of rings (size 3 to 8) (size 9 to 14) (size 15 to 20)
#    0.000    1.429    1.429    3.857    0.000    8.571 
#    0.000    1.429    0.000    0.000    0.000    0.000 
#    0.000    0.000    0.000    0.000    0.000    0.000 
#
# Total GULP energy -156696.522532 kJ/mol
# GULP energy per Si atom -5596.304376 kJ/mol
# Density = 2.234735 g / cm^3
# Si number density = 22.398333 Si / 1000 Ang^3
#
#
#
# Elastic Constant Matrix: (Units=GPa)
#
#
# Indices 1 2 3 4 5 6 
#
# 1 87.5565 14.6335 15.8892 0.0000 -28.5275 0.0000
# 2 14.6335 44.1621 21.0810 0.0000 -21.2985 0.0000
# 3 15.8892 21.0810 83.2618 0.0000 -30.8768 0.0000
# 4 0.0000 0.0000 0.0000 28.7121 0.0000 -12.4758
# 5 -28.5275 -21.2985 -30.8768 0.0000 45.6580 0.0000
# 6 0.0000 0.0000 0.0000 -12.4758 0.0000 27.2395
#
#
#
# Elastic Compliance Matrix: (Units=1/GPa)
#
#
# Indices 1 2 3 4 5 6 
#
# 1 0.014396 -0.000726 0.000863 0.000000 0.009240 0.000000
# 2 -0.000726 0.029877 -0.003238 0.000000 0.011294 0.000000
# 3 0.000863 -0.003238 0.016424 0.000000 0.010136 0.000000
# 4 0.000000 0.000000 0.000000 0.043482 0.000000 0.019915
# 5 0.009240 0.011294 0.010136 0.000000 0.039798 0.000000
# 6 0.000000 0.000000 0.000000 0.019915 0.000000 0.045833
#
#
# Mechanical properties :
#
#
# Convention : Reuss Voigt Hill
#
# Bulk Modulus (GPa) = 18.35010 35.35421 26.85216
# Shear Modulus (GPa) = 23.34520 31.21369 27.27945
#
# Velocity S-wave (km/s) = 3.23193 3.73711 3.49366
# Velocity P-wave (km/s) = 4.70506 5.86855 5.31871
#
# Compressibility (1/GPa) = 0.05449561
#
# Stress axis : x y z
#
# Youngs Moduli (GPa) = 69.46141 33.47091 60.88573
#
# Poissons Ratio (x) = 0.02430 -0.05255
# Poissons Ratio (y) = 0.05044 0.19714
# Poissons Ratio (z) = -0.05995 0.10837
#
# Static dielectric constant tensor:
#      x y z
#    x 1.822510 0.000000 -0.011790 
#    y 0.000000 1.747030 0.000000 
#    z -0.011790 0.000000 1.892300 
# 
# From -- ./inp_files/338515.got.cif
#   From: 2010.05.17/outbox.cif.g08.bks.cpg/sg12_170_cif.got.tgz:338515.got - 2010.06.03 13:09:07.
