data_PCOD9209374
_publ_section_title
;
Structure prediction by ZEFSAII (Michael W. Deem and Ramdas Pophale) SiO2 
 PCOD9209374
Probable space group: C 2/M
;
_chemical_formula_sum "Si O2"
_cell_formula_units_Z 56
_cell_length_a 28.603732
_cell_length_b 9.562280
_cell_length_c 11.491034
_cell_angle_alpha 90.000000
_cell_angle_beta 52.860243
_cell_angle_gamma 90.000000
_cell_volume 2505.483719
_symmetry_space_group_name_H-M "C 2/M"
_symmetry_group_IT_number 12
_symmetry_cell_setting 'monoclinic'
loop_
_space_group_symop_operation_xyz
x,y,z
-x,y,-z
-x,-y,-z
x,-y,z
1/2+x,1/2+y,z
1/2-x,1/2+y,-z
1/2-x,1/2-y,-z
1/2+x,1/2-y,z
loop_
_atom_site_type_symbol
_atom_site_label
_atom_site_fract_x
_atom_site_fract_y
_atom_site_fract_z
Si Si1 0.220876 0.719688 0.165625
Si Si2 0.909379 0.656933 0.620567
Si Si3 0.020599 0.344008 0.836449
Si Si4 0.942599 0.165159 0.790193
Si Si5 0.160268 0.340793 0.655018
Si Si6 0.847468 0.844079 0.543386
Si Si7 0.834370 0.153562 0.128185
O O1 0.159119 0.643823 0.239161
O O2 0.198271 0.846716 0.280405
O O3 0.270730 0.647353 0.166066
O O4 0.250000 0.750000 0.000000
O O5 0.931849 0.500000 0.564600
O O6 0.940495 0.742975 0.675946
O O7 0.900875 0.753597 0.519092
O O8 0.000460 0.500000 0.828472
O O9 0.090491 0.344524 0.736339
O O10 0.992103 0.226322 0.799962
O O11 0.000000 0.323839 0.000000
O O12 0.948943 0.000000 0.755235
O O13 0.882122 0.183228 0.955296
O O14 0.183025 0.500000 0.615687
O O15 0.181805 0.241723 0.518014
O O16 0.166865 0.269091 0.769853
O O17 0.864479 0.000000 0.483392
O O18 0.849561 0.000000 0.155199
#
# Coordination Sequence:
#
# PCOD9209374 Si02
#       7
#     8   8   8   8   8   8   8
#     4  10  22  40  64  92 123 163 203 252 302 359
#     4  10  21  38  62  88 121 161 200 248 301 357
#     4  10  21  40  63  90 122 160 205 256 308 367
#     4  11  22  36  60  95 128 159 202 255 310 364
#     4  11  24  42  64  90 123 163 207 253 309 369
#     4  10  23  42  63  89 125 165 204 252 307 363
#     4  11  22  38  60  91 127 164 207 253 302 362
#
# _framework density 22.350974000000001
#
# number of rings (size 3 to 8) (size 9 to 14) (size 15 to 20)
#    0.857    0.714    2.857    2.143    0.000    4.286 
#    0.000    0.714    0.000    4.286    0.000    0.000 
#    0.000    0.000    0.000    0.000    0.000    0.000 
#
# Total GULP energy -156283.050570 kJ/mol
# GULP energy per Si atom -5581.537520 kJ/mol
# Density = 2.230010 g / cm^3
# Si number density = 22.350974 Si / 1000 Ang^3
#
#
#
# Elastic Constant Matrix: (Units=GPa)
#
#
# Indices 1 2 3 4 5 6 
#
# 1 74.5954 38.5671 2.8011 0.0000 14.5621 0.0000
# 2 38.5671 181.2838 36.1068 0.0000 37.8558 0.0000
# 3 2.8011 36.1068 83.2669 0.0000 13.4433 0.0000
# 4 0.0000 0.0000 0.0000 14.1284 0.0000 4.6913
# 5 14.5621 37.8558 13.4433 0.0000 42.6019 0.0000
# 6 0.0000 0.0000 0.0000 4.6913 0.0000 -6.4758
#
#
#
# Elastic Compliance Matrix: (Units=1/GPa)
#
#
# Indices 1 2 3 4 5 6 
#
# 1 0.015458 -0.002885 0.001233 0.000000 -0.003109 0.000000
# 2 -0.002885 0.007668 -0.002410 0.000000 -0.005067 0.000000
# 3 0.001233 -0.002410 0.013419 0.000000 -0.002514 0.000000
# 4 0.000000 0.000000 0.000000 0.057055 0.000000 0.041333
# 5 -0.003109 -0.005067 -0.002514 0.000000 0.029832 0.000000
# 6 0.000000 0.000000 0.000000 0.041333 0.000000 -0.124479
#
#
# Mechanical properties :
#
#
# Convention : Reuss Voigt Hill
#
# Bulk Modulus (GPa) = 35.18479 54.89956 45.04218
# Shear Modulus (GPa) = 302.09941 27.49565 164.79753
#
# Velocity S-wave (km/s) = 11.63852 3.51119 8.59603
# Velocity P-wave (km/s) = 14.01367 6.40732 10.89579
#
# Compressibility (1/GPa) = 0.02842137
#
# Stress axis : x y z
#
# Youngs Moduli (GPa) = 64.69201 130.41067 74.52076
#
# Poissons Ratio (x) = 0.37621 -0.09188
# Poissons Ratio (y) = 0.18663 0.17959
# Poissons Ratio (z) = -0.07976 0.31428
#
# Static dielectric constant tensor:
#      x y z
#    x 1.809920 0.000000 -0.035000 
#    y 0.000000 1.853450 0.000000 
#    z -0.035000 0.000000 1.846650 
# 
# From -- ./inp_files/187138.got.cif
#   From: 2010.05.17/outbox.cif.g08.bks.cpg/sg12_94_cif.got.tgz:187138.got - 2010.06.03 13:09:07.
