data_PCOD9209960
_publ_section_title
;
Structure prediction by ZEFSAII (Michael W. Deem and Ramdas Pophale) SiO2 
 PCOD9209960
Probable space group: C 2/M
;
_chemical_formula_sum "Si O2"
_cell_formula_units_Z 40
_cell_length_a 5.423323
_cell_length_b 23.268413
_cell_length_c 17.080760
_cell_angle_alpha 90.000000
_cell_angle_beta 61.673538
_cell_angle_gamma 90.000000
_cell_volume 1897.359189
_symmetry_space_group_name_H-M "C 2/M"
_symmetry_group_IT_number 12
_symmetry_cell_setting 'monoclinic'
loop_
_space_group_symop_operation_xyz
x,y,z
-x,y,-z
-x,-y,-z
x,-y,z
1/2+x,1/2+y,z
1/2-x,1/2+y,-z
1/2-x,1/2-y,-z
1/2+x,1/2-y,z
loop_
_atom_site_type_symbol
_atom_site_label
_atom_site_fract_x
_atom_site_fract_y
_atom_site_fract_z
Si Si1 0.445844 0.564186 0.739455
Si Si2 0.554261 0.868148 0.256122
Si Si3 0.908698 0.784903 0.094966
Si Si4 0.105237 0.274979 0.603532
Si Si5 0.208562 0.934636 0.529292
O O1 0.369239 0.500000 0.777572
O O2 0.709817 0.587901 0.748165
O O3 0.560370 0.560165 0.633667
O O4 0.175408 0.604076 0.767260
O O5 0.727043 0.821679 0.181580
O O6 0.404307 0.837618 0.353747
O O7 0.690815 0.736582 0.095604
O O8 0.000000 0.815630 0.000000
O O9 0.250000 0.250000 0.500000
O O10 0.280457 0.239139 0.640370
O O11 0.500000 0.903394 0.500000
O O12 0.000000 0.906891 0.500000
O O13 0.272177 0.000000 0.488415
#
# Coordination Sequence:
#
# PCOD9209960 Si02
#       5
#     8   8   8   8   8
#     4  11  24  40  58  87 121 166 218 259 298 354
#     4  12  22  39  64  89 122 166 204 253 317 371
#     4  10  21  39  67  99 128 155 195 255 320 386
#     4  10  21  39  56  83 119 152 194 245 301 373
#     4   9  17  33  51  69 101 144 195 258 297 323
#
# _framework density 21.081932999999999
#
# number of rings (size 3 to 8) (size 9 to 14) (size 15 to 20)
#    0.000    1.600    0.000    5.400    0.000    3.200 
#   21.600    0.000    0.000    3.600    0.000    0.000 
#    0.000    0.000    0.000    0.000    0.000    0.000 
#
# Total GULP energy -111417.038652 kJ/mol
# GULP energy per Si atom -5570.851933 kJ/mol
# Density = 2.103395 g / cm^3
# Si number density = 21.081933 Si / 1000 Ang^3
#
#
#
# Elastic Constant Matrix: (Units=GPa)
#
#
# Indices 1 2 3 4 5 6 
#
# 1 69.0754 -5.9965 -7.6203 0.0000 1.6607 0.0000
# 2 -5.9965 44.9512 18.1672 0.0000 1.9119 0.0000
# 3 -7.6203 18.1672 75.0296 0.0000 -4.9086 0.0000
# 4 0.0000 0.0000 0.0000 13.6478 0.0000 -10.1914
# 5 1.6607 1.9119 -4.9086 0.0000 19.1362 0.0000
# 6 0.0000 0.0000 0.0000 -10.1914 0.0000 5.2821
#
#
#
# Elastic Compliance Matrix: (Units=1/GPa)
#
#
# Indices 1 2 3 4 5 6 
#
# 1 0.014758 0.001601 0.001034 0.000000 -0.001175 0.000000
# 2 0.001601 0.025148 -0.006204 0.000000 -0.004243 0.000000
# 3 0.001034 -0.006204 0.015226 0.000000 0.004436 0.000000
# 4 0.000000 0.000000 0.000000 -0.166237 0.000000 -0.320740
# 5 -0.001175 -0.004243 0.004436 0.000000 0.053921 0.000000
# 6 0.000000 0.000000 0.000000 -0.320740 0.000000 -0.429519
#
#
# Mechanical properties :
#
#
# Convention : Reuss Voigt Hill
#
# Bulk Modulus (GPa) = 20.83613 22.01744 21.42679
# Shear Modulus (GPa) = -10.78590 19.91360 4.56385
#
# Velocity S-wave (km/s) = -2.26435 3.07674 1.47293
# Velocity P-wave (km/s) = 1.75171 4.80502 3.61640
#
# Compressibility (1/GPa) = 0.04799355
#
# Stress axis : x y z
#
# Youngs Moduli (GPa) = 67.75862 39.76495 65.67909
#
# Poissons Ratio (x) = -0.06365 -0.06794
# Poissons Ratio (y) = -0.10846 0.40748
# Poissons Ratio (z) = -0.07009 0.24671
#
# Static dielectric constant tensor:
#      x y z
#    x 1.824200 0.000000 0.014170 
#    y 0.000000 1.855950 0.000000 
#    z 0.014170 0.000000 1.720390 
# 
# From -- ./inp_files/253112.got.cif
#   From: 2010.05.17/outbox.cif.g08.bks.cpg/sg12_127_cif.got.tgz:253112.got - 2010.06.03 13:09:07.
