data_PCOD9209181
_publ_section_title
;
Structure prediction by ZEFSAII (Michael W. Deem and Ramdas Pophale) SiO2 
 PCOD9209181
Probable space group: C 2/M
;
_chemical_formula_sum "Si O2"
_cell_formula_units_Z 56
_cell_length_a 9.771250
_cell_length_b 18.493525
_cell_length_c 16.194776
_cell_angle_alpha 90.000000
_cell_angle_beta 70.040077
_cell_angle_gamma 90.000000
_cell_volume 2750.686092
_symmetry_space_group_name_H-M "C 2/M"
_symmetry_group_IT_number 12
_symmetry_cell_setting 'monoclinic'
loop_
_space_group_symop_operation_xyz
x,y,z
-x,y,-z
-x,-y,-z
x,-y,z
1/2+x,1/2+y,z
1/2-x,1/2+y,-z
1/2-x,1/2-y,-z
1/2+x,1/2-y,z
loop_
_atom_site_type_symbol
_atom_site_label
_atom_site_fract_x
_atom_site_fract_y
_atom_site_fract_z
Si Si1 0.849511 0.583122 0.253303
Si Si2 0.039678 0.275962 0.235469
Si Si3 0.172938 0.581841 0.458886
Si Si4 0.654030 0.647932 0.429028
Si Si5 0.750702 0.709081 0.664596
Si Si6 0.884184 0.199188 0.950002
Si Si7 0.661429 0.916663 0.941486
O O1 0.886458 0.500000 0.268427
O O2 0.707893 0.608536 0.334209
O O3 0.825678 0.586000 0.160156
O O4 0.974016 0.642981 0.244560
O O5 0.189367 0.277711 0.255365
O O6 0.051496 0.236568 0.145307
O O7 0.917285 0.230367 0.309104
O O8 0.229896 0.500000 0.445858
O O9 0.229677 0.623743 0.527075
O O10 0.220104 0.628639 0.370799
O O11 0.000000 0.579334 0.500000
O O12 0.500000 0.627815 0.500000
O O13 0.663140 0.733293 0.409514
O O14 0.800636 0.124509 0.948497
O O15 0.750000 0.250000 0.000000
O O16 0.000000 0.194098 0.000000
O O17 0.662501 0.000000 0.969019
O O18 0.500000 0.886816 0.000000
#
# Coordination Sequence:
#
# PCOD9209181 Si02
#       7
#     8   8   8   8   8   8   8
#     4  10  21  38  61  88 122 160 200 250 305 365
#     4  11  23  39  61  90 118 154 204 248 297 364
#     4  11  23  38  57  83 115 152 196 244 296 354
#     4  11  22  38  60  86 116 156 204 248 300 358
#     4  11  22  39  60  82 117 156 199 250 299 353
#     4  12  23  39  64  92 125 161 203 256 311 369
#     4  10  22  42  67  94 125 163 206 252 311 378
#
# _framework density 20.358557000000001
#
# number of rings (size 3 to 8) (size 9 to 14) (size 15 to 20)
#    0.000    1.143    0.000    8.571    0.000    3.143 
#    0.000    2.143    0.000    3.429    0.000    0.000 
#    0.000    0.000    0.000    0.000    0.000    0.000 
#
# Total GULP energy -156466.159354 kJ/mol
# GULP energy per Si atom -5588.077120 kJ/mol
# Density = 2.031222 g / cm^3
# Si number density = 20.358557 Si / 1000 Ang^3
#
#
#
# Elastic Constant Matrix: (Units=GPa)
#
#
# Indices 1 2 3 4 5 6 
#
# 1 78.9384 25.5030 33.6189 0.0000 -1.0025 0.0000
# 2 25.5030 110.9706 22.2772 0.0000 2.1914 0.0000
# 3 33.6189 22.2772 101.2416 0.0000 -6.1971 0.0000
# 4 0.0000 0.0000 0.0000 31.0435 0.0000 0.9651
# 5 -1.0025 2.1914 -6.1971 0.0000 31.8120 0.0000
# 6 0.0000 0.0000 0.0000 0.9651 0.0000 18.2094
#
#
#
# Elastic Compliance Matrix: (Units=1/GPa)
#
#
# Indices 1 2 3 4 5 6 
#
# 1 0.015461 -0.002632 -0.004569 0.000000 -0.000221 0.000000
# 2 -0.002632 0.009912 -0.001370 0.000000 -0.001033 0.000000
# 3 -0.004569 -0.001370 0.011834 0.000000 0.002256 0.000000
# 4 0.000000 0.000000 0.000000 0.032266 0.000000 -0.001710
# 5 -0.000221 -0.001033 0.002256 0.000000 0.031938 0.000000
# 6 0.000000 0.000000 0.000000 -0.001710 0.000000 0.055007
#
#
# Mechanical properties :
#
#
# Convention : Reuss Voigt Hill
#
# Bulk Modulus (GPa) = 49.83626 50.43875 50.13751
# Shear Modulus (GPa) = 27.73949 30.19642 28.96796
#
# Velocity S-wave (km/s) = 3.69527 3.85545 3.77621
# Velocity P-wave (km/s) = 6.53752 6.68194 6.61012
#
# Compressibility (1/GPa) = 0.02006571
#
# Stress axis : x y z
#
# Youngs Moduli (GPa) = 64.67780 100.89100 84.50200
#
# Poissons Ratio (x) = 0.26552 0.38606
# Poissons Ratio (y) = 0.17022 0.11579
# Poissons Ratio (z) = 0.29549 0.13825
#
# Static dielectric constant tensor:
#      x y z
#    x 1.985730 0.000000 -0.480390 
#    y 0.000000 1.776900 0.000000 
#    z -0.480390 0.000000 2.592900 
# 
# From -- ./inp_files/257044.got.cif
#   From: 2010.05.17/outbox.cif.g08.bks.cpg/sg12_129_cif.got.tgz:257044.got - 2010.06.03 13:09:07.
