data_PCOD9209406
_publ_section_title
;
Structure prediction by ZEFSAII (Michael W. Deem and Ramdas Pophale) SiO2 
 PCOD9209406
Probable space group: C 2/M
;
_chemical_formula_sum "Si O2"
_cell_formula_units_Z 50
_cell_length_a 18.444784
_cell_length_b 7.601732
_cell_length_c 17.511581
_cell_angle_alpha 90.000000
_cell_angle_beta 62.560210
_cell_angle_gamma 90.000000
_cell_volume 2179.102622
_symmetry_space_group_name_H-M "C 2/M"
_symmetry_group_IT_number 12
_symmetry_cell_setting 'monoclinic'
loop_
_space_group_symop_operation_xyz
x,y,z
-x,y,-z
-x,-y,-z
x,-y,z
1/2+x,1/2+y,z
1/2-x,1/2+y,-z
1/2-x,1/2-y,-z
1/2+x,1/2-y,z
loop_
_atom_site_type_symbol
_atom_site_label
_atom_site_fract_x
_atom_site_fract_y
_atom_site_fract_z
Si Si1 0.000000 0.500000 0.000000
Si Si2 0.072699 0.715260 0.520896
Si Si3 0.797285 0.287929 0.810085
Si Si4 0.400815 0.201655 0.322407
Si Si5 0.054933 0.201045 0.155215
Si Si6 0.724629 0.205142 0.350634
Si Si7 0.118909 0.789021 0.959161
O O1 0.937453 0.657669 0.061023
O O2 0.068104 0.500000 0.524677
O O3 0.068596 0.774671 0.610809
O O4 0.159138 0.774050 0.443203
O O5 0.000000 0.773202 0.500000
O O6 0.808090 0.500000 0.804308
O O7 0.874718 0.211400 0.815560
O O8 0.787458 0.221272 0.728449
O O9 0.713244 0.254254 0.895748
O O10 0.474697 0.209414 0.227000
O O11 0.317826 0.285004 0.331989
O O12 0.378016 0.000000 0.346841
O O13 0.095348 0.267517 0.057112
O O14 0.031761 0.000000 0.151803
O O15 0.703791 0.000000 0.353506
O O16 0.104769 0.000000 0.954784
#
# Coordination Sequence:
#
# PCOD9209406 Si02
#       7
#     2   8   8   8   8   8   8
#     4  12  26  40  72  94 128 180 208 272 324 378
#     4   9  18  36  61  88 118 157 205 256 310 375
#     4  10  22  41  65  90 122 163 211 263 313 381
#     4  11  23  37  60  90 123 161 208 256 308 378
#     4  11  24  41  63  90 126 165 207 261 312 376
#     4  10  21  38  62  89 122 161 201 255 319 369
#     4  10  25  43  64  98 133 168 218 265 319 382
#
# _framework density 22.945225000000001
#
# number of rings (size 3 to 8) (size 9 to 14) (size 15 to 20)
#    0.000    1.760    0.000    3.120    5.600    3.200 
#    0.000    0.800    0.000    3.360    0.000    0.000 
#    0.000    0.000    0.000    0.000    0.000    0.000 
#
# Total GULP energy -139485.604600 kJ/mol
# GULP energy per Si atom -5579.424184 kJ/mol
# Density = 2.289300 g / cm^3
# Si number density = 22.945225 Si / 1000 Ang^3
#
#
#
# Elastic Constant Matrix: (Units=GPa)
#
#
# Indices 1 2 3 4 5 6 
#
# 1 74.3029 4.5099 25.9729 -0.0001 -1.7205 -0.0003
# 2 4.5099 46.9020 12.5010 -0.0002 -8.4244 -0.0005
# 3 25.9729 12.5010 128.7378 0.0000 8.3432 -0.0001
# 4 -0.0001 -0.0002 0.0000 10.0440 0.0000 0.6858
# 5 -1.7205 -8.4244 8.3432 0.0000 45.1822 0.0000
# 6 -0.0003 -0.0005 -0.0001 0.6858 0.0000 -5.0880
#
#
#
# Elastic Compliance Matrix: (Units=1/GPa)
#
#
# Indices 1 2 3 4 5 6 
#
# 1 0.014542 -0.000426 -0.002959 0.000000 0.001021 -0.000001
# 2 -0.000426 0.022855 -0.002438 0.000001 0.004695 -0.000002
# 3 -0.002959 -0.002438 0.008743 0.000000 -0.002182 0.000000
# 4 0.000000 0.000001 0.000000 0.098654 0.000000 0.013298
# 5 0.001021 0.004695 -0.002182 0.000000 0.023450 -0.000001
# 6 -0.000001 -0.000002 0.000000 0.013298 -0.000001 -0.194749
#
#
# Mechanical properties :
#
#
# Convention : Reuss Voigt Hill
#
# Bulk Modulus (GPa) = 28.98998 37.32338 33.15668
# Shear Modulus (GPa) = -1487.38083 23.82490 -731.77796
#
# Velocity S-wave (km/s) = -25.48800 3.22582 -17.87781
# Velocity P-wave (km/s) = 29.21511 5.49328 20.28973
#
# Compressibility (1/GPa) = 0.03449468
#
# Stress axis : x y z
#
# Youngs Moduli (GPa) = 68.76567 43.75390 114.38100
#
# Poissons Ratio (x) = 0.01866 0.33841
# Poissons Ratio (y) = 0.02932 0.27881
# Poissons Ratio (z) = 0.20345 0.10665
#
# Static dielectric constant tensor:
#      x y z
#    x 1.846710 0.000000 0.054680 
#    y 0.000000 1.869760 0.000000 
#    z 0.054680 0.000000 1.871160 
# 
# From -- ./inp_files/274974.got.cif
#   From: 2010.05.17/outbox.cif.g08.bks.cpg/sg12_138_cif.got.tgz:274974.got - 2010.06.03 13:09:07.
