data_PCOD9209225
_publ_section_title
;
Structure prediction by ZEFSAII (Michael W. Deem and Ramdas Pophale) SiO2 
 PCOD9209225
Probable space group: C 2/M
;
_chemical_formula_sum "Si O2"
_cell_formula_units_Z 40
_cell_length_a 15.867303
_cell_length_b 26.010135
_cell_length_c 9.267626
_cell_angle_alpha 90.000000
_cell_angle_beta 152.223958
_cell_angle_gamma 90.000000
_cell_volume 1782.443266
_symmetry_space_group_name_H-M "C 2/M"
_symmetry_group_IT_number 12
_symmetry_cell_setting 'monoclinic'
loop_
_space_group_symop_operation_xyz
x,y,z
-x,y,-z
-x,-y,-z
x,-y,z
1/2+x,1/2+y,z
1/2-x,1/2+y,-z
1/2-x,1/2-y,-z
1/2+x,1/2-y,z
loop_
_atom_site_type_symbol
_atom_site_label
_atom_site_fract_x
_atom_site_fract_y
_atom_site_fract_z
Si Si1 0.808352 0.718646 0.759092
Si Si2 0.319486 0.115078 0.637174
Si Si3 0.485452 0.561299 0.640768
Si Si4 0.937038 0.717737 0.254709
Si Si5 0.665335 0.060005 0.641366
O O1 0.770529 0.674806 0.584605
O O2 0.620947 0.749229 0.499641
O O3 0.871993 0.691742 0.007095
O O4 0.000000 0.745142 0.000000
O O5 0.170630 0.083712 0.498304
O O6 0.338265 0.096249 0.502654
O O7 0.500000 0.105684 0.000000
O O8 0.500000 0.582327 0.500000
O O9 0.461290 0.500000 0.592843
O O10 0.664620 0.571982 0.001655
O O11 0.000000 0.690729 0.500000
O O12 0.750000 0.750000 0.000000
O O13 0.500000 0.064152 0.500000
O O14 0.676192 0.000000 0.608546
#
# Coordination Sequence:
#
# PCOD9209225 Si02
#       5
#     8   8   8   8   8
#     4  10  21  39  61  90 123 158 204 259 319 380
#     4  11  23  38  58  92 131 166 205 259 318 377
#     4  10  21  38  61  89 123 165 211 260 315 377
#     4   9  19  39  66  89 114 155 207 257 312 380
#     4  10  21  40  65  91 123 169 221 265 312 372
#
# _framework density 22.441106999999999
#
# number of rings (size 3 to 8) (size 9 to 14) (size 15 to 20)
#    0.000    2.000    0.000    3.000    0.000    7.200 
#    0.000   26.000    0.000    0.000    0.000    0.000 
#    0.000    0.000    0.000    0.000    0.000    0.000 
#
# Total GULP energy -111558.749587 kJ/mol
# GULP energy per Si atom -5577.937479 kJ/mol
# Density = 2.239003 g / cm^3
# Si number density = 22.441107 Si / 1000 Ang^3
#
#
#
# Elastic Constant Matrix: (Units=GPa)
#
#
# Indices 1 2 3 4 5 6 
#
# 1 146.7080 45.6515 66.0894 -0.0001 -10.8636 -0.0001
# 2 45.6515 91.7137 -4.0810 0.0001 33.7321 0.0003
# 3 66.0894 -4.0810 196.7052 -0.0003 -36.0760 -0.0006
# 4 -0.0001 0.0001 -0.0003 -228.3119 0.0000 -564.5043
# 5 -10.8636 33.7321 -36.0760 0.0000 109.6839 0.0000
# 6 -0.0001 0.0003 -0.0006 -564.5043 0.0000-1175.9850
#
#
#
# Elastic Compliance Matrix: (Units=1/GPa)
#
#
# Indices 1 2 3 4 5 6 
#
# 1 0.010238 -0.005887 -0.003239 0.000000 0.001759 0.000000
# 2 -0.005887 0.015720 0.001395 0.000000 -0.004959 0.000000
# 3 -0.003239 0.001395 0.006453 0.000000 0.001373 0.000000
# 4 0.000000 0.000000 0.000000 0.023438 0.000000 -0.011251
# 5 0.001759 -0.004959 0.001373 0.000000 0.011268 0.000000
# 6 0.000000 0.000000 0.000000 -0.011251 0.000000 0.004550
#
#
# Mechanical properties :
#
#
# Convention : Reuss Voigt Hill
#
# Bulk Modulus (GPa) = 59.00773 72.27183 65.63978
# Shear Modulus (GPa) = 53.89177 -237.09145 -91.59984
#
# Velocity S-wave (km/s) = 4.90580 -10.28979 -6.39582
# Velocity P-wave (km/s) = 7.64466 10.43543 5.02282
#
# Compressibility (1/GPa) = 0.01694693
#
# Stress axis : x y z
#
# Youngs Moduli (GPa) = 97.67949 63.61445 154.97328
#
# Poissons Ratio (x) = 0.37450 0.50198
# Poissons Ratio (y) = 0.57504 -0.21613
# Poissons Ratio (z) = 0.31640 -0.08872
#
# Static dielectric constant tensor:
#      x y z
#    x 1.844340 0.000000 -0.047770 
#    y 0.000000 1.871050 0.000000 
#    z -0.047770 0.000000 1.745310 
# 
# From -- ./inp_files/41455.got.cif
#   From: 2010.05.17/outbox.cif.g08.bks.cpg/sg12_21_cif.got.tgz:41455.got - 2010.06.03 13:09:07.
