data_PCOD9209974
_publ_section_title
;
Structure prediction by ZEFSAII (Michael W. Deem and Ramdas Pophale) SiO2 
 PCOD9209974
Probable space group: C 2/M
;
_chemical_formula_sum "Si O2"
_cell_formula_units_Z 64
_cell_length_a 15.359429
_cell_length_b 7.712141
_cell_length_c 33.125283
_cell_angle_alpha 90.000000
_cell_angle_beta 48.524516
_cell_angle_gamma 90.000000
_cell_volume 2939.883410
_symmetry_space_group_name_H-M "C 2/M"
_symmetry_group_IT_number 12
_symmetry_cell_setting 'monoclinic'
loop_
_space_group_symop_operation_xyz
x,y,z
-x,y,-z
-x,-y,-z
x,-y,z
1/2+x,1/2+y,z
1/2-x,1/2+y,-z
1/2-x,1/2-y,-z
1/2+x,1/2-y,z
loop_
_atom_site_type_symbol
_atom_site_label
_atom_site_fract_x
_atom_site_fract_y
_atom_site_fract_z
Si Si1 0.953493 0.788848 0.598178
Si Si2 0.222957 0.696446 0.630691
Si Si3 0.523629 0.298799 0.318862
Si Si4 0.289728 0.286698 0.801582
Si Si5 0.323642 0.199175 0.516748
Si Si6 0.525608 0.791870 0.884535
Si Si7 0.327635 0.709199 0.880339
Si Si8 0.349904 0.208068 0.002064
O O1 0.822634 0.731496 0.629033
O O2 0.988504 0.727080 0.632100
O O3 0.043482 0.722918 0.537197
O O4 0.958527 0.000000 0.594303
O O5 0.198321 0.500000 0.650774
O O6 0.100160 0.788477 0.664905
O O7 0.282575 0.696782 0.568204
O O8 0.553595 0.500000 0.315879
O O9 0.624645 0.223974 0.259843
O O10 0.291774 0.500000 0.800359
O O11 0.156291 0.229951 0.837487
O O12 0.333551 0.232102 0.832446
O O13 0.250000 0.250000 0.500000
O O14 0.299040 0.000000 0.534082
O O15 0.436968 0.755551 0.875026
O O16 0.466241 0.726001 0.944495
O O17 0.532266 0.000000 0.886317
O O18 0.322101 0.500000 0.881621
O O19 0.208289 0.771973 0.938701
O O20 0.362704 0.000000 0.002129
O O21 0.250000 0.250000 0.000000
#
# Coordination Sequence:
#
# PCOD9209974 Si02
#       8
#     8   8   8   8   8   8   8   8
#     4  10  22  39  59  83 113 147 183 224 273 324
#     4  11  23  39  60  87 115 145 183 227 272 322
#     4  10  21  39  58  76 105 146 186 226 273 323
#     4   9  19  34  53  76 102 138 184 226 268 320
#     4  12  23  37  61  90 120 150 180 219 270 324
#     4   9  17  31  51  75 103 136 177 219 267 329
#     4   9  17  31  50  74 105 137 173 220 273 323
#     4   8  14  25  45  72 101 133 168 214 268 322
#
# _framework density 21.769570999999999
#
# number of rings (size 3 to 8) (size 9 to 14) (size 15 to 20)
#    0.000    2.250    1.250    1.875    0.000    4.000 
#    0.000    5.625    0.000    0.000    0.000    8.750 
#    0.000    0.000    0.000    0.000    0.000    0.000 
#
# Total GULP energy -178621.155587 kJ/mol
# GULP energy per Si atom -5581.911112 kJ/mol
# Density = 2.172002 g / cm^3
# Si number density = 21.769571 Si / 1000 Ang^3
#
#
#
# Elastic Constant Matrix: (Units=GPa)
#
#
# Indices 1 2 3 4 5 6 
#
# 1 88.0709 -3.3053 26.7400 0.0017 -21.5201 0.0018
# 2 -3.3053 41.8153 -1.2537 0.0017 -1.0192 -0.0010
# 3 26.7400 -1.2537 117.0647 0.0022 -27.1709 0.0025
# 4 0.0017 0.0017 0.0022 8.6493 0.0005 -3.5425
# 5 -21.5201 -1.0192 -27.1709 0.0005 28.9065 0.0005
# 6 0.0018 -0.0010 0.0025 -3.5425 0.0005 18.5218
#
#
#
# Elastic Compliance Matrix: (Units=1/GPa)
#
#
# Indices 1 2 3 4 5 6 
#
# 1 0.014041 0.001315 -0.000967 -0.000004 0.009590 -0.000002
# 2 0.001315 0.024089 0.000489 -0.000005 0.002287 0.000000
# 3 -0.000967 0.000489 0.011007 -0.000004 0.009643 -0.000002
# 4 -0.000004 -0.000005 -0.000004 0.125442 -0.000010 0.023992
# 5 0.009590 0.002287 0.009643 -0.000010 0.050878 -0.000005
# 6 -0.000002 0.000000 -0.000002 0.023992 -0.000005 0.058579
#
#
# Mechanical properties :
#
#
# Convention : Reuss Voigt Hill
#
# Bulk Modulus (GPa) = 19.68182 32.36810 26.02496
# Shear Modulus (GPa) = 16.70564 26.20019 21.45291
#
# Velocity S-wave (km/s) = 2.77318 3.47295 3.14260
# Velocity P-wave (km/s) = 4.39484 5.56620 5.01484
#
# Compressibility (1/GPa) = 0.05080830
#
# Stress axis : x y z
#
# Youngs Moduli (GPa) = 71.22069 41.51270 90.85479
#
# Poissons Ratio (x) = -0.05457 0.08788
# Poissons Ratio (y) = -0.09363 -0.04439
# Poissons Ratio (z) = 0.06889 -0.02028
#
# Static dielectric constant tensor:
#      x y z
#    x 1.779600 0.000010 -0.002350 
#    y 0.000010 2.301440 0.000020 
#    z -0.002350 0.000020 1.899530 
# 
# From -- ./inp_files/375436.got.cif
#   From: 2010.05.17/outbox.cif.g08.bks.cpg/sg12_188_cif.got.tgz:375436.got - 2010.06.03 13:09:07.
