data_PCOD9209992
_publ_section_title
;
Structure prediction by ZEFSAII (Michael W. Deem and Ramdas Pophale) SiO2 
 PCOD9209992
Probable space group: C 2/M
;
_chemical_formula_sum "Si O2"
_cell_formula_units_Z 44
_cell_length_a 14.480869
_cell_length_b 25.711071
_cell_length_c 14.027797
_cell_angle_alpha 90.000000
_cell_angle_beta 151.335200
_cell_angle_gamma 90.000000
_cell_volume 2505.301363
_symmetry_space_group_name_H-M "C 2/M"
_symmetry_group_IT_number 12
_symmetry_cell_setting 'monoclinic'
loop_
_space_group_symop_operation_xyz
x,y,z
-x,y,-z
-x,-y,-z
x,-y,z
1/2+x,1/2+y,z
1/2-x,1/2+y,-z
1/2-x,1/2-y,-z
1/2+x,1/2-y,z
loop_
_atom_site_type_symbol
_atom_site_label
_atom_site_fract_x
_atom_site_fract_y
_atom_site_fract_z
Si Si1 0.000000 0.334334 0.000000
Si Si2 0.425578 0.266675 0.726446
Si Si3 0.240791 0.000000 0.607017
Si Si4 0.032737 0.412492 0.859650
Si Si5 0.285220 0.178655 0.073202
Si Si6 0.214140 0.000000 0.812064
Si Si7 0.716687 0.758374 0.732386
O O1 0.968045 0.371367 0.881091
O O2 0.816609 0.296550 0.847496
O O3 0.250000 0.250000 0.500000
O O4 0.569544 0.217803 0.849290
O O5 0.339815 0.276755 0.752888
O O6 0.570871 0.314002 0.835301
O O7 0.354009 0.050613 0.671863
O O8 0.260650 0.000000 0.741012
O O9 0.014977 0.000000 0.382482
O O10 0.129600 0.378494 0.864012
O O11 0.188661 0.450119 0.050701
O O12 0.279085 0.201884 0.175066
O O13 0.500000 0.751206 0.500000
#
# Coordination Sequence:
#
# PCOD9209992 Si02
#       7
#     4   8   4   8   8   4   8
#     4  12  20  35  54  82 120 157 194 234 274 346
#     4  11  21  36  54  80 119 157 202 238 276 338
#     4  10  21  39  60  83 115 141 189 254 305 360
#     4  11  21  36  57  83 113 151 193 236 296 348
#     4  11  22  37  55  82 117 160 198 240 286 340
#     4  10  21  39  58  85 111 145 190 245 311 363
#     4  12  23  36  55  82 125 164 199 238 280 337
#
# _framework density 17.562757000000001
#
# number of rings (size 3 to 8) (size 9 to 14) (size 15 to 20)
#    0.000    0.909    7.273    1.636    0.000    2.909 
#    0.000    0.000    0.000    0.000    0.000   12.727 
#    0.000    0.000    0.000    0.000    0.000    0.000 
#
# Total GULP energy -122702.512808 kJ/mol
# GULP energy per Si atom -5577.386946 kJ/mol
# Density = 1.752278 g / cm^3
# Si number density = 17.562757 Si / 1000 Ang^3
#
#
#
# Elastic Constant Matrix: (Units=GPa)
#
#
# Indices 1 2 3 4 5 6 
#
# 1 113.0423 52.1619 39.4006 0.0000 8.3204 0.0000
# 2 52.1619 98.0186 31.0618 -0.0001 9.7051 0.0000
# 3 39.4006 31.0618 113.1073 -0.0002 22.4667 -0.0001
# 4 0.0000 -0.0001 -0.0002 8.1340 -0.0001 8.5327
# 5 8.3204 9.7051 22.4667 -0.0001 32.6704 0.0000
# 6 0.0000 0.0000 -0.0001 8.5327 0.0000 40.5098
#
#
#
# Elastic Compliance Matrix: (Units=1/GPa)
#
#
# Indices 1 2 3 4 5 6 
#
# 1 0.012473 -0.005782 -0.002858 0.000000 0.000506 0.000000
# 2 -0.005782 0.013911 -0.001480 0.000000 -0.001642 0.000000
# 3 -0.002858 -0.001480 0.011595 0.000000 -0.006806 0.000000
# 4 0.000000 0.000000 0.000000 0.157808 0.000000 -0.033239
# 5 0.000506 -0.001642 -0.006806 0.000000 0.035648 0.000000
# 6 0.000000 0.000000 0.000000 -0.033239 0.000000 0.031687
#
#
# Mechanical properties :
#
#
# Convention : Reuss Voigt Hill
#
# Bulk Modulus (GPa) = 56.37133 63.26852 59.81993
# Shear Modulus (GPa) = 17.28462 29.69912 23.49187
#
# Velocity S-wave (km/s) = 3.14054 4.11667 3.66128
# Velocity P-wave (km/s) = 6.73182 7.66149 7.21165
#
# Compressibility (1/GPa) = 0.01773951
#
# Stress axis : x y z
#
# Youngs Moduli (GPa) = 80.17210 71.88651 86.24481
#
# Poissons Ratio (x) = 0.41567 0.24645
# Poissons Ratio (y) = 0.46358 0.12762
# Poissons Ratio (z) = 0.22910 0.10638
#
# Static dielectric constant tensor:
#      x y z
#    x 1.643110 0.000000 -0.010660 
#    y 0.000000 1.598260 0.000000 
#    z -0.010660 0.000000 1.646840 
# 
# From -- ./inp_files/218343.got.cif
#   From: 2010.05.17/outbox.cif.g08.bks.cpg/sg12_110_cif.got.tgz:218343.got - 2010.06.03 13:09:07.
