data_PCOD9209846
_publ_section_title
;
Structure prediction by ZEFSAII (Michael W. Deem and Ramdas Pophale) SiO2 
 PCOD9209846
Probable space group: C 2/M
;
_chemical_formula_sum "Si O2"
_cell_formula_units_Z 56
_cell_length_a 16.793303
_cell_length_b 27.254146
_cell_length_c 8.892459
_cell_angle_alpha 90.000000
_cell_angle_beta 43.723755
_cell_angle_gamma 90.000000
_cell_volume 2813.086286
_symmetry_space_group_name_H-M "C 2/M"
_symmetry_group_IT_number 12
_symmetry_cell_setting 'monoclinic'
loop_
_space_group_symop_operation_xyz
x,y,z
-x,y,-z
-x,-y,-z
x,-y,z
1/2+x,1/2+y,z
1/2-x,1/2+y,-z
1/2-x,1/2-y,-z
1/2+x,1/2-y,z
loop_
_atom_site_type_symbol
_atom_site_label
_atom_site_fract_x
_atom_site_fract_y
_atom_site_fract_z
Si Si1 0.381197 0.805565 0.572376
Si Si2 0.617190 0.856338 0.752277
Si Si3 0.761648 0.057113 0.433734
Si Si4 0.823277 0.191602 0.626113
Si Si5 0.866957 0.443352 0.713875
Si Si6 0.526527 0.373506 0.803440
Si Si7 0.211046 0.135838 0.017445
O O1 0.500000 0.810500 0.500000
O O2 0.395225 0.833844 0.396694
O O3 0.355154 0.748303 0.586574
O O4 0.276032 0.829367 0.809107
O O5 0.682830 0.908084 0.644609
O O6 0.696903 0.818273 0.733344
O O7 0.500000 0.862849 0.000000
O O8 0.705778 0.060348 0.342632
O O9 0.888183 0.081428 0.274006
O O10 0.763151 0.000000 0.473535
O O11 0.908210 0.162705 0.398378
O O12 0.823326 0.166700 0.789763
O O13 0.866274 0.500000 0.763733
O O14 0.000000 0.429761 0.500000
O O15 0.804037 0.407346 0.915882
O O16 0.405365 0.386517 0.893151
O O17 0.500000 0.348699 0.000000
#
# Coordination Sequence:
#
# PCOD9209846 Si02
#       7
#     8   8   8   8   8   8   8
#     4  12  24  43  66  94 128 176 221 267 325 389
#     4  11  24  42  65  98 132 170 215 273 324 384
#     4  10  22  42  66  95 127 171 219 265 326 390
#     4  11  26  42  63  96 132 169 216 269 330 384
#     4  10  21  38  65  96 128 167 215 269 326 387
#     4  11  22  42  63  92 126 167 214 264 323 383
#     4  12  22  40  66  94 128 169 216 270 319 388
#
# _framework density 19.906960999999999
#
# number of rings (size 3 to 8) (size 9 to 14) (size 15 to 20)
#    0.000    1.000    2.857    4.286    2.000    2.857 
#    0.000    2.857    0.000    4.286    0.000    0.000 
#    0.000    0.000    0.000    0.000    0.000    0.000 
#
# Total GULP energy -156537.537548 kJ/mol
# GULP energy per Si atom -5590.626341 kJ/mol
# Density = 1.986165 g / cm^3
# Si number density = 19.906961 Si / 1000 Ang^3
#
#
#
# Elastic Constant Matrix: (Units=GPa)
#
#
# Indices 1 2 3 4 5 6 
#
# 1 108.9593 42.2868 46.1809 0.0000 -17.0590 0.0000
# 2 42.2868 152.5417 64.5254 0.0000 -7.6609 0.0000
# 3 46.1809 64.5254 155.6155 0.0000 -4.3915 0.0000
# 4 0.0000 0.0000 0.0000 -2.7098 0.0000 0.7598
# 5 -17.0590 -7.6609 -4.3915 0.0000 41.4700 0.0000
# 6 0.0000 0.0000 0.0000 0.7598 0.0000 23.8459
#
#
#
# Elastic Compliance Matrix: (Units=1/GPa)
#
#
# Indices 1 2 3 4 5 6 
#
# 1 0.011662 -0.001952 -0.002534 0.000000 0.004168 0.000000
# 2 -0.001952 0.008329 -0.002862 0.000000 0.000433 0.000000
# 3 -0.002534 -0.002862 0.008345 0.000000 -0.000687 0.000000
# 4 0.000000 0.000000 0.000000 -0.365765 0.000000 0.011655
# 5 0.004168 0.000433 -0.000687 0.000000 0.025836 0.000000
# 6 0.000000 0.000000 0.000000 0.011655 0.000000 0.041565
#
#
# Mechanical properties :
#
#
# Convention : Reuss Voigt Hill
#
# Bulk Modulus (GPa) = 73.30974 80.34473 76.82724
# Shear Modulus (GPa) = -19.93732 30.12944 5.09606
#
# Velocity S-wave (km/s) = -3.16812 3.89461 1.60172
# Velocity P-wave (km/s) = 4.85010 7.78921 6.48827
#
# Compressibility (1/GPa) = 0.01364075
#
# Stress axis : x y z
#
# Youngs Moduli (GPa) = 85.75075 120.06155 119.82532
#
# Poissons Ratio (x) = 0.23431 0.30363
# Poissons Ratio (y) = 0.16735 0.34297
# Poissons Ratio (z) = 0.21728 0.34364
#
# Static dielectric constant tensor:
#      x y z
#    x 1.729250 0.000000 0.000410 
#    y 0.000000 1.681800 0.000000 
#    z 0.000410 0.000000 1.694710 
# 
# From -- ./inp_files/80006.got.cif
#   From: 2010.05.17/outbox.cif.g08.bks.cpg/sg12_41_cif.got.tgz:80006.got - 2010.06.03 13:09:07.
