data_PCOD9209694
_publ_section_title
;
Structure prediction by ZEFSAII (Michael W. Deem and Ramdas Pophale) SiO2 
 PCOD9209694
Probable space group: C 2/M
;
_chemical_formula_sum "Si O2"
_cell_formula_units_Z 64
_cell_length_a 14.521840
_cell_length_b 13.054556
_cell_length_c 23.149847
_cell_angle_alpha 90.000000
_cell_angle_beta 136.795142
_cell_angle_gamma 90.000000
_cell_volume 3004.515342
_symmetry_space_group_name_H-M "C 2/M"
_symmetry_group_IT_number 12
_symmetry_cell_setting 'monoclinic'
loop_
_space_group_symop_operation_xyz
x,y,z
-x,y,-z
-x,-y,-z
x,-y,z
1/2+x,1/2+y,z
1/2-x,1/2+y,-z
1/2-x,1/2-y,-z
1/2+x,1/2-y,z
loop_
_atom_site_type_symbol
_atom_site_label
_atom_site_fract_x
_atom_site_fract_y
_atom_site_fract_z
Si Si1 0.264080 0.614942 0.034093
Si Si2 0.923091 0.206531 0.212463
Si Si3 0.348689 0.117142 0.567749
Si Si4 0.276324 0.224134 0.773542
Si Si5 0.026610 0.882906 0.076643
Si Si6 0.476909 0.882533 0.152033
Si Si7 0.191293 0.167990 0.388170
Si Si8 0.416994 0.798588 0.410241
O O1 0.221552 0.500000 0.029538
O O2 0.328222 0.659772 0.120419
O O3 0.382848 0.611627 0.041629
O O4 0.133994 0.661191 0.943618
O O5 0.831910 0.217384 0.226206
O O6 0.970596 0.313372 0.206044
O O7 0.054561 0.143998 0.291937
O O8 0.223796 0.120638 0.465434
O O9 0.321826 0.209269 0.601221
O O10 0.479099 0.149554 0.587589
O O11 0.365281 0.000000 0.596781
O O12 0.373170 0.318464 0.837021
O O13 0.378873 0.131462 0.811386
O O14 0.189798 0.236790 0.676220
O O15 0.078246 0.000000 0.093548
O O16 0.000000 0.839850 0.000000
O O17 0.445352 0.000000 0.150548
O O18 0.315241 0.135521 0.403616
O O19 0.500000 0.743576 0.500000
#
# Coordination Sequence:
#
# PCOD9209694 Si02
#       8
#     8   8   8   8   8   8   8   8
#     4  10  22  41  63  91 128 169 214 264 322 386
#     4  12  23  40  68  92 128 173 216 266 323 381
#     4  10  22  41  68  98 127 165 211 265 330 388
#     4  12  24  39  65  97 128 174 213 271 329 386
#     4  10  21  38  63  97 132 164 212 270 323 385
#     4  11  25  44  65  93 131 174 220 264 318 394
#     4  10  21  40  65  93 133 163 209 267 318 386
#     4  10  21  41  65  90 128 164 211 269 324 381
#
# _framework density 21.301272000000001
#
# number of rings (size 3 to 8) (size 9 to 14) (size 15 to 20)
#    0.000    1.375    3.750    1.125    1.750    5.750 
#    0.000    2.500    0.000    9.750    0.000    0.000 
#    0.000    0.000    0.000    0.000    0.000    0.000 
#
# Total GULP energy -178431.605813 kJ/mol
# GULP energy per Si atom -5575.987682 kJ/mol
# Density = 2.125279 g / cm^3
# Si number density = 21.301272 Si / 1000 Ang^3
#
#
#
# Elastic Constant Matrix: (Units=GPa)
#
#
# Indices 1 2 3 4 5 6 
#
# 1 70.6907 -8.3156 8.9668 0.0000 -2.1367 0.0000
# 2 -8.3156 70.8768 7.9749 0.0000 -0.5289 0.0000
# 3 8.9668 7.9749 158.6368 0.0000 1.4652 0.0000
# 4 0.0000 0.0000 0.0000 8.1897 0.0000 3.4373
# 5 -2.1367 -0.5289 1.4652 0.0000 37.8562 0.0000
# 6 0.0000 0.0000 0.0000 3.4373 0.0000 7.2089
#
#
#
# Elastic Compliance Matrix: (Units=1/GPa)
#
#
# Indices 1 2 3 4 5 6 
#
# 1 0.014502 0.001811 -0.000919 0.000000 0.000879 0.000000
# 2 0.001811 0.014417 -0.000830 0.000000 0.000336 0.000000
# 3 -0.000919 -0.000830 0.006400 0.000000 -0.000311 0.000000
# 4 0.000000 0.000000 0.000000 0.152655 0.000000 -0.072788
# 5 0.000879 0.000336 -0.000311 0.000000 0.026482 0.000000
# 6 0.000000 0.000000 0.000000 -0.072788 0.000000 0.173424
#
#
# Mechanical properties :
#
#
# Convention : Reuss Voigt Hill
#
# Bulk Modulus (GPa) = 28.21306 35.27293 31.74299
# Shear Modulus (GPa) = 12.51341 30.08949 21.30145
#
# Velocity S-wave (km/s) = 2.42636 3.76249 3.16572
# Velocity P-wave (km/s) = 4.59600 5.95568 5.31946
#
# Compressibility (1/GPa) = 0.03544458
#
# Stress axis : x y z
#
# Youngs Moduli (GPa) = 68.95424 69.36040 156.24356
#
# Poissons Ratio (x) = -0.12564 0.14358
# Poissons Ratio (y) = -0.12491 0.12973
# Poissons Ratio (z) = 0.06336 0.05759
#
# Static dielectric constant tensor:
#      x y z
#    x 1.786240 0.000000 -0.031400 
#    y 0.000000 1.803340 0.000000 
#    z -0.031400 0.000000 1.847060 
# 
# From -- ./inp_files/340181.got.cif
#   From: 2010.05.17/outbox.cif.g08.bks.cpg/sg12_171_cif.got.tgz:340181.got - 2010.06.03 13:09:07.
