data_PCOD9209173
_publ_section_title
;
Structure prediction by ZEFSAII (Michael W. Deem and Ramdas Pophale) SiO2 
 PCOD9209173
Probable space group: C 2/M
;
_chemical_formula_sum "Si O2"
_cell_formula_units_Z 48
_cell_length_a 31.599905
_cell_length_b 8.463291
_cell_length_c 18.219331
_cell_angle_alpha 90.000000
_cell_angle_beta 29.997750
_cell_angle_gamma 90.000000
_cell_volume 2436.115865
_symmetry_space_group_name_H-M "C 2/M"
_symmetry_group_IT_number 12
_symmetry_cell_setting 'monoclinic'
loop_
_space_group_symop_operation_xyz
x,y,z
-x,y,-z
-x,-y,-z
x,-y,z
1/2+x,1/2+y,z
1/2-x,1/2+y,-z
1/2-x,1/2-y,-z
1/2+x,1/2-y,z
loop_
_atom_site_type_symbol
_atom_site_label
_atom_site_fract_x
_atom_site_fract_y
_atom_site_fract_z
Si Si1 0.913693 0.312478 0.670053
Si Si2 0.254333 0.814460 0.153069
Si Si3 0.587985 0.308791 0.659165
Si Si4 0.252374 0.810642 0.671977
Si Si5 0.581444 0.687245 0.173751
Si Si6 0.586268 0.307371 0.831141
O O1 0.903742 0.500000 0.673585
O O2 0.832442 0.228016 0.757811
O O3 0.919881 0.275351 0.746731
O O4 0.000000 0.261572 0.500000
O O5 0.246342 0.765341 0.249759
O O6 0.270573 0.000000 0.122545
O O7 0.332292 0.724099 0.998545
O O8 0.595038 0.500000 0.647231
O O9 0.665118 0.237489 0.497663
O O10 0.499020 0.266634 0.754954
O O11 0.590284 0.256626 0.740477
O O12 0.168801 0.759150 0.752811
O O13 0.249604 0.000000 0.684430
O O14 0.575979 0.500000 0.196129
O O15 0.585109 0.500000 0.832512
O O16 0.500000 0.254641 0.000000
#
# Coordination Sequence:
#
# PCOD9209173 Si02
#       6
#     8   8   8   8   8   8
#     4  11  24  42  64  90 121 155 194 241 292 348
#     4  12  25  41  62  87 119 156 197 245 295 350
#     4  10  21  38  61  88 120 158 198 241 291 350
#     4  11  22  37  60  88 120 157 198 245 295 348
#     4  11  23  40  63  89 119 156 198 242 292 350
#     4   9  18  35  59  86 117 156 200 243 290 346
#
# _framework density 19.703496999999999
#
# number of rings (size 3 to 8) (size 9 to 14) (size 15 to 20)
#    0.000    1.333    0.000    6.000    0.000    8.000 
#    0.000    0.833    0.000    3.500    0.000    0.000 
#    0.000    0.000    0.000    0.000    0.000    0.000 
#
# Total GULP energy -134271.732594 kJ/mol
# GULP energy per Si atom -5594.655525 kJ/mol
# Density = 1.965865 g / cm^3
# Si number density = 19.703497 Si / 1000 Ang^3
#
#
#
# Elastic Constant Matrix: (Units=GPa)
#
#
# Indices 1 2 3 4 5 6 
#
# 1 156.4325 -18.7258 63.8014 -0.0017 -2.5194 0.0076
# 2 -18.7258 18.6896 -28.5442 -0.0034 -7.5714 0.0036
# 3 63.8014 -28.5442 149.8176 -0.0047 -2.9613 0.0100
# 4 -0.0017 -0.0034 -0.0047 60.0872 0.0023 41.8175
# 5 -2.5194 -7.5714 -2.9613 0.0023 43.5304 -0.0024
# 6 0.0076 0.0036 0.0100 41.8175 -0.0024 80.5781
#
#
#
# Elastic Compliance Matrix: (Units=1/GPa)
#
#
# Indices 1 2 3 4 5 6 
#
# 1 0.007982 0.004632 -0.002495 0.000001 0.001098 -0.000001
# 2 0.004632 0.087949 0.015112 0.000015 0.016593 -0.000014
# 3 -0.002495 0.015112 0.010680 0.000004 0.003211 -0.000004
# 4 0.000001 0.000015 0.000004 0.026052 0.000001 -0.013520
# 5 0.001098 0.016593 0.003211 0.000001 0.026141 -0.000001
# 6 -0.000001 -0.000014 -0.000004 -0.013520 -0.000001 0.019427
#
#
# Mechanical properties :
#
#
# Convention : Reuss Voigt Hill
#
# Bulk Modulus (GPa) = 7.08676 39.77804 23.43240
# Shear Modulus (GPa) = 26.20969 57.39968 41.80468
#
# Velocity S-wave (km/s) = 3.65115 5.40324 4.61118
# Velocity P-wave (km/s) = 4.62375 7.69147 6.34578
#
# Compressibility (1/GPa) = 0.14110823
#
# Stress axis : x y z
#
# Youngs Moduli (GPa) = 125.27672 11.37027 93.63218
#
# Poissons Ratio (x) = -0.05266 0.23363
# Poissons Ratio (y) = -0.58024 -1.41497
# Poissons Ratio (z) = 0.31259 -0.17183
#
# Static dielectric constant tensor:
#      x y z
#    x 1.656580 0.000000 -0.006120 
#    y 0.000000 1.674090 0.000000 
#    z -0.006120 0.000000 1.646480 
# 
# From -- ./inp_files/274595.got.cif
#   From: 2010.05.17/outbox.cif.g08.bks.cpg/sg12_138_cif.got.tgz:274595.got - 2010.06.03 13:09:07.
