data_PCOD9209762
_publ_section_title
;
Structure prediction by ZEFSAII (Michael W. Deem and Ramdas Pophale) SiO2 
 PCOD9209762
Probable space group: C 2/M
;
_chemical_formula_sum "Si O2"
_cell_formula_units_Z 48
_cell_length_a 30.810030
_cell_length_b 8.771925
_cell_length_c 15.097775
_cell_angle_alpha 90.000000
_cell_angle_beta 39.641022
_cell_angle_gamma 90.000000
_cell_volume 2603.178651
_symmetry_space_group_name_H-M "C 2/M"
_symmetry_group_IT_number 12
_symmetry_cell_setting 'monoclinic'
loop_
_space_group_symop_operation_xyz
x,y,z
-x,y,-z
-x,-y,-z
x,-y,z
1/2+x,1/2+y,z
1/2-x,1/2+y,-z
1/2-x,1/2-y,-z
1/2+x,1/2-y,z
loop_
_atom_site_type_symbol
_atom_site_label
_atom_site_fract_x
_atom_site_fract_y
_atom_site_fract_z
Si Si1 0.183089 0.683146 0.847001
Si Si2 0.319986 0.183582 0.351967
Si Si3 0.074583 0.317827 0.341755
Si Si4 0.070480 0.818600 0.151980
Si Si5 0.158490 0.817924 0.367115
Si Si6 0.074265 0.316992 0.663505
O O1 0.173105 0.500000 0.869440
O O2 0.170396 0.729664 0.765040
O O3 0.261762 0.715386 0.746023
O O4 0.132170 0.765281 0.993275
O O5 0.250000 0.250000 0.500000
O O6 0.381928 0.226671 0.318985
O O7 0.314443 0.000000 0.362146
O O8 0.083388 0.500000 0.326498
O O9 0.077976 0.252836 0.237820
O O10 0.129607 0.242339 0.319855
O O11 0.000000 0.285140 0.500000
O O12 0.999749 0.757047 0.223172
O O13 0.068223 0.000000 0.162542
O O14 0.116063 0.738398 0.512039
O O15 0.149006 0.000000 0.388398
O O16 0.067601 0.500000 0.671082
#
# Coordination Sequence:
#
# PCOD9209762 Si02
#       6
#     8   8   8   8   8   8
#     4  10  23  43  63  90 129 166 203 253 312 366
#     4  10  21  38  64  94 124 164 208 253 304 364
#     4  11  23  40  65  93 123 162 206 252 309 372
#     4  12  26  42  63  91 125 164 208 259 311 364
#     4  11  22  38  65  95 124 161 207 255 303 364
#     4  11  22  38  63  93 126 164 206 253 308 367
#
# _framework density 18.438995999999999
#
# number of rings (size 3 to 8) (size 9 to 14) (size 15 to 20)
#    0.000    1.167    3.333    3.000    0.000    4.667 
#    0.000    3.333    0.000    0.000    0.000    0.000 
#    0.000    0.000    0.000    0.000    0.000    0.000 
#
# Total GULP energy -134215.989273 kJ/mol
# GULP energy per Si atom -5592.332886 kJ/mol
# Density = 1.839703 g / cm^3
# Si number density = 18.438996 Si / 1000 Ang^3
#
#
#
# Elastic Constant Matrix: (Units=GPa)
#
#
# Indices 1 2 3 4 5 6 
#
# 1 132.8480 28.2315 26.4047 -0.0002 9.5676 0.0000
# 2 28.2315 38.2520 28.0600 -0.0005 -1.0373 0.0002
# 3 26.4047 28.0600 85.2664 -0.0003 9.0619 0.0001
# 4 -0.0002 -0.0005 -0.0003 31.7576 0.0001 -5.0291
# 5 9.5676 -1.0373 9.0619 0.0001 30.5025 0.0000
# 6 0.0000 0.0002 0.0001 -5.0291 0.0000 25.6024
#
#
#
# Elastic Compliance Matrix: (Units=1/GPa)
#
#
# Indices 1 2 3 4 5 6 
#
# 1 0.009224 -0.006629 -0.000355 0.000000 -0.003013 0.000000
# 2 -0.006629 0.039888 -0.011812 0.000000 0.006945 0.000000
# 3 -0.000355 -0.011812 0.016269 0.000000 -0.005124 0.000000
# 4 0.000000 0.000000 0.000000 0.032499 0.000000 0.006384
# 5 -0.003013 0.006945 -0.005124 0.000000 0.035488 0.000000
# 6 0.000000 0.000000 0.000000 0.006384 0.000000 0.040313
#
#
# Mechanical properties :
#
#
# Convention : Reuss Voigt Hill
#
# Bulk Modulus (GPa) = 35.98399 46.86209 41.42304
# Shear Modulus (GPa) = 22.67211 29.15051 25.91131
#
# Velocity S-wave (km/s) = 3.51033 3.98039 3.75273
# Velocity P-wave (km/s) = 5.99895 6.82602 6.42580
#
# Compressibility (1/GPa) = 0.02779014
#
# Stress axis : x y z
#
# Youngs Moduli (GPa) = 108.41741 25.07023 61.46496
#
# Poissons Ratio (x) = 0.16619 0.02179
# Poissons Ratio (y) = 0.71870 0.72602
# Poissons Ratio (z) = 0.03844 0.29613
#
# Static dielectric constant tensor:
#      x y z
#    x 1.626090 0.000000 0.001310 
#    y 0.000000 1.618240 0.000000 
#    z 0.001310 0.000000 1.590470 
# 
# From -- ./inp_files/248785.got.cif
#   From: 2010.05.17/outbox.cif.g08.bks.cpg/sg12_125_cif.got.tgz:248785.got - 2010.06.03 13:09:07.
