data_PCOD9209273
_publ_section_title
;
Structure prediction by ZEFSAII (Michael W. Deem and Ramdas Pophale) SiO2 
 PCOD9209273
Probable space group: C 2/M
;
_chemical_formula_sum "Si O2"
_cell_formula_units_Z 50
_cell_length_a 15.133472
_cell_length_b 7.941453
_cell_length_c 24.986064
_cell_angle_alpha 90.000000
_cell_angle_beta 45.495611
_cell_angle_gamma 90.000000
_cell_volume 2141.636473
_symmetry_space_group_name_H-M "C 2/M"
_symmetry_group_IT_number 12
_symmetry_cell_setting 'monoclinic'
loop_
_space_group_symop_operation_xyz
x,y,z
-x,y,-z
-x,-y,-z
x,-y,z
1/2+x,1/2+y,z
1/2-x,1/2+y,-z
1/2-x,1/2-y,-z
1/2+x,1/2-y,z
loop_
_atom_site_type_symbol
_atom_site_label
_atom_site_fract_x
_atom_site_fract_y
_atom_site_fract_z
Si Si1 0.780132 0.193323 0.162181
Si Si2 0.623686 0.797030 0.582533
Si Si3 0.890115 0.193183 0.863448
Si Si4 0.500000 0.500000 0.000000
Si Si5 0.125043 0.694893 0.703971
Si Si6 0.949930 0.316245 0.950509
Si Si7 0.858265 0.303805 0.665708
O O1 0.696337 0.243288 0.147786
O O2 0.900647 0.305266 0.120797
O O3 0.694642 0.198581 0.251119
O O4 0.831376 0.000000 0.132483
O O5 0.750000 0.750000 0.500000
O O6 0.622586 0.739261 0.644522
O O7 0.498183 0.737231 0.607158
O O8 0.615740 0.000000 0.587405
O O9 0.030253 0.206493 0.781616
O O10 0.886926 0.295075 0.919700
O O11 0.863216 0.000000 0.886780
O O12 0.427830 0.653606 0.996326
O O13 0.083480 0.500000 0.721654
O O14 0.262100 0.708049 0.669419
O O15 0.918149 0.500000 0.986561
O O16 0.858389 0.500000 0.648796
#
# Coordination Sequence:
#
# PCOD9209273 Si02
#       7
#     8   8   8   2   8   8   8
#     4  11  21  40  68 102 136 170 225 284 334 396
#     4  10  23  42  59  84 127 174 220 272 337 403
#     4  12  23  39  66 103 136 172 227 282 336 397
#     4  12  26  52  72 102 144 186 228 264 336 422
#     4  11  22  38  61  93 127 167 220 280 335 398
#     4  12  25  46  74 102 140 184 222 278 338 400
#     4  10  21  38  61  91 127 167 214 276 332 395
#
# _framework density 23.346630999999999
#
# number of rings (size 3 to 8) (size 9 to 14) (size 15 to 20)
#    0.000    0.960    4.800    2.640    0.000    3.200 
#    0.000    4.000    0.000    0.000    0.000    0.000 
#    0.000    0.000    0.000    0.000    0.000    0.000 
#
# Total GULP energy -139844.586373 kJ/mol
# GULP energy per Si atom -5593.783455 kJ/mol
# Density = 2.329349 g / cm^3
# Si number density = 23.346631 Si / 1000 Ang^3
#
#
#
# Elastic Constant Matrix: (Units=GPa)
#
#
# Indices 1 2 3 4 5 6 
#
# 1 106.0848 -0.4042 8.8626 0.0000 -20.4731 0.0000
# 2 -0.4042 115.4704 5.6548 0.0000 -1.5850 0.0001
# 3 8.8626 5.6548 74.7648 0.0000 -30.3535 0.0000
# 4 0.0000 0.0000 0.0000 28.2328 0.0000 3.1042
# 5 -20.4731 -1.5850 -30.3535 0.0000 44.1542 0.0000
# 6 0.0000 0.0001 0.0000 3.1042 0.0000 25.3906
#
#
#
# Elastic Compliance Matrix: (Units=1/GPa)
#
#
# Indices 1 2 3 4 5 6 
#
# 1 0.010408 0.000063 0.001001 0.000000 0.005516 0.000000
# 2 0.000063 0.008694 -0.000730 0.000000 -0.000161 0.000000
# 3 0.001001 -0.000730 0.018712 0.000000 0.013301 0.000000
# 4 0.000000 0.000000 0.000000 0.035902 0.000000 -0.004389
# 5 0.005516 -0.000161 0.013301 0.000000 0.034344 0.000000
# 6 0.000000 0.000000 0.000000 -0.004389 0.000000 0.039921
#
#
# Mechanical properties :
#
#
# Convention : Reuss Voigt Hill
#
# Bulk Modulus (GPa) = 25.98666 36.06072 31.02369
# Shear Modulus (GPa) = 31.22256 38.36930 34.79593
#
# Velocity S-wave (km/s) = 3.66094 4.05836 3.86476
# Velocity P-wave (km/s) = 5.38748 6.11880 5.76475
#
# Compressibility (1/GPa) = 0.03848128
#
# Stress axis : x y z
#
# Youngs Moduli (GPa) = 96.08380 115.02180 53.44149
#
# Poissons Ratio (x) = -0.00726 -0.05349
# Poissons Ratio (y) = -0.00607 0.03903
# Poissons Ratio (z) = -0.09618 0.08400
#
# Static dielectric constant tensor:
#      x y z
#    x 1.858060 0.000000 -0.018120 
#    y 0.000000 1.861280 0.000000 
#    z -0.018120 0.000000 1.758950 
# 
# From -- ./inp_files/359601.got.cif
#   From: 2010.05.17/outbox.cif.g08.bks.cpg/sg12_180_cif.got.tgz:359601.got - 2010.06.03 13:09:07.
