data_PCOD9209943
_publ_section_title
;
Structure prediction by ZEFSAII (Michael W. Deem and Ramdas Pophale) SiO2 
 PCOD9209943
Probable space group: C 2/M
;
_chemical_formula_sum "Si O2"
_cell_formula_units_Z 44
_cell_length_a 15.290623
_cell_length_b 22.518258
_cell_length_c 6.007486
_cell_angle_alpha 90.000000
_cell_angle_beta 103.894485
_cell_angle_gamma 90.000000
_cell_volume 2007.961980
_symmetry_space_group_name_H-M "C 2/M"
_symmetry_group_IT_number 12
_symmetry_cell_setting 'monoclinic'
loop_
_space_group_symop_operation_xyz
x,y,z
-x,y,-z
-x,-y,-z
x,-y,z
1/2+x,1/2+y,z
1/2-x,1/2+y,-z
1/2-x,1/2-y,-z
1/2+x,1/2-y,z
loop_
_atom_site_type_symbol
_atom_site_label
_atom_site_fract_x
_atom_site_fract_y
_atom_site_fract_z
Si Si1 0.957134 0.000000 0.226678
Si Si2 0.246268 0.869787 0.509891
Si Si3 0.650280 0.066780 0.044474
Si Si4 0.337111 0.593914 0.942813
Si Si5 0.832743 0.784639 0.162541
Si Si6 0.587403 0.833635 0.697591
O O1 0.000000 0.000000 0.500000
O O2 0.898399 0.941474 0.152076
O O3 0.000000 0.000000 0.000000
O O4 0.168368 0.905747 0.328667
O O5 0.202383 0.818881 0.637839
O O6 0.319815 0.841299 0.387303
O O7 0.307387 0.913456 0.695744
O O8 0.738426 0.069101 0.941910
O O9 0.591276 0.119925 0.904449
O O10 0.612671 0.000000 0.023664
O O11 0.355155 0.662031 0.011233
O O12 0.909790 0.735631 0.236108
O O13 0.750000 0.750000 0.000000
O O14 0.500000 0.847212 0.500000
#
# Coordination Sequence:
#
# PCOD9209943 Si02
#       6
#     4   8   8   8   8   8
#     4  12  30  48  70 106 153 184 231 296 362 412
#     4  10  21  38  69  92 123 173 226 264 336 409
#     4  10  21  39  66  91 122 166 227 267 324 414
#     4  10  23  40  68  95 128 177 225 275 332 412
#     4  11  20  41  65  96 124 172 228 273 329 423
#     4  11  24  40  60  94 131 164 209 284 342 397
#
# _framework density 21.912765
#
# number of rings (size 3 to 8) (size 9 to 14) (size 15 to 20)
#    0.000    1.455    6.364    0.545    6.364    2.545 
#    0.000    0.909    0.000    0.000    0.000    0.000 
#    0.000    0.000    0.000    0.000    0.000    0.000 
#
# Total GULP energy -122522.899916 kJ/mol
# GULP energy per Si atom -5569.222723 kJ/mol
# Density = 2.186289 g / cm^3
# Si number density = 21.912765 Si / 1000 Ang^3
#
#
#
# Elastic Constant Matrix: (Units=GPa)
#
#
# Indices 1 2 3 4 5 6 
#
# 1 22.9848 7.1598 26.2079 0.0000 4.5734 0.0000
# 2 7.1598 135.9919 63.7888 0.0000 19.6036 0.0000
# 3 26.2079 63.7888 192.3919 0.0000 27.7933 0.0000
# 4 0.0000 0.0000 0.0000 25.2892 0.0000 11.9253
# 5 4.5734 19.6036 27.7933 0.0000 30.6728 0.0000
# 6 0.0000 0.0000 0.0000 11.9253 0.0000 2.3566
#
#
#
# Elastic Compliance Matrix: (Units=1/GPa)
#
#
# Indices 1 2 3 4 5 6 
#
# 1 0.051650 0.000856 -0.007051 0.000000 -0.001859 0.000000
# 2 0.000856 0.009040 -0.002601 0.000000 -0.003548 0.000000
# 3 -0.007051 -0.002601 0.007627 0.000000 -0.004197 0.000000
# 4 0.000000 0.000000 0.000000 -0.028525 0.000000 0.144346
# 5 -0.001859 -0.003548 -0.004197 0.000000 0.038950 0.000000
# 6 0.000000 0.000000 0.000000 0.144346 0.000000 -0.306104
#
#
# Mechanical properties :
#
#
# Convention : Reuss Voigt Hill
#
# Bulk Modulus (GPa) = 19.71432 60.63130 40.17281
# Shear Modulus (GPa) = -25.92541 28.61122 1.34290
#
# Velocity S-wave (km/s) = -3.44338 3.61735 0.78369
# Velocity P-wave (km/s) = 2.60632 6.72134 4.38084
#
# Compressibility (1/GPa) = 0.05072455
#
# Stress axis : x y z
#
# Youngs Moduli (GPa) = 19.36101 110.62001 131.11240
#
# Poissons Ratio (x) = -0.09470 0.92449
# Poissons Ratio (y) = -0.01658 0.34106
# Poissons Ratio (z) = 0.13652 0.28776
#
# Static dielectric constant tensor:
#      x y z
#    x 0.149380 0.000000 -0.346580 
#    y 0.000000 1.858580 0.000000 
#    z -0.346580 0.000000 1.824490 
# 
# From -- ./inp_files/17010.got.cif
#   From: 2010.05.17/outbox.cif.g08.bks.cpg/sg12_9_cif.got.tgz:17010.got - 2010.06.03 13:09:07.
