data_PCOD9209522
_publ_section_title
;
Structure prediction by ZEFSAII (Michael W. Deem and Ramdas Pophale) SiO2 
 PCOD9209522
Probable space group: C 2/M
;
_chemical_formula_sum "Si O2"
_cell_formula_units_Z 64
_cell_length_a 14.990810
_cell_length_b 8.894142
_cell_length_c 33.928175
_cell_angle_alpha 90.000000
_cell_angle_beta 42.837584
_cell_angle_gamma 90.000000
_cell_volume 3075.735923
_symmetry_space_group_name_H-M "C 2/M"
_symmetry_group_IT_number 12
_symmetry_cell_setting 'monoclinic'
loop_
_space_group_symop_operation_xyz
x,y,z
-x,y,-z
-x,-y,-z
x,-y,z
1/2+x,1/2+y,z
1/2-x,1/2+y,-z
1/2-x,1/2-y,-z
1/2+x,1/2-y,z
loop_
_atom_site_type_symbol
_atom_site_label
_atom_site_fract_x
_atom_site_fract_y
_atom_site_fract_z
Si Si1 0.601141 0.824372 0.589911
Si Si2 0.022175 0.822373 0.294736
Si Si3 0.579621 0.173107 0.892712
Si Si4 0.836661 0.174804 0.005304
Si Si5 0.417012 0.677182 0.487850
Si Si6 0.702133 0.677925 0.781744
Si Si7 0.207332 0.669693 0.132234
Si Si8 0.089935 0.325826 0.743819
O O1 0.536030 0.721839 0.644174
O O2 0.558537 0.770635 0.560071
O O3 0.759124 0.810727 0.544141
O O4 0.566586 0.000000 0.606855
O O5 0.157568 0.730456 0.247216
O O6 0.926055 0.764623 0.291440
O O7 0.045916 0.000000 0.283709
O O8 0.475042 0.241899 0.956858
O O9 0.591318 0.260312 0.847617
O O10 0.719024 0.201090 0.867921
O O11 0.550752 0.000000 0.894476
O O12 0.860019 0.000000 0.989644
O O13 0.750000 0.250000 0.000000
O O14 0.757617 0.184458 0.071484
O O15 0.500000 0.722927 0.500000
O O16 0.446583 0.500000 0.471389
O O17 0.694257 0.500000 0.781745
O O18 0.686166 0.752145 0.744149
O O19 0.248305 0.500000 0.132752
O O20 0.053062 0.678948 0.188897
O O21 0.122843 0.500000 0.725508
#
# Coordination Sequence:
#
# PCOD9209522 Si02
#       8
#     8   8   8   8   8   8   8   8
#     4  10  21  38  62  93 130 171 215 265 318 370
#     4  12  25  43  65  93 130 172 219 268 320 377
#     4  12  24  39  61  88 119 157 204 254 317 386
#     4  11  23  39  59  86 119 153 199 253 316 384
#     4   9  19  38  64  94 130 172 215 260 314 373
#     4  12  25  43  66  92 124 164 213 267 324 384
#     4  10  22  40  62  86 117 157 200 252 315 382
#     4  11  23  42  67  94 126 164 210 263 324 388
#
# _framework density 20.808029000000001
#
# number of rings (size 3 to 8) (size 9 to 14) (size 15 to 20)
#    0.000    1.125    1.250    5.625    0.000    5.750 
#    0.000    3.750    0.000    0.000    0.000    0.000 
#    0.000    0.000    0.000    0.000    0.000    0.000 
#
# Total GULP energy -178921.223529 kJ/mol
# GULP energy per Si atom -5591.288235 kJ/mol
# Density = 2.076067 g / cm^3
# Si number density = 20.808029 Si / 1000 Ang^3
#
#
#
# Elastic Constant Matrix: (Units=GPa)
#
#
# Indices 1 2 3 4 5 6 
#
# 1 76.5487 10.1727 -5.3200 0.0003 25.8355 0.0004
# 2 10.1727 101.6866 15.9683 0.0006 8.2755 0.0005
# 3 -5.3200 15.9683 50.5006 0.0001 18.8170 0.0001
# 4 0.0003 0.0006 0.0001 30.8882 0.0001 3.7281
# 5 25.8355 8.2755 18.8170 0.0001 23.3513 0.0000
# 6 0.0004 0.0005 0.0001 3.7281 0.0000 33.7004
#
#
#
# Elastic Compliance Matrix: (Units=1/GPa)
#
#
# Indices 1 2 3 4 5 6 
#
# 1 0.035736 -0.002930 0.027205 0.000000 -0.060422 0.000000
# 2 -0.002930 0.010624 -0.004963 0.000000 0.003476 0.000000
# 3 0.027205 -0.004963 0.049728 0.000000 -0.068412 0.000000
# 4 0.000000 0.000000 0.000000 0.032813 0.000000 -0.003630
# 5 -0.060422 0.003476 -0.068412 0.000000 0.163570 0.000001
# 6 0.000000 0.000000 0.000000 -0.003630 0.000001 0.030075
#
#
# Mechanical properties :
#
#
# Convention : Reuss Voigt Hill
#
# Bulk Modulus (GPa) = 7.42326 30.04198 18.73262
# Shear Modulus (GPa) = 15.20564 31.44896 23.32730
#
# Velocity S-wave (km/s) = 2.70619 3.89187 3.35187
# Velocity P-wave (km/s) = 3.65237 5.88766 4.89921
#
# Compressibility (1/GPa) = 0.13471170
#
# Stress axis : x y z
#
# Youngs Moduli (GPa) = 27.98280 94.12894 20.10946
#
# Poissons Ratio (x) = 0.27578 -0.54707
# Poissons Ratio (y) = 0.08199 0.09980
# Poissons Ratio (z) = -0.76127 0.46716
#
# Static dielectric constant tensor:
#      x y z
#    x 1.772290 0.000000 -0.028150 
#    y 0.000000 1.697730 0.000000 
#    z -0.028150 0.000000 1.781090 
# 
# From -- ./inp_files/375469.got.cif
#   From: 2010.05.17/outbox.cif.g08.bks.cpg/sg12_188_cif.got.tgz:375469.got - 2010.06.03 13:09:07.
