data_PCOD9209159
_publ_section_title
;
Structure prediction by ZEFSAII (Michael W. Deem and Ramdas Pophale) SiO2 
 PCOD9209159
Probable space group: C 2/M
;
_chemical_formula_sum "Si O2"
_cell_formula_units_Z 56
_cell_length_a 18.853083
_cell_length_b 8.817341
_cell_length_c 18.772171
_cell_angle_alpha 90.000000
_cell_angle_beta 74.857559
_cell_angle_gamma 90.000000
_cell_volume 3012.226026
_symmetry_space_group_name_H-M "C 2/M"
_symmetry_group_IT_number 12
_symmetry_cell_setting 'monoclinic'
loop_
_space_group_symop_operation_xyz
x,y,z
-x,y,-z
-x,-y,-z
x,-y,z
1/2+x,1/2+y,z
1/2-x,1/2+y,-z
1/2-x,1/2-y,-z
1/2+x,1/2-y,z
loop_
_atom_site_type_symbol
_atom_site_label
_atom_site_fract_x
_atom_site_fract_y
_atom_site_fract_z
Si Si1 0.430945 0.681619 0.568985
Si Si2 0.846087 0.680893 0.297326
Si Si3 0.052129 0.179152 0.127154
Si Si4 0.826857 0.320087 0.004158
Si Si5 0.117561 0.819688 0.863312
Si Si6 0.775554 0.319145 0.568384
Si Si7 0.000641 0.818218 0.297136
O O1 0.500000 0.715837 0.500000
O O2 0.417412 0.500000 0.568333
O O3 0.358247 0.767386 0.563817
O O4 0.454792 0.718360 0.643461
O O5 0.840600 0.500000 0.300041
O O6 0.849754 0.741334 0.215521
O O7 0.778926 0.754421 0.357288
O O8 0.922719 0.734087 0.313164
O O9 0.044829 0.215382 0.212952
O O10 0.970594 0.203195 0.116798
O O11 0.069713 0.000000 0.115152
O O12 0.111567 0.275252 0.069729
O O13 0.820964 0.500000 0.012103
O O14 0.850481 0.249033 0.073275
O O15 0.750000 0.250000 0.000000
O O16 0.130604 0.000000 0.856498
O O17 0.770440 0.500000 0.566990
O O18 0.750000 0.250000 0.500000
O O19 0.985726 0.000000 0.300685
#
# Coordination Sequence:
#
# PCOD9209159 Si02
#       7
#     8   8   8   8   8   8   8
#     4  10  21  38  61  88 119 155 195 241 295 350
#     4  11  22  38  62  91 122 154 193 239 288 345
#     4   9  19  37  60  85 116 154 194 238 291 349
#     4  12  25  39  57  83 117 155 198 246 295 348
#     4  10  21  40  64  88 117 153 193 238 292 351
#     4  12  25  41  61  86 119 157 200 245 291 345
#     4   9  19  37  61  88 120 156 192 236 291 349
#
# _framework density 18.590900999999999
#
# number of rings (size 3 to 8) (size 9 to 14) (size 15 to 20)
#    0.000    1.571    0.000    6.429    0.000    7.714 
#    0.000    4.286    0.000    0.000    0.000    0.000 
#    0.000    0.000    0.000    0.000    0.000    0.000 
#
# Total GULP energy -156571.267068 kJ/mol
# GULP energy per Si atom -5591.830967 kJ/mol
# Density = 1.854859 g / cm^3
# Si number density = 18.590901 Si / 1000 Ang^3
#
#
#
# Elastic Constant Matrix: (Units=GPa)
#
#
# Indices 1 2 3 4 5 6 
#
# 1 130.4906 97.3173 108.5936 0.0000 10.1895 0.0000
# 2 97.3173 140.2928 88.3103 0.0000 -0.7229 0.0000
# 3 108.5936 88.3103 130.8859 0.0000 7.7599 0.0000
# 4 0.0000 0.0000 0.0000 32.1467 0.0000 -2.7580
# 5 10.1895 -0.7229 7.7599 0.0000 34.2241 0.0000
# 6 0.0000 0.0000 0.0000 -2.7580 0.0000 36.7462
#
#
#
# Elastic Compliance Matrix: (Units=1/GPa)
#
#
# Indices 1 2 3 4 5 6 
#
# 1 0.030949 -0.009601 -0.018896 0.000000 -0.005133 0.000000
# 2 -0.009601 0.015532 -0.002740 0.000000 0.003808 0.000000
# 3 -0.018896 -0.002740 0.025175 0.000000 -0.000140 0.000000
# 4 0.000000 0.000000 0.000000 0.031309 0.000000 0.002350
# 5 -0.005133 0.003808 -0.000140 0.000000 0.030860 0.000000
# 6 0.000000 0.000000 0.000000 0.002350 0.000000 0.027390
#
#
# Mechanical properties :
#
#
# Convention : Reuss Voigt Hill
#
# Bulk Modulus (GPa) = 108.89717 110.01240 109.45478
# Shear Modulus (GPa) = 22.05077 27.78662 24.91870
#
# Velocity S-wave (km/s) = 3.44772 3.87025 3.66508
# Velocity P-wave (km/s) = 8.63434 8.90368 8.77004
#
# Compressibility (1/GPa) = 0.00918298
#
# Stress axis : x y z
#
# Youngs Moduli (GPa) = 32.31073 64.38355 39.72191
#
# Poissons Ratio (x) = 0.61812 0.75059
# Poissons Ratio (y) = 0.31020 0.10883
# Poissons Ratio (z) = 0.61055 0.17640
#
# Static dielectric constant tensor:
#      x y z
#    x 1.606580 0.000000 0.004150 
#    y 0.000000 1.622030 0.000000 
#    z 0.004150 0.000000 1.626790 
# 
# From -- ./inp_files/275015.got.cif
#   From: 2010.05.17/outbox.cif.g08.bks.cpg/sg12_138_cif.got.tgz:275015.got - 2010.06.03 13:09:07.
