data_PCOD9209128
_publ_section_title
;
Structure prediction by ZEFSAII (Michael W. Deem and Ramdas Pophale) SiO2 
 PCOD9209128
Probable space group: C 2/M
;
_chemical_formula_sum "Si O2"
_cell_formula_units_Z 48
_cell_length_a 23.855658
_cell_length_b 8.575276
_cell_length_c 12.495269
_cell_angle_alpha 90.000000
_cell_angle_beta 68.576435
_cell_angle_gamma 90.000000
_cell_volume 2379.527848
_symmetry_space_group_name_H-M "C 2/M"
_symmetry_group_IT_number 12
_symmetry_cell_setting 'monoclinic'
loop_
_space_group_symop_operation_xyz
x,y,z
-x,y,-z
-x,-y,-z
x,-y,z
1/2+x,1/2+y,z
1/2-x,1/2+y,-z
1/2-x,1/2-y,-z
1/2+x,1/2-y,z
loop_
_atom_site_type_symbol
_atom_site_label
_atom_site_fract_x
_atom_site_fract_y
_atom_site_fract_z
Si Si1 0.575467 0.688425 0.263940
Si Si2 0.349923 0.688746 0.176442
Si Si3 0.552511 0.688017 0.722270
Si Si4 0.738088 0.313668 0.389380
Si Si5 0.317757 0.311728 0.960875
Si Si6 0.893697 0.314650 0.536686
O O1 0.576749 0.500000 0.271413
O O2 0.517519 0.732837 0.233514
O O3 0.637308 0.740472 0.164505
O O4 0.569176 0.757367 0.386588
O O5 0.347479 0.500000 0.182737
O O6 0.408502 0.740082 0.202851
O O7 0.291398 0.755158 0.276542
O O8 0.346567 0.734027 0.054833
O O9 0.554931 0.500000 0.718722
O O10 0.582776 0.747855 0.591954
O O11 0.736383 0.500000 0.392084
O O12 0.750000 0.250000 0.500000
O O13 0.673778 0.248360 0.398773
O O14 0.315324 0.500000 0.958759
O O15 0.250000 0.250000 0.000000
O O16 0.893718 0.500000 0.531192
#
# Coordination Sequence:
#
# PCOD9209128 Si02
#       6
#     8   8   8   8   8   8
#     4  10  22  40  61  87 119 160 204 247 298 356
#     4  10  21  38  61  90 122 157 198 246 298 356
#     4  10  21  38  61  87 120 159 199 247 303 359
#     4  12  23  37  59  88 120 155 195 243 297 353
#     4  10  22  40  62  88 118 154 201 249 297 355
#     4  12  24  38  59  88 122 160 202 250 300 354
#
# _framework density 20.172070000000001
#
# number of rings (size 3 to 8) (size 9 to 14) (size 15 to 20)
#    0.000    1.333    1.667    4.500    0.000    7.333 
#    0.000    3.333    0.000    0.000    0.000    4.667 
#    0.000    0.000    0.000    0.000    0.000    0.000 
#
# Total GULP energy -134187.657796 kJ/mol
# GULP energy per Si atom -5591.152408 kJ/mol
# Density = 2.012616 g / cm^3
# Si number density = 20.172070 Si / 1000 Ang^3
#
#
#
# Elastic Constant Matrix: (Units=GPa)
#
#
# Indices 1 2 3 4 5 6 
#
# 1 134.4393 23.7618 39.4326 0.0000 12.4208 0.0000
# 2 23.7618 6.5770 9.3639 0.0000 1.4244 0.0000
# 3 39.4326 9.3639 90.9995 0.0000 18.6648 0.0000
# 4 0.0000 0.0000 0.0000 21.1303 0.0000 -3.4745
# 5 12.4208 1.4244 18.6648 0.0000 27.4201 0.0000
# 6 0.0000 0.0000 0.0000 -3.4745 0.0000 22.3514
#
#
#
# Elastic Compliance Matrix: (Units=1/GPa)
#
#
# Indices 1 2 3 4 5 6 
#
# 1 0.021450 -0.075784 -0.000362 0.000000 -0.005533 0.000000
# 2 -0.075784 0.446219 -0.017856 0.000000 0.023303 0.000000
# 3 -0.000362 -0.017856 0.014830 0.000000 -0.009003 0.000000
# 4 0.000000 0.000000 0.000000 0.048567 0.000000 0.007550
# 5 -0.005533 0.023303 -0.009003 0.000000 0.043894 0.000000
# 6 0.000000 0.000000 0.000000 0.007550 0.000000 0.045914
#
#
# Mechanical properties :
#
#
# Convention : Reuss Voigt Hill
#
# Bulk Modulus (GPa) = 3.39564 41.90360 22.64962
# Shear Modulus (GPa) = 5.51242 24.81084 15.16163
#
# Velocity S-wave (km/s) = 1.65488 3.51088 2.74453
# Velocity P-wave (km/s) = 2.31052 6.10354 4.61474
#
# Compressibility (1/GPa) = 0.29449542
#
# Stress axis : x y z
#
# Youngs Moduli (GPa) = 46.61945 2.24105 67.43107
#
# Poissons Ratio (x) = 0.16984 0.02440
# Poissons Ratio (y) = 3.53299 1.20408
# Poissons Ratio (z) = 0.01687 0.04002
#
# Static dielectric constant tensor:
#      x y z
#    x 1.732860 0.000000 0.012330 
#    y 0.000000 1.685940 0.000000 
#    z 0.012330 0.000000 1.689560 
# 
# From -- ./inp_files/172027.got.cif
#   From: 2010.05.17/outbox.cif.g08.bks.cpg/sg12_87_cif.got.tgz:172027.got - 2010.06.03 13:09:07.
