data_PCOD9209771
_publ_section_title
;
Structure prediction by ZEFSAII (Michael W. Deem and Ramdas Pophale) SiO2 
 PCOD9209771
Probable space group: C 2/M
;
_chemical_formula_sum "Si O2"
_cell_formula_units_Z 40
_cell_length_a 10.682359
_cell_length_b 15.943355
_cell_length_c 10.972833
_cell_angle_alpha 90.000000
_cell_angle_beta 53.424258
_cell_angle_gamma 90.000000
_cell_volume 1500.786684
_symmetry_space_group_name_H-M "C 2/M"
_symmetry_group_IT_number 12
_symmetry_cell_setting 'monoclinic'
loop_
_space_group_symop_operation_xyz
x,y,z
-x,y,-z
-x,-y,-z
x,-y,z
1/2+x,1/2+y,z
1/2-x,1/2+y,-z
1/2-x,1/2-y,-z
1/2+x,1/2-y,z
loop_
_atom_site_type_symbol
_atom_site_label
_atom_site_fract_x
_atom_site_fract_y
_atom_site_fract_z
Si Si1 0.434894 0.722498 0.404205
Si Si2 0.825642 0.094239 0.281694
Si Si3 0.460627 0.908028 0.365283
Si Si4 0.813621 0.765586 0.097813
Si Si5 0.834269 0.410806 0.169081
O O1 0.500000 0.699452 0.500000
O O2 0.250000 0.750000 0.500000
O O3 0.437778 0.649247 0.302829
O O4 0.518042 0.811061 0.324781
O O5 0.660044 0.092104 0.450955
O O6 0.801609 0.144067 0.170502
O O7 0.881627 0.000000 0.233594
O O8 0.366925 0.913471 0.293413
O O9 0.545302 0.000000 0.317198
O O10 0.756954 0.679465 0.194949
O O11 0.750000 0.750000 0.000000
O O12 0.000000 0.755592 0.000000
O O13 0.754897 0.500000 0.181246
O O14 0.000000 0.412286 0.000000
#
# Coordination Sequence:
#
# PCOD9209771 Si02
#       5
#     8   8   8   8   8
#     4  10  21  38  64  94 134 173 220 274 340 403
#     4  10  22  42  65  97 138 181 228 283 340 409
#     4   9  18  37  65  97 132 172 221 283 348 399
#     4  11  25  44  70  97 132 178 230 280 349 412
#     4   9  18  37  63  95 131 170 221 281 341 405
#
# _framework density 26.652688000000001
#
# number of rings (size 3 to 8) (size 9 to 14) (size 15 to 20)
#    0.000    2.200    2.000    0.000    0.000    5.200 
#    0.000    0.000    0.000    0.000    0.000    0.000 
#    0.000    0.000    0.000    0.000    0.000    0.000 
#
# Total GULP energy -111645.656339 kJ/mol
# GULP energy per Si atom -5582.282817 kJ/mol
# Density = 2.659203 g / cm^3
# Si number density = 26.652688 Si / 1000 Ang^3
#
#
#
# Elastic Constant Matrix: (Units=GPa)
#
#
# Indices 1 2 3 4 5 6 
#
# 1 149.5411 53.4511 43.0783 0.0000 39.4492 0.0000
# 2 53.4511 351.0257 68.1718 0.0000 43.9912 0.0000
# 3 43.0783 68.1718 112.5850 0.0000 41.6745 0.0000
# 4 0.0000 0.0000 0.0000 65.3854 0.0000 14.4999
# 5 39.4492 43.9912 41.6745 0.0000 56.2888 0.0000
# 6 0.0000 0.0000 0.0000 14.4999 0.0000 5.2142
#
#
#
# Elastic Compliance Matrix: (Units=1/GPa)
#
#
# Indices 1 2 3 4 5 6 
#
# 1 0.008430 -0.000464 -0.001229 0.000000 -0.004636 0.000000
# 2 -0.000464 0.003346 -0.001379 0.000000 -0.001269 0.000000
# 3 -0.001229 -0.001379 0.013044 0.000000 -0.007719 0.000000
# 4 0.000000 0.000000 0.000000 0.039899 0.000000 -0.110954
# 5 -0.004636 -0.001269 -0.007719 0.000000 0.027721 0.000000
# 6 0.000000 0.000000 0.000000 -0.110954 0.000000 0.500334
#
#
# Mechanical properties :
#
#
# Convention : Reuss Voigt Hill
#
# Bulk Modulus (GPa) = 53.54028 104.72828 79.13428
# Shear Modulus (GPa) = 8.26250 55.27438 31.76844
#
# Velocity S-wave (km/s) = 1.76261 4.55892 3.45620
# Velocity P-wave (km/s) = 4.92688 8.19089 6.75888
#
# Compressibility (1/GPa) = 0.01867753
#
# Stress axis : x y z
#
# Youngs Moduli (GPa) = 118.62677 298.83793 76.66070
#
# Poissons Ratio (x) = 0.13868 0.09418
# Poissons Ratio (y) = 0.05505 0.10571
# Poissons Ratio (z) = 0.14574 0.41207
#
# Static dielectric constant tensor:
#      x y z
#    x 2.136810 0.000000 -0.050710 
#    y 0.000000 2.141190 0.000000 
#    z -0.050710 0.000000 2.159000 
# 
# From -- ./inp_files/129598.got.cif
#   From: 2010.05.17/outbox.cif.g08.bks.cpg/sg12_65_cif.got.tgz:129598.got - 2010.06.03 13:09:07.
