data_PCOD9209207
_publ_section_title
;
Structure prediction by ZEFSAII (Michael W. Deem and Ramdas Pophale) SiO2 
 PCOD9209207
Probable space group: C 2/M
;
_chemical_formula_sum "Si O2"
_cell_formula_units_Z 56
_cell_length_a 27.808469
_cell_length_b 8.643366
_cell_length_c 13.916245
_cell_angle_alpha 90.000000
_cell_angle_beta 59.922619
_cell_angle_gamma 90.000000
_cell_volume 2894.499737
_symmetry_space_group_name_H-M "C 2/M"
_symmetry_group_IT_number 12
_symmetry_cell_setting 'monoclinic'
loop_
_space_group_symop_operation_xyz
x,y,z
-x,y,-z
-x,-y,-z
x,-y,z
1/2+x,1/2+y,z
1/2-x,1/2+y,-z
1/2-x,1/2-y,-z
1/2+x,1/2-y,z
loop_
_atom_site_type_symbol
_atom_site_label
_atom_site_fract_x
_atom_site_fract_y
_atom_site_fract_z
Si Si1 0.796613 0.813475 0.881986
Si Si2 0.016783 0.186318 0.591824
Si Si3 0.867462 0.683568 0.448637
Si Si4 0.062439 0.684718 0.970154
Si Si5 0.156619 0.183537 0.737248
Si Si6 0.274624 0.685579 0.684148
Si Si7 0.917733 0.813295 0.837955
O O1 0.785288 0.765514 0.783645
O O2 0.857942 0.766396 0.855447
O O3 0.794505 0.000000 0.886413
O O4 0.750000 0.750000 0.000000
O O5 0.073202 0.266846 0.568141
O O6 0.000000 0.227506 0.500000
O O7 0.966718 0.224958 0.714370
O O8 0.025154 0.000000 0.586326
O O9 0.865055 0.500000 0.437872
O O10 0.858272 0.764538 0.355393
O O11 0.819545 0.738047 0.569227
O O12 0.069285 0.500000 0.954472
O O13 0.107122 0.766774 0.857499
O O14 0.071744 0.735995 0.070208
O O15 0.000000 0.724940 0.000000
O O16 0.213240 0.265590 0.713636
O O17 0.164481 0.000000 0.732824
O O18 0.280407 0.500000 0.672692
O O19 0.917417 0.000000 0.850137
#
# Coordination Sequence:
#
# PCOD9209207 Si02
#       7
#     8   8   8   8   8   8   8
#     4  10  22  39  61  89 121 157 197 244 296 354
#     4  10  21  40  65  91 122 162 206 252 303 358
#     4  12  25  41  62  91 125 160 201 249 303 362
#     4  11  24  41  61  88 122 159 201 250 302 357
#     4  12  25  42  64  90 121 158 202 251 304 362
#     4  11  23  42  65  90 122 160 202 248 302 360
#     4  10  21  38  61  89 120 157 202 247 297 358
#
# _framework density 19.347038000000001
#
# number of rings (size 3 to 8) (size 9 to 14) (size 15 to 20)
#    0.000    1.143    0.000    6.429    0.000   10.571 
#    0.000    1.429    0.000    0.000    0.000    0.000 
#    0.000    0.000    0.000    0.000    0.000    0.000 
#
# Total GULP energy -156707.188670 kJ/mol
# GULP energy per Si atom -5596.685310 kJ/mol
# Density = 1.930300 g / cm^3
# Si number density = 19.347038 Si / 1000 Ang^3
#
#
#
# Elastic Constant Matrix: (Units=GPa)
#
#
# Indices 1 2 3 4 5 6 
#
# 1 109.5091 -2.8218 28.3151 0.0000 3.5159 0.0000
# 2 -2.8218 15.1703 0.0922 0.0000 -1.5656 0.0000
# 3 28.3151 0.0922 123.6536 0.0000 5.2529 0.0000
# 4 0.0000 0.0000 0.0000 18.6046 0.0000 0.9085
# 5 3.5159 -1.5656 5.2529 0.0000 42.8223 0.0000
# 6 0.0000 0.0000 0.0000 0.9085 0.0000 27.2241
#
#
#
# Elastic Compliance Matrix: (Units=1/GPa)
#
#
# Indices 1 2 3 4 5 6 
#
# 1 0.009766 0.001782 -0.002218 0.000000 -0.000465 0.000000
# 2 0.001782 0.066496 -0.000558 0.000000 0.002353 0.000000
# 3 -0.002218 -0.000558 0.008634 0.000000 -0.000897 0.000000
# 4 0.000000 0.000000 0.000000 0.053838 0.000000 -0.001797
# 5 -0.000465 0.002353 -0.000897 0.000000 0.023587 0.000000
# 6 0.000000 0.000000 0.000000 -0.001797 0.000000 0.036792
#
#
# Mechanical properties :
#
#
# Convention : Reuss Voigt Hill
#
# Bulk Modulus (GPa) = 12.06146 33.27821 22.66984
# Shear Modulus (GPa) = 21.85934 32.58004 27.21969
#
# Velocity S-wave (km/s) = 3.36498 4.10809 3.75496
# Velocity P-wave (km/s) = 4.62009 6.30395 5.52653
#
# Compressibility (1/GPa) = 0.08290870
#
# Stress axis : x y z
#
# Youngs Moduli (GPa) = 102.39652 15.03849 115.82774
#
# Poissons Ratio (x) = -0.02680 0.25689
# Poissons Ratio (y) = -0.18248 0.06459
# Poissons Ratio (z) = 0.22710 0.00839
#
# Static dielectric constant tensor:
#      x y z
#    x 1.639660 0.000000 0.003580 
#    y 0.000000 1.658410 0.000000 
#    z 0.003580 0.000000 1.631750 
# 
# From -- ./inp_files/180663.got.cif
#   From: 2010.05.17/outbox.cif.g08.bks.cpg/sg12_91_cif.got.tgz:180663.got - 2010.06.03 13:09:07.
