data_PCOD9209059
_publ_section_title
;
Structure prediction by ZEFSAII (Michael W. Deem and Ramdas Pophale) SiO2 
 PCOD9209059
Probable space group: C 2/M
;
_chemical_formula_sum "Si O2"
_cell_formula_units_Z 50
_cell_length_a 8.975235
_cell_length_b 13.966144
_cell_length_c 19.741270
_cell_angle_alpha 90.000000
_cell_angle_beta 76.596930
_cell_angle_gamma 90.000000
_cell_volume 2407.158465
_symmetry_space_group_name_H-M "C 2/M"
_symmetry_group_IT_number 12
_symmetry_cell_setting 'monoclinic'
loop_
_space_group_symop_operation_xyz
x,y,z
-x,y,-z
-x,-y,-z
x,-y,z
1/2+x,1/2+y,z
1/2-x,1/2+y,-z
1/2-x,1/2-y,-z
1/2+x,1/2-y,z
loop_
_atom_site_type_symbol
_atom_site_label
_atom_site_fract_x
_atom_site_fract_y
_atom_site_fract_z
Si Si1 0.588397 0.885808 0.660751
Si Si2 0.576794 0.703008 0.743819
Si Si3 0.731473 0.276429 0.163100
Si Si4 0.283633 0.114782 0.608879
Si Si5 0.674994 0.383079 0.475778
Si Si6 0.536286 0.184709 0.065216
Si Si7 0.000000 0.500000 0.000000
O O1 0.572320 0.816333 0.726046
O O2 0.445637 0.863060 0.626339
O O3 0.740539 0.858423 0.602722
O O4 0.588084 0.000000 0.675123
O O5 0.405214 0.672677 0.781140
O O6 0.691648 0.697426 0.795380
O O7 0.648747 0.652207 0.671406
O O8 0.647518 0.232975 0.106664
O O9 0.875567 0.335481 0.120512
O O10 0.265120 0.148461 0.533682
O O11 0.273540 0.000000 0.608289
O O12 0.500000 0.351440 0.500000
O O13 0.675729 0.500000 0.476346
O O14 0.593751 0.084953 0.029973
O O15 0.500000 0.243951 0.000000
#
# Coordination Sequence:
#
# PCOD9209059 Si02
#       7
#     8   8   8   8   8   8   2
#     4  10  21  39  60  80 110 160 205 254 302 356
#     4  11  22  39  55  88 122 160 199 241 289 370
#     4  10  21  38  61  84 124 158 188 225 295 340
#     4  10  21  39  57  80 115 156 202 250 305 361
#     4   9  19  34  57  85 111 146 202 264 314 348
#     4   9  19  40  65  91 117 152 191 236 272 342
#     4   8  20  36  68 102 116 142 200 238 272 332
#
# _framework density 20.771379
#
# number of rings (size 3 to 8) (size 9 to 14) (size 15 to 20)
#    0.480    1.760    1.600    0.960    2.240    2.560 
#    8.640    0.000    0.000    3.840    0.000    0.000 
#    0.000    0.000    0.000    0.000    0.000    0.000 
#
# Total GULP energy -139172.196163 kJ/mol
# GULP energy per Si atom -5566.887847 kJ/mol
# Density = 2.072410 g / cm^3
# Si number density = 20.771379 Si / 1000 Ang^3
#
#
#
# Elastic Constant Matrix: (Units=GPa)
#
#
# Indices 1 2 3 4 5 6 
#
# 1 84.1963 5.1210 15.9719 0.0000 -6.5330 0.0000
# 2 5.1210 28.4046 3.7923 0.0000 10.9731 0.0000
# 3 15.9719 3.7923 79.5569 0.0000 3.7119 0.0000
# 4 0.0000 0.0000 0.0000 1.0009 0.0000 2.9286
# 5 -6.5330 10.9731 3.7119 0.0000 41.0687 0.0000
# 6 0.0000 0.0000 0.0000 2.9286 0.0000 10.7985
#
#
#
# Elastic Compliance Matrix: (Units=1/GPa)
#
#
# Indices 1 2 3 4 5 6 
#
# 1 0.012798 -0.003168 -0.002564 0.000000 0.003114 0.000000
# 2 -0.003168 0.040195 -0.000759 0.000000 -0.011175 0.000000
# 3 -0.002564 -0.000759 0.013186 0.000000 -0.001397 0.000000
# 4 0.000000 0.000000 0.000000 4.837932 0.000000 -1.312055
# 5 0.003114 -0.011175 -0.001397 0.000000 0.027957 0.000000
# 6 0.000000 0.000000 0.000000 -1.312055 0.000000 0.448437
#
#
# Mechanical properties :
#
#
# Convention : Reuss Voigt Hill
#
# Bulk Modulus (GPa) = 18.79765 26.88090 22.83928
# Shear Modulus (GPa) = 0.92401 21.72516 11.32458
#
# Velocity S-wave (km/s) = 0.66769 3.23757 2.33749
# Velocity P-wave (km/s) = 3.10867 5.19088 4.27838
#
# Compressibility (1/GPa) = 0.05319813
#
# Stress axis : x y z
#
# Youngs Moduli (GPa) = 78.13963 24.87868 75.84028
#
# Poissons Ratio (x) = 0.07881 0.19442
# Poissons Ratio (y) = 0.24754 0.05753
# Poissons Ratio (z) = 0.20031 0.01887
#
# Static dielectric constant tensor:
#      x y z
#    x 1.770880 0.000000 0.010210 
#    y 0.000000 1.721710 0.000000 
#    z 0.010210 0.000000 1.794490 
# 
# From -- ./inp_files/299830.got.cif
#   From: 2010.05.17/outbox.cif.g08.bks.cpg/sg12_150_cif.got.tgz:299830.got - 2010.06.03 13:09:07.
