data_PCOD9209457
_publ_section_title
;
Structure prediction by ZEFSAII (Michael W. Deem and Ramdas Pophale) SiO2 
 PCOD9209457
Probable space group: C 2/M
;
_chemical_formula_sum "Si O2"
_cell_formula_units_Z 48
_cell_length_a 15.407347
_cell_length_b 8.770093
_cell_length_c 27.247290
_cell_angle_alpha 90.000000
_cell_angle_beta 135.237328
_cell_angle_gamma 90.000000
_cell_volume 2592.590896
_symmetry_space_group_name_H-M "C 2/M"
_symmetry_group_IT_number 12
_symmetry_cell_setting 'monoclinic'
loop_
_space_group_symop_operation_xyz
x,y,z
-x,y,-z
-x,-y,-z
x,-y,z
1/2+x,1/2+y,z
1/2-x,1/2+y,-z
1/2-x,1/2-y,-z
1/2+x,1/2-y,z
loop_
_atom_site_type_symbol
_atom_site_label
_atom_site_fract_x
_atom_site_fract_y
_atom_site_fract_z
Si Si1 0.557574 0.818254 0.921013
Si Si2 0.240723 0.818382 0.916747
Si Si3 0.082886 0.682711 0.667505
Si Si4 0.709606 0.681439 0.168462
Si Si5 0.130550 0.818045 0.579767
Si Si6 0.314120 0.682603 0.574496
O O1 0.626408 0.736760 0.903696
O O2 0.418870 0.763048 0.871239
O O3 0.562771 0.000000 0.916084
O O4 0.637522 0.782432 0.001938
O O5 0.246253 0.736046 0.867083
O O6 0.236060 0.000000 0.907834
O O7 0.067235 0.500000 0.658146
O O8 0.187763 0.717025 0.749551
O O9 0.121361 0.747291 0.630009
O O10 0.953798 0.758075 0.630944
O O11 0.690138 0.500000 0.160333
O O12 0.237192 0.742575 0.590051
O O13 0.000000 0.791387 0.500000
O O14 0.149405 0.000000 0.590159
O O15 0.311326 0.500000 0.571242
O O16 0.250000 0.750000 0.500000
#
# Coordination Sequence:
#
# PCOD9209457 Si02
#       6
#     8   8   8   8   8   8
#     4  10  21  38  62  91 122 160 205 252 301 356
#     4  10  21  38  62  91 122 160 206 251 300 358
#     4  11  25  43  62  89 123 161 204 249 302 362
#     4  11  24  40  60  88 124 163 203 249 303 360
#     4  11  23  40  65  93 119 153 198 246 300 359
#     4  12  24  40  65  92 120 155 196 246 301 357
#
# _framework density 18.514299000000001
#
# number of rings (size 3 to 8) (size 9 to 14) (size 15 to 20)
#    0.000    1.167    1.667    4.500    0.000    8.667 
#    0.000    0.000    0.000    0.000    0.000    0.000 
#    0.000    0.000    0.000    0.000    0.000    0.000 
#
# Total GULP energy -134257.626418 kJ/mol
# GULP energy per Si atom -5594.067767 kJ/mol
# Density = 1.847216 g / cm^3
# Si number density = 18.514299 Si / 1000 Ang^3
#
#
#
# Elastic Constant Matrix: (Units=GPa)
#
#
# Indices 1 2 3 4 5 6 
#
# 1 133.0645 44.8528 61.1072 0.0000 -6.3698 0.0000
# 2 44.8528 72.2874 47.8438 0.0000 -10.8382 0.0000
# 3 61.1072 47.8438 82.3706 0.0000 -35.1598 0.0000
# 4 0.0000 0.0000 0.0000 28.7929 0.0000 0.8171
# 5 -6.3698 -10.8382 -35.1598 0.0000 -104.9189 0.0000
# 6 0.0000 0.0000 0.0000 0.8171 0.0000 41.4948
#
#
#
# Elastic Compliance Matrix: (Units=1/GPa)
#
#
# Indices 1 2 3 4 5 6 
#
# 1 0.011321 -0.002735 -0.006109 0.000000 0.001642 0.000000
# 2 -0.002735 0.022753 -0.010603 0.000000 0.001369 0.000000
# 3 -0.006109 -0.010603 0.020521 0.000000 -0.005411 0.000000
# 4 0.000000 0.000000 0.000000 0.034750 0.000000 -0.000684
# 5 0.001642 0.001369 -0.005411 0.000000 -0.007959 0.000000
# 6 0.000000 0.000000 0.000000 -0.000684 0.000000 0.024113
#
#
# Mechanical properties :
#
#
# Convention : Reuss Voigt Hill
#
# Bulk Modulus (GPa) = 63.68560 66.14778 64.91669
# Shear Modulus (GPa) = 33.41638 2.00167 17.70903
#
# Velocity S-wave (km/s) = 4.25302 1.04091 3.09610
# Velocity P-wave (km/s) = 7.65443 6.10329 6.92244
#
# Compressibility (1/GPa) = 0.01570214
#
# Stress axis : x y z
#
# Youngs Moduli (GPa) = 88.33052 43.94951 48.73025
#
# Poissons Ratio (x) = 0.12020 0.29769
# Poissons Ratio (y) = 0.24158 0.51667
# Poissons Ratio (z) = 0.53961 0.46599
#
# Static dielectric constant tensor:
#      x y z
#    x 1.587590 0.000000 -0.007400 
#    y 0.000000 1.615860 0.000000 
#    z -0.007400 0.000000 1.607720 
# 
# From -- ./inp_files/267635.got.cif
#   From: 2010.05.17/outbox.cif.g08.bks.cpg/sg12_134_cif.got.tgz:267635.got - 2010.06.03 13:09:07.
