data_PCOD9209341
_publ_section_title
;
Structure prediction by ZEFSAII (Michael W. Deem and Ramdas Pophale) SiO2 
 PCOD9209341
Probable space group: C 2/M
;
_chemical_formula_sum "Si O2"
_cell_formula_units_Z 48
_cell_length_a 23.331657
_cell_length_b 14.690198
_cell_length_c 19.959527
_cell_angle_alpha 90.000000
_cell_angle_beta 17.594390
_cell_angle_gamma 90.000000
_cell_volume 2067.892454
_symmetry_space_group_name_H-M "C 2/M"
_symmetry_group_IT_number 12
_symmetry_cell_setting 'monoclinic'
loop_
_space_group_symop_operation_xyz
x,y,z
-x,y,-z
-x,-y,-z
x,-y,z
1/2+x,1/2+y,z
1/2-x,1/2+y,-z
1/2-x,1/2-y,-z
1/2+x,1/2-y,z
loop_
_atom_site_type_symbol
_atom_site_label
_atom_site_fract_x
_atom_site_fract_y
_atom_site_fract_z
Si Si1 0.620295 0.891410 0.064439
Si Si2 0.076950 0.397340 0.845726
Si Si3 0.328365 0.103738 0.846911
Si Si4 0.473594 0.360734 0.453233
Si Si5 0.443854 0.609296 0.960995
Si Si6 0.190195 0.658646 0.370502
O O1 0.831720 0.876492 0.801661
O O2 0.576151 0.000000 0.119618
O O3 0.486371 0.855526 0.153935
O O4 0.614553 0.852479 0.145921
O O5 0.992420 0.500000 0.940260
O O6 0.299876 0.403833 0.606829
O O7 0.000000 0.351138 0.000000
O O8 0.156224 0.144033 0.995277
O O9 0.514904 0.101104 0.593216
O O10 0.267739 0.000000 0.928717
O O11 0.500000 0.393880 0.500000
O O12 0.405159 0.256478 0.533512
O O13 0.477934 0.500000 0.919015
O O14 0.290727 0.625081 0.190856
O O15 0.639536 0.655813 0.765041
#
# Coordination Sequence:
#
# PCOD9209341 Si02
#       6
#     8   8   8   8   8   8
#     4  10  23  41  61  88 118 155 200 245 293 347
#     4  10  21  38  62  85 112 152 199 247 289 340
#     4  10  21  40  63  86 119 157 198 243 291 348
#     4  12  24  37  60  88 121 157 194 246 296 351
#     4  10  21  39  64  90 117 153 200 244 287 347
#     4  11  23  37  60  90 121 156 194 243 295 349
#
# _framework density 23.212039000000001
#
# number of rings (size 3 to 8) (size 9 to 14) (size 15 to 20)
#    0.000    1.500    1.667    4.000    2.333    5.333 
#    0.000    6.667    0.000    0.000    0.000    0.000 
#    0.000    0.000    0.000    0.000    0.000    0.000 
#
# Total GULP energy -134111.385761 kJ/mol
# GULP energy per Si atom -5587.974407 kJ/mol
# Density = 2.315921 g / cm^3
# Si number density = 23.212039 Si / 1000 Ang^3
#
#
#
# Elastic Constant Matrix: (Units=GPa)
#
#
# Indices 1 2 3 4 5 6 
#
# 1 216.0063 12.2525 31.4250 -0.0024 -43.2311 0.0021
# 2 12.2525 63.5597 -14.6848 0.0119 -3.6572 0.0072
# 3 31.4250 -14.6848 38.0085 -0.0087 -25.6319 -0.0021
# 4 -0.0024 0.0119 -0.0087 43.1590 0.0000 -9.3811
# 5 -43.2311 -3.6572 -25.6319 0.0000 31.3835 -0.0001
# 6 0.0021 0.0072 -0.0021 -9.3811 -0.0001 11.3539
#
#
#
# Elastic Compliance Matrix: (Units=1/GPa)
#
#
# Indices 1 2 3 4 5 6 
#
# 1 0.006437 -0.000459 0.000989 0.000001 0.009622 0.000000
# 2 -0.000459 0.022333 0.023010 -0.000004 0.020764 -0.000013
# 3 0.000989 0.023010 0.082609 0.000013 0.071514 0.000011
# 4 0.000001 -0.000004 0.000013 0.028242 0.000011 0.023335
# 5 0.009622 0.020764 0.071514 0.000011 0.105946 0.000008
# 6 0.000000 -0.000013 0.000011 0.023335 0.000008 0.107356
#
#
# Mechanical properties :
#
#
# Convention : Reuss Voigt Hill
#
# Bulk Modulus (GPa) = 6.31073 41.72887 24.01980
# Shear Modulus (GPa) = 13.94072 36.41806 25.17939
#
# Velocity S-wave (km/s) = 2.45334 3.96527 3.29714
# Velocity P-wave (km/s) = 3.27868 6.24346 4.98651
#
# Compressibility (1/GPa) = 0.15846020
#
# Stress axis : x y z
#
# Youngs Moduli (GPa) = 155.34388 44.77760 12.10522
#
# Poissons Ratio (x) = 0.02054 -0.01198
# Poissons Ratio (y) = 0.07126 -0.27854
# Poissons Ratio (z) = -0.15369 -1.03033
#
# Static dielectric constant tensor:
#      x y z
#    x 1.937170 0.000010 -0.003280 
#    y 0.000010 1.957190 0.000010 
#    z -0.003280 0.000010 1.801010 
# 
# From -- ./inp_files/285332.got.cif
#   From: 2010.05.17/outbox.cif.g08.bks.cpg/sg12_143_cif.got.tgz:285332.got - 2010.06.03 13:09:07.
