data_PCOD9209616
_publ_section_title
;
Structure prediction by ZEFSAII (Michael W. Deem and Ramdas Pophale) SiO2 
 PCOD9209616
Probable space group: C 2/M
;
_chemical_formula_sum "Si O2"
_cell_formula_units_Z 40
_cell_length_a 23.728220
_cell_length_b 7.864771
_cell_length_c 9.802443
_cell_angle_alpha 90.000000
_cell_angle_beta 73.584744
_cell_angle_gamma 90.000000
_cell_volume 1754.738026
_symmetry_space_group_name_H-M "C 2/M"
_symmetry_group_IT_number 12
_symmetry_cell_setting 'monoclinic'
loop_
_space_group_symop_operation_xyz
x,y,z
-x,y,-z
-x,-y,-z
x,-y,z
1/2+x,1/2+y,z
1/2-x,1/2+y,-z
1/2-x,1/2-y,-z
1/2+x,1/2-y,z
loop_
_atom_site_type_symbol
_atom_site_label
_atom_site_fract_x
_atom_site_fract_y
_atom_site_fract_z
Si Si1 0.723158 0.690920 0.876527
Si Si2 0.682227 0.303016 0.398114
Si Si3 0.860967 0.208937 0.285201
Si Si4 0.006330 0.794367 0.838355
Si Si5 0.942505 0.699339 0.621288
O O1 0.703971 0.500000 0.917269
O O2 0.774353 0.700674 0.728461
O O3 0.668109 0.773369 0.835107
O O4 0.750000 0.750000 0.000000
O O5 0.701092 0.500000 0.384830
O O6 0.676233 0.238645 0.557157
O O7 0.616539 0.292248 0.382120
O O8 0.928544 0.259680 0.253525
O O9 0.860056 0.000000 0.285752
O O10 0.958037 0.722282 0.769233
O O11 0.002921 0.000000 0.833815
O O12 0.000000 0.744739 0.000000
O O13 0.934882 0.500000 0.595039
O O14 0.000000 0.762940 0.500000
#
# Coordination Sequence:
#
# PCOD9209616 Si02
#       5
#     8   8   8   8   8
#     4  11  24  42  62  91 126 160 202 253 307 365
#     4  11  22  40  66  90 117 161 209 254 303 361
#     4   9  20  39  62  89 121 158 205 252 301 361
#     4  10  21  38  63  92 122 162 204 249 301 363
#     4  11  23  39  60  92 128 160 197 250 307 364
#
# _framework density 22.795425000000002
#
# number of rings (size 3 to 8) (size 9 to 14) (size 15 to 20)
#    0.000    1.600    2.000    2.400    2.800    1.200 
#    0.000    5.000    0.000    0.000    0.000    0.000 
#    0.000    0.000    0.000    0.000    0.000    0.000 
#
# Total GULP energy -111819.533520 kJ/mol
# GULP energy per Si atom -5590.976676 kJ/mol
# Density = 2.274354 g / cm^3
# Si number density = 22.795425 Si / 1000 Ang^3
#
#
#
# Elastic Constant Matrix: (Units=GPa)
#
#
# Indices 1 2 3 4 5 6 
#
# 1 69.7644 -7.1978 3.1522 0.0000 30.6632 0.0000
# 2 -7.1978 31.5065 -2.0247 0.0000 6.6524 0.0000
# 3 3.1522 -2.0247 100.6819 0.0000 33.7074 0.0000
# 4 0.0000 0.0000 0.0000 16.8515 0.0000 3.4215
# 5 30.6632 6.6524 33.7074 0.0000 47.0393 0.0000
# 6 0.0000 0.0000 0.0000 3.4215 0.0000 15.6063
#
#
#
# Elastic Compliance Matrix: (Units=1/GPa)
#
#
# Indices 1 2 3 4 5 6 
#
# 1 0.025427 0.011205 0.007248 0.000000 -0.023353 0.000000
# 2 0.011205 0.038313 0.006156 0.000000 -0.017134 0.000000
# 3 0.007248 0.006156 0.015396 0.000000 -0.016627 0.000000
# 4 0.000000 0.000000 0.000000 0.062107 0.000000 -0.013616
# 5 -0.023353 -0.017134 -0.016627 0.000000 0.050820 0.000000
# 6 0.000000 0.000000 0.000000 -0.013616 0.000000 0.067062
#
#
# Mechanical properties :
#
#
# Convention : Reuss Voigt Hill
#
# Bulk Modulus (GPa) = 7.79103 21.09025 14.44064
# Shear Modulus (GPa) = 19.78710 29.76762 24.77736
#
# Velocity S-wave (km/s) = 2.94943 3.61759 3.30046
# Velocity P-wave (km/s) = 3.87609 5.16927 4.56866
#
# Compressibility (1/GPa) = 0.12835275
#
# Stress axis : x y z
#
# Youngs Moduli (GPa) = 39.32869 26.10108 64.95270
#
# Poissons Ratio (x) = -0.29247 -0.47075
# Poissons Ratio (y) = -0.44069 -0.39984
# Poissons Ratio (z) = -0.28504 -0.16067
#
# Static dielectric constant tensor:
#      x y z
#    x 1.839130 0.000000 0.015930 
#    y 0.000000 1.849240 0.000000 
#    z 0.015930 0.000000 1.850590 
# 
# From -- ./inp_files/92782.got.cif
#   From: 2010.05.17/outbox.cif.g08.bks.cpg/sg12_47_cif.got.tgz:92782.got - 2010.06.03 13:09:07.
