data_PCOD9209655
_publ_section_title
;
Structure prediction by ZEFSAII (Michael W. Deem and Ramdas Pophale) SiO2 
 PCOD9209655
Probable space group: C 2/M
;
_chemical_formula_sum "Si O2"
_cell_formula_units_Z 40
_cell_length_a 24.056589
_cell_length_b 8.007796
_cell_length_c 24.178402
_cell_angle_alpha 90.000000
_cell_angle_beta 157.290635
_cell_angle_gamma 90.000000
_cell_volume 1798.149842
_symmetry_space_group_name_H-M "C 2/M"
_symmetry_group_IT_number 12
_symmetry_cell_setting 'monoclinic'
loop_
_space_group_symop_operation_xyz
x,y,z
-x,y,-z
-x,-y,-z
x,-y,z
1/2+x,1/2+y,z
1/2-x,1/2+y,-z
1/2-x,1/2-y,-z
1/2+x,1/2-y,z
loop_
_atom_site_type_symbol
_atom_site_label
_atom_site_fract_x
_atom_site_fract_y
_atom_site_fract_z
Si Si1 0.961665 0.000000 0.899488
Si Si2 0.133704 0.697064 0.471905
Si Si3 0.368077 0.315678 0.287497
Si Si4 0.165379 0.500000 0.668755
Si Si5 0.392067 0.811904 0.027358
Si Si6 0.048146 0.200385 0.270713
O O1 0.025778 0.835482 0.929580
O O2 0.788810 0.000000 0.736196
O O3 0.000000 0.000000 0.000000
O O4 0.119795 0.500000 0.468488
O O5 0.069889 0.736141 0.352575
O O6 0.301501 0.743499 0.622753
O O7 0.034517 0.789501 0.425017
O O8 0.344948 0.500000 0.290118
O O9 0.315362 0.167189 0.277785
O O10 0.272580 0.303491 0.144112
O O11 0.000000 0.500000 0.500000
O O12 0.420697 0.778899 0.118073
O O13 0.442559 0.000000 0.059882
O O14 0.035139 0.000000 0.259727
#
# Coordination Sequence:
#
# PCOD9209655 Si02
#       6
#     4   8   8   4   8   8
#     4  12  24  46  70  92 128 172 212 274 320 376
#     4  10  21  38  63  93 132 171 210 263 319 380
#     4  11  24  43  65  94 130 167 212 266 320 381
#     4  12  28  46  68  96 130 168 218 268 328 378
#     4  11  24  41  66  96 127 167 217 262 318 383
#     4  10  21  38  63  95 129 170 215 259 319 384
#
# _framework density 22.245087999999999
#
# number of rings (size 3 to 8) (size 9 to 14) (size 15 to 20)
#    0.000    1.200    4.000    1.200    2.800    4.800 
#    0.000    0.000    0.000    0.000    0.000    0.000 
#    0.000    0.000    0.000    0.000    0.000    0.000 
#
# Total GULP energy -111877.494746 kJ/mol
# GULP energy per Si atom -5593.874737 kJ/mol
# Density = 2.219446 g / cm^3
# Si number density = 22.245088 Si / 1000 Ang^3
#
#
#
# Elastic Constant Matrix: (Units=GPa)
#
#
# Indices 1 2 3 4 5 6 
#
# 1 36.0416 26.3922 -6.7463 0.0000 11.0362 0.0000
# 2 26.3922 142.1193 27.9820 0.0001 5.0407 0.0001
# 3 -6.7463 27.9820 71.3080 0.0001 -3.2261 0.0001
# 4 0.0000 0.0001 0.0001 22.9973 0.0001 -3.4056
# 5 11.0362 5.0407 -3.2261 0.0001 37.0398 0.0000
# 6 0.0000 0.0001 0.0001 -3.4056 0.0000 1.4750
#
#
#
# Elastic Compliance Matrix: (Units=1/GPa)
#
#
# Indices 1 2 3 4 5 6 
#
# 1 0.037606 -0.007866 0.006211 0.000000 -0.009593 0.000000
# 2 -0.007866 0.009334 -0.004376 0.000000 0.000692 -0.000001
# 3 0.006211 -0.004376 0.016336 0.000000 0.000168 -0.000001
# 4 0.000000 0.000000 0.000000 0.066077 0.000000 0.152566
# 5 -0.009593 0.000692 0.000168 0.000000 0.029777 -0.000002
# 6 0.000000 -0.000001 -0.000001 0.152566 -0.000002 1.030243
#
#
# Mechanical properties :
#
#
# Convention : Reuss Voigt Hill
#
# Bulk Modulus (GPa) = 19.52615 38.30276 28.91445
# Shear Modulus (GPa) = 4.10338 25.75848 14.93093
#
# Velocity S-wave (km/s) = 1.35964 3.40654 2.59357
# Velocity P-wave (km/s) = 3.35584 5.72089 4.68990
#
# Compressibility (1/GPa) = 0.05121338
#
# Stress axis : x y z
#
# Youngs Moduli (GPa) = 26.59157 107.13418 61.21489
#
# Poissons Ratio (x) = 0.84273 -0.38018
# Poissons Ratio (y) = 0.20917 0.26786
# Poissons Ratio (z) = -0.16515 0.46878
#
# Static dielectric constant tensor:
#      x y z
#    x 1.795470 0.000000 -0.013610 
#    y 0.000000 2.172900 0.000000 
#    z -0.013610 0.000000 1.851320 
# 
# From -- ./inp_files/370480.got.cif
#   From: 2010.05.17/outbox.cif.g08.bks.cpg/sg12_186_cif.got.tgz:370480.got - 2010.06.03 13:09:07.
