data_PCOD9209377
_publ_section_title
;
Structure prediction by ZEFSAII (Michael W. Deem and Ramdas Pophale) SiO2 
 PCOD9209377
Probable space group: C 2/M
;
_chemical_formula_sum "Si O2"
_cell_formula_units_Z 64
_cell_length_a 15.746395
_cell_length_b 31.195984
_cell_length_c 8.963647
_cell_angle_alpha 90.000000
_cell_angle_beta 47.525296
_cell_angle_gamma 90.000000
_cell_volume 3247.663914
_symmetry_space_group_name_H-M "C 2/M"
_symmetry_group_IT_number 12
_symmetry_cell_setting 'monoclinic'
loop_
_space_group_symop_operation_xyz
x,y,z
-x,y,-z
-x,-y,-z
x,-y,z
1/2+x,1/2+y,z
1/2-x,1/2+y,-z
1/2-x,1/2-y,-z
1/2+x,1/2-y,z
loop_
_atom_site_type_symbol
_atom_site_label
_atom_site_fract_x
_atom_site_fract_y
_atom_site_fract_z
Si Si1 0.675560 0.158902 0.819366
Si Si2 0.108444 0.884271 0.281821
Si Si3 0.312012 0.250978 0.085879
Si Si4 0.119582 0.607420 0.448403
Si Si5 0.499005 0.324222 0.161841
Si Si6 0.233616 0.548839 0.077463
Si Si7 0.764128 0.688889 0.572570
Si Si8 0.467992 0.077650 0.888096
O O1 0.802273 0.140736 0.715261
O O2 0.651318 0.202353 0.935331
O O3 0.665340 0.176313 0.661000
O O4 0.595576 0.120841 0.976530
O O5 0.054509 0.851213 0.227399
O O6 0.000000 0.902243 0.500000
O O7 0.174680 0.921091 0.113849
O O8 0.235728 0.269343 0.317734
O O9 0.250000 0.250000 0.000000
O O10 0.420830 0.282574 0.951012
O O11 0.192705 0.571363 0.277904
O O12 0.197495 0.649798 0.365869
O O13 0.000000 0.616041 0.500000
O O14 0.077024 0.590673 0.659008
O O15 0.365858 0.312473 0.336140
O O16 0.500000 0.347947 0.000000
O O17 0.270305 0.500000 0.053007
O O18 0.119991 0.551921 0.109304
O O19 0.500000 0.053368 0.000000
#
# Coordination Sequence:
#
# PCOD9209377 Si02
#       8
#     8   8   8   8   8   8   8   8
#     4  11  22  39  61  89 128 163 218 262 313 369
#     4  11  21  40  67  92 123 172 209 259 316 385
#     4  11  23  37  57  87 129 168 217 266 306 367
#     4  10  22  41  66  90 122 166 213 253 324 382
#     4  10  21  38  62  88 122 170 216 261 311 370
#     4  10  23  41  64  94 128 159 203 257 320 397
#     4  11  22  40  61  90 122 170 217 261 315 370
#     4  10  21  38  64  92 121 162 207 262 319 376
#
# _framework density 19.706472999999999
#
# number of rings (size 3 to 8) (size 9 to 14) (size 15 to 20)
#    0.000    1.500    3.750    1.875    3.500    4.250 
#    2.250    0.625    0.000    3.375    0.000    0.000 
#    0.000    0.000    0.000    0.000    0.000    0.000 
#
# Total GULP energy -178387.999028 kJ/mol
# GULP energy per Si atom -5574.624970 kJ/mol
# Density = 1.966162 g / cm^3
# Si number density = 19.706473 Si / 1000 Ang^3
#
#
#
# Elastic Constant Matrix: (Units=GPa)
#
#
# Indices 1 2 3 4 5 6 
#
# 1 65.6405 21.6783 21.4880 0.0000 7.5644 0.0000
# 2 21.6783 95.3733 29.3905 0.0000 -3.7241 0.0000
# 3 21.4880 29.3905 108.4398 0.0000 3.1823 0.0000
# 4 0.0000 0.0000 0.0000 7.9454 0.0000 1.2620
# 5 7.5644 -3.7241 3.1823 0.0000 34.7729 0.0000
# 6 0.0000 0.0000 0.0000 1.2620 0.0000 10.1892
#
#
#
# Elastic Compliance Matrix: (Units=1/GPa)
#
#
# Indices 1 2 3 4 5 6 
#
# 1 0.017619 -0.003404 -0.002452 0.000000 -0.003973 0.000000
# 2 -0.003404 0.012178 -0.002693 0.000000 0.002291 0.000000
# 3 -0.002452 -0.002693 0.010458 0.000000 -0.000712 0.000000
# 4 0.000000 0.000000 0.000000 0.128385 0.000000 -0.015902
# 5 -0.003973 0.002291 -0.000712 0.000000 0.029933 0.000000
# 6 0.000000 0.000000 0.000000 -0.015902 0.000000 0.100113
#
#
# Mechanical properties :
#
#
# Convention : Reuss Voigt Hill
#
# Bulk Modulus (GPa) = 43.18426 46.06305 44.62366
# Shear Modulus (GPa) = 15.45567 23.70794 19.58180
#
# Velocity S-wave (km/s) = 2.80356 3.47227 3.15568
# Velocity P-wave (km/s) = 5.69572 6.28497 5.99759
#
# Compressibility (1/GPa) = 0.02315658
#
# Stress axis : x y z
#
# Youngs Moduli (GPa) = 56.75568 82.11265 95.61604
#
# Poissons Ratio (x) = 0.27954 0.23446
# Poissons Ratio (y) = 0.19322 0.25753
# Poissons Ratio (z) = 0.13917 0.22116
#
# Static dielectric constant tensor:
#      x y z
#    x 1.587720 0.000000 0.022790 
#    y 0.000000 1.676030 0.000000 
#    z 0.022790 0.000000 1.752080 
# 
# From -- ./inp_files/68612.got.cif
#   From: 2010.05.17/outbox.cif.g08.bks.cpg/sg12_35_cif.got.tgz:68612.got - 2010.06.03 13:09:07.
