data_PCOD9209589
_publ_section_title
;
Structure prediction by ZEFSAII (Michael W. Deem and Ramdas Pophale) SiO2 
 PCOD9209589
Probable space group: C 2/M
;
_chemical_formula_sum "Si O2"
_cell_formula_units_Z 64
_cell_length_a 28.706939
_cell_length_b 12.766136
_cell_length_c 17.507056
_cell_angle_alpha 90.000000
_cell_angle_beta 30.300922
_cell_angle_gamma 90.000000
_cell_volume 3237.101993
_symmetry_space_group_name_H-M "C 2/M"
_symmetry_group_IT_number 12
_symmetry_cell_setting 'monoclinic'
loop_
_space_group_symop_operation_xyz
x,y,z
-x,y,-z
-x,-y,-z
x,-y,z
1/2+x,1/2+y,z
1/2-x,1/2+y,-z
1/2-x,1/2-y,-z
1/2+x,1/2-y,z
loop_
_atom_site_type_symbol
_atom_site_label
_atom_site_fract_x
_atom_site_fract_y
_atom_site_fract_z
Si Si1 0.530651 0.178150 0.277338
Si Si2 0.472536 0.386001 0.951008
Si Si3 0.584528 0.311409 0.330378
Si Si4 0.290113 0.266162 0.210248
Si Si5 0.600495 0.234715 0.676155
Si Si6 0.788566 0.617557 0.066988
Si Si7 0.116361 0.381567 0.398964
Si Si8 0.228057 0.374974 0.616098
O O1 0.548593 0.287512 0.296372
O O2 0.461901 0.187818 0.303035
O O3 0.475815 0.114334 0.419545
O O4 0.630601 0.137964 0.108883
O O5 0.490109 0.500000 0.890857
O O6 0.530352 0.295995 0.829558
O O7 0.500000 0.389830 0.000000
O O8 0.366218 0.355648 0.100061
O O9 0.500000 0.359123 0.500000
O O10 0.682830 0.368654 0.188720
O O11 0.604922 0.200373 0.345454
O O12 0.300397 0.197882 0.119434
O O13 0.192258 0.324908 0.344953
O O14 0.302044 0.189633 0.265705
O O15 0.674158 0.320953 0.542732
O O16 0.658620 0.152068 0.644483
O O17 0.799918 0.500000 0.079933
O O18 0.141557 0.500000 0.340484
O O19 0.233848 0.500000 0.619666
#
# Coordination Sequence:
#
# PCOD9209589 Si02
#       8
#     8   8   8   8   8   8   8   8
#     4  11  21  40  63  88 126 157 199 262 309 355
#     4  11  22  39  63  87 120 165 206 253 311 361
#     4   9  22  41  63  87 123 161 201 256 304 363
#     4  11  21  41  59  88 124 157 203 252 297 368
#     4  11  23  43  62  91 126 158 213 260 300 365
#     4  11  23  38  62  91 123 163 201 248 309 367
#     4  10  21  38  63  90 117 156 202 251 314 367
#     4  11  24  42  63  89 125 169 205 249 309 368
#
# _framework density 19.770769999999999
#
# number of rings (size 3 to 8) (size 9 to 14) (size 15 to 20)
#    0.000    1.375    3.750    1.875    0.000    4.000 
#    0.000    1.875    0.000    0.000    0.000    0.000 
#    0.000    0.000    0.000    0.000    0.000    0.000 
#
# Total GULP energy -178506.917513 kJ/mol
# GULP energy per Si atom -5578.341172 kJ/mol
# Density = 1.972577 g / cm^3
# Si number density = 19.770770 Si / 1000 Ang^3
#
#
#
# Elastic Constant Matrix: (Units=GPa)
#
#
# Indices 1 2 3 4 5 6 
#
# 1 59.5170 -6.9589 2.6489 0.0000 -18.5779 0.0000
# 2 -6.9589 65.2144 10.1941 0.0000 -4.5896 0.0000
# 3 2.6489 10.1941 93.3189 0.0000 -16.4324 0.0000
# 4 0.0000 0.0000 0.0000 12.8051 0.0000 -8.8339
# 5 -18.5779 -4.5896 -16.4324 0.0000 30.4065 0.0000
# 6 0.0000 0.0000 0.0000 -8.8339 0.0000 26.0423
#
#
#
# Elastic Compliance Matrix: (Units=1/GPa)
#
#
# Indices 1 2 3 4 5 6 
#
# 1 0.021633 0.003081 0.001612 0.000000 0.014554 0.000000
# 2 0.003081 0.016109 -0.001202 0.000000 0.003664 0.000000
# 3 0.001612 -0.001202 0.012094 0.000000 0.007339 0.000000
# 4 0.000000 0.000000 0.000000 0.101952 0.000000 0.034583
# 5 0.014554 0.003664 0.007339 0.000000 0.046299 0.000000
# 6 0.000000 0.000000 0.000000 0.034583 0.000000 0.050130
#
#
# Mechanical properties :
#
#
# Convention : Reuss Voigt Hill
#
# Bulk Modulus (GPa) = 17.60021 25.53539 21.56780
# Shear Modulus (GPa) = 19.21787 27.99519 23.60653
#
# Velocity S-wave (km/s) = 3.12113 3.76705 3.45920
# Velocity P-wave (km/s) = 4.68082 5.64487 5.18530
#
# Compressibility (1/GPa) = 0.05681752
#
# Stress axis : x y z
#
# Youngs Moduli (GPa) = 46.22515 62.07892 82.68650
#
# Poissons Ratio (x) = -0.19125 -0.13330
# Poissons Ratio (y) = -0.14241 0.09938
# Poissons Ratio (z) = -0.07452 0.07461
#
# Static dielectric constant tensor:
#      x y z
#    x 1.701570 0.000000 -0.009460 
#    y 0.000000 1.683050 0.000000 
#    z -0.009460 0.000000 1.706100 
# 
# From -- ./inp_files/296448.got.cif
#   From: 2010.05.17/outbox.cif.g08.bks.cpg/sg12_149_cif.got.tgz:296448.got - 2010.06.03 13:09:07.
