data_PCOD9209007
_publ_section_title
;
Structure prediction by ZEFSAII (Michael W. Deem and Ramdas Pophale) SiO2 
 PCOD9209007
Probable space group: C 2/M
;
_chemical_formula_sum "Si O2"
_cell_formula_units_Z 40
_cell_length_a 14.828024
_cell_length_b 8.600442
_cell_length_c 31.075957
_cell_angle_alpha 90.000000
_cell_angle_beta 147.214688
_cell_angle_gamma 90.000000
_cell_volume 2145.957801
_symmetry_space_group_name_H-M "C 2/M"
_symmetry_group_IT_number 12
_symmetry_cell_setting 'monoclinic'
loop_
_space_group_symop_operation_xyz
x,y,z
-x,y,-z
-x,-y,-z
x,-y,z
1/2+x,1/2+y,z
1/2-x,1/2+y,-z
1/2-x,1/2-y,-z
1/2+x,1/2-y,z
loop_
_atom_site_type_symbol
_atom_site_label
_atom_site_fract_x
_atom_site_fract_y
_atom_site_fract_z
Si Si1 0.771441 0.316749 0.302896
Si Si2 0.407560 0.312570 0.006962
Si Si3 0.525568 0.814453 0.872929
Si Si4 0.806564 0.182746 0.411037
Si Si5 0.383037 0.682661 0.587268
O O1 0.769993 0.500000 0.310883
O O2 0.615973 0.268473 0.211368
O O3 0.771829 0.224944 0.347990
O O4 0.942821 0.269435 0.348515
O O5 0.422933 0.500000 0.016710
O O6 0.210201 0.275271 0.928869
O O7 0.500000 0.264651 0.000000
O O8 0.480153 0.237459 0.079503
O O9 0.504458 0.000000 0.861720
O O10 0.693008 0.284434 0.396644
O O11 0.000000 0.213422 0.500000
O O12 0.775879 0.000000 0.406743
O O13 0.405910 0.500000 0.588429
O O14 0.250000 0.750000 0.500000
#
# Coordination Sequence:
#
# PCOD9209007 Si02
#       5
#     8   8   8   8   8
#     4  12  25  41  62  88 124 165 208 258 307 361
#     4   9  19  38  64  90 120 159 198 242 301 368
#     4  10  21  38  60  89 124 158 199 251 304 362
#     4  11  23  40  63  88 118 158 204 254 307 365
#     4  12  24  40  62  88 118 156 204 254 309 365
#
# _framework density 18.639696000000001
#
# number of rings (size 3 to 8) (size 9 to 14) (size 15 to 20)
#    0.000    1.200    2.000    4.800    0.000    3.600 
#    0.000    6.000    0.000    0.000    0.000    0.000 
#    0.000    0.000    0.000    0.000    0.000    0.000 
#
# Total GULP energy -111829.256090 kJ/mol
# GULP energy per Si atom -5591.462805 kJ/mol
# Density = 1.859727 g / cm^3
# Si number density = 18.639696 Si / 1000 Ang^3
#
#
#
# Elastic Constant Matrix: (Units=GPa)
#
#
# Indices 1 2 3 4 5 6 
#
# 1 101.9120 1.2067 25.8863 0.0000 -5.3790 0.0000
# 2 1.2067 42.0414 20.8321 0.0000 1.5923 0.0000
# 3 25.8863 20.8321 105.5069 0.0000 -2.7430 0.0000
# 4 0.0000 0.0000 0.0000 29.8185 0.0000 -5.9446
# 5 -5.3790 1.5923 -2.7430 0.0000 16.2387 0.0000
# 6 0.0000 0.0000 0.0000 -5.9446 0.0000 32.0678
#
#
#
# Elastic Compliance Matrix: (Units=1/GPa)
#
#
# Indices 1 2 3 4 5 6 
#
# 1 0.010649 0.000929 -0.002719 0.000000 0.002977 0.000000
# 2 0.000929 0.026644 -0.005573 0.000000 -0.003246 0.000000
# 3 -0.002719 -0.005573 0.011286 0.000000 0.001552 0.000000
# 4 0.000000 0.000000 0.000000 0.034823 0.000000 0.006455
# 5 0.002977 -0.003246 0.001552 0.000000 0.063148 0.000000
# 6 0.000000 0.000000 0.000000 0.006455 0.000000 0.032381
#
#
# Mechanical properties :
#
#
# Convention : Reuss Voigt Hill
#
# Bulk Modulus (GPa) = 29.53968 38.36784 33.95376
# Shear Modulus (GPa) = 24.39729 29.06069 26.72899
#
# Velocity S-wave (km/s) = 3.62178 3.95280 3.79090
# Velocity P-wave (km/s) = 5.77684 6.43905 6.11691
#
# Compressibility (1/GPa) = 0.03385277
#
# Stress axis : x y z
#
# Youngs Moduli (GPa) = 93.90458 37.53204 88.60649
#
# Poissons Ratio (x) = -0.03486 0.24090
# Poissons Ratio (y) = -0.08722 0.49381
# Poissons Ratio (z) = 0.25530 0.20917
#
# Static dielectric constant tensor:
#      x y z
#    x 1.633790 0.000000 0.001660 
#    y 0.000000 1.622650 0.000000 
#    z 0.001660 0.000000 1.605650 
# 
# From -- ./inp_files/211205.got.cif
#   From: 2010.05.17/outbox.cif.g08.bks.cpg/sg12_106_cif.got.tgz:211205.got - 2010.06.03 13:09:07.
