data_PCOD9209594
_publ_section_title
;
Structure prediction by ZEFSAII (Michael W. Deem and Ramdas Pophale) SiO2 
 PCOD9209594
Probable space group: C 2/M
;
_chemical_formula_sum "Si O2"
_cell_formula_units_Z 64
_cell_length_a 27.812351
_cell_length_b 13.313964
_cell_length_c 16.998790
_cell_angle_alpha 90.000000
_cell_angle_beta 149.941044
_cell_angle_gamma 90.000000
_cell_volume 3152.870922
_symmetry_space_group_name_H-M "C 2/M"
_symmetry_group_IT_number 12
_symmetry_cell_setting 'monoclinic'
loop_
_space_group_symop_operation_xyz
x,y,z
-x,y,-z
-x,-y,-z
x,-y,z
1/2+x,1/2+y,z
1/2-x,1/2+y,-z
1/2-x,1/2-y,-z
1/2+x,1/2-y,z
loop_
_atom_site_type_symbol
_atom_site_label
_atom_site_fract_x
_atom_site_fract_y
_atom_site_fract_z
Si Si1 0.685011 0.891732 0.442184
Si Si2 0.610734 0.326995 0.328120
Si Si3 0.848375 0.231820 0.315467
Si Si4 0.352729 0.881110 0.995304
Si Si5 0.751197 0.114475 0.711736
Si Si6 0.635598 0.763165 0.836251
Si Si7 0.969989 0.880905 0.618016
Si Si8 0.444880 0.266134 0.998866
O O1 0.630807 0.791300 0.341304
O O2 0.793571 0.883088 0.563311
O O3 0.694051 0.887262 0.549039
O O4 0.643596 0.000000 0.359978
O O5 0.589887 0.350188 0.389323
O O6 0.515265 0.344830 0.142595
O O7 0.808157 0.324977 0.307948
O O8 0.888096 0.273836 0.289310
O O9 0.920981 0.169763 0.472739
O O10 0.757112 0.158703 0.168811
O O11 0.387736 0.847882 0.132159
O O12 0.412302 0.819176 0.014431
O O13 0.358238 0.000000 0.992586
O O14 0.771002 0.000000 0.763249
O O15 0.849170 0.175655 0.837456
O O16 0.576067 0.665356 0.778303
O O17 0.750000 0.750000 0.000000
O O18 0.972350 0.000000 0.613377
O O19 0.500000 0.227450 0.000000
#
# Coordination Sequence:
#
# PCOD9209594 Si02
#       8
#     8   8   8   8   8   8   8   8
#     4  10  21  38  63  90 126 173 208 251 320 379
#     4  11  22  40  60  95 134 163 211 268 311 381
#     4  10  22  42  64  95 128 159 211 266 313 376
#     4  10  22  41  64  90 126 170 207 256 320 377
#     4  10  21  38  63  90 123 166 208 258 313 371
#     4  10  23  43  62  90 127 162 204 260 314 374
#     4  12  24  41  68  98 127 164 213 266 322 378
#     4  11  22  39  60  91 128 163 212 265 309 374
#
# _framework density 20.298960000000001
#
# number of rings (size 3 to 8) (size 9 to 14) (size 15 to 20)
#    0.000    1.500    3.750    1.125    0.000    5.500 
#    0.000    1.875    0.000    1.500    0.000    0.000 
#    0.000    0.000    0.000    0.000    0.000    0.000 
#
# Total GULP energy -178691.555860 kJ/mol
# GULP energy per Si atom -5584.111121 kJ/mol
# Density = 2.025276 g / cm^3
# Si number density = 20.298960 Si / 1000 Ang^3
#
#
#
# Elastic Constant Matrix: (Units=GPa)
#
#
# Indices 1 2 3 4 5 6 
#
# 1 113.9946 44.3013 15.0992 0.0000 -8.3336 0.0000
# 2 44.3013 122.3980 7.0389 0.0000 6.3279 0.0000
# 3 15.0992 7.0389 44.5625 0.0000 -5.2235 0.0000
# 4 0.0000 0.0000 0.0000 13.3481 0.0000 -0.5447
# 5 -8.3336 6.3279 -5.2235 0.0000 28.2399 0.0000
# 6 0.0000 0.0000 0.0000 -0.5447 0.0000 5.2265
#
#
#
# Elastic Compliance Matrix: (Units=1/GPa)
#
#
# Indices 1 2 3 4 5 6 
#
# 1 0.010942 -0.003996 -0.002650 0.000000 0.003634 0.000000
# 2 -0.003996 0.009832 -0.000609 0.000000 -0.003495 0.000000
# 3 -0.002650 -0.000609 0.023877 0.000000 0.003771 0.000000
# 4 0.000000 0.000000 0.000000 0.075237 0.000000 0.007840
# 5 0.003634 -0.003495 0.003771 0.000000 0.037964 0.000000
# 6 0.000000 0.000000 0.000000 0.007840 0.000000 0.192149
#
#
# Mechanical properties :
#
#
# Convention : Reuss Voigt Hill
#
# Bulk Modulus (GPa) = 33.17778 45.98154 39.57966
# Shear Modulus (GPa) = 13.34911 23.66395 18.50653
#
# Velocity S-wave (km/s) = 2.56720 3.41804 3.02271
# Velocity P-wave (km/s) = 5.01671 6.18698 5.63232
#
# Compressibility (1/GPa) = 0.03014065
#
# Stress axis : x y z
#
# Youngs Moduli (GPa) = 91.39126 101.70827 41.88207
#
# Poissons Ratio (x) = 0.40641 0.11100
# Poissons Ratio (y) = 0.36519 0.02550
# Poissons Ratio (z) = 0.24222 0.06192
#
# Static dielectric constant tensor:
#      x y z
#    x 1.722390 0.000000 0.000050 
#    y 0.000000 1.684430 0.000000 
#    z 0.000050 0.000000 1.750620 
# 
# From -- ./inp_files/296517.got.cif
#   From: 2010.05.17/outbox.cif.g08.bks.cpg/sg12_149_cif.got.tgz:296517.got - 2010.06.03 13:09:07.
