data_PCOD9209150
_publ_section_title
;
Structure prediction by ZEFSAII (Michael W. Deem and Ramdas Pophale) SiO2 
 PCOD9209150
Probable space group: C 2/M
;
_chemical_formula_sum "Si O2"
_cell_formula_units_Z 32
_cell_length_a 13.588062
_cell_length_b 24.311842
_cell_length_c 4.742973
_cell_angle_alpha 90.000000
_cell_angle_beta 130.419645
_cell_angle_gamma 90.000000
_cell_volume 1192.864236
_symmetry_space_group_name_H-M "C 2/M"
_symmetry_group_IT_number 12
_symmetry_cell_setting 'monoclinic'
loop_
_space_group_symop_operation_xyz
x,y,z
-x,y,-z
-x,-y,-z
x,-y,z
1/2+x,1/2+y,z
1/2-x,1/2+y,-z
1/2-x,1/2-y,-z
1/2+x,1/2-y,z
loop_
_atom_site_type_symbol
_atom_site_label
_atom_site_fract_x
_atom_site_fract_y
_atom_site_fract_z
Si Si1 0.867227 0.176007 0.921802
Si Si2 0.220499 0.940493 0.177612
Si Si3 0.382197 0.912159 0.001120
Si Si4 0.869183 0.708564 0.937406
O O1 0.848819 0.116867 0.032232
O O2 0.750623 0.192733 0.491606
O O3 0.866788 0.233202 0.097280
O O4 0.000000 0.171307 0.000000
O O5 0.349947 0.943277 0.227401
O O6 0.154082 0.000000 0.030519
O O7 0.262241 0.929335 0.577041
O O8 0.383544 0.849324 0.116665
O O9 0.500000 0.919207 0.000000
O O10 0.000000 0.713203 0.000000
#
# Coordination Sequence:
#
# PCOD9209150 Si02
#       4
#     8   8   8   8
#     4   9  18  35  59  87 122 161 199 246 304 364
#     4  11  23  37  56  85 120 161 206 247 294 360
#     4  10  21  38  61  88 118 154 200 256 311 360
#     4   8  16  34  60  89 117 150 199 255 308 359
#
# _framework density 26.826187999999998
#
# number of rings (size 3 to 8) (size 9 to 14) (size 15 to 20)
#    0.000    2.500    0.000    1.500    0.000    4.500 
#    0.000    5.000    0.000   28.500    0.000    0.000 
#    0.000    0.000    0.000    0.000    0.000    0.000 
#
# Total GULP energy -89180.540236 kJ/mol
# GULP energy per Si atom -5573.783765 kJ/mol
# Density = 2.676513 g / cm^3
# Si number density = 26.826188 Si / 1000 Ang^3
#
#
#
# Elastic Constant Matrix: (Units=GPa)
#
#
# Indices 1 2 3 4 5 6 
#
# 1 133.3504 67.5128 12.3570 0.0000 13.0445 0.0000
# 2 67.5128 320.8472 -5.2258 0.0000 -12.9982 0.0000
# 3 12.3570 -5.2258 91.9463 0.0000 -0.0366 0.0000
# 4 0.0000 0.0000 0.0000 -39.5178 0.0000 -44.2680
# 5 13.0445 -12.9982 -0.0366 0.0000 42.7581 0.0000
# 6 0.0000 0.0000 0.0000 -44.2680 0.0000 -36.0182
#
#
#
# Elastic Compliance Matrix: (Units=1/GPa)
#
#
# Indices 1 2 3 4 5 6 
#
# 1 0.008989 -0.002049 -0.001326 0.000000 -0.003366 0.000000
# 2 -0.002049 0.003626 0.000482 0.000000 0.001728 0.000000
# 3 -0.001326 0.000482 0.011082 0.000000 0.000561 0.000000
# 4 0.000000 0.000000 0.000000 0.067161 0.000000 -0.082544
# 5 -0.003366 0.001728 0.000561 0.000000 0.024940 0.000000
# 6 0.000000 0.000000 0.000000 -0.082544 0.000000 0.073686
#
#
# Mechanical properties :
#
#
# Convention : Reuss Voigt Hill
#
# Bulk Modulus (GPa) = 55.83404 77.27022 66.55213
# Shear Modulus (GPa) = 24.84598 24.87774 24.86186
#
# Velocity S-wave (km/s) = 3.04663 3.04858 3.04760
# Velocity P-wave (km/s) = 5.76493 6.42326 6.10298
#
# Compressibility (1/GPa) = 0.01791022
#
# Stress axis : x y z
#
# Youngs Moduli (GPa) = 111.24984 275.79854 90.23861
#
# Poissons Ratio (x) = 0.56522 0.11964
# Poissons Ratio (y) = 0.22799 -0.04351
# Poissons Ratio (z) = 0.14750 -0.13299
#
# Static dielectric constant tensor:
#      x y z
#    x 2.156910 0.000000 0.147060 
#    y 0.000000 2.208570 0.000000 
#    z 0.147060 0.000000 2.155440 
# 
# From -- ./inp_files/7305.got.cif
#   From: 2010.05.17/outbox.cif.g08.bks.cpg/sg12_4_cif.got.tgz:7305.got - 2010.06.03 13:09:07.
