data_PCOD9209546
_publ_section_title
;
Structure prediction by ZEFSAII (Michael W. Deem and Ramdas Pophale) SiO2 
 PCOD9209546
Probable space group: C 2/M
;
_chemical_formula_sum "Si O2"
_cell_formula_units_Z 48
_cell_length_a 21.301682
_cell_length_b 10.736153
_cell_length_c 13.196530
_cell_angle_alpha 90.000000
_cell_angle_beta 46.095425
_cell_angle_gamma 90.000000
_cell_volume 2174.471686
_symmetry_space_group_name_H-M "C 2/M"
_symmetry_group_IT_number 12
_symmetry_cell_setting 'monoclinic'
loop_
_space_group_symop_operation_xyz
x,y,z
-x,y,-z
-x,-y,-z
x,-y,z
1/2+x,1/2+y,z
1/2-x,1/2+y,-z
1/2-x,1/2-y,-z
1/2+x,1/2-y,z
loop_
_atom_site_type_symbol
_atom_site_label
_atom_site_fract_x
_atom_site_fract_y
_atom_site_fract_z
Si Si1 0.839744 0.500000 0.836688
Si Si2 0.686008 0.142761 0.666586
Si Si3 0.583629 0.500000 0.478888
Si Si4 0.143958 0.247147 0.109729
Si Si5 0.625597 0.245240 0.541777
Si Si6 0.079563 0.356967 0.982039
Si Si7 0.095796 0.500000 0.442649
Si Si8 0.831429 0.000000 0.821478
O O1 0.889041 0.371567 0.799593
O O2 0.827215 0.500000 0.729843
O O3 0.761350 0.500000 0.010347
O O4 0.613709 0.203243 0.672421
O O5 0.771449 0.226360 0.574668
O O6 0.655687 0.134791 0.815348
O O7 0.703455 0.000000 0.611261
O O8 0.500000 0.500000 0.500000
O O9 0.586664 0.374301 0.542638
O O10 0.663927 0.500000 0.305723
O O11 0.120166 0.122273 0.193001
O O12 0.250000 0.250000 0.000000
O O13 0.109046 0.263432 0.036127
O O14 0.604597 0.126175 0.497121
O O15 0.062711 0.500000 0.039086
O O16 0.000000 0.318427 0.000000
O O17 0.000000 0.500000 0.500000
#
# Coordination Sequence:
#
# PCOD9209546 Si02
#       8
#     4   8   4   8   8   8   4   4
#     4  10  22  38  63  92 123 166 217 263 315 385
#     4  10  22  41  68  93 125 174 222 274 316 392
#     4  12  26  43  66  94 134 175 213 270 338 396
#     4  10  21  38  62  95 125 169 215 264 319 389
#     4  11  24  43  67  92 126 173 223 265 328 395
#     4  10  22  39  65  98 133 170 215 272 328 382
#     4  12  26  41  64 100 136 165 215 284 332 382
#     4  10  24  38  61  94 127 166 213 263 323 383
#
# _framework density 22.074328000000001
#
# number of rings (size 3 to 8) (size 9 to 14) (size 15 to 20)
#    0.000    1.500    2.500    1.500    9.333    2.667 
#    0.000    1.250    0.000    0.000    0.000    0.000 
#    0.000    0.000    0.000    0.000    0.000    0.000 
#
# Total GULP energy -133839.017060 kJ/mol
# GULP energy per Si atom -5576.625711 kJ/mol
# Density = 2.202409 g / cm^3
# Si number density = 22.074328 Si / 1000 Ang^3
#
#
#
# Elastic Constant Matrix: (Units=GPa)
#
#
# Indices 1 2 3 4 5 6 
#
# 1 129.2553 47.9202 4.9321 0.0000 8.8193 0.0000
# 2 47.9202 196.3635 16.2530 0.0000 27.5000 0.0000
# 3 4.9321 16.2530 35.2581 0.0000 -7.1100 0.0000
# 4 0.0000 0.0000 0.0000 17.9178 0.0000 23.5013
# 5 8.8193 27.5000 -7.1100 0.0000 26.3791 0.0000
# 6 0.0000 0.0000 0.0000 23.5013 0.0000 41.5227
#
#
#
# Elastic Compliance Matrix: (Units=1/GPa)
#
#
# Indices 1 2 3 4 5 6 
#
# 1 0.008529 -0.001896 -0.000524 0.000000 -0.001017 0.000000
# 2 -0.001896 0.007048 -0.004587 0.000000 -0.007950 0.000000
# 3 -0.000524 -0.004587 0.033363 0.000000 0.013950 0.000000
# 4 0.000000 0.000000 0.000000 0.216619 0.000000 -0.122603
# 5 -0.001017 -0.007950 0.013950 0.000000 0.050297 0.000000
# 6 0.000000 0.000000 0.000000 -0.122603 0.000000 0.093475
#
#
# Mechanical properties :
#
#
# Convention : Reuss Voigt Hill
#
# Bulk Modulus (GPa) = 28.63174 55.45416 42.04295
# Shear Modulus (GPa) = 11.49460 36.61537 24.05498
#
# Velocity S-wave (km/s) = 2.28441 4.07717 3.30468
# Velocity P-wave (km/s) = 4.46730 6.88044 5.80075
#
# Compressibility (1/GPa) = 0.03492628
#
# Stress axis : x y z
#
# Youngs Moduli (GPa) = 117.25029 141.87826 29.97317
#
# Poissons Ratio (x) = 0.26894 0.01571
# Poissons Ratio (y) = 0.22226 0.13749
# Poissons Ratio (z) = 0.06147 0.65082
#
# Static dielectric constant tensor:
#      x y z
#    x 1.448410 0.000000 0.167530 
#    y 0.000000 1.739450 0.000000 
#    z 0.167530 0.000000 1.817180 
# 
# From -- ./inp_files/154276.got.cif
#   From: 2010.05.17/outbox.cif.g08.bks.cpg/sg12_78_cif.got.tgz:154276.got - 2010.06.03 13:09:07.
