data_PCOD9209103
_publ_section_title
;
Structure prediction by ZEFSAII (Michael W. Deem and Ramdas Pophale) SiO2 
 PCOD9209103
Probable space group: C 2/M
;
_chemical_formula_sum "Si O2"
_cell_formula_units_Z 48
_cell_length_a 19.457751
_cell_length_b 9.242188
_cell_length_c 25.621334
_cell_angle_alpha 90.000000
_cell_angle_beta 30.744115
_cell_angle_gamma 90.000000
_cell_volume 2355.396963
_symmetry_space_group_name_H-M "C 2/M"
_symmetry_group_IT_number 12
_symmetry_cell_setting 'monoclinic'
loop_
_space_group_symop_operation_xyz
x,y,z
-x,y,-z
-x,-y,-z
x,-y,z
1/2+x,1/2+y,z
1/2-x,1/2+y,-z
1/2-x,1/2-y,-z
1/2+x,1/2-y,z
loop_
_atom_site_type_symbol
_atom_site_label
_atom_site_fract_x
_atom_site_fract_y
_atom_site_fract_z
Si Si1 0.161373 0.828003 0.894346
Si Si2 0.581661 0.828837 0.556781
Si Si3 0.670179 0.671727 0.006150
Si Si4 0.177419 0.830116 0.302357
Si Si5 0.863934 0.329098 0.362092
Si Si6 0.072988 0.668630 0.793310
O O1 0.237216 0.736579 0.801226
O O2 0.183263 0.000000 0.870659
O O3 0.211899 0.792541 0.919806
O O4 0.000000 0.803983 0.000000
O O5 0.463369 0.751551 0.602960
O O6 0.727958 0.763416 0.450135
O O7 0.560136 0.801921 0.633148
O O8 0.580509 0.000000 0.548661
O O9 0.680239 0.500000 0.005459
O O10 0.518008 0.725700 0.113619
O O11 0.750000 0.750000 0.000000
O O12 0.272275 0.813776 0.291015
O O13 0.154605 0.000000 0.308725
O O14 0.828149 0.500000 0.385115
O O15 0.944533 0.301601 0.256514
O O16 0.036724 0.500000 0.827120
#
# Coordination Sequence:
#
# PCOD9209103 Si02
#       6
#     8   8   8   8   8   8
#     4  10  21  40  61  82 115 156 194 235 286 340
#     4  10  21  38  61  87 115 149 191 238 290 348
#     4  11  24  40  60  86 118 154 193 240 287 341
#     4  11  23  37  59  88 118 152 194 241 286 341
#     4   9  20  40  62  83 113 151 191 236 288 345
#     4  10  22  40  60  85 117 154 194 239 289 340
#
# _framework density 20.378730999999998
#
# number of rings (size 3 to 8) (size 9 to 14) (size 15 to 20)
#    0.000    1.833    1.667    1.500    2.333    4.333 
#    0.000    3.333    0.000    0.000    0.000    0.000 
#    0.000    0.000    0.000    0.000    0.000    0.000 
#
# Total GULP energy -134120.241102 kJ/mol
# GULP energy per Si atom -5588.343379 kJ/mol
# Density = 2.033235 g / cm^3
# Si number density = 20.378731 Si / 1000 Ang^3
#
#
#
# Elastic Constant Matrix: (Units=GPa)
#
#
# Indices 1 2 3 4 5 6 
#
# 1 62.6535 19.1555 -5.7683 0.0000 -0.0576 0.0000
# 2 19.1555 35.6700 5.5209 0.0000 0.3325 0.0000
# 3 -5.7683 5.5209 11.2400 -0.0006 -1.2126 0.0000
# 4 0.0000 0.0000 -0.0006 33.3186 -0.0001 -6.3589
# 5 -0.0576 0.3325 -1.2126 -0.0001 35.5784 0.0000
# 6 0.0000 0.0000 0.0000 -6.3589 0.0000 29.9613
#
#
#
# Elastic Compliance Matrix: (Units=1/GPa)
#
#
# Indices 1 2 3 4 5 6 
#
# 1 0.022234 -0.014857 0.018796 0.000000 0.000815 0.000000
# 2 -0.014857 0.040291 -0.027559 0.000000 -0.001340 0.000000
# 3 0.018796 -0.027559 0.112596 0.000002 0.004126 0.000000
# 4 0.000000 0.000000 0.000002 0.031280 0.000000 0.006639
# 5 0.000815 -0.001340 0.004126 0.000000 0.028261 0.000000
# 6 0.000000 0.000000 0.000000 0.006639 0.000000 0.034785
#
#
# Mechanical properties :
#
#
# Convention : Reuss Voigt Hill
#
# Bulk Modulus (GPa) = 7.81980 16.37551 12.09766
# Shear Modulus (GPa) = 13.91533 25.81537 19.86535
#
# Velocity S-wave (km/s) = 2.61595 3.56305 3.12558
# Velocity P-wave (km/s) = 3.60136 4.99801 4.35603
#
# Compressibility (1/GPa) = 0.12788045
#
# Stress axis : x y z
#
# Youngs Moduli (GPa) = 44.97539 24.81926 8.88134
#
# Poissons Ratio (x) = 0.36874 -0.16693
# Poissons Ratio (y) = 0.66820 0.24476
# Poissons Ratio (z) = -0.84536 0.68400
#
# Static dielectric constant tensor:
#      x y z
#    x 1.753120 0.000000 -0.014670 
#    y 0.000000 1.669840 0.000000 
#    z -0.014670 0.000000 1.722250 
# 
# From -- ./inp_files/365353.got.cif
#   From: 2010.05.17/outbox.cif.g08.bks.cpg/sg12_183_cif.got.tgz:365353.got - 2010.06.03 13:09:07.
