data_PCOD9209063
_publ_section_title
;
Structure prediction by ZEFSAII (Michael W. Deem and Ramdas Pophale) SiO2 
 PCOD9209063
Probable space group: C 2/M
;
_chemical_formula_sum "Si O2"
_cell_formula_units_Z 40
_cell_length_a 16.117327
_cell_length_b 17.454165
_cell_length_c 8.505396
_cell_angle_alpha 90.000000
_cell_angle_beta 131.834906
_cell_angle_gamma 90.000000
_cell_volume 1782.721859
_symmetry_space_group_name_H-M "C 2/M"
_symmetry_group_IT_number 12
_symmetry_cell_setting 'monoclinic'
loop_
_space_group_symop_operation_xyz
x,y,z
-x,y,-z
-x,-y,-z
x,-y,z
1/2+x,1/2+y,z
1/2-x,1/2+y,-z
1/2-x,1/2-y,-z
1/2+x,1/2-y,z
loop_
_atom_site_type_symbol
_atom_site_label
_atom_site_fract_x
_atom_site_fract_y
_atom_site_fract_z
Si Si1 0.152104 0.917911 0.367016
Si Si2 0.726183 0.881507 0.181378
Si Si3 0.798899 0.797561 0.834595
Si Si4 0.115906 0.587730 0.738405
Si Si5 0.942666 0.857435 0.277509
O O1 0.251274 0.917265 0.620594
O O2 0.162690 0.844808 0.268543
O O3 0.036352 0.908975 0.315084
O O4 0.152119 0.000000 0.282154
O O5 0.730026 0.790651 0.220251
O O6 0.835404 0.900653 0.213080
O O7 0.623084 0.902044 0.937942
O O8 0.697094 0.847285 0.773492
O O9 0.895274 0.801188 0.087288
O O10 0.153431 0.500000 0.754737
O O11 0.000000 0.596167 0.500000
O O12 0.000000 0.818256 0.500000
#
# Coordination Sequence:
#
# PCOD9209063 Si02
#       5
#     8   8   8   8   8
#     4  11  23  39  61  90 124 156 192 246 307 359
#     4  10  22  39  60  87 119 157 200 241 290 353
#     4  11  22  38  60  88 122 156 195 244 296 353
#     4  10  21  38  61  85 113 156 204 244 285 341
#     4   9  20  36  59  88 117 149 190 236 295 356
#
# _framework density 22.4376
#
# number of rings (size 3 to 8) (size 9 to 14) (size 15 to 20)
#    0.000    1.800    0.000    4.800    0.000   14.800 
#    0.000    3.000    0.000    3.600    0.000    0.000 
#    0.000    0.000    0.000    0.000    0.000    0.000 
#
# Total GULP energy -111629.760864 kJ/mol
# GULP energy per Si atom -5581.488043 kJ/mol
# Density = 2.238653 g / cm^3
# Si number density = 22.437600 Si / 1000 Ang^3
#
#
#
# Elastic Constant Matrix: (Units=GPa)
#
#
# Indices 1 2 3 4 5 6 
#
# 1 40.7500 29.7497 33.8144 0.0000 -12.2504 0.0000
# 2 29.7497 164.3551 36.1888 0.0000 4.1515 0.0000
# 3 33.8144 36.1888 150.7788 0.0000 2.5977 0.0000
# 4 0.0000 0.0000 0.0000 26.3161 0.0000 -9.4194
# 5 -12.2504 4.1515 2.5977 0.0000 26.2484 0.0000
# 6 0.0000 0.0000 0.0000 -9.4194 0.0000 26.3662
#
#
#
# Elastic Compliance Matrix: (Units=1/GPa)
#
#
# Indices 1 2 3 4 5 6 
#
# 1 0.042799 -0.006443 -0.008428 0.000000 0.021828 0.000000
# 2 -0.006443 0.007413 -0.000263 0.000000 -0.004153 0.000000
# 3 -0.008428 -0.000263 0.008667 0.000000 -0.004750 0.000000
# 4 0.000000 0.000000 0.000000 0.043571 0.000000 0.015566
# 5 0.021828 -0.004153 -0.004750 0.000000 0.049412 0.000000
# 6 0.000000 0.000000 0.000000 0.015566 0.000000 0.043488
#
#
# Mechanical properties :
#
#
# Convention : Reuss Voigt Hill
#
# Bulk Modulus (GPa) = 34.94982 61.70997 48.32989
# Shear Modulus (GPa) = 21.26256 32.86155 27.06206
#
# Velocity S-wave (km/s) = 3.08170 3.83113 3.47667
# Velocity P-wave (km/s) = 5.31721 6.86533 6.14026
#
# Compressibility (1/GPa) = 0.02861245
#
# Stress axis : x y z
#
# Youngs Moduli (GPa) = 23.36511 134.89190 115.37650
#
# Poissons Ratio (x) = 0.86905 0.97240
# Poissons Ratio (y) = 0.15053 0.03033
# Poissons Ratio (z) = 0.19692 0.03546
#
# Static dielectric constant tensor:
#      x y z
#    x 1.856120 0.000000 -0.006300 
#    y 0.000000 1.805000 0.000000 
#    z -0.006300 0.000000 1.886290 
# 
# From -- ./inp_files/75528.got.cif
#   From: 2010.05.17/outbox.cif.g08.bks.cpg/sg12_38_cif.got.tgz:75528.got - 2010.06.03 13:09:07.
