data_PCOD9209530
_publ_section_title
;
Structure prediction by ZEFSAII (Michael W. Deem and Ramdas Pophale) SiO2 
 PCOD9209530
Probable space group: C 2/M
;
_chemical_formula_sum "Si O2"
_cell_formula_units_Z 44
_cell_length_a 8.481566
_cell_length_b 32.125034
_cell_length_c 10.802038
_cell_angle_alpha 90.000000
_cell_angle_beta 45.739138
_cell_angle_gamma 90.000000
_cell_volume 2107.857523
_symmetry_space_group_name_H-M "C 2/M"
_symmetry_group_IT_number 12
_symmetry_cell_setting 'monoclinic'
loop_
_space_group_symop_operation_xyz
x,y,z
-x,y,-z
-x,-y,-z
x,-y,z
1/2+x,1/2+y,z
1/2-x,1/2+y,-z
1/2-x,1/2-y,-z
1/2+x,1/2-y,z
loop_
_atom_site_type_symbol
_atom_site_label
_atom_site_fract_x
_atom_site_fract_y
_atom_site_fract_z
Si Si1 0.657955 0.369205 0.620130
Si Si2 0.638064 0.876417 0.231313
Si Si3 0.125024 0.777222 0.668099
Si Si4 0.514231 0.953146 0.843854
Si Si5 0.500000 0.429597 0.500000
Si Si6 0.740422 0.787023 0.144268
O O1 0.690373 0.380108 0.747789
O O2 0.558088 0.323069 0.660650
O O3 0.527353 0.401671 0.608372
O O4 0.900589 0.369154 0.425474
O O5 0.615326 0.916981 0.158694
O O6 0.687879 0.833773 0.129735
O O7 0.250000 0.750000 0.500000
O O8 0.289117 0.786168 0.690963
O O9 0.915375 0.749164 0.818302
O O10 0.767104 0.952087 0.653880
O O11 0.427896 0.000000 0.868576
O O12 0.500000 0.945811 0.000000
O O13 0.000000 0.781063 0.000000
#
# Coordination Sequence:
#
# PCOD9209530 Si02
#       6
#     8   8   8   8   4   8
#     4   9  19  35  60  87 115 164 208 239 296 359
#     4   9  19  39  58  83 121 159 201 248 300 370
#     4  11  21  36  58  80 114 161 208 247 287 350
#     4  10  22  41  66  93 121 153 196 253 317 377
#     4  10  21  38  62  94 126 156 202 254 301 372
#     4  11  23  36  54  84 121 157 201 256 305 345
#
# _framework density 20.874276999999999
#
# number of rings (size 3 to 8) (size 9 to 14) (size 15 to 20)
#    0.000    2.000    1.818    1.364    2.545    2.909 
#    0.000   10.000    0.000    2.727    0.000    0.000 
#    0.000    0.000    0.000    0.000    0.000    0.000 
#
# Total GULP energy -122697.490893 kJ/mol
# GULP energy per Si atom -5577.158677 kJ/mol
# Density = 2.082677 g / cm^3
# Si number density = 20.874277 Si / 1000 Ang^3
#
#
#
# Elastic Constant Matrix: (Units=GPa)
#
#
# Indices 1 2 3 4 5 6 
#
# 1 62.8122 75.9778 12.6718 0.0000 3.6015 0.0000
# 2 75.9778 190.3142 41.3203 0.0000 13.9325 0.0000
# 3 12.6718 41.3203 77.1860 0.0000 0.4125 0.0000
# 4 0.0000 0.0000 0.0000 -58.7875 0.0000 25.5457
# 5 3.6015 13.9325 0.4125 0.0000 28.7357 0.0000
# 6 0.0000 0.0000 0.0000 25.5457 0.0000 24.7841
#
#
#
# Elastic Compliance Matrix: (Units=1/GPa)
#
#
# Indices 1 2 3 4 5 6 
#
# 1 0.031148 -0.013008 0.001837 0.000000 0.002377 0.000000
# 2 -0.013008 0.011618 -0.004063 0.000000 -0.003945 0.000000
# 3 0.001837 -0.004063 0.014821 0.000000 0.001527 0.000000
# 4 0.000000 0.000000 0.000000 -0.011748 0.000000 0.012109
# 5 0.002377 -0.003945 0.001527 0.000000 0.036393 0.000000
# 6 0.000000 0.000000 0.000000 0.012109 0.000000 0.027867
#
#
# Mechanical properties :
#
#
# Convention : Reuss Voigt Hill
#
# Bulk Modulus (GPa) = 36.87336 65.58360 51.22848
# Shear Modulus (GPa) = 33.42111 12.30262 22.86187
#
# Velocity S-wave (km/s) = 4.00567 2.43032 3.31300
# Velocity P-wave (km/s) = 6.25274 6.27390 6.26333
#
# Compressibility (1/GPa) = 0.02711985
#
# Stress axis : x y z
#
# Youngs Moduli (GPa) = 32.10496 86.07017 67.47154
#
# Poissons Ratio (x) = 1.11958 -0.12396
# Poissons Ratio (y) = 0.41762 0.27415
# Poissons Ratio (z) = -0.05898 0.34971
#
# Static dielectric constant tensor:
#      x y z
#    x 3.253920 0.000000 1.331240 
#    y 0.000000 1.767340 0.000000 
#    z 1.331240 0.000000 2.995400 
# 
# From -- ./inp_files/124060.got.cif
#   From: 2010.05.17/outbox.cif.g08.bks.cpg/sg12_63_cif.got.tgz:124060.got - 2010.06.03 13:09:07.
