data_PCOD9209704
_publ_section_title
;
Structure prediction by ZEFSAII (Michael W. Deem and Ramdas Pophale) SiO2 
 PCOD9209704
Probable space group: C 2/M
;
_chemical_formula_sum "Si O2"
_cell_formula_units_Z 42
_cell_length_a 10.982105
_cell_length_b 20.113388
_cell_length_c 8.710571
_cell_angle_alpha 90.000000
_cell_angle_beta 68.969731
_cell_angle_gamma 90.000000
_cell_volume 1795.895427
_symmetry_space_group_name_H-M "C 2/M"
_symmetry_group_IT_number 12
_symmetry_cell_setting 'monoclinic'
loop_
_space_group_symop_operation_xyz
x,y,z
-x,y,-z
-x,-y,-z
x,-y,z
1/2+x,1/2+y,z
1/2-x,1/2+y,-z
1/2-x,1/2-y,-z
1/2+x,1/2-y,z
loop_
_atom_site_type_symbol
_atom_site_label
_atom_site_fract_x
_atom_site_fract_y
_atom_site_fract_z
Si Si1 0.497611 0.242436 0.320003
Si Si2 0.770738 0.303097 0.234889
Si Si3 0.500000 0.000000 0.000000
Si Si4 0.887747 0.371720 0.892787
Si Si5 0.150525 0.076246 0.483709
Si Si6 0.132317 0.920738 0.856370
O O1 0.500000 0.254917 0.500000
O O2 0.635298 0.278026 0.217583
O O3 0.357727 0.250073 0.295881
O O4 0.524323 0.165926 0.269324
O O5 0.729022 0.366677 0.358666
O O6 0.862122 0.328670 0.057061
O O7 0.555188 0.941930 0.088406
O O8 0.748256 0.382566 0.881869
O O9 0.141792 0.087881 0.669534
O O10 0.000000 0.078465 0.500000
O O11 0.199081 0.000000 0.430420
O O12 0.144369 0.000000 0.879949
O O13 0.000000 0.899143 0.000000
#
# Coordination Sequence:
#
# PCOD9209704 Si02
#       6
#     8   8   2   8   8   8
#     4  12  27  47  69 101 140 186 239 288 344 415
#     4  12  26  46  72 101 141 186 236 289 350 413
#     4  12  24  48  72 104 140 176 234 282 360 412
#     4  12  25  45  73 102 140 181 229 287 353 416
#     4  10  22  41  68 106 143 181 230 289 354 416
#     4  10  21  38  64 101 139 178 223 278 345 415
#
# _framework density 23.386662000000001
#
# number of rings (size 3 to 8) (size 9 to 14) (size 15 to 20)
#    0.000    0.762    2.857    4.000    1.333    4.571 
#    0.000    0.476    0.000    0.000    0.000    0.000 
#    0.000    0.000    0.000    0.000    0.000    0.000 
#
# Total GULP energy -117161.785661 kJ/mol
# GULP energy per Si atom -5579.132651 kJ/mol
# Density = 2.333343 g / cm^3
# Si number density = 23.386662 Si / 1000 Ang^3
#
#
#
# Elastic Constant Matrix: (Units=GPa)
#
#
# Indices 1 2 3 4 5 6 
#
# 1 113.7483 40.2212 8.1028 0.0000 9.2324 0.0000
# 2 40.2212 96.8449 25.9710 0.0000 1.1678 0.0000
# 3 8.1028 25.9710 43.8738 0.0000 5.4352 0.0000
# 4 0.0000 0.0000 0.0000 26.0324 0.0000 -36.0402
# 5 9.2324 1.1678 5.4352 0.0000 37.0315 0.0000
# 6 0.0000 0.0000 0.0000 -36.0402 0.0000 199.2039
#
#
#
# Elastic Compliance Matrix: (Units=1/GPa)
#
#
# Indices 1 2 3 4 5 6 
#
# 1 0.010576 -0.004665 0.001138 0.000000 -0.002656 0.000000
# 2 -0.004665 0.014350 -0.007864 0.000000 0.001865 0.000000
# 3 0.001138 -0.007864 0.027746 0.000000 -0.004108 0.000000
# 4 0.000000 0.000000 0.000000 0.051251 0.000000 0.009272
# 5 -0.002656 0.001865 -0.004108 0.000000 0.028210 0.000000
# 6 0.000000 0.000000 0.000000 0.009272 0.000000 0.006698
#
#
# Mechanical properties :
#
#
# Convention : Reuss Voigt Hill
#
# Bulk Modulus (GPa) = 33.45732 44.78411 39.12071
# Shear Modulus (GPa) = 29.14167 64.46503 46.80335
#
# Velocity S-wave (km/s) = 3.53382 5.25592 4.47842
# Velocity P-wave (km/s) = 5.56666 7.48491 6.59589
#
# Compressibility (1/GPa) = 0.02988882
#
# Stress axis : x y z
#
# Youngs Moduli (GPa) = 94.55794 69.68819 36.04079
#
# Poissons Ratio (x) = 0.32511 -0.04100
# Poissons Ratio (y) = 0.44113 0.28341
# Poissons Ratio (z) = -0.10756 0.54800
#
# Static dielectric constant tensor:
#      x y z
#    x 1.929120 0.000000 -0.163720 
#    y 0.000000 1.882930 0.000000 
#    z -0.163720 0.000000 1.216590 
# 
# From -- ./inp_files/49209.got.cif
#   From: 2010.05.17/outbox.cif.g08.bks.cpg/sg12_25_cif.got.tgz:49209.got - 2010.06.03 13:09:07.
