data_PCOD9209305
_publ_section_title
;
Structure prediction by ZEFSAII (Michael W. Deem and Ramdas Pophale) SiO2 
 PCOD9209305
Probable space group: C 2/M
;
_chemical_formula_sum "Si O2"
_cell_formula_units_Z 56
_cell_length_a 19.259141
_cell_length_b 19.870313
_cell_length_c 15.662002
_cell_angle_alpha 90.000000
_cell_angle_beta 28.680482
_cell_angle_gamma 90.000000
_cell_volume 2876.484036
_symmetry_space_group_name_H-M "C 2/M"
_symmetry_group_IT_number 12
_symmetry_cell_setting 'monoclinic'
loop_
_space_group_symop_operation_xyz
x,y,z
-x,y,-z
-x,-y,-z
x,-y,z
1/2+x,1/2+y,z
1/2-x,1/2+y,-z
1/2-x,1/2-y,-z
1/2+x,1/2-y,z
loop_
_atom_site_type_symbol
_atom_site_label
_atom_site_fract_x
_atom_site_fract_y
_atom_site_fract_z
Si Si1 0.183838 0.809663 0.513473
Si Si2 0.857936 0.182170 0.093299
Si Si3 0.814205 0.580417 0.035928
Si Si4 0.646955 0.315434 0.100211
Si Si5 0.827856 0.671670 0.174018
Si Si6 0.374582 0.078783 0.378387
Si Si7 0.639787 0.923781 0.408581
O O1 0.250000 0.750000 0.500000
O O2 0.253369 0.816609 0.345077
O O3 0.236209 0.877749 0.502876
O O4 0.012829 0.800324 0.692082
O O5 0.801223 0.258731 0.153215
O O6 0.749453 0.130941 0.255009
O O7 0.877569 0.165654 0.972785
O O8 0.000000 0.182433 0.000000
O O9 0.796103 0.500000 0.049773
O O10 0.717920 0.622160 0.073350
O O11 0.780500 0.609471 0.166353
O O12 0.982060 0.596691 0.830468
O O13 0.750000 0.250000 0.000000
O O14 0.000000 0.664294 0.000000
O O15 0.404657 0.090133 0.445974
O O16 0.347564 0.000000 0.393985
O O17 0.500000 0.922533 0.500000
O O18 0.701325 0.000000 0.339655
#
# Coordination Sequence:
#
# PCOD9209305 Si02
#       7
#     8   8   8   8   8   8   8
#     4  12  24  41  69  95 129 174 228 277 336 397
#     4  11  23  41  64  93 131 172 219 275 329 397
#     4  11  24  44  69  98 137 183 221 277 349 412
#     4  12  25  44  65  95 140 175 222 282 342 405
#     4  11  22  42  67  98 132 169 229 281 331 406
#     4  10  21  40  65  95 130 173 225 275 336 400
#     4  10  21  38  61  93 128 167 219 274 331 400
#
# _framework density 19.468211
#
# number of rings (size 3 to 8) (size 9 to 14) (size 15 to 20)
#    0.000    1.000    2.857    5.143    0.000    5.143 
#    0.000    0.714    0.000    0.000    0.000    0.000 
#    0.000    0.000    0.000    0.000    0.000    0.000 
#
# Total GULP energy -156425.435103 kJ/mol
# GULP energy per Si atom -5586.622682 kJ/mol
# Density = 1.942390 g / cm^3
# Si number density = 19.468211 Si / 1000 Ang^3
#
#
#
# Elastic Constant Matrix: (Units=GPa)
#
#
# Indices 1 2 3 4 5 6 
#
# 1 108.2221 49.4778 51.6888 -0.0016 14.8772 0.0001
# 2 49.4778 97.2827 51.8162 0.0023 -3.5062 0.0000
# 3 51.6888 51.8162 114.4655 -0.0006 -0.0424 0.0002
# 4 -0.0016 0.0023 -0.0006 49.6359 -0.0004 -1.0428
# 5 14.8772 -3.5062 -0.0424 -0.0004 38.7885 -0.0001
# 6 0.0001 0.0000 0.0002 -1.0428 -0.0001 35.5262
#
#
#
# Elastic Compliance Matrix: (Units=1/GPa)
#
#
# Indices 1 2 3 4 5 6 
#
# 1 0.014507 -0.005411 -0.004104 0.000001 -0.006058 0.000000
# 2 -0.005411 0.015621 -0.004627 -0.000001 0.003482 0.000000
# 3 -0.004104 -0.004627 0.012684 0.000000 0.001170 0.000000
# 4 0.000001 -0.000001 0.000000 0.020159 0.000000 0.000592
# 5 -0.006058 0.003482 0.001170 0.000000 0.028420 0.000000
# 6 0.000000 0.000000 0.000000 0.000592 0.000000 0.028166
#
#
# Mechanical properties :
#
#
# Convention : Reuss Voigt Hill
#
# Bulk Modulus (GPa) = 68.82434 69.54846 69.18640
# Shear Modulus (GPa) = 32.74776 35.92263 34.33519
#
# Velocity S-wave (km/s) = 4.10581 4.30023 4.20414
# Velocity P-wave (km/s) = 7.60959 7.77545 7.69297
#
# Compressibility (1/GPa) = 0.01452974
#
# Stress axis : x y z
#
# Youngs Moduli (GPa) = 68.93405 64.01625 78.83806
#
# Poissons Ratio (x) = 0.34637 0.32353
# Poissons Ratio (y) = 0.37297 0.36477
# Poissons Ratio (z) = 0.28288 0.29619
#
# Static dielectric constant tensor:
#      x y z
#    x 1.710990 0.000000 0.033320 
#    y 0.000000 1.677660 0.000000 
#    z 0.033320 0.000000 1.632160 
# 
# From -- ./inp_files/227568.got.cif
#   From: 2010.05.17/outbox.cif.g08.bks.cpg/sg12_114_cif.got.tgz:227568.got - 2010.06.03 13:09:07.
