data_PCOD9209804
_publ_section_title
;
Structure prediction by ZEFSAII (Michael W. Deem and Ramdas Pophale) SiO2 
 PCOD9209804
Probable space group: C 2/M
;
_chemical_formula_sum "Si O2"
_cell_formula_units_Z 56
_cell_length_a 12.970330
_cell_length_b 16.103616
_cell_length_c 15.162955
_cell_angle_alpha 90.000000
_cell_angle_beta 56.609648
_cell_angle_gamma 90.000000
_cell_volume 2644.318904
_symmetry_space_group_name_H-M "C 2/M"
_symmetry_group_IT_number 12
_symmetry_cell_setting 'monoclinic'
loop_
_space_group_symop_operation_xyz
x,y,z
-x,y,-z
-x,-y,-z
x,-y,z
1/2+x,1/2+y,z
1/2-x,1/2+y,-z
1/2-x,1/2-y,-z
1/2+x,1/2-y,z
loop_
_atom_site_type_symbol
_atom_site_label
_atom_site_fract_x
_atom_site_fract_y
_atom_site_fract_z
Si Si1 0.402916 0.401982 0.972560
Si Si2 0.779794 0.753693 0.383398
Si Si3 0.032507 0.595837 0.891025
Si Si4 0.441845 0.683043 0.765733
Si Si5 0.800815 0.905504 0.689392
Si Si6 0.374521 0.092069 0.615768
Si Si7 0.643828 0.145531 0.179756
O O1 0.422682 0.500000 0.950053
O O2 0.422932 0.358327 0.869591
O O3 0.500000 0.371606 0.000000
O O4 0.268067 0.388137 0.077413
O O5 0.750000 0.750000 0.500000
O O6 0.730136 0.667484 0.365135
O O7 0.710497 0.831837 0.372530
O O8 0.924458 0.774314 0.304824
O O9 0.987974 0.500000 0.912743
O O10 0.961997 0.637025 0.843642
O O11 0.178259 0.594455 0.807938
O O12 0.000000 0.634871 0.000000
O O13 0.414405 0.620562 0.698364
O O14 0.343290 0.757586 0.803719
O O15 0.814690 0.000000 0.647808
O O16 0.500000 0.098324 0.500000
O O17 0.393455 0.100389 0.712083
O O18 0.321042 0.000000 0.623654
#
# Coordination Sequence:
#
# PCOD9209804 Si02
#       7
#     8   8   8   8   8   8   8
#     4  11  25  42  65 100 143 186 232 288 355 433
#     4  12  27  48  73 102 142 184 238 302 362 425
#     4  10  21  38  65 100 138 181 232 286 343 414
#     4  12  25  44  69 102 139 188 234 294 358 429
#     4  11  25  46  71 104 144 188 236 290 358 428
#     4  11  25  45  74 106 138 182 241 296 355 426
#     4  12  22  42  69 100 139 188 235 288 355 420
#
# _framework density 21.177475000000001
#
# number of rings (size 3 to 8) (size 9 to 14) (size 15 to 20)
#    0.000    0.714    2.857    4.714    0.000    4.571 
#    0.000    0.714    0.000    0.000    0.000    0.000 
#    0.000    0.000    0.000    0.000    0.000    0.000 
#
# Total GULP energy -156560.211696 kJ/mol
# GULP energy per Si atom -5591.436132 kJ/mol
# Density = 2.112927 g / cm^3
# Si number density = 21.177475 Si / 1000 Ang^3
#
#
#
# Elastic Constant Matrix: (Units=GPa)
#
#
# Indices 1 2 3 4 5 6 
#
# 1 102.7337 48.0266 51.0014 0.0000 12.6909 0.0000
# 2 48.0266 144.5882 47.9179 0.0000 18.0996 0.0000
# 3 51.0014 47.9179 146.8346 0.0000 26.2526 0.0000
# 4 0.0000 0.0000 0.0000 24.8979 0.0000 1.9701
# 5 12.6909 18.0996 26.2526 0.0000 28.9640 0.0000
# 6 0.0000 0.0000 0.0000 1.9701 0.0000 34.4012
#
#
#
# Elastic Compliance Matrix: (Units=1/GPa)
#
#
# Indices 1 2 3 4 5 6 
#
# 1 0.012934 -0.003097 -0.003359 0.000000 -0.000687 0.000000
# 2 -0.003097 0.008728 -0.001241 0.000000 -0.002972 0.000000
# 3 -0.003359 -0.001241 0.009524 0.000000 -0.006385 0.000000
# 4 0.000000 0.000000 0.000000 0.040347 0.000000 -0.002311
# 5 -0.000687 -0.002972 -0.006385 0.000000 0.042471 0.000000
# 6 0.000000 0.000000 0.000000 -0.002311 0.000000 0.029201
#
#
# Mechanical properties :
#
#
# Convention : Reuss Voigt Hill
#
# Bulk Modulus (GPa) = 63.32432 76.44982 69.88707
# Shear Modulus (GPa) = 30.51315 34.13331 32.32323
#
# Velocity S-wave (km/s) = 3.79995 4.01905 3.91103
# Velocity P-wave (km/s) = 7.01566 7.59703 7.31213
#
# Compressibility (1/GPa) = 0.01579172
#
# Stress axis : x y z
#
# Youngs Moduli (GPa) = 77.31468 114.56939 105.00132
#
# Poissons Ratio (x) = 0.35482 0.35270
# Poissons Ratio (y) = 0.23944 0.13034
# Poissons Ratio (z) = 0.25970 0.14221
#
# Static dielectric constant tensor:
#      x y z
#    x 1.806290 0.000000 0.077840 
#    y 0.000000 1.790980 0.000000 
#    z 0.077840 0.000000 1.948600 
# 
# From -- ./inp_files/206586.got.cif
#   From: 2010.05.17/outbox.cif.g08.bks.cpg/sg12_104_cif.got.tgz:206586.got - 2010.06.03 13:09:07.
