data_PCOD9209633
_publ_section_title
;
Structure prediction by ZEFSAII (Michael W. Deem and Ramdas Pophale) SiO2 
 PCOD9209633
Probable space group: C 2/M
;
_chemical_formula_sum "Si O2"
_cell_formula_units_Z 56
_cell_length_a 12.824649
_cell_length_b 28.835927
_cell_length_c 14.557921
_cell_angle_alpha 90.000000
_cell_angle_beta 27.399915
_cell_angle_gamma 90.000000
_cell_volume 2477.558579
_symmetry_space_group_name_H-M "C 2/M"
_symmetry_group_IT_number 12
_symmetry_cell_setting 'monoclinic'
loop_
_space_group_symop_operation_xyz
x,y,z
-x,y,-z
-x,-y,-z
x,-y,z
1/2+x,1/2+y,z
1/2-x,1/2+y,-z
1/2-x,1/2-y,-z
1/2+x,1/2-y,z
loop_
_atom_site_type_symbol
_atom_site_label
_atom_site_fract_x
_atom_site_fract_y
_atom_site_fract_z
Si Si1 0.930753 0.444450 0.949833
Si Si2 0.438456 0.185764 0.654923
Si Si3 0.808655 0.580788 0.728872
Si Si4 0.066790 0.799270 0.729900
Si Si5 0.504641 0.402118 0.808970
Si Si6 0.153760 0.551487 0.592631
Si Si7 0.857932 0.732615 0.034101
O O1 0.878183 0.500000 0.991630
O O2 0.129644 0.438084 0.718913
O O3 0.723379 0.417147 0.064086
O O4 0.000000 0.431634 0.000000
O O5 0.500000 0.193418 0.500000
O O6 0.343492 0.133884 0.735883
O O7 0.683381 0.196883 0.508592
O O8 0.256164 0.221780 0.832542
O O9 0.581162 0.574187 0.845814
O O10 0.000000 0.573365 0.500000
O O11 0.905379 0.551939 0.738635
O O12 0.031099 0.847725 0.810647
O O13 0.851924 0.797968 0.831806
O O14 0.018318 0.753446 0.828968
O O15 0.694212 0.413695 0.584104
O O16 0.251401 0.500000 0.504753
O O17 0.000000 0.707480 0.000000
#
# Coordination Sequence:
#
# PCOD9209633 Si02
#       7
#     8   8   8   8   8   8   8
#     4  10  24  43  61  85 119 164 212 251 294 362
#     4  11  18  39  61  85 118 161 200 243 300 377
#     4   9  18  34  59  93 122 150 193 241 306 371
#     4  11  23  38  59  91 119 158 206 248 302 368
#     4  11  21  38  62  90 124 160 198 251 308 365
#     4  10  21  38  63  93 122 155 199 248 306 367
#     4  11  23  37  60  86 121 161 205 254 300 352
#
# _framework density 22.602895
#
# number of rings (size 3 to 8) (size 9 to 14) (size 15 to 20)
#    0.000    1.571    5.714    0.857    2.000    4.857 
#    0.000    3.571    3.143    0.000    0.000    0.000 
#    0.000    0.000    0.000    0.000    0.000    0.000 
#
# Total GULP energy -156189.101209 kJ/mol
# GULP energy per Si atom -5578.182186 kJ/mol
# Density = 2.255145 g / cm^3
# Si number density = 22.602895 Si / 1000 Ang^3
#
#
#
# Elastic Constant Matrix: (Units=GPa)
#
#
# Indices 1 2 3 4 5 6 
#
# 1 121.4354 7.1936 22.4471 0.0002 -3.6925 -0.0004
# 2 7.1936 31.7559 12.7478 0.0000 4.8215 0.0000
# 3 22.4471 12.7478 62.5464 0.0003 -8.9017 -0.0003
# 4 0.0002 0.0000 0.0003 21.2491 -0.0001 -4.2179
# 5 -3.6925 4.8215 -8.9017 -0.0001 43.3683 0.0001
# 6 -0.0004 0.0000 -0.0003 -4.2179 0.0001 22.2155
#
#
#
# Elastic Compliance Matrix: (Units=1/GPa)
#
#
# Indices 1 2 3 4 5 6 
#
# 1 0.008841 -0.000848 -0.002966 0.000000 0.000238 0.000000
# 2 -0.000848 0.035654 -0.007763 0.000000 -0.005630 0.000000
# 3 -0.002966 -0.007763 0.019285 0.000000 0.004569 0.000000
# 4 0.000000 0.000000 0.000000 0.048904 0.000000 0.009285
# 5 0.000238 -0.005630 0.004569 0.000000 0.024642 0.000000
# 6 0.000000 0.000000 0.000000 0.009285 0.000000 0.046777
#
#
# Mechanical properties :
#
#
# Convention : Reuss Voigt Hill
#
# Bulk Modulus (GPa) = 24.61597 33.39050 29.00324
# Shear Modulus (GPa) = 22.64507 28.92321 25.78414
#
# Velocity S-wave (km/s) = 3.16866 3.58106 3.38116
# Velocity P-wave (km/s) = 4.92965 5.64831 5.30117
#
# Compressibility (1/GPa) = 0.04062403
#
# Stress axis : x y z
#
# Youngs Moduli (GPa) = 113.11480 28.04768 51.85330
#
# Poissons Ratio (x) = 0.02379 0.15380
# Poissons Ratio (y) = 0.09594 0.40256
# Poissons Ratio (z) = 0.33550 0.21775
#
# Static dielectric constant tensor:
#      x y z
#    x 1.903020 0.000000 -0.039050 
#    y 0.000000 1.815170 0.000000 
#    z -0.039050 0.000000 1.946040 
# 
# From -- ./inp_files/209990.got.cif
#   From: 2010.05.17/outbox.cif.g08.bks.cpg/sg12_105_cif.got.tgz:209990.got - 2010.06.03 13:09:07.
