data_PCOD9209895
_publ_section_title
;
Structure prediction by ZEFSAII (Michael W. Deem and Ramdas Pophale) SiO2 
 PCOD9209895
Probable space group: C 2/M
;
_chemical_formula_sum "Si O2"
_cell_formula_units_Z 44
_cell_length_a 24.494131
_cell_length_b 13.842857
_cell_length_c 8.816255
_cell_angle_alpha 90.000000
_cell_angle_beta 47.962000
_cell_angle_gamma 90.000000
_cell_volume 2220.168053
_symmetry_space_group_name_H-M "C 2/M"
_symmetry_group_IT_number 12
_symmetry_cell_setting 'monoclinic'
loop_
_space_group_symop_operation_xyz
x,y,z
-x,y,-z
-x,-y,-z
x,-y,z
1/2+x,1/2+y,z
1/2-x,1/2+y,-z
1/2-x,1/2-y,-z
1/2+x,1/2-y,z
loop_
_atom_site_type_symbol
_atom_site_label
_atom_site_fract_x
_atom_site_fract_y
_atom_site_fract_z
Si Si1 0.620962 0.612626 0.899092
Si Si2 0.886572 0.387588 0.376749
Si Si3 0.000000 0.752252 0.000000
Si Si4 0.586343 0.886181 0.327504
Si Si5 0.699747 0.240678 0.947014
Si Si6 0.745515 0.610968 0.424159
O O1 0.605037 0.500000 0.951264
O O2 0.549478 0.678140 0.011757
O O3 0.669569 0.623197 0.655484
O O4 0.670467 0.657516 0.939856
O O5 0.910231 0.500000 0.316361
O O6 0.878827 0.370366 0.570594
O O7 0.811303 0.376332 0.423448
O O8 0.946602 0.316354 0.195728
O O9 0.500000 0.862212 0.500000
O O10 0.629526 0.824010 0.124647
O O11 0.591922 0.000000 0.279922
O O12 0.750000 0.250000 0.000000
O O13 0.741760 0.185266 0.734324
O O14 0.749512 0.500000 0.361241
#
# Coordination Sequence:
#
# PCOD9209895 Si02
#       6
#     8   8   4   8   8   8
#     4  11  25  43  63  91 126 170 218 261 301 367
#     4  10  21  38  66  98 125 157 203 268 320 369
#     4  12  22  38  70  88 128 164 212 254 310 378
#     4  10  22  39  60  94 132 158 191 250 325 384
#     4  12  24  39  65  92 125 165 208 259 320 373
#     4  10  22  42  65  91 121 157 213 266 313 370
#
# _framework density 19.81832
#
# number of rings (size 3 to 8) (size 9 to 14) (size 15 to 20)
#    0.000    1.273    1.818    3.818    2.545    2.909 
#    0.000    0.000    0.000    1.636    0.000    0.000 
#    0.000    0.000    0.000    0.000    0.000    0.000 
#
# Total GULP energy -123092.964197 kJ/mol
# GULP energy per Si atom -5595.134736 kJ/mol
# Density = 1.977321 g / cm^3
# Si number density = 19.818320 Si / 1000 Ang^3
#
#
#
# Elastic Constant Matrix: (Units=GPa)
#
#
# Indices 1 2 3 4 5 6 
#
# 1 87.1809 23.7910 -4.3465 0.0000 9.5176 0.0000
# 2 23.7910 104.3297 29.1222 0.0000 1.5435 0.0000
# 3 -4.3465 29.1222 36.5412 0.0000 -5.0839 0.0000
# 4 0.0000 0.0000 0.0000 35.1423 0.0000 0.9564
# 5 9.5176 1.5435 -5.0839 0.0000 29.5417 0.0000
# 6 0.0000 0.0000 0.0000 0.9564 0.0000 29.2719
#
#
#
# Elastic Compliance Matrix: (Units=1/GPa)
#
#
# Indices 1 2 3 4 5 6 
#
# 1 0.013198 -0.004209 0.004471 0.000000 -0.003263 0.000000
# 2 -0.004209 0.013837 -0.011721 0.000000 -0.001384 0.000000
# 3 0.004471 -0.011721 0.038035 0.000000 0.005718 0.000000
# 4 0.000000 0.000000 0.000000 0.028481 0.000000 -0.000931
# 5 -0.003263 -0.001384 0.005718 0.000000 0.035958 0.000000
# 6 0.000000 0.000000 0.000000 -0.000931 0.000000 0.034193
#
#
# Mechanical properties :
#
#
# Convention : Reuss Voigt Hill
#
# Bulk Modulus (GPa) = 23.72434 36.13171 29.92803
# Shear Modulus (GPa) = 24.91633 30.75684 27.83659
#
# Velocity S-wave (km/s) = 3.54960 3.94374 3.75185
# Velocity P-wave (km/s) = 5.36623 6.24568 5.82258
#
# Compressibility (1/GPa) = 0.04215080
#
# Stress axis : x y z
#
# Youngs Moduli (GPa) = 75.76803 72.26946 26.29168
#
# Poissons Ratio (x) = 0.30420 -0.11754
# Poissons Ratio (y) = 0.31893 0.30816
# Poissons Ratio (z) = -0.33873 0.84707
#
# Static dielectric constant tensor:
#      x y z
#    x 1.699220 0.000000 -0.014130 
#    y 0.000000 1.692900 0.000000 
#    z -0.014130 0.000000 1.670520 
# 
# From -- ./inp_files/96140.got.cif
#   From: 2010.05.17/outbox.cif.g08.bks.cpg/sg12_49_cif.got.tgz:96140.got - 2010.06.03 13:09:07.
