data_PCOD9209823
_publ_section_title
;
Structure prediction by ZEFSAII (Michael W. Deem and Ramdas Pophale) SiO2 
 PCOD9209823
Probable space group: C 2/M
;
_chemical_formula_sum "Si O2"
_cell_formula_units_Z 64
_cell_length_a 14.793346
_cell_length_b 17.821051
_cell_length_c 24.186717
_cell_angle_alpha 90.000000
_cell_angle_beta 151.347236
_cell_angle_gamma 90.000000
_cell_volume 3057.492769
_symmetry_space_group_name_H-M "C 2/M"
_symmetry_group_IT_number 12
_symmetry_cell_setting 'monoclinic'
loop_
_space_group_symop_operation_xyz
x,y,z
-x,y,-z
-x,-y,-z
x,-y,z
1/2+x,1/2+y,z
1/2-x,1/2+y,-z
1/2-x,1/2-y,-z
1/2+x,1/2-y,z
loop_
_atom_site_type_symbol
_atom_site_label
_atom_site_fract_x
_atom_site_fract_y
_atom_site_fract_z
Si Si1 0.352798 0.411238 0.119418
Si Si2 0.340252 0.314141 0.510461
Si Si3 0.180727 0.911543 0.204526
Si Si4 0.701200 0.287373 0.127528
Si Si5 0.623153 0.362148 0.743806
Si Si6 0.076805 0.688145 0.267498
Si Si7 0.035125 0.585960 0.139680
Si Si8 0.872077 0.301324 0.384477
O O1 0.330149 0.500000 0.117371
O O2 0.502992 0.403615 0.150609
O O3 0.408150 0.378066 0.208538
O O4 0.152091 0.381547 0.989889
O O5 0.250000 0.250000 0.500000
O O6 0.440338 0.370652 0.606802
O O7 0.189265 0.338641 0.383132
O O8 0.508307 0.271572 0.568950
O O9 0.155793 0.864354 0.135283
O O10 0.341071 0.863549 0.321624
O O11 0.217268 0.000000 0.216131
O O12 0.800898 0.223976 0.218754
O O13 0.857611 0.301969 0.164830
O O14 0.500000 0.256793 0.000000
O O15 0.793331 0.410545 0.811120
O O16 0.090104 0.632207 0.223374
O O17 0.178984 0.765504 0.304149
O O18 0.995422 0.500000 0.134004
O O19 0.000000 0.338280 0.500000
#
# Coordination Sequence:
#
# PCOD9209823 Si02
#       8
#     8   8   8   8   8   8   8   8
#     4  10  23  41  62  90 129 176 213 260 324 376
#     4  11  21  40  65  92 128 166 207 259 325 377
#     4  11  23  41  60  87 125 163 211 257 313 389
#     4  12  24  39  64  96 125 162 214 270 319 371
#     4  12  22  39  65  96 124 164 219 265 318 379
#     4  11  22  41  67  95 125 171 213 260 322 386
#     4  11  23  41  63  92 134 172 210 263 321 385
#     4  10  21  38  65  91 117 160 206 259 315 363
#
# _framework density 20.932183999999999
#
# number of rings (size 3 to 8) (size 9 to 14) (size 15 to 20)
#    0.000    1.000    3.750    3.000    1.750    2.000 
#    0.000    5.625    0.000    0.000    0.000    0.000 
#    0.000    0.000    0.000    0.000    0.000    0.000 
#
# Total GULP energy -178698.275986 kJ/mol
# GULP energy per Si atom -5584.321125 kJ/mol
# Density = 2.088454 g / cm^3
# Si number density = 20.932184 Si / 1000 Ang^3
#
#
#
# Elastic Constant Matrix: (Units=GPa)
#
#
# Indices 1 2 3 4 5 6 
#
# 1 96.5456 19.2040 18.1580 0.0000 5.2005 -0.0001
# 2 19.2040 74.7921 14.6054 0.0004 -7.9952 0.0001
# 3 18.1580 14.6054 53.4819 0.0011 3.1126 0.0004
# 4 0.0000 0.0004 0.0011 16.6469 0.0002 -1.9353
# 5 5.2005 -7.9952 3.1126 0.0002 29.7609 0.0001
# 6 -0.0001 0.0001 0.0004 -1.9353 0.0001 29.7776
#
#
#
# Elastic Compliance Matrix: (Units=1/GPa)
#
#
# Indices 1 2 3 4 5 6 
#
# 1 0.011590 -0.002633 -0.003076 0.000000 -0.002411 0.000000
# 2 -0.002633 0.015270 -0.003563 0.000000 0.004935 0.000000
# 3 -0.003076 -0.003563 0.020867 -0.000001 -0.002602 0.000000
# 4 0.000000 0.000000 -0.000001 0.060529 0.000000 0.003934
# 5 -0.002411 0.004935 -0.002602 0.000000 0.035620 0.000000
# 6 0.000000 0.000000 0.000000 0.003934 0.000000 0.033838
#
#
# Mechanical properties :
#
#
# Convention : Reuss Voigt Hill
#
# Bulk Modulus (GPa) = 34.26703 36.52827 35.39765
# Shear Modulus (GPa) = 24.27365 26.76056 25.51710
#
# Velocity S-wave (km/s) = 3.40903 3.57941 3.49526
# Velocity P-wave (km/s) = 5.64813 5.87976 5.76511
#
# Compressibility (1/GPa) = 0.02918257
#
# Stress axis : x y z
#
# Youngs Moduli (GPa) = 86.28240 65.48849 47.92328
#
# Poissons Ratio (x) = 0.17243 0.14739
# Poissons Ratio (y) = 0.22718 0.17077
# Poissons Ratio (z) = 0.26537 0.23336
#
# Static dielectric constant tensor:
#      x y z
#    x 1.782580 0.000000 0.013440 
#    y 0.000000 1.749270 0.000000 
#    z 0.013440 0.000000 1.810520 
# 
# From -- ./inp_files/340868.got.cif
#   From: 2010.05.17/outbox.cif.g08.bks.cpg/sg12_171_cif.got.tgz:340868.got - 2010.06.03 13:09:07.
