data_PCOD9209227
_publ_section_title
;
Structure prediction by ZEFSAII (Michael W. Deem and Ramdas Pophale) SiO2 
 PCOD9209227
Probable space group: C 2/M
;
_chemical_formula_sum "Si O2"
_cell_formula_units_Z 64
_cell_length_a 28.753889
_cell_length_b 8.796215
_cell_length_c 18.731812
_cell_angle_alpha 90.000000
_cell_angle_beta 135.656422
_cell_angle_gamma 90.000000
_cell_volume 3311.495609
_symmetry_space_group_name_H-M "C 2/M"
_symmetry_group_IT_number 12
_symmetry_cell_setting 'monoclinic'
loop_
_space_group_symop_operation_xyz
x,y,z
-x,y,-z
-x,-y,-z
x,-y,z
1/2+x,1/2+y,z
1/2-x,1/2+y,-z
1/2-x,1/2-y,-z
1/2+x,1/2-y,z
loop_
_atom_site_type_symbol
_atom_site_label
_atom_site_fract_x
_atom_site_fract_y
_atom_site_fract_z
Si Si1 0.897030 0.316891 0.496415
Si Si2 0.655866 0.681265 0.709735
Si Si3 0.166808 0.318995 0.231024
Si Si4 0.951447 0.318053 0.300377
Si Si5 0.422860 0.680754 0.115405
Si Si6 0.018177 0.681086 0.101777
Si Si7 0.301539 0.681967 0.884485
Si Si8 0.725086 0.181236 0.546463
O O1 0.893570 0.500000 0.482833
O O2 0.867464 0.239864 0.393457
O O3 0.849685 0.277616 0.511408
O O4 0.973413 0.275806 0.594261
O O5 0.660507 0.500000 0.714366
O O6 0.601480 0.737715 0.706598
O O7 0.727726 0.750795 0.807652
O O8 0.177142 0.500000 0.238399
O O9 0.097046 0.291750 0.194285
O O10 0.165136 0.252386 0.149714
O O11 0.226452 0.241096 0.338579
O O12 0.945042 0.500000 0.300333
O O13 0.938536 0.268211 0.205164
O O14 0.426537 0.500000 0.131604
O O15 0.475141 0.728816 0.111673
O O16 0.349625 0.717121 0.003697
O O17 0.005604 0.500000 0.096964
O O18 0.000000 0.719849 0.000000
O O19 0.297957 0.500000 0.872857
O O20 0.750000 0.250000 0.500000
O O21 0.728862 0.000000 0.546187
#
# Coordination Sequence:
#
# PCOD9209227 Si02
#       8
#     8   8   8   8   8   8   8   8
#     4  10  23  44  68  94 127 169 213 256 313 383
#     4  12  25  42  69  99 125 160 211 267 318 379
#     4  11  22  38  62  92 125 165 214 260 310 374
#     4  11  25  45  68  92 127 171 210 259 323 383
#     4  11  25  42  63  95 131 166 214 267 316 373
#     4  10  21  38  61  89 125 167 208 249 302 372
#     4  11  23  41  65  93 129 169 210 262 320 378
#     4  11  24  41  62  92 131 169 210 257 311 375
#
# _framework density 19.326615
#
# number of rings (size 3 to 8) (size 9 to 14) (size 15 to 20)
#    0.000    1.125    2.500    3.375    1.750    6.250 
#    0.000    0.000    0.000    0.000    0.000    0.000 
#    0.000    0.000    0.000    0.000    0.000    0.000 
#
# Total GULP energy -178975.438562 kJ/mol
# GULP energy per Si atom -5592.982455 kJ/mol
# Density = 1.928263 g / cm^3
# Si number density = 19.326615 Si / 1000 Ang^3
#
#
#
# Elastic Constant Matrix: (Units=GPa)
#
#
# Indices 1 2 3 4 5 6 
#
# 1 121.9257 41.3594 40.3782 0.0000 14.8279 0.0000
# 2 41.3594 48.6090 24.2014 0.0000 11.8207 0.0000
# 3 40.3782 24.2014 59.9228 0.0000 16.6864 0.0000
# 4 0.0000 0.0000 0.0000 30.5127 0.0000 -4.2742
# 5 14.8279 11.8207 16.6864 0.0000 29.6687 0.0000
# 6 0.0000 0.0000 0.0000 -4.2742 0.0000 36.6646
#
#
#
# Elastic Compliance Matrix: (Units=1/GPa)
#
#
# Indices 1 2 3 4 5 6 
#
# 1 0.012730 -0.008191 -0.005225 0.000000 -0.000160 0.000000
# 2 -0.008191 0.031724 -0.005826 0.000000 -0.005269 0.000000
# 3 -0.005225 -0.005826 0.025123 0.000000 -0.009197 0.000000
# 4 0.000000 0.000000 0.000000 0.033317 0.000000 0.003884
# 5 -0.000160 -0.005269 -0.009197 0.000000 0.041057 0.000000
# 6 0.000000 0.000000 0.000000 0.003884 0.000000 0.027727
#
#
# Mechanical properties :
#
#
# Convention : Reuss Voigt Hill
#
# Bulk Modulus (GPa) = 32.16193 49.14838 40.65516
# Shear Modulus (GPa) = 22.67292 27.67043 25.17168
#
# Velocity S-wave (km/s) = 3.42884 3.78792 3.61284
# Velocity P-wave (km/s) = 5.68799 6.67958 6.20363
#
# Compressibility (1/GPa) = 0.03109266
#
# Stress axis : x y z
#
# Youngs Moduli (GPa) = 78.55318 31.52227 39.80397
#
# Poissons Ratio (x) = 0.25820 0.20799
# Poissons Ratio (y) = 0.64344 0.23188
# Poissons Ratio (z) = 0.41047 0.18364
#
# Static dielectric constant tensor:
#      x y z
#    x 1.658560 0.000000 0.014370 
#    y 0.000000 1.645050 0.000000 
#    z 0.014370 0.000000 1.647930 
# 
# From -- ./inp_files/295692.got.cif
#   From: 2010.05.17/outbox.cif.g08.bks.cpg/sg12_148_cif.got.tgz:295692.got - 2010.06.03 13:09:07.
