data_PCOD9209044
_publ_section_title
;
Structure prediction by ZEFSAII (Michael W. Deem and Ramdas Pophale) SiO2 
 PCOD9209044
Probable space group: C 2/M
;
_chemical_formula_sum "Si O2"
_cell_formula_units_Z 32
_cell_length_a 12.398138
_cell_length_b 22.293408
_cell_length_c 6.951658
_cell_angle_alpha 90.000000
_cell_angle_beta 127.567878
_cell_angle_gamma 90.000000
_cell_volume 1522.974753
_symmetry_space_group_name_H-M "C 2/M"
_symmetry_group_IT_number 12
_symmetry_cell_setting 'monoclinic'
loop_
_space_group_symop_operation_xyz
x,y,z
-x,y,-z
-x,-y,-z
x,-y,z
1/2+x,1/2+y,z
1/2-x,1/2+y,-z
1/2-x,1/2-y,-z
1/2+x,1/2-y,z
loop_
_atom_site_type_symbol
_atom_site_label
_atom_site_fract_x
_atom_site_fract_y
_atom_site_fract_z
Si Si1 0.264004 0.745911 0.782596
Si Si2 0.905570 0.433232 0.209915
Si Si3 0.121683 0.878169 0.003806
Si Si4 0.500000 0.311470 0.500000
Si Si5 0.500000 0.161948 0.000000
O O1 0.316636 0.678741 0.810891
O O2 0.372862 0.794247 0.831385
O O3 0.118076 0.767561 0.551142
O O4 0.250000 0.750000 0.000000
O O5 0.915347 0.500000 0.134206
O O6 0.749306 0.419908 0.095475
O O7 0.000000 0.431864 0.500000
O O8 0.958961 0.381254 0.129381
O O9 0.000000 0.904470 0.000000
O O10 0.059827 0.852013 0.737037
#
# Coordination Sequence:
#
# PCOD9209044 Si02
#       5
#     8   8   8   4   4
#     4  10  21  38  61 100 131 161 210 262 330 390
#     4  11  27  46  67  95 129 178 231 272 318 385
#     4  11  24  41  64  98 134 173 211 269 334 389
#     4  10  22  40  59  96 137 168 214 258 332 402
#     4  12  21  44  72  94 133 172 218 274 328 396
#
# _framework density 21.011510000000001
#
# number of rings (size 3 to 8) (size 9 to 14) (size 15 to 20)
#    0.000    1.250    6.250    0.375    5.250    1.500 
#    0.000    0.625    0.000    0.000    0.000    0.000 
#    0.000    0.000    0.000    0.000    0.000    0.000 
#
# Total GULP energy -89462.144780 kJ/mol
# GULP energy per Si atom -5591.384049 kJ/mol
# Density = 2.096369 g / cm^3
# Si number density = 21.011510 Si / 1000 Ang^3
#
#
#
# Elastic Constant Matrix: (Units=GPa)
#
#
# Indices 1 2 3 4 5 6 
#
# 1 130.5600 32.9213 36.3633 0.0000 23.4696 0.0000
# 2 32.9213 86.6715 20.7497 0.0000 9.6751 0.0000
# 3 36.3633 20.7497 100.6284 0.0000 18.4954 0.0000
# 4 0.0000 0.0000 0.0000-1103.8264 0.0000 -367.6135
# 5 23.4696 9.6751 18.4954 0.0000 45.4040 0.0000
# 6 0.0000 0.0000 0.0000 -367.6135 0.0000 -105.1053
#
#
#
# Elastic Compliance Matrix: (Units=1/GPa)
#
#
# Indices 1 2 3 4 5 6 
#
# 1 0.009599 -0.002716 -0.002273 0.000000 -0.003457 0.000000
# 2 -0.002716 0.013027 -0.001570 0.000000 -0.000732 0.000000
# 3 -0.002273 -0.001570 0.011680 0.000000 -0.003248 0.000000
# 4 0.000000 0.000000 0.000000 0.005497 0.000000 -0.019225
# 5 -0.003457 -0.000732 -0.003248 0.000000 0.025291 0.000000
# 6 0.000000 0.000000 0.000000 -0.019225 0.000000 0.057726
#
#
# Mechanical properties :
#
#
# Convention : Reuss Voigt Hill
#
# Bulk Modulus (GPa) = 47.19856 55.32540 51.26198
# Shear Modulus (GPa) = 34.96505 -217.51717 -91.27606
#
# Velocity S-wave (km/s) = 4.08375 -10.18566 -6.59813
# Velocity P-wave (km/s) = 6.68939 10.58026 5.79629
#
# Compressibility (1/GPa) = 0.02118709
#
# Stress axis : x y z
#
# Youngs Moduli (GPa) = 104.18100 76.76320 85.61800
#
# Poissons Ratio (x) = 0.20848 0.19463
# Poissons Ratio (y) = 0.28294 0.13443
# Poissons Ratio (z) = 0.23683 0.12053
#
# Static dielectric constant tensor:
#      x y z
#    x 1.807070 0.000000 -0.011010 
#    y 0.000000 1.728490 0.000000 
#    z -0.011010 0.000000 1.778110 
# 
# From -- ./inp_files/63036.got.cif
#   From: 2010.05.17/outbox.cif.g08.bks.cpg/sg12_32_cif.got.tgz:63036.got - 2010.06.03 13:09:07.
