data_PCOD9209748
_publ_section_title
;
Structure prediction by ZEFSAII (Michael W. Deem and Ramdas Pophale) SiO2 
 PCOD9209748
Probable space group: C 2/M
;
_chemical_formula_sum "Si O2"
_cell_formula_units_Z 48
_cell_length_a 28.000832
_cell_length_b 8.055947
_cell_length_c 10.177411
_cell_angle_alpha 90.000000
_cell_angle_beta 90.149794
_cell_angle_gamma 90.000000
_cell_volume 2295.743510
_symmetry_space_group_name_H-M "C 2/M"
_symmetry_group_IT_number 12
_symmetry_cell_setting 'monoclinic'
loop_
_space_group_symop_operation_xyz
x,y,z
-x,y,-z
-x,-y,-z
x,-y,z
1/2+x,1/2+y,z
1/2-x,1/2+y,-z
1/2-x,1/2-y,-z
1/2+x,1/2-y,z
loop_
_atom_site_type_symbol
_atom_site_label
_atom_site_fract_x
_atom_site_fract_y
_atom_site_fract_z
Si Si1 0.192845 0.807150 0.771754
Si Si2 0.541062 0.296954 0.100118
Si Si3 0.851297 0.202641 0.956180
Si Si4 0.041128 0.200567 0.401081
Si Si5 0.295426 0.305955 0.694271
Si Si6 0.859956 0.309411 0.468686
O O1 0.239540 0.715544 0.718969
O O2 0.151668 0.791763 0.662588
O O3 0.205908 0.000000 0.787715
O O4 0.174598 0.741019 0.911355
O O5 0.540587 0.500000 0.100341
O O6 0.593734 0.244895 0.053839
O O7 0.533805 0.242968 0.250884
O O8 0.500000 0.241588 0.000000
O O9 0.822928 0.252716 0.825428
O O10 0.851043 0.000000 0.959240
O O11 0.092721 0.251974 0.455512
O O12 0.000000 0.259564 0.500000
O O13 0.039779 0.000000 0.399271
O O14 0.306796 0.500000 0.674342
O O15 0.315926 0.212382 0.568800
O O16 0.864921 0.500000 0.430995
#
# Coordination Sequence:
#
# PCOD9209748 Si02
#       6
#     8   8   8   8   8   8
#     4  11  23  38  60  91 122 157 203 249 299 361
#     4   9  17  32  58  91 121 147 187 241 296 352
#     4   9  19  35  59  89 122 156 194 247 302 355
#     4  10  21  38  64  93 119 154 199 247 298 354
#     4  11  21  40  64  88 120 157 201 251 303 359
#     4  12  25  41  60  86 123 165 202 246 300 353
#
# _framework density 20.908258
#
# number of rings (size 3 to 8) (size 9 to 14) (size 15 to 20)
#    0.000    1.667    1.667    3.500    2.333    0.333 
#    0.000    2.500    0.000    0.500    0.000    0.000 
#    0.000    0.000    0.000    0.000    0.000    0.000 
#
# Total GULP energy -134178.557381 kJ/mol
# GULP energy per Si atom -5590.773224 kJ/mol
# Density = 2.086067 g / cm^3
# Si number density = 20.908258 Si / 1000 Ang^3
#
#
#
# Elastic Constant Matrix: (Units=GPa)
#
#
# Indices 1 2 3 4 5 6 
#
# 1 89.5993 -2.5176 21.5638 0.0000 3.4006 0.0000
# 2 -2.5176 20.5474 -2.3973 0.0000 -2.0360 0.0000
# 3 21.5638 -2.3973 70.1092 0.0000 0.1351 0.0000
# 4 0.0000 0.0000 0.0000 -15.4101 0.0000 -6.7700
# 5 3.4006 -2.0360 0.1351 0.0000 42.2970 0.0000
# 6 0.0000 0.0000 0.0000 -6.7700 0.0000 16.5361
#
#
#
# Elastic Compliance Matrix: (Units=1/GPa)
#
#
# Indices 1 2 3 4 5 6 
#
# 1 0.012111 0.000963 -0.003690 0.000000 -0.000916 0.000000
# 2 0.000963 0.049174 0.001381 0.000000 0.002285 0.000000
# 3 -0.003690 0.001381 0.015445 0.000000 0.000314 0.000000
# 4 0.000000 0.000000 0.000000 -0.055000 0.000000 -0.022517
# 5 -0.000916 0.002285 0.000314 0.000000 0.023825 0.000000
# 6 0.000000 0.000000 0.000000 -0.022517 0.000000 0.051255
#
#
# Mechanical properties :
#
#
# Convention : Reuss Voigt Hill
#
# Bulk Modulus (GPa) = 13.50696 23.72819 18.61757
# Shear Modulus (GPa) = 40.26370 19.59173 29.92772
#
# Velocity S-wave (km/s) = 4.39308 3.06442 3.78747
# Velocity P-wave (km/s) = 5.67506 4.88817 5.29625
#
# Compressibility (1/GPa) = 0.07403593
#
# Stress axis : x y z
#
# Youngs Moduli (GPa) = 82.57144 20.33613 64.74540
#
# Poissons Ratio (x) = -0.01958 0.23893
# Poissons Ratio (y) = -0.07948 -0.08941
# Poissons Ratio (z) = 0.30471 -0.02808
#
# Static dielectric constant tensor:
#      x y z
#    x 1.716000 0.000000 0.000440 
#    y 0.000000 1.739320 0.000000 
#    z 0.000440 0.000000 1.725110 
# 
# From -- ./inp_files/108778.got.cif
#   From: 2010.05.17/outbox.cif.g08.bks.cpg/sg12_55_cif.got.tgz:108778.got - 2010.06.03 13:09:07.
