data_PCOD9209100
_publ_section_title
;
Structure prediction by ZEFSAII (Michael W. Deem and Ramdas Pophale) SiO2 
 PCOD9209100
Probable space group: C 2/M
;
_chemical_formula_sum "Si O2"
_cell_formula_units_Z 56
_cell_length_a 8.372018
_cell_length_b 17.951799
_cell_length_c 18.854368
_cell_angle_alpha 90.000000
_cell_angle_beta 70.072923
_cell_angle_gamma 90.000000
_cell_volume 2664.015279
_symmetry_space_group_name_H-M "C 2/M"
_symmetry_group_IT_number 12
_symmetry_cell_setting 'monoclinic'
loop_
_space_group_symop_operation_xyz
x,y,z
-x,y,-z
-x,-y,-z
x,-y,z
1/2+x,1/2+y,z
1/2-x,1/2+y,-z
1/2-x,1/2-y,-z
1/2+x,1/2-y,z
loop_
_atom_site_type_symbol
_atom_site_label
_atom_site_fract_x
_atom_site_fract_y
_atom_site_fract_z
Si Si1 0.125776 0.842756 0.629336
Si Si2 0.106056 0.916926 0.226546
Si Si3 0.070619 0.819925 0.095012
Si Si4 0.281951 0.844336 0.933561
Si Si5 0.974841 0.321064 0.661574
Si Si6 0.999272 0.417724 0.208352
Si Si7 0.671954 0.914057 0.522596
O O1 0.298182 0.832673 0.648039
O O2 0.184061 0.871167 0.543525
O O3 0.010070 0.901701 0.687853
O O4 0.029095 0.764289 0.645638
O O5 0.070719 0.855330 0.172357
O O6 0.301585 0.912268 0.219710
O O7 0.071918 0.000000 0.203334
O O8 0.112145 0.732365 0.086772
O O9 0.889885 0.833200 0.085652
O O10 0.217687 0.856312 0.023395
O O11 0.392858 0.906689 0.879192
O O12 0.955968 0.352412 0.743547
O O13 0.118916 0.370897 0.601370
O O14 0.033730 0.500000 0.234274
O O15 0.500000 0.913727 0.500000
O O16 0.717146 0.000000 0.528639
#
# Coordination Sequence:
#
# PCOD9209100 Si02
#       7
#     8   8   8   8   8   8   8
#     4  11  22  38  61  86 116 152 192 237 283 337
#     4  11  24  40  58  83 116 152 191 236 287 341
#     4  10  21  38  61  87 115 149 190 235 283 338
#     4  10  21  38  61  87 115 149 190 235 283 338
#     4  11  22  38  61  86 116 152 192 237 283 337
#     4  11  24  40  58  83 116 152 191 236 287 341
#     4   9  19  36  59  87 116 149 190 235 284 336
#
# _framework density 21.020900999999999
#
# number of rings (size 3 to 8) (size 9 to 14) (size 15 to 20)
#    0.000    1.571    0.000    4.714    0.000    5.714 
#    0.000    5.000    0.000    5.143    0.000    0.000 
#    0.000    0.000    0.000    0.000    0.000    0.000 
#
# Total GULP energy -156596.699296 kJ/mol
# GULP energy per Si atom -5592.739261 kJ/mol
# Density = 2.097306 g / cm^3
# Si number density = 21.020901 Si / 1000 Ang^3
#
#
#
# Elastic Constant Matrix: (Units=GPa)
#
#
# Indices 1 2 3 4 5 6 
#
# 1 39.0662 3.1123 5.1666 0.0000 -21.4824 0.0000
# 2 3.1123 63.0798 4.2195 0.0000 -14.7009 0.0000
# 3 5.1666 4.2195 80.7026 0.0000 -22.0022 0.0000
# 4 0.0000 0.0000 0.0000 40.4315 0.0000 1.5153
# 5 -21.4824 -14.7009 -22.0022 0.0000 28.1796 0.0000
# 6 0.0000 0.0000 0.0000 1.5153 0.0000 -4.2421
#
#
#
# Elastic Compliance Matrix: (Units=1/GPa)
#
#
# Indices 1 2 3 4 5 6 
#
# 1 0.052791 0.009112 0.010687 0.000000 0.053342 0.000000
# 2 0.009112 0.019894 0.003938 0.000000 0.020400 0.000000
# 3 0.010687 0.003938 0.018145 0.000000 0.024368 0.000000
# 4 0.000000 0.000000 0.000000 0.024406 0.000000 0.008718
# 5 0.053342 0.020400 0.024368 0.000000 0.105820 0.000000
# 6 0.000000 0.000000 0.000000 0.008718 0.000000 -0.232617
#
#
# Mechanical properties :
#
#
# Convention : Reuss Voigt Hill
#
# Bulk Modulus (GPa) = 7.23047 23.09394 15.16221
# Shear Modulus (GPa) = -386.58771 24.23048 -181.17862
#
# Velocity S-wave (km/s) = -13.57592 3.39880 -9.29392
# Velocity P-wave (km/s) = 15.56578 5.13931 10.38944
#
# Compressibility (1/GPa) = 0.13830351
#
# Stress axis : x y z
#
# Youngs Moduli (GPa) = 18.94263 50.26606 55.11237
#
# Poissons Ratio (x) = -0.45802 -0.58897
# Poissons Ratio (y) = -0.17261 -0.21704
# Poissons Ratio (z) = -0.20243 -0.19795
#
# Static dielectric constant tensor:
#      x y z
#    x 1.719750 0.000000 -0.008930 
#    y 0.000000 1.728360 0.000000 
#    z -0.008930 0.000000 1.734260 
# 
# From -- ./inp_files/300689.got.cif
#   From: 2010.05.17/outbox.cif.g08.bks.cpg/sg12_151_cif.got.tgz:300689.got - 2010.06.03 13:09:07.
