data_PCOD9209854
_publ_section_title
;
Structure prediction by ZEFSAII (Michael W. Deem and Ramdas Pophale) SiO2 
 PCOD9209854
Probable space group: C 2/M
;
_chemical_formula_sum "Si O2"
_cell_formula_units_Z 48
_cell_length_a 20.724811
_cell_length_b 15.244636
_cell_length_c 11.518062
_cell_angle_alpha 90.000000
_cell_angle_beta 39.530322
_cell_angle_gamma 90.000000
_cell_volume 2316.200970
_symmetry_space_group_name_H-M "C 2/M"
_symmetry_group_IT_number 12
_symmetry_cell_setting 'monoclinic'
loop_
_space_group_symop_operation_xyz
x,y,z
-x,y,-z
-x,-y,-z
x,-y,z
1/2+x,1/2+y,z
1/2-x,1/2+y,-z
1/2-x,1/2-y,-z
1/2+x,1/2-y,z
loop_
_atom_site_type_symbol
_atom_site_label
_atom_site_fract_x
_atom_site_fract_y
_atom_site_fract_z
Si Si1 0.106330 0.597606 0.289279
Si Si2 0.494943 0.103268 0.804780
Si Si3 0.732750 0.730150 0.887674
Si Si4 0.300143 0.097314 0.202538
Si Si5 0.277644 0.849414 0.489128
Si Si6 0.608414 0.397228 0.913011
O O1 0.151915 0.500000 0.217892
O O2 0.177401 0.661618 0.260486
O O3 0.000000 0.591205 0.500000
O O4 0.078757 0.629917 0.198642
O O5 0.602911 0.148125 0.647561
O O6 0.516782 0.000000 0.758792
O O7 0.421371 0.111480 0.017488
O O8 0.746796 0.819762 0.797532
O O9 0.634701 0.675183 0.976679
O O10 0.750000 0.750000 0.000000
O O11 0.270393 0.099460 0.377562
O O12 0.278096 0.000000 0.184216
O O13 0.250000 0.750000 0.500000
O O14 0.199231 0.885528 0.692881
O O15 0.607526 0.500000 0.953257
O O16 0.500000 0.379968 0.000000
#
# Coordination Sequence:
#
# PCOD9209854 Si02
#       6
#     8   8   8   8   8   8
#     4  10  21  38  65  97 130 168 219 274 329 393
#     4  10  21  39  64  96 130 167 215 277 339 391
#     4  12  24  42  68  99 136 177 221 278 338 409
#     4  11  24  42  65  96 135 175 221 278 338 398
#     4  12  24  39  69 100 132 174 221 280 336 403
#     4  11  26  47  70  98 137 182 228 279 338 411
#
# _framework density 20.723590999999999
#
# number of rings (size 3 to 8) (size 9 to 14) (size 15 to 20)
#    0.000    1.000    3.333    3.500    2.333    3.333 
#    0.000    0.000    0.000    0.500    0.000    0.000 
#    0.000    0.000    0.000    0.000    0.000    0.000 
#
# Total GULP energy -133938.262933 kJ/mol
# GULP energy per Si atom -5580.760956 kJ/mol
# Density = 2.067642 g / cm^3
# Si number density = 20.723591 Si / 1000 Ang^3
#
#
#
# Elastic Constant Matrix: (Units=GPa)
#
#
# Indices 1 2 3 4 5 6 
#
# 1 117.8787 77.9306 33.0586 0.0000 -4.9608 0.0000
# 2 77.9306 148.4972 12.9272 0.0000 -15.6409 0.0000
# 3 33.0586 12.9272 82.1434 0.0000 2.0757 0.0000
# 4 0.0000 0.0000 0.0000 16.1871 0.0000 -13.2948
# 5 -4.9608 -15.6409 2.0757 0.0000 41.8434 0.0000
# 6 0.0000 0.0000 0.0000 -13.2948 0.0000 31.7089
#
#
#
# Elastic Compliance Matrix: (Units=1/GPa)
#
#
# Indices 1 2 3 4 5 6 
#
# 1 0.014631 -0.007350 -0.004712 0.000000 -0.000779 0.000000
# 2 -0.007350 0.010817 0.001177 0.000000 0.003114 0.000000
# 3 -0.004712 0.001177 0.013905 0.000000 -0.000808 0.000000
# 4 0.000000 0.000000 0.000000 0.094225 0.000000 0.039506
# 5 -0.000779 0.003114 -0.000808 0.000000 0.025010 0.000000
# 6 0.000000 0.000000 0.000000 0.039506 0.000000 0.048101
#
#
# Mechanical properties :
#
#
# Convention : Reuss Voigt Hill
#
# Bulk Modulus (GPa) = 56.87169 66.26133 61.56651
# Shear Modulus (GPa) = 21.33826 32.92141 27.12983
#
# Velocity S-wave (km/s) = 3.21231 3.99004 3.62211
# Velocity P-wave (km/s) = 6.42348 7.29867 6.87502
#
# Compressibility (1/GPa) = 0.01758344
#
# Stress axis : x y z
#
# Youngs Moduli (GPa) = 68.34669 92.44703 71.91492
#
# Poissons Ratio (x) = 0.67951 0.33886
# Poissons Ratio (y) = 0.50237 -0.08465
# Poissons Ratio (z) = 0.32204 -0.10882
#
# Static dielectric constant tensor:
#      x y z
#    x 1.811730 0.000000 0.053310 
#    y 0.000000 1.786250 0.000000 
#    z 0.053310 0.000000 1.795540 
# 
# From -- ./inp_files/167526.got.cif
#   From: 2010.05.17/outbox.cif.g08.bks.cpg/sg12_84_cif.got.tgz:167526.got - 2010.06.03 13:09:07.
