data_PCOD9209203
_publ_section_title
;
Structure prediction by ZEFSAII (Michael W. Deem and Ramdas Pophale) SiO2 
 PCOD9209203
Probable space group: C 2/M
;
_chemical_formula_sum "Si O2"
_cell_formula_units_Z 64
_cell_length_a 29.109546
_cell_length_b 8.660367
_cell_length_c 19.640539
_cell_angle_alpha 90.000000
_cell_angle_beta 139.992280
_cell_angle_gamma 90.000000
_cell_volume 3183.188486
_symmetry_space_group_name_H-M "C 2/M"
_symmetry_group_IT_number 12
_symmetry_cell_setting 'monoclinic'
loop_
_space_group_symop_operation_xyz
x,y,z
-x,y,-z
-x,-y,-z
x,-y,z
1/2+x,1/2+y,z
1/2-x,1/2+y,-z
1/2-x,1/2-y,-z
1/2+x,1/2-y,z
loop_
_atom_site_type_symbol
_atom_site_label
_atom_site_fract_x
_atom_site_fract_y
_atom_site_fract_z
Si Si1 0.176040 0.818677 0.500274
Si Si2 0.314774 0.316286 0.028329
Si Si3 0.067717 0.681962 0.481153
Si Si4 0.796814 0.186102 0.850837
Si Si5 0.852635 0.180989 0.307359
Si Si6 0.916477 0.683139 0.247806
Si Si7 0.421144 0.686260 0.885279
Si Si8 0.157420 0.317012 0.332335
O O1 0.132183 0.716244 0.502988
O O2 0.151216 0.774901 0.395923
O O3 0.261035 0.789570 0.600259
O O4 0.163434 0.000000 0.499729
O O5 0.309174 0.500000 0.023708
O O6 0.387219 0.263710 0.147368
O O7 0.250000 0.250000 0.000000
O O8 0.311896 0.267731 0.946278
O O9 0.062391 0.500000 0.490699
O O10 0.085566 0.772032 0.570173
O O11 0.994879 0.731861 0.361609
O O12 0.722976 0.267601 0.747114
O O13 0.861847 0.225943 0.874932
O O14 0.787074 0.000000 0.837414
O O15 0.864331 0.273150 0.250828
O O16 0.853184 0.000000 0.294098
O O17 0.916113 0.500000 0.237281
O O18 0.420659 0.500000 0.876539
O O19 0.396939 0.761966 0.787095
O O20 0.500000 0.731742 0.000000
O O21 0.150097 0.500000 0.337142
#
# Coordination Sequence:
#
# PCOD9209203 Si02
#       8
#     8   8   8   8   8   8   8   8
#     4  10  21  38  62  90 119 155 199 247 296 358
#     4  11  22  38  62  89 119 158 203 252 300 354
#     4  11  24  40  59  86 123 161 197 244 303 363
#     4  10  22  40  63  88 119 159 201 247 304 363
#     4  12  24  38  61  89 118 155 202 252 299 358
#     4  11  24  41  60  85 120 161 200 246 304 360
#     4  10  22  40  61  88 121 159 201 248 302 360
#     4  10  21  38  61  89 120 156 198 245 301 358
#
# _framework density 20.105626000000001
#
# number of rings (size 3 to 8) (size 9 to 14) (size 15 to 20)
#    0.000    1.375    1.250    4.125    0.000    9.250 
#    0.000    1.250    0.000    0.000    0.000    0.000 
#    0.000    0.000    0.000    0.000    0.000    0.000 
#
# Total GULP energy -178981.380030 kJ/mol
# GULP energy per Si atom -5593.168126 kJ/mol
# Density = 2.005986 g / cm^3
# Si number density = 20.105626 Si / 1000 Ang^3
#
#
#
# Elastic Constant Matrix: (Units=GPa)
#
#
# Indices 1 2 3 4 5 6 
#
# 1 23.6700 -1.5555 6.7188 0.0000 0.9907 0.0000
# 2 -1.5555 17.7816 18.4463 0.0000 6.2860 0.0000
# 3 6.7188 18.4463 132.4661 0.0000 2.9759 0.0000
# 4 0.0000 0.0000 0.0000 35.1247 0.0000 2.9472
# 5 0.9907 6.2860 2.9759 0.0000 23.2713 0.0000
# 6 0.0000 0.0000 0.0000 2.9472 0.0000 15.7234
#
#
#
# Elastic Compliance Matrix: (Units=1/GPa)
#
#
# Indices 1 2 3 4 5 6 
#
# 1 0.043925 0.008651 -0.003348 0.000000 -0.003779 0.000000
# 2 0.008651 0.074552 -0.010390 0.000000 -0.019178 0.000000
# 3 -0.003348 -0.010390 0.009126 0.000000 0.001782 0.000000
# 4 0.000000 0.000000 0.000000 0.028925 0.000000 -0.005422
# 5 -0.003779 -0.019178 0.001782 0.000000 0.048085 0.000000
# 6 0.000000 0.000000 0.000000 -0.005422 0.000000 0.064616
#
#
# Mechanical properties :
#
#
# Convention : Reuss Voigt Hill
#
# Bulk Modulus (GPa) = 8.51572 24.57076 16.54324
# Shear Modulus (GPa) = 15.69644 24.84443 20.27044
#
# Velocity S-wave (km/s) = 2.79713 3.51906 3.17866
# Velocity P-wave (km/s) = 3.83101 5.36275 4.66024
#
# Compressibility (1/GPa) = 0.11742989
#
# Stress axis : x y z
#
# Youngs Moduli (GPa) = 22.76633 13.41340 109.58131
#
# Poissons Ratio (x) = -0.11604 0.36684
# Poissons Ratio (y) = -0.19695 1.13850
# Poissons Ratio (z) = 0.07621 0.13936
#
# Static dielectric constant tensor:
#      x y z
#    x 1.709740 0.000000 0.005560 
#    y 0.000000 1.673140 0.000000 
#    z 0.005560 0.000000 1.713470 
# 
# From -- ./inp_files/295721.got.cif
#   From: 2010.05.17/outbox.cif.g08.bks.cpg/sg12_148_cif.got.tgz:295721.got - 2010.06.03 13:09:07.
