data_PCOD9209902
_publ_section_title
;
Structure prediction by ZEFSAII (Michael W. Deem and Ramdas Pophale) SiO2 
 PCOD9209902
Probable space group: C 2/M
;
_chemical_formula_sum "Si O2"
_cell_formula_units_Z 60
_cell_length_a 12.326055
_cell_length_b 16.623881
_cell_length_c 14.136082
_cell_angle_alpha 90.000000
_cell_angle_beta 101.016552
_cell_angle_gamma 90.000000
_cell_volume 2843.202214
_symmetry_space_group_name_H-M "C 2/M"
_symmetry_group_IT_number 12
_symmetry_cell_setting 'monoclinic'
loop_
_space_group_symop_operation_xyz
x,y,z
-x,y,-z
-x,-y,-z
x,-y,z
1/2+x,1/2+y,z
1/2-x,1/2+y,-z
1/2-x,1/2-y,-z
1/2+x,1/2-y,z
loop_
_atom_site_type_symbol
_atom_site_label
_atom_site_fract_x
_atom_site_fract_y
_atom_site_fract_z
Si Si1 0.883456 0.134127 0.781471
Si Si2 0.122309 0.174040 0.838698
Si Si3 0.059790 0.405308 0.297124
Si Si4 0.957486 0.347293 0.099266
Si Si5 0.892686 0.651201 0.417668
Si Si6 0.716597 0.407222 0.038565
Si Si7 0.762882 0.716246 0.678349
Si Si8 0.246659 0.500000 0.638783
O O1 0.847477 0.133506 0.884957
O O2 0.852291 0.219404 0.730550
O O3 0.014062 0.121431 0.797881
O O4 0.812032 0.069394 0.712837
O O5 0.193857 0.186215 0.757071
O O6 0.077198 0.259905 0.867790
O O7 0.190138 0.135847 0.935898
O O8 0.063649 0.500000 0.316459
O O9 0.046743 0.387450 0.183503
O O10 0.166632 0.357092 0.351588
O O11 0.947882 0.369645 0.324638
O O12 0.846206 0.399859 0.081735
O O13 0.000000 0.340370 0.000000
O O14 0.820021 0.731904 0.400317
O O15 0.821622 0.572159 0.427712
O O16 0.000000 0.660746 0.500000
O O17 0.682836 0.500000 0.028911
#
# Coordination Sequence:
#
# PCOD9209902 Si02
#       8
#     8   8   8   8   8   8   8   4
#     4  11  21  39  62  88 128 175 222 275 329 383
#     4  12  24  38  60  87 130 180 221 268 326 396
#     4  12  25  43  69 100 137 176 221 282 340 399
#     4  12  23  40  62  88 126 179 229 270 320 385
#     4  11  23  44  77 104 129 168 226 280 342 408
#     4  12  25  36  56  88 126 176 226 284 320 380
#     4  11  23  43  66  96 132 173 217 278 341 401
#     4  10  21  38  67 100 128 160 213 282 330 392
#
# _framework density 21.102965000000001
#
# number of rings (size 3 to 8) (size 9 to 14) (size 15 to 20)
#    0.000    0.533    5.333    3.800    0.933    3.733 
#    0.000    0.000    0.000    0.400    0.000    0.000 
#    0.000    0.000    0.000    0.000    0.000    0.000 
#
# Total GULP energy -167333.554647 kJ/mol
# GULP energy per Si atom -5577.785155 kJ/mol
# Density = 2.105493 g / cm^3
# Si number density = 21.102965 Si / 1000 Ang^3
#
#
#
# Elastic Constant Matrix: (Units=GPa)
#
#
# Indices 1 2 3 4 5 6 
#
# 1 74.5108 24.3987 16.0075 0.0000 15.9282 0.0000
# 2 24.3987 73.8361 20.4023 0.0000 13.5771 0.0000
# 3 16.0075 20.4023 62.9479 0.0000 26.5412 0.0000
# 4 0.0000 0.0000 0.0000 2.2435 0.0000 23.4347
# 5 15.9282 13.5771 26.5412 0.0000 43.1797 0.0000
# 6 0.0000 0.0000 0.0000 23.4347 0.0000 -2.4929
#
#
#
# Elastic Compliance Matrix: (Units=1/GPa)
#
#
# Indices 1 2 3 4 5 6 
#
# 1 0.015861 -0.004245 -0.001017 0.000000 -0.003891 0.000000
# 2 -0.004245 0.016185 -0.003619 0.000000 -0.001299 0.000000
# 3 -0.001017 -0.003619 0.022515 0.000000 -0.012326 0.000000
# 4 0.000000 0.000000 0.000000 0.004493 0.000000 0.042242
# 5 -0.003891 -0.001299 -0.012326 0.000000 0.032579 0.000000
# 6 0.000000 0.000000 0.000000 0.042242 0.000000 -0.004044
#
#
# Mechanical properties :
#
#
# Convention : Reuss Voigt Hill
#
# Bulk Modulus (GPa) = 27.17384 36.99018 32.08201
# Shear Modulus (GPa) = 42.51088 18.61849 30.56469
#
# Velocity S-wave (km/s) = 4.49313 2.97352 3.80986
# Velocity P-wave (km/s) = 6.31050 5.41808 5.88124
#
# Compressibility (1/GPa) = 0.03680010
#
# Stress axis : x y z
#
# Youngs Moduli (GPa) = 63.04736 61.78607 44.41520
#
# Poissons Ratio (x) = 0.26226 0.04517
# Poissons Ratio (y) = 0.26761 0.16072
# Poissons Ratio (z) = 0.06412 0.22358
#
# Static dielectric constant tensor:
#      x y z
#    x 1.769990 0.000000 -0.000230 
#    y 0.000000 1.767440 0.000000 
#    z -0.000230 0.000000 1.777930 
# 
# From -- ./inp_files/206203.got.cif
#   From: 2010.05.17/outbox.cif.g08.bks.cpg/sg12_104_cif.got.tgz:206203.got - 2010.06.03 13:09:07.
