data_PCOD9209400
_publ_section_title
;
Structure prediction by ZEFSAII (Michael W. Deem and Ramdas Pophale) SiO2 
 PCOD9209400
Probable space group: C 2/M
;
_chemical_formula_sum "Si O2"
_cell_formula_units_Z 40
_cell_length_a 10.528378
_cell_length_b 24.559977
_cell_length_c 7.364887
_cell_angle_alpha 90.000000
_cell_angle_beta 91.675758
_cell_angle_gamma 90.000000
_cell_volume 1903.573871
_symmetry_space_group_name_H-M "C 2/M"
_symmetry_group_IT_number 12
_symmetry_cell_setting 'monoclinic'
loop_
_space_group_symop_operation_xyz
x,y,z
-x,y,-z
-x,-y,-z
x,-y,z
1/2+x,1/2+y,z
1/2-x,1/2+y,-z
1/2-x,1/2-y,-z
1/2+x,1/2-y,z
loop_
_atom_site_type_symbol
_atom_site_label
_atom_site_fract_x
_atom_site_fract_y
_atom_site_fract_z
Si Si1 0.370402 0.263971 0.876605
Si Si2 0.220952 0.436349 0.075717
Si Si3 0.458884 0.845812 0.788071
Si Si4 0.858208 0.939162 0.421104
Si Si5 0.735439 0.866853 0.709899
O O1 0.387384 0.210754 0.749279
O O2 0.326235 0.316867 0.765181
O O3 0.500000 0.274435 0.000000
O O4 0.250000 0.250000 0.000000
O O5 0.186838 0.500000 0.055875
O O6 0.119836 0.401509 0.190960
O O7 0.346842 0.431553 0.204801
O O8 0.236423 0.408191 0.882104
O O9 0.588369 0.850324 0.683528
O O10 0.500000 0.836558 0.000000
O O11 0.781555 0.895671 0.531724
O O12 0.000000 0.937408 0.500000
O O13 0.806063 0.000000 0.454934
#
# Coordination Sequence:
#
# PCOD9209400 Si02
#       5
#     8   8   8   8   8
#     4  11  19  36  62  92 125 163 202 256 304 356
#     4  10  21  38  62  89 120 157 200 251 307 368
#     4   9  19  36  59  93 123 153 202 253 300 363
#     4  10  24  42  58  89 127 156 205 261 302 364
#     4  11  22  38  66  88 120 164 204 246 314 366
#
# _framework density 21.013107999999999
#
# number of rings (size 3 to 8) (size 9 to 14) (size 15 to 20)
#    0.000    1.800    6.000    0.600    2.800    5.200 
#    0.000    6.000    0.000    0.000    0.000    0.000 
#    0.000    0.000    0.000    0.000    0.000    0.000 
#
# Total GULP energy -111576.354763 kJ/mol
# GULP energy per Si atom -5578.817738 kJ/mol
# Density = 2.096528 g / cm^3
# Si number density = 21.013108 Si / 1000 Ang^3
#
#
#
# Elastic Constant Matrix: (Units=GPa)
#
#
# Indices 1 2 3 4 5 6 
#
# 1 60.5684 28.8544 16.6664 0.0000 8.2223 0.0000
# 2 28.8544 158.9509 40.7874 0.0000 1.8831 0.0000
# 3 16.6664 40.7874 60.7621 0.0000 4.7733 0.0000
# 4 0.0000 0.0000 0.0000 18.1845 0.0000 4.5822
# 5 8.2223 1.8831 4.7733 0.0000 25.7996 0.0000
# 6 0.0000 0.0000 0.0000 4.5822 0.0000 20.3258
#
#
#
# Elastic Compliance Matrix: (Units=1/GPa)
#
#
# Indices 1 2 3 4 5 6 
#
# 1 0.019362 -0.002654 -0.003105 0.000000 -0.005403 0.000000
# 2 -0.002654 0.007968 -0.004710 0.000000 0.001136 0.000000
# 3 -0.003105 -0.004710 0.020667 0.000000 -0.002490 0.000000
# 4 0.000000 0.000000 0.000000 0.058304 0.000000 -0.013144
# 5 -0.005403 0.001136 -0.002490 0.000000 0.040860 0.000000
# 6 0.000000 0.000000 0.000000 -0.013144 0.000000 0.052162
#
#
# Mechanical properties :
#
#
# Convention : Reuss Voigt Hill
#
# Bulk Modulus (GPa) = 36.95604 50.32199 43.63901
# Shear Modulus (GPa) = 21.80734 25.79352 23.80043
#
# Velocity S-wave (km/s) = 3.22498 3.50737 3.36913
# Velocity P-wave (km/s) = 5.61183 6.35626 5.99561
#
# Compressibility (1/GPa) = 0.02705918
#
# Stress axis : x y z
#
# Youngs Moduli (GPa) = 51.64632 125.49884 48.38742
#
# Poissons Ratio (x) = 0.33309 0.15024
# Poissons Ratio (y) = 0.13708 0.22790
# Poissons Ratio (z) = 0.16036 0.59110
#
# Static dielectric constant tensor:
#      x y z
#    x 1.549620 0.000000 0.025300 
#    y 0.000000 1.824710 0.000000 
#    z 0.025300 0.000000 1.747490 
# 
# From -- ./inp_files/48618.got.cif
#   From: 2010.05.17/outbox.cif.g08.bks.cpg/sg12_25_cif.got.tgz:48618.got - 2010.06.03 13:09:07.
