data_PCOD9209806
_publ_section_title
;
Structure prediction by ZEFSAII (Michael W. Deem and Ramdas Pophale) SiO2 
 PCOD9209806
Probable space group: C 2/M
;
_chemical_formula_sum "Si O2"
_cell_formula_units_Z 64
_cell_length_a 17.924490
_cell_length_b 33.393242
_cell_length_c 9.674663
_cell_angle_alpha 90.000000
_cell_angle_beta 32.345374
_cell_angle_gamma 90.000000
_cell_volume 3098.221954
_symmetry_space_group_name_H-M "C 2/M"
_symmetry_group_IT_number 12
_symmetry_cell_setting 'monoclinic'
loop_
_space_group_symop_operation_xyz
x,y,z
-x,y,-z
-x,-y,-z
x,-y,z
1/2+x,1/2+y,z
1/2-x,1/2+y,-z
1/2-x,1/2-y,-z
1/2+x,1/2-y,z
loop_
_atom_site_type_symbol
_atom_site_label
_atom_site_fract_x
_atom_site_fract_y
_atom_site_fract_z
Si Si1 0.370498 0.045619 0.309820
Si Si2 0.454500 0.544588 0.230778
Si Si3 0.023290 0.760932 0.807712
Si Si4 0.624646 0.868152 0.584386
Si Si5 0.091711 0.690659 0.155787
Si Si6 0.263590 0.674615 0.619603
Si Si7 0.511606 0.616418 0.326695
Si Si8 0.281439 0.678121 0.103635
O O1 0.213882 0.048208 0.491705
O O2 0.374792 0.084130 0.402630
O O3 0.380330 0.000000 0.352481
O O4 0.500000 0.049863 0.000000
O O5 0.494031 0.500000 0.215132
O O6 0.527332 0.579374 0.200782
O O7 0.500000 0.548355 0.000000
O O8 0.023096 0.724157 0.702116
O O9 0.156631 0.789566 0.584374
O O10 0.889896 0.788185 0.979150
O O11 0.000000 0.746261 0.000000
O O12 0.479295 0.852376 0.751632
O O13 0.657361 0.847817 0.682317
O O14 0.735200 0.848572 0.306096
O O15 0.159491 0.695612 0.198813
O O16 0.199890 0.692591 0.859385
O O17 0.377885 0.641690 0.484949
O O18 0.500000 0.601675 0.500000
O O19 0.637549 0.647521 0.122666
#
# Coordination Sequence:
#
# PCOD9209806 Si02
#       8
#     8   8   8   8   8   8   8   8
#     4  10  21  38  65 103 137 169 215 274 332 390
#     4  10  21  38  65  99 129 164 216 270 322 387
#     4  11  24  42  68  91 123 168 218 274 321 384
#     4  12  23  41  69  92 128 170 219 269 321 395
#     4  12  26  42  62  92 130 170 210 270 329 390
#     4  11  23  41  64  93 118 164 223 261 316 382
#     4  11  22  39  64  88 127 170 206 263 322 384
#     4  11  25  44  61  94 129 167 213 270 331 387
#
# _framework density 20.657011000000001
#
# number of rings (size 3 to 8) (size 9 to 14) (size 15 to 20)
#    0.000    1.000    3.750    3.375    1.750    1.250 
#    2.250    0.000    0.000    2.250    0.000    0.000 
#    0.000    0.000    0.000    0.000    0.000    0.000 
#
# Total GULP energy -178868.530256 kJ/mol
# GULP energy per Si atom -5589.641571 kJ/mol
# Density = 2.060999 g / cm^3
# Si number density = 20.657011 Si / 1000 Ang^3
#
#
#
# Elastic Constant Matrix: (Units=GPa)
#
#
# Indices 1 2 3 4 5 6 
#
# 1 60.8220 28.0167 6.9303 0.0000 5.1245 0.0000
# 2 28.0167 123.1505 1.3868 0.0000 11.3170 0.0000
# 3 6.9303 1.3868 40.5394 0.0000 3.3523 0.0000
# 4 0.0000 0.0000 0.0000 29.1318 0.0000 2.9134
# 5 5.1245 11.3170 3.3523 0.0000 26.7992 0.0000
# 6 0.0000 0.0000 0.0000 2.9134 0.0000 13.8227
#
#
#
# Elastic Compliance Matrix: (Units=1/GPa)
#
#
# Indices 1 2 3 4 5 6 
#
# 1 0.018794 -0.004105 -0.002949 0.000000 -0.001491 0.000000
# 2 -0.004105 0.009345 0.000650 0.000000 -0.003243 0.000000
# 3 -0.002949 0.000650 0.025388 0.000000 -0.002886 0.000000
# 4 0.000000 0.000000 0.000000 0.035066 0.000000 -0.007391
# 5 -0.001491 -0.003243 -0.002886 0.000000 0.039330 0.000000
# 6 0.000000 0.000000 0.000000 -0.007391 0.000000 0.073902
#
#
# Mechanical properties :
#
#
# Convention : Reuss Voigt Hill
#
# Bulk Modulus (GPa) = 24.55897 33.01994 28.78945
# Shear Modulus (GPa) = 21.90996 26.49594 24.20295
#
# Velocity S-wave (km/s) = 3.26030 3.58531 3.42666
# Velocity P-wave (km/s) = 5.10759 5.75837 5.44272
#
# Compressibility (1/GPa) = 0.04071832
#
# Stress axis : x y z
#
# Youngs Moduli (GPa) = 53.20792 107.01162 39.38876
#
# Poissons Ratio (x) = 0.43933 0.11616
# Poissons Ratio (y) = 0.21844 -0.02561
# Poissons Ratio (z) = 0.15692 -0.06959
#
# Static dielectric constant tensor:
#      x y z
#    x 1.703960 0.000000 -0.024010 
#    y 0.000000 1.712470 0.000000 
#    z -0.024010 0.000000 1.784600 
# 
# From -- ./inp_files/80733.got.cif
#   From: 2010.05.17/outbox.cif.g08.bks.cpg/sg12_41_cif.got.tgz:80733.got - 2010.06.03 13:09:07.
