data_PCOD9209951
_publ_section_title
;
Structure prediction by ZEFSAII (Michael W. Deem and Ramdas Pophale) SiO2 
 PCOD9209951
Probable space group: C 2/M
;
_chemical_formula_sum "Si O2"
_cell_formula_units_Z 64
_cell_length_a 17.228478
_cell_length_b 20.973546
_cell_length_c 11.063182
_cell_angle_alpha 90.000000
_cell_angle_beta 126.259998
_cell_angle_gamma 90.000000
_cell_volume 3223.426679
_symmetry_space_group_name_H-M "C 2/M"
_symmetry_group_IT_number 12
_symmetry_cell_setting 'monoclinic'
loop_
_space_group_symop_operation_xyz
x,y,z
-x,y,-z
-x,-y,-z
x,-y,z
1/2+x,1/2+y,z
1/2-x,1/2+y,-z
1/2-x,1/2-y,-z
1/2+x,1/2-y,z
loop_
_atom_site_type_symbol
_atom_site_label
_atom_site_fract_x
_atom_site_fract_y
_atom_site_fract_z
Si Si1 0.865175 0.159048 0.704711
Si Si2 0.014612 0.423537 0.154146
Si Si3 0.652700 0.424308 0.087810
Si Si4 0.235844 0.425453 0.419910
Si Si5 0.232305 0.124863 0.805036
Si Si6 0.885689 0.737231 0.919421
Si Si7 0.926040 0.832368 0.172133
Si Si8 0.664468 0.926634 0.872861
O O1 0.887183 0.106309 0.827765
O O2 0.781941 0.126537 0.550590
O O3 0.846808 0.220824 0.770870
O O4 0.959570 0.173869 0.712065
O O5 0.999484 0.500000 0.140163
O O6 0.122438 0.412561 0.297133
O O7 0.936321 0.396333 0.176845
O O8 0.000000 0.405577 0.000000
O O9 0.651924 0.500000 0.091071
O O10 0.763579 0.401042 0.163850
O O11 0.592767 0.396896 0.921270
O O12 0.248412 0.500000 0.468718
O O13 0.281669 0.413680 0.330377
O O14 0.316790 0.176930 0.866300
O O15 0.137752 0.160340 0.767648
O O16 0.272239 0.078424 0.946675
O O17 0.885489 0.777774 0.044154
O O18 0.000000 0.727245 0.000000
O O19 0.646467 0.000000 0.822882
#
# Coordination Sequence:
#
# PCOD9209951 Si02
#       8
#     8   8   8   8   8   8   8   8
#     4  10  21  39  53  73 116 154 188 221 268 327
#     4   9  16  30  50  75 112 144 171 217 275 330
#     4   9  17  31  55  81 104 142 192 232 272 324
#     4  11  23  35  54  84 117 152 184 219 278 341
#     4  11  20  32  58  84 111 140 184 232 279 326
#     4   9  20  37  60  84 105 141 193 234 275 325
#     4   9  20  37  55  81 110 146 182 236 281 317
#     4   9  17  30  51  83 114 135 173 235 287 327
#
# _framework density 19.854648000000001
#
# number of rings (size 3 to 8) (size 9 to 14) (size 15 to 20)
#    0.000    2.375    1.250    2.250    1.750    3.000 
#    0.000    1.250    0.000    3.000    0.000    0.000 
#    0.000    0.000    0.000    0.000    0.000    0.000 
#
# Total GULP energy -178297.213850 kJ/mol
# GULP energy per Si atom -5571.787933 kJ/mol
# Density = 1.980946 g / cm^3
# Si number density = 19.854648 Si / 1000 Ang^3
#
#
#
# Elastic Constant Matrix: (Units=GPa)
#
#
# Indices 1 2 3 4 5 6 
#
# 1 103.7600 13.2113 6.7261 0.0000 14.0994 0.0000
# 2 13.2113 56.8107 7.8298 0.0000 5.8900 0.0000
# 3 6.7261 7.8298 48.1542 0.0000 8.6230 0.0000
# 4 0.0000 0.0000 0.0000 17.1402 0.0000 8.5934
# 5 14.0994 5.8900 8.6230 0.0000 16.1084 0.0000
# 6 0.0000 0.0000 0.0000 8.5934 0.0000 12.8619
#
#
#
# Elastic Compliance Matrix: (Units=1/GPa)
#
#
# Indices 1 2 3 4 5 6 
#
# 1 0.011089 -0.001668 0.000388 0.000000 -0.009304 0.000000
# 2 -0.001668 0.018716 -0.002042 0.000000 -0.004291 0.000000
# 3 0.000388 -0.002042 0.023195 0.000000 -0.012010 0.000000
# 4 0.000000 0.000000 0.000000 0.087729 0.000000 -0.058614
# 5 -0.009304 -0.004291 -0.012010 0.000000 0.078221 0.000000
# 6 0.000000 0.000000 0.000000 -0.058614 0.000000 0.116910
#
#
# Mechanical properties :
#
#
# Convention : Reuss Voigt Hill
#
# Bulk Modulus (GPa) = 21.57124 29.36215 25.46670
# Shear Modulus (GPa) = 13.96818 21.28595 17.62706
#
# Velocity S-wave (km/s) = 2.65528 3.27783 2.98284
# Velocity P-wave (km/s) = 4.50431 5.39872 4.97167
#
# Compressibility (1/GPa) = 0.04635801
#
# Stress axis : x y z
#
# Youngs Moduli (GPa) = 90.17871 53.42899 43.11274
#
# Poissons Ratio (x) = 0.08910 -0.01674
# Poissons Ratio (y) = 0.15039 0.08803
# Poissons Ratio (z) = -0.03502 0.10910
#
# Static dielectric constant tensor:
#      x y z
#    x 1.770230 0.000000 0.020180 
#    y 0.000000 1.717570 0.000000 
#    z 0.020180 0.000000 1.688390 
# 
# From -- ./inp_files/159566.got.cif
#   From: 2010.05.17/outbox.cif.g08.bks.cpg/sg12_80_cif.got.tgz:159566.got - 2010.06.03 13:09:07.
