data_PCOD9209249
_publ_section_title
;
Structure prediction by ZEFSAII (Michael W. Deem and Ramdas Pophale) SiO2 
 PCOD9209249
Probable space group: C 2/M
;
_chemical_formula_sum "Si O2"
_cell_formula_units_Z 48
_cell_length_a 11.173095
_cell_length_b 30.130527
_cell_length_c 13.074093
_cell_angle_alpha 90.000000
_cell_angle_beta 32.734402
_cell_angle_gamma 90.000000
_cell_volume 2380.042405
_symmetry_space_group_name_H-M "C 2/M"
_symmetry_group_IT_number 12
_symmetry_cell_setting 'monoclinic'
loop_
_space_group_symop_operation_xyz
x,y,z
-x,y,-z
-x,-y,-z
x,-y,z
1/2+x,1/2+y,z
1/2-x,1/2+y,-z
1/2-x,1/2-y,-z
1/2+x,1/2-y,z
loop_
_atom_site_type_symbol
_atom_site_label
_atom_site_fract_x
_atom_site_fract_y
_atom_site_fract_z
Si Si1 0.178722 0.701171 0.519932
Si Si2 0.435037 0.450732 0.301927
Si Si3 0.752788 0.929980 0.221614
Si Si4 0.294161 0.381263 0.573997
Si Si5 0.433198 0.049617 0.857416
Si Si6 0.283344 0.325727 0.223055
O O1 0.250000 0.750000 0.500000
O O2 0.210935 0.664647 0.585127
O O3 0.308743 0.685080 0.324426
O O4 0.922075 0.701646 0.672333
O O5 0.422949 0.500000 0.356553
O O6 0.270116 0.448702 0.323002
O O7 0.377389 0.412668 0.422201
O O8 0.686998 0.444138 0.080315
O O9 0.597473 0.948352 0.244185
O O10 0.716838 0.877388 0.258572
O O11 0.000000 0.937131 0.000000
O O12 0.500000 0.373410 0.500000
O O13 0.099242 0.410715 0.765709
O O14 0.509651 0.000000 0.831562
O O15 0.500000 0.318362 0.000000
#
# Coordination Sequence:
#
# PCOD9209249 Si02
#       6
#     8   8   8   8   8   8
#     4  11  25  43  68  94 125 161 206 256 316 375
#     4  10  21  38  61  90 124 161 203 252 305 363
#     4   9  16  33  62  94 121 149 190 245 309 361
#     4  12  26  41  58  84 123 168 210 252 299 363
#     4  10  21  38  61  90 124 161 203 252 305 363
#     4  10  21  42  71  97 124 157 199 259 321 367
#
# _framework density 20.167707
#
# number of rings (size 3 to 8) (size 9 to 14) (size 15 to 20)
#    0.000    1.667    3.333    1.000    2.333    5.333 
#    0.000    3.333    0.000    0.000    0.000    0.000 
#    0.000    0.000    0.000    0.000    0.000    0.000 
#
# Total GULP energy -134136.054598 kJ/mol
# GULP energy per Si atom -5589.002275 kJ/mol
# Density = 2.012180 g / cm^3
# Si number density = 20.167707 Si / 1000 Ang^3
#
#
#
# Elastic Constant Matrix: (Units=GPa)
#
#
# Indices 1 2 3 4 5 6 
#
# 1 50.4610 15.0764 -5.9674 0.0000 -17.7554 0.0000
# 2 15.0764 114.1649 20.2258 0.0000 -8.8046 0.0000
# 3 -5.9674 20.2258 78.2421 0.0000 -4.5616 0.0000
# 4 0.0000 0.0000 0.0000 16.1201 0.0000 -11.8532
# 5 -17.7554 -8.8046 -4.5616 0.0000 27.5532 0.0000
# 6 0.0000 0.0000 0.0000 -11.8532 0.0000 21.7292
#
#
#
# Elastic Compliance Matrix: (Units=1/GPa)
#
#
# Indices 1 2 3 4 5 6 
#
# 1 0.027215 -0.002946 0.003842 0.000000 0.017232 0.000000
# 2 -0.002946 0.009682 -0.002684 0.000000 0.000751 0.000000
# 3 0.003842 -0.002684 0.013997 0.000000 0.003935 0.000000
# 4 0.000000 0.000000 0.000000 0.103582 0.000000 0.056504
# 5 0.017232 0.000751 0.003935 0.000000 0.048289 0.000000
# 6 0.000000 0.000000 0.000000 0.056504 0.000000 0.076843
#
#
# Mechanical properties :
#
#
# Convention : Reuss Voigt Hill
#
# Bulk Modulus (GPa) = 21.13327 33.50417 27.31872
# Shear Modulus (GPa) = 16.72485 27.31605 22.02045
#
# Velocity S-wave (km/s) = 2.88286 3.68427 3.30793
# Velocity P-wave (km/s) = 4.64572 5.89469 5.30707
#
# Compressibility (1/GPa) = 0.04731876
#
# Stress axis : x y z
#
# Youngs Moduli (GPa) = 36.74441 103.28848 71.44390
#
# Poissons Ratio (x) = 0.30425 -0.27447
# Poissons Ratio (y) = 0.10823 0.19173
# Poissons Ratio (z) = -0.14116 0.27718
#
# Static dielectric constant tensor:
#      x y z
#    x 1.716280 0.000000 0.000400 
#    y 0.000000 1.691020 0.000000 
#    z 0.000400 0.000000 1.755560 
# 
# From -- ./inp_files/209288.got.cif
#   From: 2010.05.17/outbox.cif.g08.bks.cpg/sg12_105_cif.got.tgz:209288.got - 2010.06.03 13:09:07.
