data_PCOD9209976
_publ_section_title
;
Structure prediction by ZEFSAII (Michael W. Deem and Ramdas Pophale) SiO2 
 PCOD9209976
Probable space group: C 2/M
;
_chemical_formula_sum "Si O2"
_cell_formula_units_Z 64
_cell_length_a 14.406328
_cell_length_b 9.527679
_cell_length_c 29.068846
_cell_angle_alpha 90.000000
_cell_angle_beta 127.054282
_cell_angle_gamma 90.000000
_cell_volume 3184.244937
_symmetry_space_group_name_H-M "C 2/M"
_symmetry_group_IT_number 12
_symmetry_cell_setting 'monoclinic'
loop_
_space_group_symop_operation_xyz
x,y,z
-x,y,-z
-x,-y,-z
x,-y,z
1/2+x,1/2+y,z
1/2-x,1/2+y,-z
1/2-x,1/2-y,-z
1/2+x,1/2-y,z
loop_
_atom_site_type_symbol
_atom_site_label
_atom_site_fract_x
_atom_site_fract_y
_atom_site_fract_z
Si Si1 0.163219 0.665538 0.306064
Si Si2 0.055721 0.165090 0.741076
Si Si3 0.643824 0.164977 0.490037
Si Si4 0.529818 0.339538 0.104347
Si Si5 0.831546 0.840246 0.124704
Si Si6 0.119672 0.665496 0.593323
Si Si7 0.300050 0.164949 0.786937
Si Si8 0.823669 0.830976 0.982618
O O1 0.167562 0.500000 0.316650
O O2 0.283608 0.739542 0.354414
O O3 0.142151 0.686273 0.245209
O O4 0.057027 0.741577 0.299559
O O5 0.108804 0.183009 0.808326
O O6 0.165128 0.206031 0.742519
O O7 0.027436 0.000000 0.726812
O O8 0.750000 0.250000 0.500000
O O9 0.639022 0.178593 0.544025
O O10 0.513514 0.206725 0.435118
O O11 0.658485 0.000000 0.483912
O O12 0.569497 0.500000 0.111587
O O13 0.433453 0.333864 0.116691
O O14 0.633018 0.243859 0.152932
O O15 0.456780 0.301930 0.037011
O O16 0.731288 0.731482 0.080158
O O17 0.784962 0.000000 0.109745
O O18 0.134091 0.500000 0.608991
O O19 0.301040 0.000000 0.797871
O O20 0.808233 0.000000 0.980417
O O21 0.750000 0.750000 0.000000
#
# Coordination Sequence:
#
# PCOD9209976 Si02
#       8
#     8   8   8   8   8   8   8   8
#     4  11  23  38  57  86 116 145 190 242 280 318
#     4  10  21  39  58  77 107 148 187 227 282 345
#     4   9  19  37  62  91 122 156 195 231 273 324
#     4   9  17  31  51  75 101 135 177 221 274 339
#     4   9  17  31  52  75  99 135 180 221 272 339
#     4   9  20  39  60  84 118 161 195 223 272 337
#     4  10  22  37  55  79 107 141 184 232 281 331
#     4   9  17  28  46  74 103 133 172 219 274 337
#
# _framework density 20.098955
#
# number of rings (size 3 to 8) (size 9 to 14) (size 15 to 20)
#    0.000    2.500    1.250    2.250    0.000    6.000 
#    0.000    5.625    0.000    3.750    0.000    0.000 
#    0.000    0.000    0.000    0.000    0.000    0.000 
#
# Total GULP energy -178586.392172 kJ/mol
# GULP energy per Si atom -5580.824755 kJ/mol
# Density = 2.005321 g / cm^3
# Si number density = 20.098955 Si / 1000 Ang^3
#
#
#
# Elastic Constant Matrix: (Units=GPa)
#
#
# Indices 1 2 3 4 5 6 
#
# 1 87.2004 49.0139 18.2385 0.0000 32.1886 0.0000
# 2 49.0139 89.5933 61.9651 0.0000 37.8063 0.0000
# 3 18.2385 61.9651 68.4981 0.0000 37.1897 0.0000
# 4 0.0000 0.0000 0.0000 35.8014 0.0000 10.9843
# 5 32.1886 37.8063 37.1897 0.0000 33.2956 0.0000
# 6 0.0000 0.0000 0.0000 10.9843 0.0000 24.9303
#
#
#
# Elastic Compliance Matrix: (Units=1/GPa)
#
#
# Indices 1 2 3 4 5 6 
#
# 1 0.041049 -0.032408 0.050700 0.000000 -0.059515 0.000000
# 2 -0.032408 0.056627 -0.062753 0.000000 0.037124 0.000000
# 3 0.050700 -0.062753 0.116351 0.000000 -0.107718 0.000000
# 4 0.000000 0.000000 0.000000 0.032298 0.000000 -0.014230
# 5 -0.059515 0.037124 -0.107718 0.000000 0.165732 0.000000
# 6 0.000000 0.000000 0.000000 -0.014230 0.000000 0.046382
#
#
# Mechanical properties :
#
#
# Convention : Reuss Voigt Hill
#
# Bulk Modulus (GPa) = 7.99337 55.96965 31.98151
# Shear Modulus (GPa) = 8.48805 26.54377 17.51591
#
# Velocity S-wave (km/s) = 2.05725 3.63802 2.95529
# Velocity P-wave (km/s) = 3.10302 6.74940 5.25277
#
# Compressibility (1/GPa) = 0.12510366
#
# Stress axis : x y z
#
# Youngs Moduli (GPa) = 24.36141 17.65933 8.59467
#
# Poissons Ratio (x) = 0.57230 -0.43575
# Poissons Ratio (y) = 0.78950 0.53934
# Poissons Ratio (z) = -1.23511 1.10818
#
# Static dielectric constant tensor:
#      x y z
#    x 1.771260 0.000000 -0.019870 
#    y 0.000000 1.679110 0.000000 
#    z -0.019870 0.000000 1.717080 
# 
# From -- ./inp_files/375678.got.cif
#   From: 2010.05.17/outbox.cif.g08.bks.cpg/sg12_188_cif.got.tgz:375678.got - 2010.06.03 13:09:07.
