data_PCOD9209147
_publ_section_title
;
Structure prediction by ZEFSAII (Michael W. Deem and Ramdas Pophale) SiO2 
 PCOD9209147
Probable space group: C 2/M
;
_chemical_formula_sum "Si O2"
_cell_formula_units_Z 40
_cell_length_a 21.276596
_cell_length_b 7.430362
_cell_length_c 11.343950
_cell_angle_alpha 90.000000
_cell_angle_beta 105.481914
_cell_angle_gamma 90.000000
_cell_volume 1728.323101
_symmetry_space_group_name_H-M "C 2/M"
_symmetry_group_IT_number 12
_symmetry_cell_setting 'monoclinic'
loop_
_space_group_symop_operation_xyz
x,y,z
-x,y,-z
-x,-y,-z
x,-y,z
1/2+x,1/2+y,z
1/2-x,1/2+y,-z
1/2-x,1/2-y,-z
1/2+x,1/2-y,z
loop_
_atom_site_type_symbol
_atom_site_label
_atom_site_fract_x
_atom_site_fract_y
_atom_site_fract_z
Si Si1 0.342582 0.717555 0.041620
Si Si2 0.040779 0.208310 0.407042
Si Si3 0.491527 0.716911 0.131229
Si Si4 0.812660 0.714192 0.450881
Si Si5 0.743761 0.701452 0.192108
O O1 0.334057 0.500000 0.039153
O O2 0.415522 0.753358 0.115201
O O3 0.293313 0.804495 0.108052
O O4 0.321871 0.777708 0.899240
O O5 0.028118 0.283236 0.268106
O O6 0.117865 0.212979 0.472807
O O7 0.000000 0.283866 0.500000
O O8 0.019063 0.000000 0.388208
O O9 0.503871 0.500000 0.130603
O O10 0.500000 0.782747 0.000000
O O11 0.823590 0.500000 0.446573
O O12 0.750000 0.750000 0.500000
O O13 0.786294 0.790578 0.314134
O O14 0.726895 0.500000 0.226156
#
# Coordination Sequence:
#
# PCOD9209147 Si02
#       5
#     8   8   8   8   8
#     4   9  17  32  56  82 106 138 182 228 275 333
#     4  10  21  38  61  88 116 153 199 242 287 348
#     4   9  18  31  54  82 109 144 185 230 279 333
#     4  11  24  39  58  85 117 155 195 241 293 345
#     4   9  19  34  54  80 109 142 180 226 282 338
#
# _framework density 23.143822
#
# number of rings (size 3 to 8) (size 9 to 14) (size 15 to 20)
#    0.000    2.400    0.000    1.800    2.800    3.600 
#    0.000    1.000    0.000    1.200    0.000    0.000 
#    0.000    0.000    0.000    0.000    0.000    0.000 
#
# Total GULP energy -111422.977193 kJ/mol
# GULP energy per Si atom -5571.148860 kJ/mol
# Density = 2.309115 g / cm^3
# Si number density = 23.143822 Si / 1000 Ang^3
#
#
#
# Elastic Constant Matrix: (Units=GPa)
#
#
# Indices 1 2 3 4 5 6 
#
# 1 71.1335 -12.3993 62.6682 0.0000 11.2188 0.0000
# 2 -12.3993 72.6973 2.9512 0.0000 -0.8087 0.0000
# 3 62.6682 2.9512 239.8445 0.0000 23.2464 0.0000
# 4 0.0000 0.0000 0.0000 4.3344 0.0000 7.4104
# 5 11.2188 -0.8087 23.2464 0.0000 41.2221 0.0000
# 6 0.0000 0.0000 0.0000 7.4104 0.0000 14.8593
#
#
#
# Elastic Compliance Matrix: (Units=1/GPa)
#
#
# Indices 1 2 3 4 5 6 
#
# 1 0.019326 0.003466 -0.004854 0.000000 -0.002454 0.000000
# 2 0.003466 0.014390 -0.001078 0.000000 -0.000053 0.000000
# 3 -0.004854 -0.001078 0.005633 0.000000 -0.001877 0.000000
# 4 0.000000 0.000000 0.000000 1.565292 0.000000 -0.780618
# 5 -0.002454 -0.000053 -0.001877 0.000000 0.025984 0.000000
# 6 0.000000 0.000000 0.000000 -0.780618 0.000000 0.456596
#
#
# Mechanical properties :
#
#
# Convention : Reuss Voigt Hill
#
# Bulk Modulus (GPa) = 29.05536 54.45728 41.75632
# Shear Modulus (GPa) = 2.37685 34.11350 18.24518
#
# Velocity S-wave (km/s) = 1.01451 3.84341 2.81078
# Velocity P-wave (km/s) = 3.73548 6.57851 5.34932
#
# Compressibility (1/GPa) = 0.03441706
#
# Stress axis : x y z
#
# Youngs Moduli (GPa) = 51.74376 69.49280 177.52838
#
# Poissons Ratio (x) = -0.24086 0.86180
# Poissons Ratio (y) = -0.17934 0.19129
# Poissons Ratio (z) = 0.25119 0.07488
#
# Static dielectric constant tensor:
#      x y z
#    x 1.762760 0.000000 0.036260 
#    y 0.000000 1.924100 0.000000 
#    z 0.036260 0.000000 1.956010 
# 
# From -- ./inp_files/162721.got.cif
#   From: 2010.05.17/outbox.cif.g08.bks.cpg/sg12_82_cif.got.tgz:162721.got - 2010.06.03 13:09:07.
