data_PCOD9209160
_publ_section_title
;
Structure prediction by ZEFSAII (Michael W. Deem and Ramdas Pophale) SiO2 
 PCOD9209160
Probable space group: C 2/M
;
_chemical_formula_sum "Si O2"
_cell_formula_units_Z 48
_cell_length_a 16.705443
_cell_length_b 28.720729
_cell_length_c 6.795277
_cell_angle_alpha 90.000000
_cell_angle_beta 126.617078
_cell_angle_gamma 90.000000
_cell_volume 2616.864713
_symmetry_space_group_name_H-M "C 2/M"
_symmetry_group_IT_number 12
_symmetry_cell_setting 'monoclinic'
loop_
_space_group_symop_operation_xyz
x,y,z
-x,y,-z
-x,-y,-z
x,-y,z
1/2+x,1/2+y,z
1/2-x,1/2+y,-z
1/2-x,1/2-y,-z
1/2+x,1/2-y,z
loop_
_atom_site_type_symbol
_atom_site_label
_atom_site_fract_x
_atom_site_fract_y
_atom_site_fract_z
Si Si1 0.739635 0.886215 0.422153
Si Si2 0.254082 0.445573 0.051640
Si Si3 0.758706 0.281064 0.707823
Si Si4 0.113510 0.381628 0.596458
Si Si5 0.613270 0.779854 0.743769
Si Si6 0.614219 0.446207 0.103290
O O1 0.742382 0.918764 0.237003
O O2 0.758960 0.833959 0.380370
O O3 0.637576 0.885349 0.400301
O O4 0.822628 0.907873 0.687793
O O5 0.237573 0.500000 0.056381
O O6 0.173385 0.422740 0.788703
O O7 0.359092 0.439855 0.088411
O O8 0.750000 0.250000 0.500000
O O9 0.675219 0.261070 0.732204
O O10 0.861572 0.277998 0.986255
O O11 0.151119 0.330699 0.724481
O O12 0.000000 0.384276 0.500000
O O13 0.500000 0.776748 0.500000
O O14 0.646179 0.500000 0.196913
O O15 0.500000 0.442347 0.000000
#
# Coordination Sequence:
#
# PCOD9209160 Si02
#       6
#     8   8   8   8   8   8
#     4  11  21  38  60  88 120 157 199 253 305 357
#     4  10  21  38  61  88 119 155 195 247 305 359
#     4  11  22  40  62  89 123 159 202 259 304 363
#     4  10  21  39  60  84 118 160 201 246 297 364
#     4  10  22  41  61  87 122 162 203 247 309 371
#     4   9  20  39  61  87 120 159 201 245 301 372
#
# _framework density 18.342559999999999
#
# number of rings (size 3 to 8) (size 9 to 14) (size 15 to 20)
#    0.000    1.833    3.333    0.500    0.000    3.000 
#    6.000    3.333    0.000    0.000    0.000    0.000 
#    0.000    0.000    0.000    0.000    0.000    0.000 
#
# Total GULP energy -133748.917864 kJ/mol
# GULP energy per Si atom -5572.871578 kJ/mol
# Density = 1.830081 g / cm^3
# Si number density = 18.342560 Si / 1000 Ang^3
#
#
#
# Elastic Constant Matrix: (Units=GPa)
#
#
# Indices 1 2 3 4 5 6 
#
# 1 112.1954 68.7775 40.6602 0.0000 -17.3832 0.0000
# 2 68.7775 142.8353 60.7695 0.0000 -19.0850 0.0000
# 3 40.6602 60.7695 102.9058 0.0000 -20.2330 0.0000
# 4 0.0000 0.0000 0.0000 37.7805 0.0000 -8.4830
# 5 -17.3832 -19.0850 -20.2330 0.0000 32.2694 0.0000
# 6 0.0000 0.0000 0.0000 -8.4830 0.0000 28.6313
#
#
#
# Elastic Compliance Matrix: (Units=1/GPa)
#
#
# Indices 1 2 3 4 5 6 
#
# 1 0.013172 -0.005311 -0.001472 0.000000 0.003031 0.000000
# 2 -0.005311 0.011652 -0.004551 0.000000 0.001177 0.000000
# 3 -0.001472 -0.004551 0.014031 0.000000 0.005313 0.000000
# 4 0.000000 0.000000 0.000000 0.028355 0.000000 0.008401
# 5 0.003031 0.001177 0.005313 0.000000 0.036650 0.000000
# 6 0.000000 0.000000 0.000000 0.008401 0.000000 0.037416
#
#
# Mechanical properties :
#
#
# Convention : Reuss Voigt Hill
#
# Bulk Modulus (GPa) = 61.77799 77.59453 69.68626
# Shear Modulus (GPa) = 29.52641 32.25152 30.88897
#
# Velocity S-wave (km/s) = 4.01649 4.19774 4.10812
# Velocity P-wave (km/s) = 7.43390 8.11724 7.78307
#
# Compressibility (1/GPa) = 0.01618699
#
# Stress axis : x y z
#
# Youngs Moduli (GPa) = 75.91843 85.82259 71.26852
#
# Poissons Ratio (x) = 0.45582 0.10491
# Poissons Ratio (y) = 0.40322 0.32434
# Poissons Ratio (z) = 0.11176 0.39057
#
# Static dielectric constant tensor:
#      x y z
#    x 1.655610 0.000000 -0.017450 
#    y 0.000000 1.612720 0.000000 
#    z -0.017450 0.000000 1.672460 
# 
# From -- ./inp_files/12793.got.cif
#   From: 2010.05.17/outbox.cif.g08.bks.cpg/sg12_7_cif.got.tgz:12793.got - 2010.06.03 13:09:07.
