data_PCOD9209109
_publ_section_title
;
Structure prediction by ZEFSAII (Michael W. Deem and Ramdas Pophale) SiO2 
 PCOD9209109
Probable space group: C 2/M
;
_chemical_formula_sum "Si O2"
_cell_formula_units_Z 32
_cell_length_a 16.122904
_cell_length_b 14.607366
_cell_length_c 7.051940
_cell_angle_alpha 90.000000
_cell_angle_beta 45.266456
_cell_angle_gamma 90.000000
_cell_volume 1179.829165
_symmetry_space_group_name_H-M "C 2/M"
_symmetry_group_IT_number 12
_symmetry_cell_setting 'monoclinic'
loop_
_space_group_symop_operation_xyz
x,y,z
-x,y,-z
-x,-y,-z
x,-y,z
1/2+x,1/2+y,z
1/2-x,1/2+y,-z
1/2-x,1/2-y,-z
1/2+x,1/2-y,z
loop_
_atom_site_type_symbol
_atom_site_label
_atom_site_fract_x
_atom_site_fract_y
_atom_site_fract_z
Si Si1 0.018702 0.699815 0.742690
Si Si2 0.433363 0.400133 0.855636
Si Si3 0.271878 0.846422 0.065388
Si Si4 0.746489 0.106574 0.471361
O O1 0.145581 0.656723 0.514372
O O2 0.001201 0.805593 0.709671
O O3 0.912117 0.641162 0.826322
O O4 0.000000 0.697190 0.000000
O O5 0.494109 0.500000 0.752338
O O6 0.367532 0.387733 0.163254
O O7 0.325145 0.405850 0.882993
O O8 0.249651 0.850750 0.326411
O O9 0.250000 0.750000 0.000000
O O10 0.715446 0.000000 0.540825
#
# Coordination Sequence:
#
# PCOD9209109 Si02
#       4
#     8   8   8   8
#     4   9  20  36  57  86 119 152 193 245 296 348
#     4  10  21  38  61  87 117 157 199 242 298 358
#     4   9  19  35  57  86 119 153 193 245 297 351
#     4  10  21  38  62  89 117 154 200 247 296 352
#
# _framework density 27.122572000000002
#
# number of rings (size 3 to 8) (size 9 to 14) (size 15 to 20)
#    0.000    2.500    0.000    0.750    0.000   16.000 
#    0.000   10.000    0.000    1.500    0.000   28.000 
#    0.000    0.000    0.000    0.000    0.000    0.000 
#
# Total GULP energy -89682.955746 kJ/mol
# GULP energy per Si atom -5605.184734 kJ/mol
# Density = 2.706084 g / cm^3
# Si number density = 27.122572 Si / 1000 Ang^3
#
#
#
# Elastic Constant Matrix: (Units=GPa)
#
#
# Indices 1 2 3 4 5 6 
#
# 1 169.4867 70.5184 39.6003 0.0000 1.1547 0.0000
# 2 70.5184 143.1149 43.3520 0.0000 -20.0060 0.0000
# 3 39.6003 43.3520 119.2529 0.0000 10.3669 0.0000
# 4 0.0000 0.0000 0.0000 24.9973 0.0000 -10.4463
# 5 1.1547 -20.0060 10.3669 0.0000 64.5836 0.0000
# 6 0.0000 0.0000 0.0000 -10.4463 0.0000 40.5993
#
#
#
# Elastic Compliance Matrix: (Units=1/GPa)
#
#
# Indices 1 2 3 4 5 6 
#
# 1 0.007664 -0.003575 -0.001153 0.000000 -0.001059 0.000000
# 2 -0.003575 0.010108 -0.002804 0.000000 0.003645 0.000000
# 3 -0.001153 -0.002804 0.010001 0.000000 -0.002453 0.000000
# 4 0.000000 0.000000 0.000000 0.044824 0.000000 0.011533
# 5 -0.001059 0.003645 -0.002453 0.000000 0.017026 0.000000
# 6 0.000000 0.000000 0.000000 0.011533 0.000000 0.027599
#
#
# Mechanical properties :
#
#
# Convention : Reuss Voigt Hill
#
# Bulk Modulus (GPa) = 78.69012 82.08842 80.38927
# Shear Modulus (GPa) = 36.62368 44.59498 40.60933
#
# Velocity S-wave (km/s) = 3.67863 4.05927 3.87363
# Velocity P-wave (km/s) = 6.86432 7.23199 7.05055
#
# Compressibility (1/GPa) = 0.01270808
#
# Stress axis : x y z
#
# Youngs Moduli (GPa) = 130.47278 98.93048 99.98783
#
# Poissons Ratio (x) = 0.35371 0.11532
# Poissons Ratio (y) = 0.46648 0.28039
# Poissons Ratio (z) = 0.15047 0.27742
#
# Static dielectric constant tensor:
#      x y z
#    x 2.171410 0.000000 -0.003880 
#    y 0.000000 2.064750 0.000000 
#    z -0.003880 0.000000 2.161830 
# 
# From -- ./inp_files/58243.got.cif
#   From: 2010.05.17/outbox.cif.g08.bks.cpg/sg12_30_cif.got.tgz:58243.got - 2010.06.03 13:09:07.
