data_PCOD9209307
_publ_section_title
;
Structure prediction by ZEFSAII (Michael W. Deem and Ramdas Pophale) SiO2 
 PCOD9209307
Probable space group: C 2/M
;
_chemical_formula_sum "Si O2"
_cell_formula_units_Z 48
_cell_length_a 14.930512
_cell_length_b 24.467495
_cell_length_c 9.087563
_cell_angle_alpha 90.000000
_cell_angle_beta 139.105032
_cell_angle_gamma 90.000000
_cell_volume 2173.386782
_symmetry_space_group_name_H-M "C 2/M"
_symmetry_group_IT_number 12
_symmetry_cell_setting 'monoclinic'
loop_
_space_group_symop_operation_xyz
x,y,z
-x,y,-z
-x,-y,-z
x,-y,z
1/2+x,1/2+y,z
1/2-x,1/2+y,-z
1/2-x,1/2-y,-z
1/2+x,1/2-y,z
loop_
_atom_site_type_symbol
_atom_site_label
_atom_site_fract_x
_atom_site_fract_y
_atom_site_fract_z
Si Si1 0.108269 0.210553 0.340465
Si Si2 0.757102 0.060276 0.162849
Si Si3 0.717290 0.769132 0.718751
Si Si4 0.675647 0.329750 0.900396
Si Si5 0.359544 0.867622 0.735280
Si Si6 0.473630 0.939594 0.636281
O O1 0.150337 0.225086 0.226039
O O2 0.102788 0.261020 0.450717
O O3 0.032370 0.181200 0.802720
O O4 0.236498 0.174862 0.559663
O O5 0.704306 0.081689 0.253772
O O6 0.821118 0.000000 0.246785
O O7 0.834240 0.111237 0.185681
O O8 0.619595 0.056734 0.896541
O O9 0.716759 0.818791 0.833778
O O10 0.709822 0.715667 0.816879
O O11 0.397520 0.891404 0.624466
O O12 0.500000 0.850938 0.000000
O O13 0.500000 0.929445 0.500000
O O14 0.406826 0.000000 0.568781
#
# Coordination Sequence:
#
# PCOD9209307 Si02
#       6
#     8   8   8   8   8   8
#     4  11  23  43  66  94 129 163 215 269 322 388
#     4  10  21  40  65  93 131 175 212 265 324 380
#     4  10  24  42  63  92 128 172 204 267 324 379
#     4  11  23  45  65  96 133 166 215 268 322 387
#     4  10  21  38  61  93 129 165 215 263 320 378
#     4   9  19  37  60  90 127 166 217 266 309 376
#
# _framework density 22.085348
#
# number of rings (size 3 to 8) (size 9 to 14) (size 15 to 20)
#    0.000    1.833    1.667    1.500    2.333    4.667 
#   12.000    2.500    0.000    2.000    0.000    0.000 
#    0.000    0.000    0.000    0.000    0.000    0.000 
#
# Total GULP energy -133782.562253 kJ/mol
# GULP energy per Si atom -5574.273427 kJ/mol
# Density = 2.203508 g / cm^3
# Si number density = 22.085348 Si / 1000 Ang^3
#
#
#
# Elastic Constant Matrix: (Units=GPa)
#
#
# Indices 1 2 3 4 5 6 
#
# 1 94.6896 54.3053 28.0752 0.0000 -13.5592 0.0000
# 2 54.3053 124.2878 36.1094 0.0000 -10.1364 0.0000
# 3 28.0752 36.1094 65.5502 0.0000 -27.9427 0.0000
# 4 0.0000 0.0000 0.0000 30.8624 0.0000 -5.2750
# 5 -13.5592 -10.1364 -27.9427 0.0000 38.3579 0.0000
# 6 0.0000 0.0000 0.0000 -5.2750 0.0000 26.5565
#
#
#
# Elastic Compliance Matrix: (Units=1/GPa)
#
#
# Indices 1 2 3 4 5 6 
#
# 1 0.014763 -0.005593 -0.002389 0.000000 0.002000 0.000000
# 2 -0.005593 0.011795 -0.005245 0.000000 -0.002681 0.000000
# 3 -0.002389 -0.005245 0.026422 0.000000 0.017017 0.000000
# 4 0.000000 0.000000 0.000000 0.033541 0.000000 0.006662
# 5 0.002000 -0.002681 0.017017 0.000000 0.038465 0.000000
# 6 0.000000 0.000000 0.000000 0.006662 0.000000 0.038979
#
#
# Mechanical properties :
#
#
# Convention : Reuss Voigt Hill
#
# Bulk Modulus (GPa) = 37.69937 57.94529 47.82233
# Shear Modulus (GPa) = 25.09265 30.22455 27.65860
#
# Velocity S-wave (km/s) = 3.37436 3.70338 3.54270
# Velocity P-wave (km/s) = 5.68231 6.67688 6.19957
#
# Compressibility (1/GPa) = 0.02652564
#
# Stress axis : x y z
#
# Youngs Moduli (GPa) = 67.73463 84.78321 37.84729
#
# Poissons Ratio (x) = 0.47422 0.09044
# Poissons Ratio (y) = 0.37886 0.19849
# Poissons Ratio (z) = 0.16185 0.44465
#
# Static dielectric constant tensor:
#      x y z
#    x 1.906940 0.000000 -0.046530 
#    y 0.000000 1.927210 0.000000 
#    z -0.046530 0.000000 1.907730 
# 
# From -- ./inp_files/90004.got.cif
#   From: 2010.05.17/outbox.cif.g08.bks.cpg/sg12_46_cif.got.tgz:90004.got - 2010.06.03 13:09:07.
