data_PCOD9209683
_publ_section_title
;
Structure prediction by ZEFSAII (Michael W. Deem and Ramdas Pophale) SiO2 
 PCOD9209683
Probable space group: C 2/M
;
_chemical_formula_sum "Si O2"
_cell_formula_units_Z 44
_cell_length_a 11.209149
_cell_length_b 14.308498
_cell_length_c 18.372635
_cell_angle_alpha 90.000000
_cell_angle_beta 42.194111
_cell_angle_gamma 90.000000
_cell_volume 1979.144770
_symmetry_space_group_name_H-M "C 2/M"
_symmetry_group_IT_number 12
_symmetry_cell_setting 'monoclinic'
loop_
_space_group_symop_operation_xyz
x,y,z
-x,y,-z
-x,-y,-z
x,-y,z
1/2+x,1/2+y,z
1/2-x,1/2+y,-z
1/2-x,1/2-y,-z
1/2+x,1/2-y,z
loop_
_atom_site_type_symbol
_atom_site_label
_atom_site_fract_x
_atom_site_fract_y
_atom_site_fract_z
Si Si1 0.000019 0.860421 0.797203
Si Si2 0.220684 0.634125 0.219368
Si Si3 0.483421 0.000000 0.419973
Si Si4 0.099455 0.000000 0.632195
Si Si5 0.470922 0.863005 0.209879
Si Si6 0.655587 0.171823 0.881546
Si Si7 0.670252 0.500000 0.372584
O O1 0.099955 0.911444 0.685945
O O2 0.793673 0.878409 0.872715
O O3 0.088656 0.892911 0.832793
O O4 0.027164 0.749007 0.784296
O O5 0.080009 0.588859 0.339107
O O6 0.231534 0.746775 0.209261
O O7 0.147280 0.605551 0.173249
O O8 0.500000 0.000000 0.500000
O O9 0.272408 0.000000 0.503682
O O10 0.919500 0.000000 0.667006
O O11 0.000000 0.000000 0.500000
O O12 0.443738 0.884431 0.136953
O O13 0.299889 0.911503 0.322993
O O14 0.500000 0.217051 0.000000
#
# Coordination Sequence:
#
# PCOD9209683 Si02
#       7
#     8   8   4   4   8   8   4
#     4  10  21  40  65  97 132 175 227 275 333 412
#     4  10  21  38  63  95 132 173 224 278 332 404
#     4  12  22  40  65  94 136 180 222 284 341 396
#     4  12  22  41  69  95 136 183 228 270 333 412
#     4  10  22  41  64  96 136 172 228 284 335 405
#     4  10  22  43  68  95 134 179 224 283 345 404
#     4  12  24  43  65  98 135 181 225 286 339 402
#
# _framework density 22.231824
#
# number of rings (size 3 to 8) (size 9 to 14) (size 15 to 20)
#    0.000    1.455    3.636    1.636    0.000    6.545 
#    6.545    5.000    0.000    8.727    0.000    0.000 
#    0.000    0.000    0.000    0.000    0.000    0.000 
#
# Total GULP energy -122529.269216 kJ/mol
# GULP energy per Si atom -5569.512237 kJ/mol
# Density = 2.218122 g / cm^3
# Si number density = 22.231824 Si / 1000 Ang^3
#
#
#
# Elastic Constant Matrix: (Units=GPa)
#
#
# Indices 1 2 3 4 5 6 
#
# 1 277.9095 19.9395 29.3033 0.0000 -0.9979 0.0000
# 2 19.9395 84.8746 19.3054 -0.0001 -1.0825 0.0000
# 3 29.3033 19.3054 74.3758 -0.0004 -13.0611 0.0000
# 4 0.0000 -0.0001 -0.0004 17.1979 0.0001 2.8242
# 5 -0.9979 -1.0825 -13.0611 0.0001 11.4889 0.0000
# 6 0.0000 0.0000 0.0000 2.8242 0.0000 12.5213
#
#
#
# Elastic Compliance Matrix: (Units=1/GPa)
#
#
# Indices 1 2 3 4 5 6 
#
# 1 0.003804 -0.000542 -0.001636 0.000000 -0.001580 0.000000
# 2 -0.000542 0.012690 -0.003597 0.000000 -0.002940 0.000000
# 3 -0.001636 -0.003597 0.018665 0.000000 0.020738 0.000000
# 4 0.000000 0.000000 0.000000 0.060383 0.000000 -0.013619
# 5 -0.001580 -0.002940 0.020738 0.000000 0.110202 0.000000
# 6 0.000000 0.000000 0.000000 -0.013619 0.000000 0.082936
#
#
# Mechanical properties :
#
#
# Convention : Reuss Voigt Hill
#
# Bulk Modulus (GPa) = 42.35360 63.80625 53.07993
# Shear Modulus (GPa) = 16.22856 32.81574 24.52215
#
# Velocity S-wave (km/s) = 2.70473 3.84613 3.32478
# Velocity P-wave (km/s) = 5.37088 6.96322 6.21823
#
# Compressibility (1/GPa) = 0.02361074
#
# Stress axis : x y z
#
# Youngs Moduli (GPa) = 262.88478 78.80222 53.57600
#
# Poissons Ratio (x) = 0.04269 0.08763
# Poissons Ratio (y) = 0.14243 0.19270
# Poissons Ratio (z) = 0.42996 0.28344
#
# Static dielectric constant tensor:
#      x y z
#    x 1.942950 0.000000 0.018120 
#    y 0.000000 1.814540 0.000000 
#    z 0.018120 0.000000 1.767980 
# 
# From -- ./inp_files/264158.got.cif
#   From: 2010.05.17/outbox.cif.g08.bks.cpg/sg12_133_cif.got.tgz:264158.got - 2010.06.03 13:09:07.
