data_PCOD9209587
_publ_section_title
;
Structure prediction by ZEFSAII (Michael W. Deem and Ramdas Pophale) SiO2 
 PCOD9209587
Probable space group: C 2/M
;
_chemical_formula_sum "Si O2"
_cell_formula_units_Z 48
_cell_length_a 14.458704
_cell_length_b 24.482546
_cell_length_c 11.182822
_cell_angle_alpha 90.000000
_cell_angle_beta 148.171498
_cell_angle_gamma 90.000000
_cell_volume 2087.660092
_symmetry_space_group_name_H-M "C 2/M"
_symmetry_group_IT_number 12
_symmetry_cell_setting 'monoclinic'
loop_
_space_group_symop_operation_xyz
x,y,z
-x,y,-z
-x,-y,-z
x,-y,z
1/2+x,1/2+y,z
1/2-x,1/2+y,-z
1/2-x,1/2-y,-z
1/2+x,1/2-y,z
loop_
_atom_site_type_symbol
_atom_site_label
_atom_site_fract_x
_atom_site_fract_y
_atom_site_fract_z
Si Si1 0.500000 0.930890 0.500000
Si Si2 0.609153 0.384942 0.452226
Si Si3 0.542225 0.129888 0.310716
Si Si4 0.622996 0.593213 0.019354
Si Si5 0.828322 0.439147 0.895620
Si Si6 0.296198 0.789622 0.158987
Si Si7 0.000000 0.207135 0.500000
O O1 0.420979 0.910049 0.538957
O O2 0.697375 0.941289 0.772327
O O3 0.784803 0.365127 0.577468
O O4 0.488586 0.416131 0.224306
O O5 0.676739 0.419842 0.639528
O O6 0.513534 0.332210 0.401301
O O7 0.474152 0.182645 0.304954
O O8 0.385126 0.105105 0.057001
O O9 0.500000 0.585988 0.000000
O O10 0.682717 0.657820 0.073686
O O11 0.796059 0.500000 0.908548
O O12 0.000000 0.442420 0.000000
O O13 0.334576 0.747241 0.307065
O O14 0.250000 0.750000 0.000000
#
# Coordination Sequence:
#
# PCOD9209587 Si02
#       7
#     4   8   8   8   8   8   4
#     4  10  21  38  63  89 128 167 214 264 324 378
#     4  11  23  40  65  95 126 172 225 271 326 393
#     4  10  21  40  66  92 128 176 213 267 333 384
#     4  11  22  40  62  88 124 179 223 261 322 387
#     4   9  20  41  70  99 127 163 213 278 341 393
#     4  11  22  37  55  85 130 169 212 270 316 373
#     4  12  25  38  59  91 135 175 220 270 323 380
#
# _framework density 22.992249999999999
#
# number of rings (size 3 to 8) (size 9 to 14) (size 15 to 20)
#    0.000    1.500    3.333    3.000    2.333    2.000 
#    0.000    0.833    0.000    1.500    0.000    0.000 
#    0.000    0.000    0.000    0.000    0.000    0.000 
#
# Total GULP energy -133626.063370 kJ/mol
# GULP energy per Si atom -5567.752640 kJ/mol
# Density = 2.293992 g / cm^3
# Si number density = 22.992250 Si / 1000 Ang^3
#
#
#
# Elastic Constant Matrix: (Units=GPa)
#
#
# Indices 1 2 3 4 5 6 
#
# 1 100.4163 17.3203 25.5717 0.0000 6.5690 0.0000
# 2 17.3203 67.4644 41.3854 0.0000 -5.1569 0.0000
# 3 25.5717 41.3854 159.3500 0.0000 -19.4110 0.0000
# 4 0.0000 0.0000 0.0000 7.4765 0.0000 3.6064
# 5 6.5690 -5.1569 -19.4110 0.0000 56.1187 0.0000
# 6 0.0000 0.0000 0.0000 3.6064 0.0000 -34.8454
#
#
#
# Elastic Compliance Matrix: (Units=1/GPa)
#
#
# Indices 1 2 3 4 5 6 
#
# 1 0.010805 -0.002038 -0.001442 0.000000 -0.001951 0.000000
# 2 -0.002038 0.018016 -0.004303 0.000000 0.000406 0.000000
# 3 -0.001442 -0.004303 0.007931 0.000000 0.002517 0.000000
# 4 0.000000 0.000000 0.000000 0.127392 0.000000 0.013185
# 5 -0.001951 0.000406 0.002517 0.000000 0.018956 0.000000
# 6 0.000000 0.000000 0.000000 0.013185 0.000000 -0.027334
#
#
# Mechanical properties :
#
#
# Convention : Reuss Voigt Hill
#
# Bulk Modulus (GPa) = 47.20096 55.08727 51.14412
# Shear Modulus (GPa) = 28.02772 21.94684 24.98728
#
# Velocity S-wave (km/s) = 3.49522 3.09290 3.30020
# Velocity P-wave (km/s) = 6.07144 6.06348 6.06746
#
# Compressibility (1/GPa) = 0.02118601
#
# Stress axis : x y z
#
# Youngs Moduli (GPa) = 92.54946 55.50518 126.08878
#
# Poissons Ratio (x) = 0.11314 0.18184
# Poissons Ratio (y) = 0.18866 0.54250
# Poissons Ratio (z) = 0.13347 0.23881
#
# Static dielectric constant tensor:
#      x y z
#    x 1.800240 0.000000 -0.005740 
#    y 0.000000 1.876870 0.000000 
#    z -0.005740 0.000000 1.933480 
# 
# From -- ./inp_files/149905.got.cif
#   From: 2010.05.17/outbox.cif.g08.bks.cpg/sg12_75_cif.got.tgz:149905.got - 2010.06.03 13:09:07.
