data_PCOD9209781
_publ_section_title
;
Structure prediction by ZEFSAII (Michael W. Deem and Ramdas Pophale) SiO2 
 PCOD9209781
Probable space group: C 2/M
;
_chemical_formula_sum "Si O2"
_cell_formula_units_Z 56
_cell_length_a 17.352134
_cell_length_b 11.379421
_cell_length_c 18.300220
_cell_angle_alpha 90.000000
_cell_angle_beta 55.614727
_cell_angle_gamma 90.000000
_cell_volume 2982.081258
_symmetry_space_group_name_H-M "C 2/M"
_symmetry_group_IT_number 12
_symmetry_cell_setting 'monoclinic'
loop_
_space_group_symop_operation_xyz
x,y,z
-x,y,-z
-x,-y,-z
x,-y,z
1/2+x,1/2+y,z
1/2-x,1/2+y,-z
1/2-x,1/2-y,-z
1/2+x,1/2-y,z
loop_
_atom_site_type_symbol
_atom_site_label
_atom_site_fract_x
_atom_site_fract_y
_atom_site_fract_z
Si Si1 0.649049 0.261934 0.090924
Si Si2 0.940538 0.000000 0.920078
Si Si3 0.148928 0.000000 0.869498
Si Si4 0.186175 0.643471 0.565042
Si Si5 0.505304 0.860097 0.915113
Si Si6 0.001449 0.362986 0.417701
Si Si7 0.309455 0.861649 0.263677
Si Si8 0.690765 0.196326 0.234797
O O1 0.598346 0.385324 0.100706
O O2 0.584266 0.167954 0.084741
O O3 0.661326 0.236633 0.169777
O O4 0.750000 0.250000 0.000000
O O5 0.053532 0.000000 0.871701
O O6 0.891234 0.000000 0.026417
O O7 0.220538 0.891434 0.819211
O O8 0.206296 0.500000 0.539095
O O9 0.250000 0.750000 0.500000
O O10 0.188762 0.656182 0.650937
O O11 0.083969 0.674145 0.587911
O O12 0.595513 0.815463 0.824097
O O13 0.513898 0.000000 0.917212
O O14 0.500000 0.808893 0.000000
O O15 0.982263 0.500000 0.438403
O O16 0.100082 0.353493 0.324276
O O17 0.000000 0.307734 0.500000
O O18 0.225226 0.801721 0.267089
O O19 0.305493 0.000000 0.252854
#
# Coordination Sequence:
#
# PCOD9209781 Si02
#       8
#     8   4   4   8   8   8   8   8
#     4  12  25  37  62  88 124 165 212 263 315 373
#     4  11  26  44  58  90 133 174 214 258 329 385
#     4  11  24  42  65  90 128 172 213 270 320 385
#     4  10  21  41  67  94 126 167 207 259 321 390
#     4  10  22  39  61  87 120 161 209 253 302 377
#     4  10  21  38  64  96 125 156 204 265 316 371
#     4  10  22  40  61  88 123 165 202 250 311 383
#     4  12  23  40  65  94 124 164 215 264 321 374
#
# _framework density 18.778831
#
# number of rings (size 3 to 8) (size 9 to 14) (size 15 to 20)
#    0.000    1.286    2.143    3.429    5.000    1.143 
#    1.286    0.714    3.143    2.571    0.000    0.000 
#    0.000    0.000    0.000    0.000    0.000    0.000 
#
# Total GULP energy -156145.023143 kJ/mol
# GULP energy per Si atom -5576.607969 kJ/mol
# Density = 1.873609 g / cm^3
# Si number density = 18.778831 Si / 1000 Ang^3
#
#
#
# Elastic Constant Matrix: (Units=GPa)
#
#
# Indices 1 2 3 4 5 6 
#
# 1 155.0040 43.0817 56.2757 0.0000 12.0083 0.0000
# 2 43.0817 57.3329 48.2961 0.0000 8.4783 0.0000
# 3 56.2757 48.2961 78.5075 0.0000 9.7834 0.0000
# 4 0.0000 0.0000 0.0000 25.9155 0.0000 -3.3121
# 5 12.0083 8.4783 9.7834 0.0000 39.4324 0.0000
# 6 0.0000 0.0000 0.0000 -3.3121 0.0000 32.7736
#
#
#
# Elastic Compliance Matrix: (Units=1/GPa)
#
#
# Indices 1 2 3 4 5 6 
#
# 1 0.008961 -0.002656 -0.004665 0.000000 -0.001000 0.000000
# 2 -0.002656 0.037199 -0.020725 0.000000 -0.002047 0.000000
# 3 -0.004665 -0.020725 0.028995 0.000000 -0.001317 0.000000
# 4 0.000000 0.000000 0.000000 0.039092 0.000000 0.003951
# 5 -0.001000 -0.002047 -0.001317 0.000000 0.026431 0.000000
# 6 0.000000 0.000000 0.000000 0.003951 0.000000 0.030912
#
#
# Mechanical properties :
#
#
# Convention : Reuss Voigt Hill
#
# Bulk Modulus (GPa) = 52.45645 65.12792 58.79218
# Shear Modulus (GPa) = 21.36437 29.17036 25.26737
#
# Velocity S-wave (km/s) = 3.37662 3.94555 3.67212
# Velocity P-wave (km/s) = 6.57240 7.45073 7.02531
#
# Compressibility (1/GPa) = 0.01906343
#
# Stress axis : x y z
#
# Youngs Moduli (GPa) = 111.59854 26.88269 34.48884
#
# Poissons Ratio (x) = 0.07140 0.16088
# Poissons Ratio (y) = 0.29641 0.71477
# Poissons Ratio (z) = 0.52056 0.55714
#
# Static dielectric constant tensor:
#      x y z
#    x 2.057520 0.000000 -0.180150 
#    y 0.000000 1.690010 0.000000 
#    z -0.180150 0.000000 1.724140 
# 
# From -- ./inp_files/269234.got.cif
#   From: 2010.05.17/outbox.cif.g08.bks.cpg/sg12_135_cif.got.tgz:269234.got - 2010.06.03 13:09:07.
