data_PCOD9209878
_publ_section_title
;
Structure prediction by ZEFSAII (Michael W. Deem and Ramdas Pophale) SiO2 
 PCOD9209878
Probable space group: C 2/M
;
_chemical_formula_sum "Si O2"
_cell_formula_units_Z 52
_cell_length_a 18.363630
_cell_length_b 17.971629
_cell_length_c 15.921427
_cell_angle_alpha 90.000000
_cell_angle_beta 153.943487
_cell_angle_gamma 90.000000
_cell_volume 2308.060042
_symmetry_space_group_name_H-M "C 2/M"
_symmetry_group_IT_number 12
_symmetry_cell_setting 'monoclinic'
loop_
_space_group_symop_operation_xyz
x,y,z
-x,y,-z
-x,-y,-z
x,-y,z
1/2+x,1/2+y,z
1/2-x,1/2+y,-z
1/2-x,1/2-y,-z
1/2+x,1/2-y,z
loop_
_atom_site_type_symbol
_atom_site_label
_atom_site_fract_x
_atom_site_fract_y
_atom_site_fract_z
Si Si1 0.542625 0.382183 0.309885
Si Si2 0.401551 0.415681 0.810077
Si Si3 0.337808 0.249175 0.772424
Si Si4 0.937631 0.500000 0.843011
Si Si5 0.000000 0.757071 0.500000
Si Si6 0.593286 0.227793 0.780201
Si Si7 0.538307 0.500000 0.440589
Si Si8 0.082592 0.367235 0.285032
O O1 0.483736 0.401770 0.154567
O O2 0.522508 0.297351 0.315230
O O3 0.478032 0.430207 0.321643
O O4 0.738471 0.397374 0.503623
O O5 0.328415 0.500000 0.725185
O O6 0.301912 0.336746 0.715997
O O7 0.500000 0.417895 0.000000
O O8 0.171926 0.210204 0.638464
O O9 0.388859 0.205833 0.741669
O O10 0.500000 0.245426 0.000000
O O11 0.738113 0.500000 0.642016
O O12 0.998862 0.427781 0.858411
O O13 0.000000 0.500000 0.000000
O O14 0.912956 0.721501 0.326752
O O15 0.525614 0.152325 0.748111
O O16 0.750000 0.250000 0.000000
O O17 0.500000 0.500000 0.500000
#
# Coordination Sequence:
#
# PCOD9209878 Si02
#       8
#     8   8   8   4   4   8   4   8
#     4  11  21  41  63  96 130 173 225 275 339 415
#     4  10  21  38  66  94 122 170 228 276 330 404
#     4  11  22  41  72  98 133 179 229 280 346 411
#     4  10  24  42  70  96 131 176 231 275 348 431
#     4  12  26  42  65 105 140 174 234 294 340 415
#     4  12  26  42  68  99 137 178 232 290 353 413
#     4  10  24  38  65  97 137 175 217 281 354 411
#     4  11  22  44  66  95 131 181 221 278 350 413
#
# _framework density 22.529743
#
# number of rings (size 3 to 8) (size 9 to 14) (size 15 to 20)
#    0.000    1.077    3.846    2.769    3.231    1.231 
#    0.000    0.385    1.692    0.000    0.000    0.000 
#    0.000    0.000    0.000    0.000    0.000    0.000 
#
# Total GULP energy -144827.787168 kJ/mol
# GULP energy per Si atom -5570.299506 kJ/mol
# Density = 2.247846 g / cm^3
# Si number density = 22.529743 Si / 1000 Ang^3
#
#
#
# Elastic Constant Matrix: (Units=GPa)
#
#
# Indices 1 2 3 4 5 6 
#
# 1 136.8521 17.2268 38.1993 0.0000 -51.2832 0.0000
# 2 17.2268 97.4209 0.9197 0.0000 -21.8047 0.0000
# 3 38.1993 0.9197 99.6867 0.0001 -29.4587 0.0001
# 4 0.0000 0.0000 0.0001 21.6974 0.0001 -12.7985
# 5 -51.2832 -21.8047 -29.4587 0.0001 49.7682 0.0001
# 6 0.0000 0.0000 0.0001 -12.7985 0.0001 41.8091
#
#
#
# Elastic Compliance Matrix: (Units=1/GPa)
#
#
# Indices 1 2 3 4 5 6 
#
# 1 0.012039 0.000573 -0.001065 0.000000 0.012026 0.000000
# 2 0.000573 0.011639 0.001642 0.000000 0.006661 0.000000
# 3 -0.001065 0.001642 0.012499 0.000000 0.007021 0.000000
# 4 0.000000 0.000000 0.000000 0.056244 0.000000 0.017217
# 5 0.012026 0.006661 0.007021 0.000000 0.039559 0.000000
# 6 0.000000 0.000000 0.000000 0.017217 0.000000 0.029189
#
#
# Mechanical properties :
#
#
# Convention : Reuss Voigt Hill
#
# Bulk Modulus (GPa) = 25.98993 49.62791 37.80892
# Shear Modulus (GPa) = 29.12144 41.16254 35.14199
#
# Velocity S-wave (km/s) = 3.59914 4.27902 3.95372
# Velocity P-wave (km/s) = 5.36960 6.81827 6.13684
#
# Compressibility (1/GPa) = 0.03847645
#
# Stress axis : x y z
#
# Youngs Moduli (GPa) = 83.06466 85.91897 80.00709
#
# Poissons Ratio (x) = -0.04923 0.08518
# Poissons Ratio (y) = -0.04759 -0.13134
# Poissons Ratio (z) = 0.08843 -0.14104
#
# Static dielectric constant tensor:
#      x y z
#    x 1.864700 0.000000 -0.032020 
#    y 0.000000 1.836170 0.000000 
#    z -0.032020 0.000000 1.957090 
# 
# From -- ./inp_files/227464.got.cif
#   From: 2010.05.17/outbox.cif.g08.bks.cpg/sg12_114_cif.got.tgz:227464.got - 2010.06.03 13:09:07.
