data_PCOD9209353
_publ_section_title
;
Structure prediction by ZEFSAII (Michael W. Deem and Ramdas Pophale) SiO2 
 PCOD9209353
Probable space group: C 2/M
;
_chemical_formula_sum "Si O2"
_cell_formula_units_Z 56
_cell_length_a 25.369374
_cell_length_b 9.509665
_cell_length_c 15.539039
_cell_angle_alpha 90.000000
_cell_angle_beta 47.621828
_cell_angle_gamma 90.000000
_cell_volume 2769.327915
_symmetry_space_group_name_H-M "C 2/M"
_symmetry_group_IT_number 12
_symmetry_cell_setting 'monoclinic'
loop_
_space_group_symop_operation_xyz
x,y,z
-x,y,-z
-x,-y,-z
x,-y,z
1/2+x,1/2+y,z
1/2-x,1/2+y,-z
1/2-x,1/2-y,-z
1/2+x,1/2-y,z
loop_
_atom_site_type_symbol
_atom_site_label
_atom_site_fract_x
_atom_site_fract_y
_atom_site_fract_z
Si Si1 0.417753 0.166249 0.285482
Si Si2 0.919681 0.840961 0.621292
Si Si3 0.144277 0.660250 0.455759
Si Si4 0.665455 0.162199 0.172211
Si Si5 0.196508 0.664596 0.934839
Si Si6 0.210556 0.837286 0.618255
Si Si7 0.452907 0.830087 0.969886
O O1 0.395568 0.190083 0.409189
O O2 0.363535 0.257898 0.287765
O O3 0.497972 0.198837 0.167997
O O4 0.405286 0.000000 0.282821
O O5 0.876466 0.773756 0.590649
O O6 0.904695 0.742023 0.718728
O O7 0.000000 0.839888 0.500000
O O8 0.898166 0.000000 0.664845
O O9 0.124080 0.500000 0.453819
O O10 0.229587 0.663728 0.374501
O O11 0.672841 0.167812 0.061320
O O12 0.664688 0.000000 0.199143
O O13 0.732366 0.241989 0.142699
O O14 0.211242 0.500000 0.897070
O O15 0.128609 0.717772 0.954217
O O16 0.250000 0.750000 0.500000
O O17 0.199002 0.000000 0.606031
O O18 0.447532 0.000000 0.983043
O O19 0.500000 0.781642 0.000000
#
# Coordination Sequence:
#
# PCOD9209353 Si02
#       7
#     8   8   8   8   8   8   8
#     4   9  18  32  53  81 113 148 187 228 272 334
#     4  11  25  40  55  82 116 146 186 241 295 349
#     4   9  19  34  53  77 108 149 191 230 277 339
#     4  10  21  38  62  87 114 153 195 239 288 342
#     4   9  19  37  62  88 116 153 196 238 283 338
#     4   9  17  31  51  76 106 140 182 224 265 325
#     4   9  18  33  55  85 115 144 184 231 281 335
#
# _framework density 20.221513000000002
#
# number of rings (size 3 to 8) (size 9 to 14) (size 15 to 20)
#    0.000    2.571    0.000    2.143    2.000    5.714 
#    0.000    2.143    0.000    0.857    0.000    0.000 
#    0.000    0.000    0.000    0.000    0.000    0.000 
#
# Total GULP energy -156146.953288 kJ/mol
# GULP energy per Si atom -5576.676903 kJ/mol
# Density = 2.017549 g / cm^3
# Si number density = 20.221513 Si / 1000 Ang^3
#
#
#
# Elastic Constant Matrix: (Units=GPa)
#
#
# Indices 1 2 3 4 5 6 
#
# 1 60.8180 17.7102 3.5220 0.0000 -6.2454 0.0000
# 2 17.7102 91.0338 20.4265 0.0005 -1.4523 -0.0002
# 3 3.5220 20.4265 57.0831 0.0002 -0.4401 0.0000
# 4 0.0000 0.0005 0.0002 23.3345 0.0000 -2.2241
# 5 -6.2454 -1.4523 -0.4401 0.0000 21.6166 0.0000
# 6 0.0000 -0.0002 0.0000 -2.2241 0.0000 17.6984
#
#
#
# Elastic Compliance Matrix: (Units=1/GPa)
#
#
# Indices 1 2 3 4 5 6 
#
# 1 0.017946 -0.003449 0.000165 0.000000 0.004957 0.000000
# 2 -0.003449 0.012618 -0.004304 0.000000 -0.000236 0.000000
# 3 0.000165 -0.004304 0.019049 0.000000 0.000146 0.000000
# 4 0.000000 0.000000 0.000000 0.043374 0.000000 0.005451
# 5 0.004957 -0.000236 0.000146 0.000000 0.047680 0.000000
# 6 0.000000 0.000000 0.000000 0.005451 0.000000 0.057187
#
#
# Mechanical properties :
#
#
# Convention : Reuss Voigt Hill
#
# Bulk Modulus (GPa) = 29.03838 32.47248 30.75543
# Shear Modulus (GPa) = 22.27059 23.68164 22.97611
#
# Velocity S-wave (km/s) = 3.32223 3.42586 3.37444
# Velocity P-wave (km/s) = 5.39515 5.63400 5.51587
#
# Compressibility (1/GPa) = 0.03443718
#
# Stress axis : x y z
#
# Youngs Moduli (GPa) = 55.72146 79.25177 52.49495
#
# Poissons Ratio (x) = 0.27337 -0.00867
# Poissons Ratio (y) = 0.19220 0.22595
# Poissons Ratio (z) = -0.00921 0.34112
#
# Static dielectric constant tensor:
#      x y z
#    x 1.743540 0.000000 0.002190 
#    y 0.000000 1.698950 0.000000 
#    z 0.002190 0.000000 1.769190 
# 
# From -- ./inp_files/292448.got.cif
#   From: 2010.05.17/outbox.cif.g08.bks.cpg/sg12_147_cif.got.tgz:292448.got - 2010.06.03 13:09:07.
