data_PCOD9209840
_publ_section_title
;
Structure prediction by ZEFSAII (Michael W. Deem and Ramdas Pophale) SiO2 
 PCOD9209840
Probable space group: C 2/M
;
_chemical_formula_sum "Si O2"
_cell_formula_units_Z 40
_cell_length_a 9.233128
_cell_length_b 21.577794
_cell_length_c 10.314422
_cell_angle_alpha 90.000000
_cell_angle_beta 105.818071
_cell_angle_gamma 90.000000
_cell_volume 1977.131181
_symmetry_space_group_name_H-M "C 2/M"
_symmetry_group_IT_number 12
_symmetry_cell_setting 'monoclinic'
loop_
_space_group_symop_operation_xyz
x,y,z
-x,y,-z
-x,-y,-z
x,-y,z
1/2+x,1/2+y,z
1/2-x,1/2+y,-z
1/2-x,1/2-y,-z
1/2+x,1/2-y,z
loop_
_atom_site_type_symbol
_atom_site_label
_atom_site_fract_x
_atom_site_fract_y
_atom_site_fract_z
Si Si1 0.632587 0.069479 0.925108
Si Si2 0.354028 0.656898 0.525155
Si Si3 0.862368 0.571315 0.377821
Si Si4 0.635320 0.231030 0.295055
Si Si5 0.811436 0.700855 0.115029
O O1 0.589892 0.072069 0.761309
O O2 0.727861 0.132852 0.951000
O O3 0.699584 0.000000 0.960625
O O4 0.500000 0.074501 0.000000
O O5 0.500000 0.625257 0.500000
O O6 0.275619 0.613939 0.613234
O O7 0.411123 0.721133 0.603451
O O8 0.233842 0.677379 0.386112
O O9 0.828366 0.500000 0.402147
O O10 0.000000 0.592656 0.500000
O O11 0.735639 0.274840 0.227869
O O12 0.490956 0.205648 0.182921
O O13 0.750000 0.750000 0.000000
#
# Coordination Sequence:
#
# PCOD9209840 Si02
#       5
#     8   8   8   8   8
#     4  10  21  39  62  90 125 166 211 261 317 381
#     4  11  22  38  62  88 128 164 202 266 322 381
#     4  10  21  38  65  95 124 165 217 267 318 387
#     4  11  23  38  58  94 123 161 208 260 322 382
#     4  12  23  40  63  92 127 165 214 267 318 386
#
# _framework density 20.231332999999999
#
# number of rings (size 3 to 8) (size 9 to 14) (size 15 to 20)
#    0.000    1.200    4.000    3.000    0.000    0.400 
#    0.000    0.000    0.000    3.600    0.000    0.000 
#    0.000    0.000    0.000    0.000    0.000    0.000 
#
# Total GULP energy -111474.568701 kJ/mol
# GULP energy per Si atom -5573.728435 kJ/mol
# Density = 2.018529 g / cm^3
# Si number density = 20.231333 Si / 1000 Ang^3
#
#
#
# Elastic Constant Matrix: (Units=GPa)
#
#
# Indices 1 2 3 4 5 6 
#
# 1 77.5163 36.7720 38.0668 0.0000 -16.9482 0.0000
# 2 36.7720 122.1229 24.9025 0.0000 -5.0118 0.0000
# 3 38.0668 24.9025 80.4761 0.0000 -14.5031 0.0000
# 4 0.0000 0.0000 0.0000 33.6453 0.0000 -5.8254
# 5 -16.9482 -5.0118 -14.5031 0.0000 40.7098 0.0000
# 6 0.0000 0.0000 0.0000 -5.8254 0.0000 20.4720
#
#
#
# Elastic Compliance Matrix: (Units=1/GPa)
#
#
# Indices 1 2 3 4 5 6 
#
# 1 0.019440 -0.004223 -0.006972 0.000000 0.005090 0.000000
# 2 -0.004223 0.009658 -0.001169 0.000000 -0.000985 0.000000
# 3 -0.006972 -0.001169 0.016602 0.000000 0.002868 0.000000
# 4 0.000000 0.000000 0.000000 0.031262 0.000000 0.008896
# 5 0.005090 -0.000985 0.002868 0.000000 0.027584 0.000000
# 6 0.000000 0.000000 0.000000 0.008896 0.000000 0.051379
#
#
# Mechanical properties :
#
#
# Convention : Reuss Voigt Hill
#
# Bulk Modulus (GPa) = 47.67803 53.28868 50.48335
# Shear Modulus (GPa) = 26.64641 30.99036 28.81838
#
# Velocity S-wave (km/s) = 3.63311 3.91807 3.77827
# Velocity P-wave (km/s) = 6.42004 6.84582 6.63634
#
# Compressibility (1/GPa) = 0.02097402
#
# Stress axis : x y z
#
# Youngs Moduli (GPa) = 51.43942 103.54199 60.23271
#
# Poissons Ratio (x) = 0.43727 0.41992
# Poissons Ratio (y) = 0.21724 0.07038
# Poissons Ratio (z) = 0.35862 0.12099
#
# Static dielectric constant tensor:
#      x y z
#    x 1.778100 0.000000 -0.064050 
#    y 0.000000 1.758630 0.000000 
#    z -0.064050 0.000000 1.838770 
# 
# From -- ./inp_files/39444.got.cif
#   From: 2010.05.17/outbox.cif.g08.bks.cpg/sg12_20_cif.got.tgz:39444.got - 2010.06.03 13:09:07.
