data_PCOD9209355
_publ_section_title
;
Structure prediction by ZEFSAII (Michael W. Deem and Ramdas Pophale) SiO2 
 PCOD9209355
Probable space group: C 2/M
;
_chemical_formula_sum "Si O2"
_cell_formula_units_Z 56
_cell_length_a 9.439518
_cell_length_b 33.416705
_cell_length_c 20.582046
_cell_angle_alpha 90.000000
_cell_angle_beta 29.471692
_cell_angle_gamma 90.000000
_cell_volume 3194.194373
_symmetry_space_group_name_H-M "C 2/M"
_symmetry_group_IT_number 12
_symmetry_cell_setting 'monoclinic'
loop_
_space_group_symop_operation_xyz
x,y,z
-x,y,-z
-x,-y,-z
x,-y,z
1/2+x,1/2+y,z
1/2-x,1/2+y,-z
1/2-x,1/2-y,-z
1/2+x,1/2-y,z
loop_
_atom_site_type_symbol
_atom_site_label
_atom_site_fract_x
_atom_site_fract_y
_atom_site_fract_z
Si Si1 0.801919 0.777792 0.345208
Si Si2 0.123716 0.109768 0.520262
Si Si3 0.768272 0.654766 0.738320
Si Si4 0.662155 0.545994 0.618460
Si Si5 0.309168 0.602517 0.852240
Si Si6 0.267728 0.666098 0.753455
Si Si7 0.809144 0.704374 0.854277
O O1 0.500000 0.767999 0.500000
O O2 0.744775 0.809771 0.310347
O O3 0.017113 0.798929 0.310191
O O4 0.968069 0.739117 0.253381
O O5 0.439089 0.129529 0.388604
O O6 0.123663 0.072634 0.569524
O O7 0.000000 0.098403 0.500000
O O8 0.916140 0.143097 0.634624
O O9 0.502983 0.624995 0.828796
O O10 0.767050 0.675148 0.809445
O O11 0.572149 0.500000 0.646137
O O12 0.490755 0.567853 0.744754
O O13 0.000000 0.546908 0.500000
O O14 0.250264 0.635872 0.820519
O O15 0.000000 0.588252 0.000000
O O16 0.959826 0.681481 0.853579
O O17 0.500000 0.720658 0.000000
#
# Coordination Sequence:
#
# PCOD9209355 Si02
#       7
#     8   8   8   8   8   8   8
#     4  11  24  37  58  80 111 149 198 250 294 340
#     4  11  20  37  63  91 111 149 192 236 283 339
#     4  11  22  38  61  83 113 149 201 243 287 333
#     4  10  21  38  63  94 124 148 182 231 279 337
#     4  10  21  38  62  87 116 156 190 229 281 341
#     4  10  22  37  58  82 110 146 202 241 283 336
#     4  12  26  39  53  80 117 154 194 245 299 346
#
# _framework density 17.531808000000002
#
# number of rings (size 3 to 8) (size 9 to 14) (size 15 to 20)
#    0.000    1.286    4.286    1.714    2.000    6.286 
#    0.000    0.000    0.000    0.000    0.000    1.000 
#    0.000    0.000    0.000    0.000    0.000    0.000 
#
# Total GULP energy -156425.370194 kJ/mol
# GULP energy per Si atom -5586.620364 kJ/mol
# Density = 1.749190 g / cm^3
# Si number density = 17.531808 Si / 1000 Ang^3
#
#
#
# Elastic Constant Matrix: (Units=GPa)
#
#
# Indices 1 2 3 4 5 6 
#
# 1 84.3068 26.1012 20.2507 -0.0014 -12.7587 -0.0019
# 2 26.1012 89.2134 30.0603 0.0006 -5.5676 0.0001
# 3 20.2507 30.0603 106.4710 -0.0073 -14.2099 -0.0085
# 4 -0.0014 0.0006 -0.0073 2.4970 -0.0009 -15.6661
# 5 -12.7587 -5.5676 -14.2099 -0.0009 22.0405 -0.0010
# 6 -0.0019 0.0001 -0.0085 -15.6661 -0.0010 -4.5060
#
#
#
# Elastic Compliance Matrix: (Units=1/GPa)
#
#
# Indices 1 2 3 4 5 6 
#
# 1 0.014151 -0.003442 -0.000812 -0.000001 0.006798 -0.000002
# 2 -0.003442 0.013243 -0.003177 0.000002 -0.000696 0.000003
# 3 -0.000812 -0.003177 0.011241 -0.000005 0.005975 -0.000006
# 4 -0.000001 0.000002 -0.000005 0.017555 -0.000006 -0.061034
# 5 0.006798 -0.000696 0.005975 -0.000006 0.052983 -0.000007
# 6 -0.000002 0.000003 -0.000006 -0.061034 -0.000007 -0.009728
#
#
# Mechanical properties :
#
#
# Convention : Reuss Voigt Hill
#
# Bulk Modulus (GPa) = 42.06605 48.09063 45.07834
# Shear Modulus (GPa) = 40.90564 17.57823 29.24194
#
# Velocity S-wave (km/s) = 4.83559 3.16990 4.08847
# Velocity P-wave (km/s) = 7.43125 6.39435 6.93221
#
# Compressibility (1/GPa) = 0.02377214
#
# Stress axis : x y z
#
# Youngs Moduli (GPa) = 70.66574 75.50989 88.95905
#
# Poissons Ratio (x) = 0.25992 0.07227
# Poissons Ratio (y) = 0.24325 0.28264
# Poissons Ratio (z) = 0.05741 0.23991
#
# Static dielectric constant tensor:
#      x y z
#    x 1.597470 0.000000 0.003130 
#    y 0.000000 1.574340 0.000000 
#    z 0.003130 0.000000 1.584830 
# 
# From -- ./inp_files/91560.got.cif
#   From: 2010.05.17/outbox.cif.g08.bks.cpg/sg12_46_cif.got.tgz:91560.got - 2010.06.03 13:09:07.
