data_PCOD9209161
_publ_section_title
;
Structure prediction by ZEFSAII (Michael W. Deem and Ramdas Pophale) SiO2 
 PCOD9209161
Probable space group: C 2/M
;
_chemical_formula_sum "Si O2"
_cell_formula_units_Z 56
_cell_length_a 8.736267
_cell_length_b 18.448148
_cell_length_c 25.183119
_cell_angle_alpha 90.000000
_cell_angle_beta 133.933337
_cell_angle_gamma 90.000000
_cell_volume 2922.871160
_symmetry_space_group_name_H-M "C 2/M"
_symmetry_group_IT_number 12
_symmetry_cell_setting 'monoclinic'
loop_
_space_group_symop_operation_xyz
x,y,z
-x,y,-z
-x,-y,-z
x,-y,z
1/2+x,1/2+y,z
1/2-x,1/2+y,-z
1/2-x,1/2-y,-z
1/2+x,1/2-y,z
loop_
_atom_site_type_symbol
_atom_site_label
_atom_site_fract_x
_atom_site_fract_y
_atom_site_fract_z
Si Si1 0.145508 0.830070 0.914280
Si Si2 0.742079 0.914882 0.779673
Si Si3 0.463914 0.330802 0.640559
Si Si4 0.488393 0.169931 0.085721
Si Si5 0.316446 0.414372 0.499999
Si Si6 0.098324 0.330801 0.640560
Si Si7 0.876614 0.585119 0.779673
O O1 0.308892 0.828788 0.904447
O O2 0.957440 0.885694 0.857890
O O3 0.048930 0.750001 0.899467
O O4 0.284158 0.847438 0.000001
O O5 0.694375 0.869305 0.715529
O O6 0.548600 0.904882 0.774300
O O7 0.758679 0.000000 0.771067
O O8 0.391591 0.376501 0.572037
O O9 0.274456 0.327879 0.637228
O O10 0.525014 0.250001 0.637507
O O11 0.667738 0.369308 0.715526
O O12 0.525889 0.114309 0.142113
O O13 0.500000 0.405610 0.500000
O O14 0.282160 0.500000 0.499999
O O15 0.103440 0.376502 0.427960
O O16 0.825595 0.500000 0.771069
#
# Coordination Sequence:
#
# PCOD9209161 Si02
#       7
#     8   8   8   8   8   8   8
#     4  10  21  38  61  88 119 156 199 247 298 355
#     4  11  24  41  61  87 121 159 199 246 301 357
#     4  12  25  42  65  91 122 159 202 248 295 352
#     4  10  21  38  61  88 119 156 199 247 298 355
#     4  11  24  43  66  93 127 161 196 243 298 353
#     4  12  25  42  65  91 122 159 202 248 295 352
#     4  11  24  41  61  87 121 159 199 246 301 357
#
# _framework density 19.159243
#
# number of rings (size 3 to 8) (size 9 to 14) (size 15 to 20)
#    0.000    1.000    0.000    6.857    0.000    9.143 
#    0.000    2.857    0.000    0.000    0.000    0.000 
#    0.000    0.000    0.000    0.000    0.000    0.000 
#
# Total GULP energy -156730.795958 kJ/mol
# GULP energy per Si atom -5597.528427 kJ/mol
# Density = 1.911564 g / cm^3
# Si number density = 19.159243 Si / 1000 Ang^3
#
#
#
# Elastic Constant Matrix: (Units=GPa)
#
#
# Indices 1 2 3 4 5 6 
#
# 1 131.6006 104.2259 69.0079 0.0000 -1.3416 0.0000
# 2 104.2259 168.1199 91.4958 0.0000 0.9507 0.0000
# 3 69.0079 91.4958 110.5076 0.0001 2.9178 0.0000
# 4 0.0000 0.0000 0.0001 40.3117 0.0000 -0.3851
# 5 -1.3416 0.9507 2.9178 0.0000 39.9309 0.0000
# 6 0.0000 0.0000 0.0000 -0.3851 0.0000 35.1409
#
#
#
# Elastic Compliance Matrix: (Units=1/GPa)
#
#
# Indices 1 2 3 4 5 6 
#
# 1 0.015539 -0.007907 -0.003182 0.000000 0.000943 0.000000
# 2 -0.007907 0.014857 -0.007361 0.000000 -0.000082 0.000000
# 3 -0.003182 -0.007361 0.017162 0.000000 -0.001186 0.000000
# 4 0.000000 0.000000 0.000000 0.024809 0.000000 0.000272
# 5 0.000943 -0.000082 -0.001186 0.000000 0.025164 0.000000
# 6 0.000000 0.000000 0.000000 0.000272 0.000000 0.028460
#
#
# Mechanical properties :
#
#
# Convention : Reuss Voigt Hill
#
# Bulk Modulus (GPa) = 93.82459 104.40968 99.11714
# Shear Modulus (GPa) = 30.04043 32.77660 31.40852
#
# Velocity S-wave (km/s) = 3.96401 4.14060 4.05327
# Velocity P-wave (km/s) = 8.36830 8.80190 8.58784
#
# Compressibility (1/GPa) = 0.01065819
#
# Stress axis : x y z
#
# Youngs Moduli (GPa) = 64.35326 67.30969 58.26944
#
# Poissons Ratio (x) = 0.53224 0.18539
# Poissons Ratio (y) = 0.50886 0.42891
# Poissons Ratio (z) = 0.20475 0.49545
#
# Static dielectric constant tensor:
#      x y z
#    x 1.639040 0.000000 -0.000340 
#    y 0.000000 1.629400 0.000000 
#    z -0.000340 0.000000 1.643640 
# 
# From -- ./inp_files/356718.got.cif
#   From: 2010.05.17/outbox.cif.g08.bks.cpg/sg12_179_cif.got.tgz:356718.got - 2010.06.03 13:09:07.
