data_PCOD9209345
_publ_section_title
;
Structure prediction by ZEFSAII (Michael W. Deem and Ramdas Pophale) SiO2 
 PCOD9209345
Probable space group: C 2/M
;
_chemical_formula_sum "Si O2"
_cell_formula_units_Z 32
_cell_length_a 21.539803
_cell_length_b 12.871574
_cell_length_c 15.785243
_cell_angle_alpha 90.000000
_cell_angle_beta 16.159241
_cell_angle_gamma 90.000000
_cell_volume 1218.008154
_symmetry_space_group_name_H-M "C 2/M"
_symmetry_group_IT_number 12
_symmetry_cell_setting 'monoclinic'
loop_
_space_group_symop_operation_xyz
x,y,z
-x,y,-z
-x,-y,-z
x,-y,z
1/2+x,1/2+y,z
1/2-x,1/2+y,-z
1/2-x,1/2-y,-z
1/2+x,1/2-y,z
loop_
_atom_site_type_symbol
_atom_site_label
_atom_site_fract_x
_atom_site_fract_y
_atom_site_fract_z
Si Si1 0.980332 0.838182 0.295281
Si Si2 0.726649 0.613278 0.258695
Si Si3 0.090681 0.834905 0.973958
Si Si4 0.004452 0.383914 0.337906
O O1 0.946317 0.714443 0.354726
O O2 0.841318 0.887095 0.553453
O O3 0.953709 0.873602 0.233790
O O4 0.238861 0.864749 0.974946
O O5 0.500000 0.630397 0.500000
O O6 0.814834 0.500000 0.119599
O O7 0.886562 0.711241 0.040560
O O8 0.343666 0.873831 0.630198
O O9 0.000000 0.859466 0.000000
O O10 0.979963 0.500000 0.335429
#
# Coordination Sequence:
#
# PCOD9209345 Si02
#       4
#     8   8   8   8
#     4  10  21  39  61  86 115 148 191 242 289 333
#     4  10  21  39  64  90 113 145 194 244 288 338
#     4  11  24  39  55  84 124 157 189 231 282 345
#     4  10  21  38  62  86 110 148 196 242 288 337
#
# _framework density 26.272400999999999
#
# number of rings (size 3 to 8) (size 9 to 14) (size 15 to 20)
#    0.000    1.750    0.000    6.000    0.000   11.000 
#    0.000    2.500    0.000    0.000    0.000    0.000 
#    0.000    0.000    0.000    0.000    0.000    0.000 
#
# Total GULP energy -89551.205109 kJ/mol
# GULP energy per Si atom -5596.950319 kJ/mol
# Density = 2.621260 g / cm^3
# Si number density = 26.272401 Si / 1000 Ang^3
#
#
#
# Elastic Constant Matrix: (Units=GPa)
#
#
# Indices 1 2 3 4 5 6 
#
# 1 137.7817 19.6863 23.6657 0.0094 43.1066 -0.0091
# 2 19.6863 178.8778 4.7751 0.0091 12.6494 -0.0105
# 3 23.6657 4.7751 59.9035 0.0124 30.1696 -0.0151
# 4 0.0094 0.0091 0.0124 -20.7328 -0.0110 -3.7214
# 5 43.1066 12.6494 30.1696 -0.0110 53.5279 0.0124
# 6 -0.0091 -0.0105 -0.0151 -3.7214 0.0124 -28.4344
#
#
#
# Elastic Compliance Matrix: (Units=1/GPa)
#
#
# Indices 1 2 3 4 5 6 
#
# 1 0.009751 -0.000525 0.000114 0.000010 -0.007793 -0.000008
# 2 -0.000525 0.005718 0.000306 0.000004 -0.001101 -0.000003
# 3 0.000114 0.000306 0.023329 0.000025 -0.013313 -0.000022
# 4 0.000010 0.000004 0.000025 -0.049393 -0.000034 0.006464
# 5 -0.007793 -0.001101 -0.013313 -0.000034 0.032722 0.000029
# 6 -0.000008 -0.000003 -0.000022 0.006464 0.000029 -0.036015
#
#
# Mechanical properties :
#
#
# Convention : Reuss Voigt Hill
#
# Bulk Modulus (GPa) = 25.91409 52.53526 39.22467
# Shear Modulus (GPa) = -6131.59155 22.76786 -3054.41184
#
# Velocity S-wave (km/s) = -48.36238 2.94701 -34.13381
# Velocity P-wave (km/s) = 55.75548 5.62313 39.22406
#
# Compressibility (1/GPa) = 0.03858905
#
# Stress axis : x y z
#
# Youngs Moduli (GPa) = 102.54852 174.89008 42.86522
#
# Poissons Ratio (x) = 0.09184 -0.00490
# Poissons Ratio (y) = 0.05385 -0.01312
# Poissons Ratio (z) = -0.01173 -0.05353
#
# Static dielectric constant tensor:
#      x y z
#    x 2.089190 0.000000 -0.052240 
#    y 0.000000 2.077820 0.000000 
#    z -0.052240 0.000000 2.061820 
# 
# From -- ./inp_files/44933.got.cif
#   From: 2010.05.17/outbox.cif.g08.bks.cpg/sg12_23_cif.got.tgz:44933.got - 2010.06.03 13:09:07.
