data_PCOD9209331
_publ_section_title
;
Structure prediction by ZEFSAII (Michael W. Deem and Ramdas Pophale) SiO2 
 PCOD9209331
Probable space group: C 2/M
;
_chemical_formula_sum "Si O2"
_cell_formula_units_Z 48
_cell_length_a 5.234562
_cell_length_b 24.701118
_cell_length_c 21.377273
_cell_angle_alpha 90.000000
_cell_angle_beta 122.077928
_cell_angle_gamma 90.000000
_cell_volume 2342.071160
_symmetry_space_group_name_H-M "C 2/M"
_symmetry_group_IT_number 12
_symmetry_cell_setting 'monoclinic'
loop_
_space_group_symop_operation_xyz
x,y,z
-x,y,-z
-x,-y,-z
x,-y,z
1/2+x,1/2+y,z
1/2-x,1/2+y,-z
1/2-x,1/2-y,-z
1/2+x,1/2-y,z
loop_
_atom_site_type_symbol
_atom_site_label
_atom_site_fract_x
_atom_site_fract_y
_atom_site_fract_z
Si Si1 0.629919 0.786756 0.288401
Si Si2 0.303004 0.872606 0.154574
Si Si3 0.640752 0.372880 0.585425
Si Si4 0.256766 0.436184 0.636647
Si Si5 0.970202 0.227970 0.082594
Si Si6 0.136349 0.063326 0.813317
O O1 0.383338 0.745470 0.283336
O O2 0.469294 0.831978 0.224468
O O3 0.779248 0.819557 0.364925
O O4 0.555992 0.902613 0.147414
O O5 0.082415 0.832589 0.088228
O O6 0.101834 0.914198 0.167743
O O7 0.500000 0.360433 0.500000
O O8 0.410213 0.408238 0.597010
O O9 0.946541 0.407010 0.614497
O O10 0.207319 0.500000 0.619564
O O11 0.484955 0.430403 0.725040
O O12 0.768890 0.235020 0.118144
O O13 0.750000 0.250000 0.000000
O O14 0.194803 0.000000 0.831039
#
# Coordination Sequence:
#
# PCOD9209331 Si02
#       6
#     8   8   8   8   8   8
#     4  12  24  39  59  83 115 155 205 254 306 362
#     4  12  21  39  64  93 125 163 199 258 307 359
#     4  12  25  41  59  84 117 160 211 256 320 386
#     4  11  22  41  62  86 119 154 204 266 320 373
#     4  10  21  38  61  97 132 162 203 241 299 361
#     4  11  22  38  63  93 125 161 205 255 314 371
#
# _framework density 20.494679000000001
#
# number of rings (size 3 to 8) (size 9 to 14) (size 15 to 20)
#    0.000    0.667    3.333    5.500    0.000    5.333 
#    0.000    0.000    0.000    0.000    0.000   46.667 
#    0.000    0.000    0.000    0.000    0.000    0.000 
#
# Total GULP energy -134286.914678 kJ/mol
# GULP energy per Si atom -5595.288112 kJ/mol
# Density = 2.044803 g / cm^3
# Si number density = 20.494679 Si / 1000 Ang^3
#
#
#
# Elastic Constant Matrix: (Units=GPa)
#
#
# Indices 1 2 3 4 5 6 
#
# 1 133.2126 36.4169 -7.5025 0.0000 10.4655 0.0000
# 2 36.4169 104.3528 30.4839 0.0000 9.3831 0.0000
# 3 -7.5025 30.4839 56.2078 0.0000 -0.6138 0.0000
# 4 0.0000 0.0000 0.0000 22.5375 0.0000 2.1159
# 5 10.4655 9.3831 -0.6138 0.0000 17.3951 0.0000
# 6 0.0000 0.0000 0.0000 2.1159 0.0000 46.5309
#
#
#
# Elastic Compliance Matrix: (Units=1/GPa)
#
#
# Indices 1 2 3 4 5 6 
#
# 1 0.008976 -0.003779 0.003212 0.000000 -0.003249 0.000000
# 2 -0.003779 0.013728 -0.008009 0.000000 -0.005414 0.000000
# 3 0.003212 -0.008009 0.022598 0.000000 0.003185 0.000000
# 4 0.000000 0.000000 0.000000 0.044561 0.000000 -0.002026
# 5 -0.003249 -0.005414 0.003185 0.000000 0.062475 0.000000
# 6 0.000000 0.000000 0.000000 -0.002026 0.000000 0.021583
#
#
# Mechanical properties :
#
#
# Convention : Reuss Voigt Hill
#
# Bulk Modulus (GPa) = 35.52259 45.84109 40.68184
# Shear Modulus (GPa) = 24.94325 32.91768 28.93046
#
# Velocity S-wave (km/s) = 3.49242 4.01204 3.76121
# Velocity P-wave (km/s) = 5.79939 6.62403 6.22538
#
# Compressibility (1/GPa) = 0.02815110
#
# Stress axis : x y z
#
# Youngs Moduli (GPa) = 111.40978 72.84464 44.25163
#
# Poissons Ratio (x) = 0.27525 -0.14213
# Poissons Ratio (y) = 0.42097 0.35440
# Poissons Ratio (z) = -0.35783 0.58339
#
# Static dielectric constant tensor:
#      x y z
#    x 1.764220 0.000000 -0.032630 
#    y 0.000000 1.703590 0.000000 
#    z -0.032630 0.000000 1.790970 
# 
# From -- ./inp_files/297945.got.cif
#   From: 2010.05.17/outbox.cif.g08.bks.cpg/sg12_149_cif.got.tgz:297945.got - 2010.06.03 13:09:07.
