data_PCOD9209697
_publ_section_title
;
Structure prediction by ZEFSAII (Michael W. Deem and Ramdas Pophale) SiO2 
 PCOD9209697
Probable space group: C 2/M
;
_chemical_formula_sum "Si O2"
_cell_formula_units_Z 48
_cell_length_a 17.287489
_cell_length_b 18.684210
_cell_length_c 14.109081
_cell_angle_alpha 90.000000
_cell_angle_beta 150.716782
_cell_angle_gamma 90.000000
_cell_volume 2229.087008
_symmetry_space_group_name_H-M "C 2/M"
_symmetry_group_IT_number 12
_symmetry_cell_setting 'monoclinic'
loop_
_space_group_symop_operation_xyz
x,y,z
-x,y,-z
-x,-y,-z
x,-y,z
1/2+x,1/2+y,z
1/2-x,1/2+y,-z
1/2-x,1/2-y,-z
1/2+x,1/2-y,z
loop_
_atom_site_type_symbol
_atom_site_label
_atom_site_fract_x
_atom_site_fract_y
_atom_site_fract_z
Si Si1 0.185842 0.641240 0.013112
Si Si2 0.122587 0.362228 0.217776
Si Si3 0.083925 0.500000 0.448782
Si Si4 0.682744 0.121319 0.802282
Si Si5 0.844050 0.000000 0.890508
Si Si6 0.179381 0.240308 0.685941
Si Si7 0.211925 0.000000 0.530420
Si Si8 0.393410 0.500000 0.286269
O O1 0.235234 0.703952 0.134957
O O2 0.278419 0.569456 0.148455
O O3 0.219740 0.657884 0.941085
O O4 0.996191 0.638257 0.821200
O O5 0.225516 0.291691 0.302264
O O6 0.233598 0.429663 0.353765
O O7 0.000000 0.374845 0.000000
O O8 0.199091 0.500000 0.661650
O O9 0.193516 0.500000 0.470154
O O10 0.966906 0.568703 0.336099
O O11 0.672435 0.175891 0.703466
O O12 0.827032 0.069479 0.934903
O O13 0.000000 0.000000 0.000000
O O14 0.000000 0.213569 0.500000
O O15 0.022360 0.000000 0.338690
O O16 0.500000 0.500000 0.500000
#
# Coordination Sequence:
#
# PCOD9209697 Si02
#       8
#     8   8   4   8   4   8   4   4
#     4  11  22  40  65  96 133 173 216 264 328 390
#     4  10  21  38  63  97 135 171 211 260 327 393
#     4  11  23  43  71  96 127 172 221 267 325 387
#     4  11  23  46  68  91 129 178 219 265 326 385
#     4  11  26  43  68  98 122 164 223 276 323 375
#     4  11  23  41  64  92 133 173 216 264 325 389
#     4  12  21  37  67 102 132 164 218 270 322 387
#     4  12  23  37  66 103 140 170 209 275 334 392
#
# _framework density 21.533479
#
# number of rings (size 3 to 8) (size 9 to 14) (size 15 to 20)
#    0.000    1.000    1.667    7.750    2.333    2.000 
#    0.000    0.833    0.000    0.000    0.000    0.000 
#    0.000    0.000    0.000    0.000    0.000    0.000 
#
# Total GULP energy -133845.503585 kJ/mol
# GULP energy per Si atom -5576.895983 kJ/mol
# Density = 2.148447 g / cm^3
# Si number density = 21.533479 Si / 1000 Ang^3
#
#
#
# Elastic Constant Matrix: (Units=GPa)
#
#
# Indices 1 2 3 4 5 6 
#
# 1 149.4359 46.2604 18.7093 0.0000 31.5461 0.0000
# 2 46.2604 113.2268 12.4735 0.0000 19.4437 0.0000
# 3 18.7093 12.4735 43.0962 0.0000 24.3747 0.0000
# 4 0.0000 0.0000 0.0000 8.7166 0.0000 -19.3946
# 5 31.5461 19.4437 24.3747 0.0000 39.1598 0.0000
# 6 0.0000 0.0000 0.0000 -19.3946 0.0000 -87.6748
#
#
#
# Elastic Compliance Matrix: (Units=1/GPa)
#
#
# Indices 1 2 3 4 5 6 
#
# 1 0.008700 -0.002571 0.000323 0.000000 -0.005933 0.000000
# 2 -0.002571 0.010415 -0.000224 0.000000 -0.002961 0.000000
# 3 0.000323 -0.000224 0.035825 0.000000 -0.022448 0.000000
# 4 0.000000 0.000000 0.000000 0.076882 0.000000 -0.017007
# 5 -0.005933 -0.002961 -0.022448 0.000000 0.045758 0.000000
# 6 0.000000 0.000000 0.000000 -0.017007 0.000000 -0.007644
#
#
# Mechanical properties :
#
#
# Convention : Reuss Voigt Hill
#
# Bulk Modulus (GPa) = 20.00175 51.18280 35.59228
# Shear Modulus (GPa) = 26.10339 7.26138 16.68239
#
# Velocity S-wave (km/s) = 3.48548 1.83833 2.78640
# Velocity P-wave (km/s) = 5.05044 5.32226 5.18813
#
# Compressibility (1/GPa) = 0.04999563
#
# Stress axis : x y z
#
# Youngs Moduli (GPa) = 114.94592 96.01128 27.91374
#
# Poissons Ratio (x) = 0.24686 -0.00901
# Poissons Ratio (y) = 0.29555 0.00624
# Poissons Ratio (z) = -0.03710 0.02147
#
# Static dielectric constant tensor:
#      x y z
#    x 1.849390 0.000000 0.036640 
#    y 0.000000 1.813670 0.000000 
#    z 0.036640 0.000000 1.834450 
# 
# From -- ./inp_files/226984.got.cif
#   From: 2010.05.17/outbox.cif.g08.bks.cpg/sg12_114_cif.got.tgz:226984.got - 2010.06.03 13:09:07.
