data_PCOD9209914
_publ_section_title
;
Structure prediction by ZEFSAII (Michael W. Deem and Ramdas Pophale) SiO2 
 PCOD9209914
Probable space group: C 2/M
;
_chemical_formula_sum "Si O2"
_cell_formula_units_Z 58
_cell_length_a 25.167732
_cell_length_b 20.103559
_cell_length_c 9.164991
_cell_angle_alpha 90.000000
_cell_angle_beta 38.961278
_cell_angle_gamma 90.000000
_cell_volume 2915.802969
_symmetry_space_group_name_H-M "C 2/M"
_symmetry_group_IT_number 12
_symmetry_cell_setting 'monoclinic'
loop_
_space_group_symop_operation_xyz
x,y,z
-x,y,-z
-x,-y,-z
x,-y,z
1/2+x,1/2+y,z
1/2-x,1/2+y,-z
1/2-x,1/2-y,-z
1/2+x,1/2-y,z
loop_
_atom_site_type_symbol
_atom_site_label
_atom_site_fract_x
_atom_site_fract_y
_atom_site_fract_z
Si Si1 0.087454 0.183231 0.579991
Si Si2 0.141570 0.425243 0.799358
Si Si3 0.000000 0.000000 0.500000
Si Si4 0.843413 0.072608 0.359542
Si Si5 0.913505 0.116831 0.898729
Si Si6 0.051091 0.645717 0.251532
Si Si7 0.160652 0.226783 0.123736
Si Si8 0.428512 0.188654 0.258505
O O1 0.125679 0.122260 0.583920
O O2 0.111249 0.193985 0.363247
O O3 0.124914 0.248034 0.582418
O O4 0.987948 0.167973 0.786734
O O5 0.110483 0.500000 0.835358
O O6 0.242241 0.425393 0.576349
O O7 0.109878 0.372481 0.747125
O O8 0.108488 0.402307 0.029229
O O9 0.952345 0.060265 0.705414
O O10 0.873494 0.000000 0.341096
O O11 0.878398 0.086289 0.123583
O O12 0.841117 0.165600 0.986529
O O13 0.108459 0.708999 0.176839
O O14 0.000000 0.618122 0.500000
O O15 0.976445 0.667331 0.301765
O O16 0.250000 0.250000 0.000000
O O17 0.500000 0.217479 0.000000
#
# Coordination Sequence:
#
# PCOD9209914 Si02
#       8
#     8   8   2   8   8   8   8   8
#     4  12  23  41  64  99 131 172 225 279 325 397
#     4  10  25  46  63  97 135 173 219 278 343 405
#     4  12  24  44  70 104 136 184 230 274 336 404
#     4  11  26  42  64  96 138 177 221 274 334 403
#     4  12  24  44  68  98 135 180 228 272 333 405
#     4  11  21  42  69  96 128 165 223 273 327 397
#     4  12  25  41  66  98 137 172 217 281 345 397
#     4  10  21  38  67  93 125 166 217 274 321 394
#
# _framework density 19.891604999999998
#
# number of rings (size 3 to 8) (size 9 to 14) (size 15 to 20)
#    0.000    0.828    4.828    2.069    4.828    3.862 
#    0.000    0.000    0.000    0.000    0.000    0.000 
#    0.000    0.000    0.000    0.000    0.000    0.000 
#
# Total GULP energy -161456.377292 kJ/mol
# GULP energy per Si atom -5567.461286 kJ/mol
# Density = 1.984633 g / cm^3
# Si number density = 19.891605 Si / 1000 Ang^3
#
#
#
# Elastic Constant Matrix: (Units=GPa)
#
#
# Indices 1 2 3 4 5 6 
#
# 1 80.1066 47.0621 12.0718 0.0000 1.2991 0.0000
# 2 47.0621 120.5631 31.3528 0.0000 9.3954 0.0000
# 3 12.0718 31.3528 72.6958 0.0000 6.9977 0.0000
# 4 0.0000 0.0000 0.0000 101.2931 0.0000 -62.7171
# 5 1.2991 9.3954 6.9977 0.0000 27.5708 0.0000
# 6 0.0000 0.0000 0.0000 -62.7171 0.0000 -46.2914
#
#
#
# Elastic Compliance Matrix: (Units=1/GPa)
#
#
# Indices 1 2 3 4 5 6 
#
# 1 0.016253 -0.006442 -0.000060 0.000000 0.001444 0.000000
# 2 -0.006442 0.012029 -0.003847 0.000000 -0.002819 0.000000
# 3 -0.000060 -0.003847 0.015682 0.000000 -0.002666 0.000000
# 4 0.000000 0.000000 0.000000 0.005369 0.000000 -0.007274
# 5 0.001444 -0.002819 -0.002666 0.000000 0.037840 0.000000
# 6 0.000000 0.000000 0.000000 -0.007274 0.000000 -0.011748
#
#
# Mechanical properties :
#
#
# Convention : Reuss Voigt Hill
#
# Bulk Modulus (GPa) = 42.97867 50.48209 46.73038
# Shear Modulus (GPa) = 48.13372 28.70641 38.42007
#
# Velocity S-wave (km/s) = 4.92448 3.80299 4.39962
# Velocity P-wave (km/s) = 7.34761 6.68710 7.02512
#
# Compressibility (1/GPa) = 0.02326736
#
# Stress axis : x y z
#
# Youngs Moduli (GPa) = 61.52584 83.13253 63.76864
#
# Poissons Ratio (x) = 0.53550 0.00382
# Poissons Ratio (y) = 0.39632 0.24531
# Poissons Ratio (z) = 0.00369 0.31980
#
# Static dielectric constant tensor:
#      x y z
#    x 1.682760 0.000000 -0.046990 
#    y 0.000000 1.738360 0.000000 
#    z -0.046990 0.000000 1.649750 
# 
# From -- ./inp_files/99272.got.cif
#   From: 2010.05.17/outbox.cif.g08.bks.cpg/sg12_50_cif.got.tgz:99272.got - 2010.06.03 13:09:07.
