data_PCOD9209292
_publ_section_title
;
Structure prediction by ZEFSAII (Michael W. Deem and Ramdas Pophale) SiO2 
 PCOD9209292
Probable space group: C 2/M
;
_chemical_formula_sum "Si O2"
_cell_formula_units_Z 40
_cell_length_a 18.301681
_cell_length_b 13.321898
_cell_length_c 7.121106
_cell_angle_alpha 90.000000
_cell_angle_beta 120.728102
_cell_angle_gamma 90.000000
_cell_volume 1492.457017
_symmetry_space_group_name_H-M "C 2/M"
_symmetry_group_IT_number 12
_symmetry_cell_setting 'monoclinic'
loop_
_space_group_symop_operation_xyz
x,y,z
-x,y,-z
-x,-y,-z
x,-y,z
1/2+x,1/2+y,z
1/2-x,1/2+y,-z
1/2-x,1/2-y,-z
1/2+x,1/2-y,z
loop_
_atom_site_type_symbol
_atom_site_label
_atom_site_fract_x
_atom_site_fract_y
_atom_site_fract_z
Si Si1 0.336661 0.382215 0.719037
Si Si2 0.547455 0.228375 0.338423
Si Si3 0.103239 0.112867 0.796663
Si Si4 0.895578 0.617715 0.212669
Si Si5 0.240464 0.383566 0.255642
O O1 0.362249 0.500000 0.705254
O O2 0.397224 0.289635 0.738244
O O3 0.250517 0.362230 0.489319
O O4 0.335587 0.381947 0.941159
O O5 0.475623 0.313881 0.286125
O O6 0.483274 0.136221 0.212588
O O7 0.596750 0.178811 0.581287
O O8 0.163713 0.126479 0.697195
O O9 0.069163 0.000000 0.748435
O O10 0.884517 0.500000 0.241389
O O11 0.822671 0.660877 0.980589
O O12 0.216301 0.500000 0.217045
#
# Coordination Sequence:
#
# PCOD9209292 Si02
#       5
#     8   8   8   8   8
#     4  10  21  38  61  92 126 154 189 244 305 365
#     4  11  20  33  59  86 116 158 194 233 297 355
#     4  10  21  38  61  92 126 154 189 244 305 365
#     4  10  22  40  60  84 118 160 208 256 292 338
#     4   9  19  38  62  84 114 161 204 241 297 356
#
# _framework density 26.801441000000001
#
# number of rings (size 3 to 8) (size 9 to 14) (size 15 to 20)
#    0.000    2.000    0.000    4.800    0.000    4.800 
#    0.000   13.000    0.000   14.400    0.000    0.000 
#    0.000    0.000    0.000    0.000    0.000    0.000 
#
# Total GULP energy -111624.009329 kJ/mol
# GULP energy per Si atom -5581.200466 kJ/mol
# Density = 2.674044 g / cm^3
# Si number density = 26.801441 Si / 1000 Ang^3
#
#
#
# Elastic Constant Matrix: (Units=GPa)
#
#
# Indices 1 2 3 4 5 6 
#
# 1 42.3282 16.2629 20.2697 0.0000 -13.6160 0.0000
# 2 16.2629 178.7870 18.8372 0.0000 -7.4587 0.0000
# 3 20.2697 18.8372 168.3347 0.0000 -7.3888 0.0000
# 4 0.0000 0.0000 0.0000 52.5663 0.0000 -17.2506
# 5 -13.6160 -7.4587 -7.3888 0.0000 32.7089 0.0000
# 6 0.0000 0.0000 0.0000 -17.2506 0.0000 61.1079
#
#
#
# Elastic Compliance Matrix: (Units=1/GPa)
#
#
# Indices 1 2 3 4 5 6 
#
# 1 0.029285 -0.001902 -0.002825 0.000000 0.011119 0.000000
# 2 -0.001902 0.005827 -0.000403 0.000000 0.000446 0.000000
# 3 -0.002825 -0.000403 0.006333 0.000000 0.000162 0.000000
# 4 0.000000 0.000000 0.000000 0.020966 0.000000 0.005919
# 5 0.011119 0.000446 0.000162 0.000000 0.035340 0.000000
# 6 0.000000 0.000000 0.000000 0.005919 0.000000 0.018035
#
#
# Mechanical properties :
#
#
# Convention : Reuss Voigt Hill
#
# Bulk Modulus (GPa) = 32.06828 55.57662 43.82245
# Shear Modulus (GPa) = 36.64515 51.54863 44.09689
#
# Velocity S-wave (km/s) = 3.70169 4.39036 4.06065
# Velocity P-wave (km/s) = 5.50101 6.81776 6.19447
#
# Compressibility (1/GPa) = 0.03118346
#
# Stress axis : x y z
#
# Youngs Moduli (GPa) = 34.14659 171.60326 157.90188
#
# Poissons Ratio (x) = 0.32645 0.44614
# Poissons Ratio (y) = 0.06496 0.06371
# Poissons Ratio (z) = 0.09648 0.06924
#
# Static dielectric constant tensor:
#      x y z
#    x 2.119420 0.000000 0.011770 
#    y 0.000000 2.104160 0.000000 
#    z 0.011770 0.000000 2.183280 
# 
# From -- ./inp_files/86075.got.cif
#   From: 2010.05.17/outbox.cif.g08.bks.cpg/sg12_44_cif.got.tgz:86075.got - 2010.06.03 13:09:07.
