data_PCOD9209828
_publ_section_title
;
Structure prediction by ZEFSAII (Michael W. Deem and Ramdas Pophale) SiO2 
 PCOD9209828
Probable space group: C 2/M
;
_chemical_formula_sum "Si O2"
_cell_formula_units_Z 56
_cell_length_a 15.077816
_cell_length_b 33.069335
_cell_length_c 5.194101
_cell_angle_alpha 90.000000
_cell_angle_beta 80.745496
_cell_angle_gamma 90.000000
_cell_volume 2556.137923
_symmetry_space_group_name_H-M "C 2/M"
_symmetry_group_IT_number 12
_symmetry_cell_setting 'monoclinic'
loop_
_space_group_symop_operation_xyz
x,y,z
-x,y,-z
-x,-y,-z
x,-y,z
1/2+x,1/2+y,z
1/2-x,1/2+y,-z
1/2-x,1/2-y,-z
1/2+x,1/2-y,z
loop_
_atom_site_type_symbol
_atom_site_label
_atom_site_fract_x
_atom_site_fract_y
_atom_site_fract_z
Si Si1 0.586730 0.457111 0.135810
Si Si2 0.283439 0.902814 0.483373
Si Si3 0.397379 0.627896 0.592486
Si Si4 0.368659 0.241201 0.200938
Si Si5 0.943692 0.654539 0.270491
Si Si6 0.215343 0.454237 0.040160
Si Si7 0.160549 0.787341 0.278689
O O1 0.587965 0.500000 0.286851
O O2 0.587551 0.415512 0.285599
O O3 0.679192 0.457415 0.935631
O O4 0.500000 0.457046 0.000000
O O5 0.183549 0.883407 0.568807
O O6 0.349741 0.867936 0.356006
O O7 0.283965 0.935205 0.246850
O O8 0.320221 0.924072 0.724626
O O9 0.500000 0.641865 0.500000
O O10 0.353694 0.665314 0.765586
O O11 0.425542 0.201929 0.238909
O O12 0.265440 0.225027 0.231087
O O13 0.374143 0.274282 0.424200
O O14 0.387918 0.261520 0.918786
O O15 0.000000 0.648358 0.500000
O O16 0.000000 0.639125 0.000000
O O17 0.178007 0.500000 0.059651
#
# Coordination Sequence:
#
# PCOD9209828 Si02
#       7
#     8   8   8   8   8   8   8
#     4   9  19  36  57  90 133 176 221 264 309 379
#     4  11  23  42  64  95 133 164 214 274 320 384
#     4  11  23  38  62  99 132 178 216 266 323 391
#     4  10  22  43  64  93 125 173 209 270 327 386
#     4  12  25  43  69  96 125 168 222 268 326 388
#     4  10  21  38  65  92 125 173 214 260 328 389
#     4  10  22  40  66  92 133 164 214 264 329 380
#
# _framework density 21.908049999999999
#
# number of rings (size 3 to 8) (size 9 to 14) (size 15 to 20)
#    0.000    1.571    1.429    3.000    0.000    6.000 
#    0.000    0.000    0.000    8.571    0.000    0.000 
#    0.000    0.000    0.000    0.000    0.000    0.000 
#
# Total GULP energy -156252.902989 kJ/mol
# GULP energy per Si atom -5580.460821 kJ/mol
# Density = 2.185819 g / cm^3
# Si number density = 21.908050 Si / 1000 Ang^3
#
#
#
# Elastic Constant Matrix: (Units=GPa)
#
#
# Indices 1 2 3 4 5 6 
#
# 1 62.3322 17.5489 15.5017 0.0000 5.5776 0.0000
# 2 17.5489 115.7834 15.8555 0.0000 5.7681 0.0000
# 3 15.5017 15.8555 88.7006 0.0000 4.9983 0.0000
# 4 0.0000 0.0000 0.0000 41.5720 0.0000 18.9545
# 5 5.5776 5.7681 4.9983 0.0000 19.8789 0.0000
# 6 0.0000 0.0000 0.0000 18.9545 0.0000 51.1892
#
#
#
# Elastic Compliance Matrix: (Units=1/GPa)
#
#
# Indices 1 2 3 4 5 6 
#
# 1 0.017594 -0.002143 -0.002484 0.000000 -0.003690 0.000000
# 2 -0.002143 0.009211 -0.001172 0.000000 -0.001777 0.000000
# 3 -0.002484 -0.001172 0.012029 0.000000 -0.001988 0.000000
# 4 0.000000 0.000000 0.000000 0.028941 0.000000 -0.010716
# 5 -0.003690 -0.001777 -0.001988 0.000000 0.052355 0.000000
# 6 0.000000 0.000000 0.000000 -0.010716 0.000000 0.023503
#
#
# Mechanical properties :
#
#
# Convention : Reuss Voigt Hill
#
# Bulk Modulus (GPa) = 36.71416 40.51426 38.61421
# Shear Modulus (GPa) = 30.43032 37.05535 33.74284
#
# Velocity S-wave (km/s) = 3.73097 4.11713 3.92880
# Velocity P-wave (km/s) = 5.94600 6.41358 6.18421
#
# Compressibility (1/GPa) = 0.02723745
#
# Stress axis : x y z
#
# Youngs Moduli (GPa) = 56.83666 108.57099 83.12937
#
# Poissons Ratio (x) = 0.23264 0.20648
# Poissons Ratio (y) = 0.12179 0.09741
# Poissons Ratio (z) = 0.14118 0.12723
#
# Static dielectric constant tensor:
#      x y z
#    x 1.788690 0.000000 -0.049340 
#    y 0.000000 1.798610 0.000000 
#    z -0.049340 0.000000 1.813990 
# 
# From -- ./inp_files/13132.got.cif
#   From: 2010.05.17/outbox.cif.g08.bks.cpg/sg12_7_cif.got.tgz:13132.got - 2010.06.03 13:09:07.
