data_PCOD9209899
_publ_section_title
;
Structure prediction by ZEFSAII (Michael W. Deem and Ramdas Pophale) SiO2 
 PCOD9209899
Probable space group: C 2/M
;
_chemical_formula_sum "Si O2"
_cell_formula_units_Z 40
_cell_length_a 9.644558
_cell_length_b 15.751610
_cell_length_c 12.752625
_cell_angle_alpha 90.000000
_cell_angle_beta 68.323734
_cell_angle_gamma 90.000000
_cell_volume 1800.346512
_symmetry_space_group_name_H-M "C 2/M"
_symmetry_group_IT_number 12
_symmetry_cell_setting 'monoclinic'
loop_
_space_group_symop_operation_xyz
x,y,z
-x,y,-z
-x,-y,-z
x,-y,z
1/2+x,1/2+y,z
1/2-x,1/2+y,-z
1/2-x,1/2-y,-z
1/2+x,1/2-y,z
loop_
_atom_site_type_symbol
_atom_site_label
_atom_site_fract_x
_atom_site_fract_y
_atom_site_fract_z
Si Si1 0.637675 0.198649 0.606567
Si Si2 0.425199 0.646115 0.632197
Si Si3 0.555228 0.406484 0.802160
Si Si4 0.918259 0.729883 0.921388
Si Si5 0.100949 0.596810 0.264707
O O1 0.750000 0.250000 0.500000
O O2 0.507570 0.268190 0.644980
O O3 0.751855 0.167798 0.664482
O O4 0.533766 0.116898 0.617009
O O5 0.500000 0.619395 0.500000
O O6 0.466909 0.588131 0.717406
O O7 0.540255 0.500000 0.858797
O O8 0.495005 0.321420 0.874786
O O9 0.732836 0.392087 0.734791
O O10 0.918865 0.661977 0.826807
O O11 0.750000 0.750000 0.000000
O O12 0.000000 0.692883 0.000000
O O13 0.089750 0.500000 0.231841
#
# Coordination Sequence:
#
# PCOD9209899 Si02
#       5
#     8   8   8   8   8
#     4  10  21  39  67 100 137 183 231 283 344 417
#     4  10  21  38  66  99 135 182 233 277 345 411
#     4  11  25  45  71 104 145 187 234 293 359 423
#     4  12  26  46  74 103 137 186 240 293 364 424
#     4  11  25  46  73 106 143 186 239 298 357 424
#
# _framework density 22.217946000000001
#
# number of rings (size 3 to 8) (size 9 to 14) (size 15 to 20)
#    0.000    1.200    4.000    1.200    2.800    4.400 
#    0.000    3.000    0.000   15.000    0.000    0.000 
#    0.000    0.000    0.000    0.000    0.000    0.000 
#
# Total GULP energy -111387.131229 kJ/mol
# GULP energy per Si atom -5569.356561 kJ/mol
# Density = 2.216738 g / cm^3
# Si number density = 22.217946 Si / 1000 Ang^3
#
#
#
# Elastic Constant Matrix: (Units=GPa)
#
#
# Indices 1 2 3 4 5 6 
#
# 1 176.9963 46.1463 37.7027 0.0000 -15.4013 0.0000
# 2 46.1463 131.1801 29.0876 0.0000 -9.9685 0.0000
# 3 37.7027 29.0876 72.4128 0.0000 6.5941 0.0000
# 4 0.0000 0.0000 0.0000 -15.4379 0.0000 75.7578
# 5 -15.4013 -9.9685 6.5941 0.0000 43.6313 0.0000
# 6 0.0000 0.0000 0.0000 75.7578 0.0000 -197.8021
#
#
#
# Elastic Compliance Matrix: (Units=1/GPa)
#
#
# Indices 1 2 3 4 5 6 
#
# 1 0.006968 -0.001533 -0.003249 0.000000 0.002600 0.000000
# 2 -0.001533 0.008973 -0.002985 0.000000 0.001960 0.000000
# 3 -0.003249 -0.002985 0.017102 0.000000 -0.004413 0.000000
# 4 0.000000 0.000000 0.000000 0.073653 0.000000 0.028209
# 5 0.002600 0.001960 -0.004413 0.000000 0.024952 0.000000
# 6 0.000000 0.000000 0.000000 0.028209 0.000000 0.005748
#
#
# Mechanical properties :
#
#
# Convention : Reuss Voigt Hill
#
# Bulk Modulus (GPa) = 57.11092 67.38472 62.24782
# Shear Modulus (GPa) = 31.49278 -16.07822 7.70728
#
# Velocity S-wave (km/s) = 3.76899 -2.69301 1.86453
# Velocity P-wave (km/s) = 6.68588 4.55248 5.71953
#
# Compressibility (1/GPa) = 0.01750979
#
# Stress axis : x y z
#
# Youngs Moduli (GPa) = 143.51592 111.44299 58.47239
#
# Poissons Ratio (x) = 0.17086 0.18997
# Poissons Ratio (y) = 0.22003 0.17452
# Poissons Ratio (z) = 0.46626 0.33262
#
# Static dielectric constant tensor:
#      x y z
#    x 1.785700 0.000000 -0.007260 
#    y 0.000000 1.920180 0.000000 
#    z -0.007260 0.000000 1.985580 
# 
# From -- ./inp_files/194426.got.cif
#   From: 2010.05.17/outbox.cif.g08.bks.cpg/sg12_98_cif.got.tgz:194426.got - 2010.06.03 13:09:07.
