data_PCOD9209052
_publ_section_title
;
Structure prediction by ZEFSAII (Michael W. Deem and Ramdas Pophale) SiO2 
 PCOD9209052
Probable space group: C 2/M
;
_chemical_formula_sum "Si O2"
_cell_formula_units_Z 48
_cell_length_a 13.436176
_cell_length_b 13.535104
_cell_length_c 19.880496
_cell_angle_alpha 90.000000
_cell_angle_beta 45.201637
_cell_angle_gamma 90.000000
_cell_volume 2565.502927
_symmetry_space_group_name_H-M "C 2/M"
_symmetry_group_IT_number 12
_symmetry_cell_setting 'monoclinic'
loop_
_space_group_symop_operation_xyz
x,y,z
-x,y,-z
-x,-y,-z
x,-y,z
1/2+x,1/2+y,z
1/2-x,1/2+y,-z
1/2-x,1/2-y,-z
1/2+x,1/2-y,z
loop_
_atom_site_type_symbol
_atom_site_label
_atom_site_fract_x
_atom_site_fract_y
_atom_site_fract_z
Si Si1 0.656928 0.883885 0.167219
Si Si2 0.648518 0.385172 0.342188
Si Si3 0.803938 0.695966 0.142560
Si Si4 0.896844 0.383632 0.961463
Si Si5 0.148391 0.305739 0.644297
Si Si6 0.654878 0.386417 0.559742
O O1 0.763271 0.810181 0.153467
O O2 0.666892 0.868686 0.081804
O O3 0.500447 0.850029 0.263035
O O4 0.676438 0.000000 0.172023
O O5 0.679950 0.500000 0.341326
O O6 0.698438 0.357220 0.243635
O O7 0.739966 0.321829 0.349713
O O8 0.481732 0.371413 0.422659
O O9 0.959127 0.677006 0.097880
O O10 0.801446 0.647387 0.069693
O O11 0.932650 0.500000 0.950150
O O12 0.209599 0.361583 0.549565
O O13 0.141058 0.191737 0.626126
O O14 0.654685 0.500000 0.581465
#
# Coordination Sequence:
#
# PCOD9209052 Si02
#       6
#     8   8   8   8   8   8
#     4  11  22  37  57  82 114 154 189 224 281 343
#     4  11  20  35  60  86 110 144 190 234 278 328
#     4  11  20  35  57  87 112 142 184 237 274 329
#     4  10  21  38  61  84 111 146 188 233 283 333
#     4  11  21  37  60  83 117 148 187 232 282 333
#     4  10  22  38  59  85 113 147 190 236 281 328
#
# _framework density 18.709782000000001
#
# number of rings (size 3 to 8) (size 9 to 14) (size 15 to 20)
#    0.000    1.333    3.333    4.500    0.000    1.333 
#    0.000    2.500    0.000    5.000    0.000    0.000 
#    0.000    0.000    0.000    0.000    0.000    0.000 
#
# Total GULP energy -134048.309521 kJ/mol
# GULP energy per Si atom -5585.346230 kJ/mol
# Density = 1.866720 g / cm^3
# Si number density = 18.709782 Si / 1000 Ang^3
#
#
#
# Elastic Constant Matrix: (Units=GPa)
#
#
# Indices 1 2 3 4 5 6 
#
# 1 54.9069 64.0813 5.8053 0.0000 2.4748 0.0000
# 2 64.0813 130.6526 7.3217 0.0000 -4.4753 0.0000
# 3 5.8053 7.3217 49.0213 0.0000 4.9347 0.0000
# 4 0.0000 0.0000 0.0000 5.1519 0.0000 -16.7691
# 5 2.4748 -4.4753 4.9347 0.0000 12.4613 0.0000
# 6 0.0000 0.0000 0.0000 -16.7691 0.0000 14.5339
#
#
#
# Elastic Compliance Matrix: (Units=1/GPa)
#
#
# Indices 1 2 3 4 5 6 
#
# 1 0.046075 -0.023180 -0.000245 0.000000 -0.017378 0.000000
# 2 -0.023180 0.019518 -0.001395 0.000000 0.012165 0.000000
# 3 -0.000245 -0.001395 0.021541 0.000000 -0.008982 0.000000
# 4 0.000000 0.000000 0.000000 -0.070442 0.000000 -0.081275
# 5 -0.017378 0.012165 -0.008982 0.000000 0.091626 0.000000
# 6 0.000000 0.000000 0.000000 -0.081275 0.000000 -0.024970
#
#
# Mechanical properties :
#
#
# Convention : Reuss Voigt Hill
#
# Bulk Modulus (GPa) = 26.67064 43.22195 34.94629
# Shear Modulus (GPa) = 34.36773 16.92092 25.64432
#
# Velocity S-wave (km/s) = 4.29054 3.01057 3.70623
# Velocity P-wave (km/s) = 6.23144 5.93600 6.08551
#
# Compressibility (1/GPa) = 0.03749441
#
# Stress axis : x y z
#
# Youngs Moduli (GPa) = 21.70375 51.23513 46.42354
#
# Poissons Ratio (x) = 1.18763 0.01137
# Poissons Ratio (y) = 0.50309 0.06475
# Poissons Ratio (z) = 0.00532 0.07146
#
# Static dielectric constant tensor:
#      x y z
#    x 1.631620 0.000000 0.004450 
#    y 0.000000 1.633640 0.000000 
#    z 0.004450 0.000000 1.677890 
# 
# From -- ./inp_files/212677.got.cif
#   From: 2010.05.17/outbox.cif.g08.bks.cpg/sg12_107_cif.got.tgz:212677.got - 2010.06.03 13:09:07.
