data_PCOD9209517
_publ_section_title
;
Structure prediction by ZEFSAII (Michael W. Deem and Ramdas Pophale) SiO2 
 PCOD9209517
Probable space group: C 2/M
;
_chemical_formula_sum "Si O2"
_cell_formula_units_Z 48
_cell_length_a 23.905789
_cell_length_b 11.169317
_cell_length_c 24.789613
_cell_angle_alpha 90.000000
_cell_angle_beta 21.107672
_cell_angle_gamma 90.000000
_cell_volume 2383.684499
_symmetry_space_group_name_H-M "C 2/M"
_symmetry_group_IT_number 12
_symmetry_cell_setting 'monoclinic'
loop_
_space_group_symop_operation_xyz
x,y,z
-x,y,-z
-x,-y,-z
x,-y,z
1/2+x,1/2+y,z
1/2-x,1/2+y,-z
1/2-x,1/2-y,-z
1/2+x,1/2-y,z
loop_
_atom_site_type_symbol
_atom_site_label
_atom_site_fract_x
_atom_site_fract_y
_atom_site_fract_z
Si Si1 0.600033 0.363935 0.458122
Si Si2 0.383813 0.350148 0.363747
Si Si3 0.146606 0.198989 0.728048
Si Si4 0.867557 0.863713 0.768552
Si Si5 0.589701 0.717027 0.968192
Si Si6 0.721446 0.000000 0.249842
Si Si7 0.620346 0.000000 0.465557
O O1 0.500000 0.300989 0.500000
O O2 0.627565 0.500000 0.415641
O O3 0.766494 0.315210 0.326957
O O4 0.486475 0.360549 0.611274
O O5 0.350079 0.500000 0.396778
O O6 0.250000 0.250000 0.500000
O O7 0.429506 0.311358 0.261896
O O8 0.527641 0.328791 0.274638
O O9 0.295436 0.113984 0.586610
O O10 0.028497 0.163501 0.881356
O O11 0.717098 0.789758 0.887028
O O12 0.817035 0.000000 0.822530
O O13 0.679935 0.614289 0.854894
O O14 0.500000 0.784835 0.000000
O O15 0.667653 0.000000 0.360032
O O16 0.560529 0.000000 0.362298
#
# Coordination Sequence:
#
# PCOD9209517 Si02
#       7
#     8   8   8   8   8   4   4
#     4  10  21  38  62  93 127 170 220 269 323 393
#     4  11  24  44  70  95 131 176 231 286 331 393
#     4  12  23  38  68  95 128 169 220 268 333 390
#     4  10  23  43  62  87 129 174 218 273 328 388
#     4  12  24  40  63  97 136 170 206 271 341 409
#     4  11  24  39  64  95 138 165 210 264 334 403
#     4  11  23  40  65  98 125 170 213 265 322 393
#
# _framework density 20.136893000000001
#
# number of rings (size 3 to 8) (size 9 to 14) (size 15 to 20)
#    0.000    1.000    4.167    2.750    2.333    1.667 
#    0.000    0.000    0.000    0.000    0.000    0.000 
#    0.000    0.000    0.000    0.000    0.000    0.000 
#
# Total GULP energy -133746.226029 kJ/mol
# GULP energy per Si atom -5572.759418 kJ/mol
# Density = 2.009106 g / cm^3
# Si number density = 20.136893 Si / 1000 Ang^3
#
#
#
# Elastic Constant Matrix: (Units=GPa)
#
#
# Indices 1 2 3 4 5 6 
#
# 1 178.2340 30.9138 38.7146 0.0006 -23.7592 0.0000
# 2 30.9138 75.3223 23.3291 0.0019 -24.2051 -0.0011
# 3 38.7146 23.3291 79.3346 0.0044 -15.2323 -0.0012
# 4 0.0006 0.0019 0.0044 8.3551 -0.0009 -3.9713
# 5 -23.7592 -24.2051 -15.2323 -0.0009 39.5652 0.0002
# 6 0.0000 -0.0011 -0.0012 -3.9713 0.0002 18.0840
#
#
#
# Elastic Compliance Matrix: (Units=1/GPa)
#
#
# Indices 1 2 3 4 5 6 
#
# 1 0.006663 -0.001237 -0.002446 0.000001 0.002303 0.000000
# 2 -0.001237 0.017518 -0.002843 -0.000001 0.008880 0.000000
# 3 -0.002446 -0.002843 0.015137 -0.000007 0.002620 -0.000001
# 4 0.000001 -0.000001 -0.000007 0.133637 0.000000 0.029347
# 5 0.002303 0.008880 0.002620 0.000000 0.033099 0.000000
# 6 0.000000 0.000000 -0.000001 0.029347 0.000000 0.061742
#
#
# Mechanical properties :
#
#
# Convention : Reuss Voigt Hill
#
# Bulk Modulus (GPa) = 38.06981 57.64508 47.85744
# Shear Modulus (GPa) = 17.26496 29.19642 23.23069
#
# Velocity S-wave (km/s) = 2.93128 3.81188 3.40021
# Velocity P-wave (km/s) = 5.51390 6.93272 6.26362
#
# Compressibility (1/GPa) = 0.02626754
#
# Stress axis : x y z
#
# Youngs Moduli (GPa) = 150.07303 57.08396 66.06214
#
# Poissons Ratio (x) = 0.07063 0.16157
# Poissons Ratio (y) = 0.18568 0.18779
# Poissons Ratio (z) = 0.36703 0.16227
#
# Static dielectric constant tensor:
#      x y z
#    x 1.777860 -0.000020 -0.046810 
#    y -0.000020 2.630770 0.000000 
#    z -0.046810 0.000000 1.713700 
# 
# From -- ./inp_files/367915.got.cif
#   From: 2010.05.17/outbox.cif.g08.bks.cpg/sg12_184_cif.got.tgz:367915.got - 2010.06.03 13:09:07.
