data_PCOD9209703
_publ_section_title
;
Structure prediction by ZEFSAII (Michael W. Deem and Ramdas Pophale) SiO2 
 PCOD9209703
Probable space group: C 2/M
;
_chemical_formula_sum "Si O2"
_cell_formula_units_Z 32
_cell_length_a 9.335828
_cell_length_b 18.249884
_cell_length_c 10.908426
_cell_angle_alpha 90.000000
_cell_angle_beta 131.315035
_cell_angle_gamma 90.000000
_cell_volume 1395.942564
_symmetry_space_group_name_H-M "C 2/M"
_symmetry_group_IT_number 12
_symmetry_cell_setting 'monoclinic'
loop_
_space_group_symop_operation_xyz
x,y,z
-x,y,-z
-x,-y,-z
x,-y,z
1/2+x,1/2+y,z
1/2-x,1/2+y,-z
1/2-x,1/2-y,-z
1/2+x,1/2-y,z
loop_
_atom_site_type_symbol
_atom_site_label
_atom_site_fract_x
_atom_site_fract_y
_atom_site_fract_z
Si Si1 0.790561 0.873143 0.416922
Si Si2 0.557954 0.346459 0.239850
Si Si3 0.530795 0.000000 0.164883
Si Si4 0.400491 0.500000 0.071834
Si Si5 0.208445 0.735790 0.160761
O O1 0.799371 0.853375 0.564551
O O2 0.760968 0.801190 0.319367
O O3 0.000000 0.902575 0.500000
O O4 0.639597 0.930502 0.281254
O O5 0.459744 0.425710 0.173983
O O6 0.383461 0.289027 0.172226
O O7 0.667672 0.319548 0.179396
O O8 0.500000 0.000000 0.000000
O O9 0.317323 0.000000 0.086684
O O10 0.500000 0.500000 0.000000
O O11 0.000000 0.707414 0.000000
#
# Coordination Sequence:
#
# PCOD9209703 Si02
#       5
#     8   8   4   4   8
#     4  10  21  38  64 101 136 173 220 279 334 393
#     4  11  24  44  67  97 137 176 220 274 333 397
#     4  12  22  41  71  99 132 181 231 276 331 398
#     4  12  27  47  67  99 138 177 220 278 339 398
#     4  11  22  39  66  98 131 175 223 272 327 394
#
# _framework density 22.923579
#
# number of rings (size 3 to 8) (size 9 to 14) (size 15 to 20)
#    0.000    1.000    0.000    8.625    0.000    2.000 
#    0.000    5.000    0.000    0.000    0.000    0.000 
#    0.000    0.000    0.000    0.000    0.000    0.000 
#
# Total GULP energy -89426.268114 kJ/mol
# GULP energy per Si atom -5589.141757 kJ/mol
# Density = 2.287140 g / cm^3
# Si number density = 22.923579 Si / 1000 Ang^3
#
#
#
# Elastic Constant Matrix: (Units=GPa)
#
#
# Indices 1 2 3 4 5 6 
#
# 1 89.6093 23.1367 35.9735 0.0000 12.1436 0.0000
# 2 23.1367 110.0000 32.8154 0.0000 10.5695 0.0000
# 3 35.9735 32.8154 145.6789 0.0000 -0.5437 0.0000
# 4 0.0000 0.0000 0.0000 65.7668 0.0000 -5.4653
# 5 12.1436 10.5695 -0.5437 0.0000 30.8020 0.0000
# 6 0.0000 0.0000 0.0000 -5.4653 0.0000 25.0382
#
#
#
# Elastic Compliance Matrix: (Units=1/GPa)
#
#
# Indices 1 2 3 4 5 6 
#
# 1 0.013394 -0.001459 -0.002997 0.000000 -0.004833 0.000000
# 2 -0.001459 0.010270 -0.001964 0.000000 -0.002984 0.000000
# 3 -0.002997 -0.001964 0.008054 0.000000 0.001998 0.000000
# 4 0.000000 0.000000 0.000000 0.015486 0.000000 0.003380
# 5 -0.004833 -0.002984 0.001998 0.000000 0.035430 0.000000
# 6 0.000000 0.000000 0.000000 0.003380 0.000000 0.040677
#
#
# Mechanical properties :
#
#
# Convention : Reuss Voigt Hill
#
# Bulk Modulus (GPa) = 52.96949 58.79326 55.88138
# Shear Modulus (GPa) = 35.10116 41.21223 38.15669
#
# Velocity S-wave (km/s) = 3.91733 4.24466 4.08428
# Velocity P-wave (km/s) = 6.60438 7.05167 6.83168
#
# Compressibility (1/GPa) = 0.01887879
#
# Stress axis : x y z
#
# Youngs Moduli (GPa) = 74.65863 97.36642 124.15526
#
# Poissons Ratio (x) = 0.14204 0.37209
# Poissons Ratio (y) = 0.10891 0.24389
# Poissons Ratio (z) = 0.22375 0.19127
#
# Static dielectric constant tensor:
#      x y z
#    x 1.856940 0.000000 -0.007700 
#    y 0.000000 2.016980 0.000000 
#    z -0.007700 0.000000 1.840570 
# 
# From -- ./inp_files/197380.got.cif
#   From: 2010.05.17/outbox.cif.g08.bks.cpg/sg12_99_cif.got.tgz:197380.got - 2010.06.03 13:09:07.
