data_PCOD9209526
_publ_section_title
;
Structure prediction by ZEFSAII (Michael W. Deem and Ramdas Pophale) SiO2 
 PCOD9209526
Probable space group: C 2/M
;
_chemical_formula_sum "Si O2"
_cell_formula_units_Z 40
_cell_length_a 30.504987
_cell_length_b 7.743543
_cell_length_c 15.276800
_cell_angle_alpha 90.000000
_cell_angle_beta 145.362132
_cell_angle_gamma 90.000000
_cell_volume 2051.103539
_symmetry_space_group_name_H-M "C 2/M"
_symmetry_group_IT_number 12
_symmetry_cell_setting 'monoclinic'
loop_
_space_group_symop_operation_xyz
x,y,z
-x,y,-z
-x,-y,-z
x,-y,z
1/2+x,1/2+y,z
1/2-x,1/2+y,-z
1/2-x,1/2-y,-z
1/2+x,1/2-y,z
loop_
_atom_site_type_symbol
_atom_site_label
_atom_site_fract_x
_atom_site_fract_y
_atom_site_fract_z
Si Si1 0.780397 0.696390 0.280187
Si Si2 0.516070 0.709504 0.126487
Si Si3 0.386757 0.500000 0.384335
Si Si4 0.939814 0.000000 0.271446
Si Si5 0.110309 0.302560 0.938960
Si Si6 0.313018 0.293516 0.530387
O O1 0.794248 0.500000 0.274200
O O2 0.791910 0.709392 0.403424
O O3 0.838169 0.831950 0.331084
O O4 0.693555 0.750326 0.113443
O O5 0.510562 0.500000 0.122211
O O6 0.452642 0.784109 0.087622
O O7 0.602007 0.759159 0.297462
O O8 0.500000 0.760322 0.000000
O O9 0.405672 0.500000 0.312750
O O10 0.467617 0.500000 0.568788
O O11 0.912647 0.831964 0.173880
O O12 0.112424 0.500000 0.911418
O O13 0.313925 0.500000 0.518410
O O14 0.250000 0.250000 0.500000
#
# Coordination Sequence:
#
# PCOD9209526 Si02
#       6
#     8   8   4   4   8   8
#     4  12  24  44  69  99 136 178 225 279 334 400
#     4  10  21  38  62  93 134 181 220 271 331 391
#     4  11  26  48  72 100 134 179 221 275 347 409
#     4  11  26  48  71 100 139 169 221 289 338 401
#     4  12  24  43  70 101 134 177 225 280 338 402
#     4  11  22  37  61  95 137 180 226 273 325 396
#
# _framework density 19.501697
#
# number of rings (size 3 to 8) (size 9 to 14) (size 15 to 20)
#    0.000    0.800    4.000    3.000    0.000    7.600 
#    0.000    2.000    0.000    0.000    0.000    0.000 
#    0.000    0.000    0.000    0.000    0.000    0.000 
#
# Total GULP energy -111948.007707 kJ/mol
# GULP energy per Si atom -5597.400385 kJ/mol
# Density = 1.945731 g / cm^3
# Si number density = 19.501697 Si / 1000 Ang^3
#
#
#
# Elastic Constant Matrix: (Units=GPa)
#
#
# Indices 1 2 3 4 5 6 
#
# 1 99.9802 56.4727 81.5567 0.0000 16.1196 0.0000
# 2 56.4727 159.1426 78.4395 0.0000 3.9567 0.0000
# 3 81.5567 78.4395 197.0855 0.0000 10.7931 0.0000
# 4 0.0000 0.0000 0.0000 25.6580 0.0000 0.4654
# 5 16.1196 3.9567 10.7931 0.0000 35.7963 0.0000
# 6 0.0000 0.0000 0.0000 0.4654 0.0000 -11.2561
#
#
#
# Elastic Compliance Matrix: (Units=1/GPa)
#
#
# Indices 1 2 3 4 5 6 
#
# 1 0.017294 -0.003262 -0.005543 0.000000 -0.005756 0.000000
# 2 -0.003262 0.008432 -0.002070 0.000000 0.001161 0.000000
# 3 -0.005543 -0.002070 0.008177 0.000000 0.000259 0.000000
# 4 0.000000 0.000000 0.000000 0.038945 0.000000 0.001610
# 5 -0.005756 0.001161 0.000259 0.000000 0.030321 0.000000
# 6 0.000000 0.000000 0.000000 0.001610 0.000000 -0.088774
#
#
# Mechanical properties :
#
#
# Convention : Reuss Voigt Hill
#
# Bulk Modulus (GPa) = 82.27481 98.79402 90.53441
# Shear Modulus (GPa) = 124.38763 26.02227 75.20495
#
# Velocity S-wave (km/s) = 7.99509 3.65685 6.21667
# Velocity P-wave (km/s) = 11.29198 8.28247 9.90222
#
# Compressibility (1/GPa) = 0.01215439
#
# Stress axis : x y z
#
# Youngs Moduli (GPa) = 57.82349 118.58907 122.28792
#
# Poissons Ratio (x) = 0.38679 0.67786
# Poissons Ratio (y) = 0.18860 0.25313
# Poissons Ratio (z) = 0.32053 0.24548
#
# Static dielectric constant tensor:
#      x y z
#    x 1.637750 0.000000 -0.002190 
#    y 0.000000 1.691560 0.000000 
#    z -0.002190 0.000000 1.652160 
# 
# From -- ./inp_files/249534.got.cif
#   From: 2010.05.17/outbox.cif.g08.bks.cpg/sg12_125_cif.got.tgz:249534.got - 2010.06.03 13:09:07.
