data_PCOD9209237
_publ_section_title
;
Structure prediction by ZEFSAII (Michael W. Deem and Ramdas Pophale) SiO2 
 PCOD9209237
Probable space group: C 2/M
;
_chemical_formula_sum "Si O2"
_cell_formula_units_Z 48
_cell_length_a 8.574343
_cell_length_b 27.398557
_cell_length_c 16.779166
_cell_angle_alpha 90.000000
_cell_angle_beta 32.387535
_cell_angle_gamma 90.000000
_cell_volume 2111.418993
_symmetry_space_group_name_H-M "C 2/M"
_symmetry_group_IT_number 12
_symmetry_cell_setting 'monoclinic'
loop_
_space_group_symop_operation_xyz
x,y,z
-x,y,-z
-x,-y,-z
x,-y,z
1/2+x,1/2+y,z
1/2-x,1/2+y,-z
1/2-x,1/2-y,-z
1/2+x,1/2-y,z
loop_
_atom_site_type_symbol
_atom_site_label
_atom_site_fract_x
_atom_site_fract_y
_atom_site_fract_z
Si Si1 0.789487 0.347998 0.420160
Si Si2 0.405422 0.159172 0.958005
Si Si3 0.659677 0.293666 0.803804
Si Si4 0.482899 0.691587 0.695732
Si Si5 0.208130 0.054715 0.023792
Si Si6 0.536268 0.054022 0.263888
O O1 0.500000 0.330726 0.500000
O O2 0.745316 0.324602 0.526163
O O3 0.103461 0.328595 0.257711
O O4 0.830358 0.405500 0.390948
O O5 0.725239 0.153113 0.783914
O O6 0.500000 0.184817 0.000000
O O7 0.276587 0.106297 0.034781
O O8 0.160292 0.192750 0.023278
O O9 0.598401 0.304974 0.736392
O O10 0.814177 0.241531 0.745867
O O11 0.860809 0.055722 0.161212
O O12 0.276087 0.000000 0.026196
O O13 0.382702 0.059522 0.864685
O O14 0.415343 0.000000 0.328360
#
# Coordination Sequence:
#
# PCOD9209237 Si02
#       6
#     8   8   8   8   8   8
#     4  12  23  38  61  90 119 159 200 242 302 356
#     4  10  21  38  61  90 119 157 199 247 297 352
#     4  11  23  43  61  85 121 161 202 247 297 358
#     4  11  24  40  61  88 122 156 202 250 300 355
#     4   9  17  35  61  91 120 152 198 244 295 354
#     4   9  19  36  61  89 119 155 196 247 297 352
#
# _framework density 22.733526999999999
#
# number of rings (size 3 to 8) (size 9 to 14) (size 15 to 20)
#    0.000    1.667    1.667    4.500    0.000    0.667 
#    0.000    0.833    0.000    3.000    0.000    0.000 
#    0.000    0.000    0.000    0.000    0.000    0.000 
#
# Total GULP energy -133715.760363 kJ/mol
# GULP energy per Si atom -5571.490015 kJ/mol
# Density = 2.268178 g / cm^3
# Si number density = 22.733527 Si / 1000 Ang^3
#
#
#
# Elastic Constant Matrix: (Units=GPa)
#
#
# Indices 1 2 3 4 5 6 
#
# 1 97.1014 27.9857 29.7061 0.0000 -21.2296 0.0000
# 2 27.9857 123.8735 22.4743 0.0000 -14.6987 0.0000
# 3 29.7061 22.4743 70.8261 -0.0003 -17.3465 -0.0001
# 4 0.0000 0.0000 -0.0003 26.2802 0.0000 -5.1445
# 5 -21.2296 -14.6987 -17.3465 0.0000 40.4411 0.0000
# 6 0.0000 0.0000 -0.0001 -5.1445 0.0000 21.9212
#
#
#
# Elastic Compliance Matrix: (Units=1/GPa)
#
#
# Indices 1 2 3 4 5 6 
#
# 1 0.012938 -0.001698 -0.003772 0.000000 0.004557 0.000000
# 2 -0.001698 0.008964 -0.001735 0.000000 0.001622 0.000000
# 3 -0.003772 -0.001735 0.017445 0.000000 0.004872 0.000000
# 4 0.000000 0.000000 0.000000 0.039884 0.000000 0.009360
# 5 0.004557 0.001622 0.004872 0.000000 0.029799 0.000000
# 6 0.000000 0.000000 0.000000 0.009360 0.000000 0.047815
#
#
# Mechanical properties :
#
#
# Convention : Reuss Voigt Hill
#
# Bulk Modulus (GPa) = 40.10005 50.23701 45.16853
# Shear Modulus (GPa) = 27.84506 31.83749 29.84128
#
# Velocity S-wave (km/s) = 3.50358 3.74634 3.62699
# Velocity P-wave (km/s) = 5.83474 6.39215 6.11979
#
# Compressibility (1/GPa) = 0.02493763
#
# Stress axis : x y z
#
# Youngs Moduli (GPa) = 77.29150 111.56204 57.32383
#
# Poissons Ratio (x) = 0.18943 0.21621
# Poissons Ratio (y) = 0.13124 0.09944
# Poissons Ratio (z) = 0.29152 0.19353
#
# Static dielectric constant tensor:
#      x y z
#    x 1.880160 0.000000 0.068840 
#    y 0.000000 1.910620 0.000000 
#    z 0.068840 0.000000 2.033530 
# 
# From -- ./inp_files/260219.got.cif
#   From: 2010.05.17/outbox.cif.g08.bks.cpg/sg12_131_cif.got.tgz:260219.got - 2010.06.03 13:09:07.
