data_PCOD9209380
_publ_section_title
;
Structure prediction by ZEFSAII (Michael W. Deem and Ramdas Pophale) SiO2 
 PCOD9209380
Probable space group: C 2/M
;
_chemical_formula_sum "Si O2"
_cell_formula_units_Z 56
_cell_length_a 19.767126
_cell_length_b 18.247729
_cell_length_c 16.381471
_cell_angle_alpha 90.000000
_cell_angle_beta 154.445512
_cell_angle_gamma 90.000000
_cell_volume 2548.909641
_symmetry_space_group_name_H-M "C 2/M"
_symmetry_group_IT_number 12
_symmetry_cell_setting 'monoclinic'
loop_
_space_group_symop_operation_xyz
x,y,z
-x,y,-z
-x,-y,-z
x,-y,z
1/2+x,1/2+y,z
1/2-x,1/2+y,-z
1/2-x,1/2-y,-z
1/2+x,1/2-y,z
loop_
_atom_site_type_symbol
_atom_site_label
_atom_site_fract_x
_atom_site_fract_y
_atom_site_fract_z
Si Si1 0.538279 0.204017 0.784968
Si Si2 0.340147 0.652423 0.023352
Si Si3 0.508368 0.083168 0.873640
Si Si4 0.046582 0.000000 0.901199
Si Si5 0.769674 0.000000 0.721660
Si Si6 0.686973 0.349745 0.192315
Si Si7 0.602702 0.732290 0.533738
Si Si8 0.759082 0.916683 0.279374
O O1 0.549597 0.276820 0.852006
O O2 0.459848 0.139860 0.751165
O O3 0.468249 0.234933 0.625363
O O4 0.707345 0.168946 0.945285
O O5 0.419970 0.572924 0.114118
O O6 0.273528 0.652983 0.859692
O O7 0.375926 0.081973 0.798799
O O8 0.526830 0.000000 0.862328
O O9 0.669876 0.103820 0.097414
O O10 0.877257 0.000000 0.758167
O O11 0.151082 0.000000 0.099817
O O12 0.709735 0.083747 0.656764
O O13 0.729260 0.271647 0.275059
O O14 0.500000 0.365480 0.000000
O O15 0.500000 0.754794 0.500000
O O16 0.621471 0.645159 0.561045
O O17 0.819019 0.000000 0.337137
#
# Coordination Sequence:
#
# PCOD9209380 Si02
#       8
#     8   8   8   4   4   8   8   8
#     4  11  24  40  56  94 134 162 204 260 319 373
#     4  10  21  38  62  88 126 164 206 254 305 371
#     4   9  20  41  70  94 118 165 221 257 307 378
#     4   9  16  34  61  93 113 153 210 249 296 361
#     4   9  16  34  64  92 114 148 213 248 279 378
#     4  11  20  40  67  89 117 169 212 247 300 373
#     4  12  26  41  61  96 130 162 206 260 319 377
#     4   9  21  43  69  92 118 164 218 265 308 372
#
# _framework density 21.970179000000002
#
# number of rings (size 3 to 8) (size 9 to 14) (size 15 to 20)
#    0.000    1.857    4.286    1.714    7.000    0.857 
#    2.571    0.357    0.000    0.000    0.000    0.000 
#    0.000    0.000    0.000    0.000    0.000    0.000 
#
# Total GULP energy -156042.288223 kJ/mol
# GULP energy per Si atom -5572.938865 kJ/mol
# Density = 2.192017 g / cm^3
# Si number density = 21.970179 Si / 1000 Ang^3
#
#
#
# Elastic Constant Matrix: (Units=GPa)
#
#
# Indices 1 2 3 4 5 6 
#
# 1 55.5268 44.4577 18.1396 0.0001 -10.8838 -0.0001
# 2 44.4577 168.7048 47.6513 0.0000 -25.5798 -0.0001
# 3 18.1396 47.6513 34.6188 0.0000 -12.7878 -0.0001
# 4 0.0001 0.0000 0.0000 15.5652 0.0000 -15.2885
# 5 -10.8838 -25.5798 -12.7878 0.0000 15.0612 -0.0001
# 6 -0.0001 -0.0001 -0.0001 -15.2885 -0.0001 19.9506
#
#
#
# Elastic Compliance Matrix: (Units=1/GPa)
#
#
# Indices 1 2 3 4 5 6 
#
# 1 0.024037 -0.004031 -0.004602 0.000000 0.006616 0.000000
# 2 -0.004031 0.010990 -0.010484 0.000000 0.006850 0.000000
# 3 -0.004602 -0.010484 0.055252 0.000001 0.025779 0.000001
# 4 0.000000 0.000000 0.000001 0.259783 0.000002 0.199076
# 5 0.006616 0.006850 0.025779 0.000002 0.104699 0.000002
# 6 0.000000 0.000000 0.000001 0.199076 0.000002 0.202680
#
#
# Mechanical properties :
#
#
# Convention : Reuss Voigt Hill
#
# Bulk Modulus (GPa) = 19.21506 53.26086 36.23796
# Shear Modulus (GPa) = 7.01239 20.02218 13.51728
#
# Velocity S-wave (km/s) = 1.78849 3.02211 2.48313
# Velocity P-wave (km/s) = 3.60969 6.03924 4.97506
#
# Compressibility (1/GPa) = 0.05204252
#
# Stress axis : x y z
#
# Youngs Moduli (GPa) = 41.60211 90.99291 18.09901
#
# Poissons Ratio (x) = 0.36682 0.08330
# Poissons Ratio (y) = 0.16771 0.18976
# Poissons Ratio (z) = 0.19147 0.95401
#
# Static dielectric constant tensor:
#      x y z
#    x 1.919160 0.000000 -0.002770 
#    y 0.000000 1.856610 0.000000 
#    z -0.002770 0.000000 1.877580 
# 
# From -- ./inp_files/234756.got.cif
#   From: 2010.05.17/outbox.cif.g08.bks.cpg/sg12_118_cif.got.tgz:234756.got - 2010.06.03 13:09:07.
