data_PCOD9209270
_publ_section_title
;
Structure prediction by ZEFSAII (Michael W. Deem and Ramdas Pophale) SiO2 
 PCOD9209270
Probable space group: C 2/M
;
_chemical_formula_sum "Si O2"
_cell_formula_units_Z 48
_cell_length_a 14.992262
_cell_length_b 8.576484
_cell_length_c 29.414006
_cell_angle_alpha 90.000000
_cell_angle_beta 139.223702
_cell_angle_gamma 90.000000
_cell_volume 2470.103912
_symmetry_space_group_name_H-M "C 2/M"
_symmetry_group_IT_number 12
_symmetry_cell_setting 'monoclinic'
loop_
_space_group_symop_operation_xyz
x,y,z
-x,y,-z
-x,-y,-z
x,-y,z
1/2+x,1/2+y,z
1/2-x,1/2+y,-z
1/2-x,1/2-y,-z
1/2+x,1/2-y,z
loop_
_atom_site_type_symbol
_atom_site_label
_atom_site_fract_x
_atom_site_fract_y
_atom_site_fract_z
Si Si1 0.615195 0.818440 0.852990
Si Si2 0.388057 0.187981 0.494769
Si Si3 0.926486 0.818313 0.850058
Si Si4 0.607615 0.818959 0.000106
Si Si5 0.413173 0.814058 0.610438
Si Si6 0.859815 0.818347 0.235848
O O1 0.496166 0.716104 0.829014
O O2 0.624590 0.783264 0.803488
O O3 0.590098 0.000000 0.852044
O O4 0.756727 0.767097 0.931103
O O5 0.500000 0.235427 0.500000
O O6 0.429986 0.224066 0.563184
O O7 0.238626 0.264123 0.432263
O O8 0.373009 0.000000 0.485735
O O9 0.789680 0.719574 0.802730
O O10 0.035250 0.762588 0.929792
O O11 0.895959 0.000000 0.844437
O O12 0.638557 0.000000 0.001426
O O13 0.500000 0.816139 0.000000
O O14 0.525647 0.727618 0.683724
O O15 0.428394 0.000000 0.621306
O O16 0.868638 0.000000 0.227122
#
# Coordination Sequence:
#
# PCOD9209270 Si02
#       6
#     8   8   8   8   8   8
#     4  12  25  42  64  90 121 159 207 258 314 371
#     4   9  19  38  64  92 123 160 201 245 295 354
#     4  12  25  42  64  90 122 161 207 256 312 370
#     4  11  22  39  64  90 121 159 204 256 313 367
#     4  10  21  38  61  91 125 160 201 248 302 359
#     4  12  25  43  63  88 125 165 207 255 309 365
#
# _framework density 19.432380999999999
#
# number of rings (size 3 to 8) (size 9 to 14) (size 15 to 20)
#    0.000    1.000    1.667    6.000    0.000    3.000 
#    0.000    5.000    0.000    0.000    0.000    0.000 
#    0.000    0.000    0.000    0.000    0.000    0.000 
#
# Total GULP energy -134256.666493 kJ/mol
# GULP energy per Si atom -5594.027771 kJ/mol
# Density = 1.938815 g / cm^3
# Si number density = 19.432381 Si / 1000 Ang^3
#
#
#
# Elastic Constant Matrix: (Units=GPa)
#
#
# Indices 1 2 3 4 5 6 
#
# 1 112.2606 -4.0824 24.3580 0.0000 25.2463 0.0000
# 2 -4.0824 69.7532 11.5331 0.0000 14.2013 0.0000
# 3 24.3580 11.5331 86.5930 0.0000 14.9671 0.0000
# 4 0.0000 0.0000 0.0000 33.3515 0.0000 3.1291
# 5 25.2463 14.2013 14.9671 0.0000 91.8531 0.0000
# 6 0.0000 0.0000 0.0000 3.1291 0.0000 30.7484
#
#
#
# Elastic Compliance Matrix: (Units=1/GPa)
#
#
# Indices 1 2 3 4 5 6 
#
# 1 0.010113 0.001551 -0.002603 0.000000 -0.002595 0.000000
# 2 0.001551 0.015265 -0.002045 0.000000 -0.002453 0.000000
# 3 -0.002603 -0.002045 0.012733 0.000000 -0.001043 0.000000
# 4 0.000000 0.000000 0.000000 0.030273 0.000000 -0.003081
# 5 -0.002595 -0.002453 -0.001043 0.000000 0.012149 0.000000
# 6 0.000000 0.000000 0.000000 -0.003081 0.000000 0.032836
#
#
# Mechanical properties :
#
#
# Convention : Reuss Voigt Hill
#
# Bulk Modulus (GPa) = 31.33253 36.91379 34.12316
# Shear Modulus (GPa) = 38.40217 46.97713 42.68965
#
# Velocity S-wave (km/s) = 4.45026 4.92211 4.69212
# Velocity P-wave (km/s) = 6.52421 7.16520 6.85221
#
# Compressibility (1/GPa) = 0.03191571
#
# Stress axis : x y z
#
# Youngs Moduli (GPa) = 98.88701 65.51116 78.53556
#
# Poissons Ratio (x) = -0.10158 0.20439
# Poissons Ratio (y) = -0.15333 0.16062
# Poissons Ratio (z) = 0.25736 0.13398
#
# Static dielectric constant tensor:
#      x y z
#    x 1.673110 0.000000 -0.015780 
#    y 0.000000 1.650000 0.000000 
#    z -0.015780 0.000000 1.641960 
# 
# From -- ./inp_files/360215.got.cif
#   From: 2010.05.17/outbox.cif.g08.bks.cpg/sg12_181_cif.got.tgz:360215.got - 2010.06.03 13:09:07.
