data_PCOD9209357
_publ_section_title
;
Structure prediction by ZEFSAII (Michael W. Deem and Ramdas Pophale) SiO2 
 PCOD9209357
Probable space group: C 2/M
;
_chemical_formula_sum "Si O2"
_cell_formula_units_Z 42
_cell_length_a 14.769571
_cell_length_b 7.389377
_cell_length_c 21.612540
_cell_angle_alpha 90.000000
_cell_angle_beta 140.123742
_cell_angle_gamma 90.000000
_cell_volume 1512.267969
_symmetry_space_group_name_H-M "C 2/M"
_symmetry_group_IT_number 12
_symmetry_cell_setting 'monoclinic'
loop_
_space_group_symop_operation_xyz
x,y,z
-x,y,-z
-x,-y,-z
x,-y,z
1/2+x,1/2+y,z
1/2-x,1/2+y,-z
1/2-x,1/2-y,-z
1/2+x,1/2-y,z
loop_
_atom_site_type_symbol
_atom_site_label
_atom_site_fract_x
_atom_site_fract_y
_atom_site_fract_z
Si Si1 0.458728 0.781216 0.641200
Si Si2 0.500000 0.500000 0.000000
Si Si3 0.454112 0.720721 0.124998
Si Si4 0.783493 0.296520 0.911844
Si Si5 0.684790 0.792475 0.560095
Si Si6 0.724627 0.779302 0.714194
O O1 0.383724 0.715516 0.537786
O O2 0.354504 0.709816 0.638926
O O3 0.621538 0.727991 0.716277
O O4 0.452308 0.000000 0.641468
O O5 0.622323 0.655442 0.075671
O O6 0.450453 0.500000 0.114805
O O7 0.371834 0.763011 0.145445
O O8 0.614492 0.781908 0.203736
O O9 0.366642 0.797079 0.021809
O O10 0.785464 0.500000 0.889486
O O11 0.657187 0.717535 0.613434
O O12 0.637781 0.000000 0.535891
O O13 0.726254 0.000000 0.713000
#
# Coordination Sequence:
#
# PCOD9209357 Si02
#       6
#     8   2   8   8   8   8
#     4   9  17  31  51  76 105 142 185 230 280 335
#     4  12  22  40  64  94 112 150 194 248 284 346
#     4   9  18  37  58  80 111 154 190 234 288 351
#     4  10  21  38  62  87 118 152 193 233 290 348
#     4   9  17  31  51  75 106 142 184 231 279 333
#     4   9  17  32  55  79 105 145 188 226 281 339
#
# _framework density 27.772856999999998
#
# number of rings (size 3 to 8) (size 9 to 14) (size 15 to 20)
#    0.000    2.667    0.952    0.857    1.333    2.286 
#    3.429    2.857    0.000    4.571    0.000    0.000 
#    0.000    0.000    0.000    0.000    0.000    0.000 
#
# Total GULP energy -117373.170924 kJ/mol
# GULP energy per Si atom -5589.198615 kJ/mol
# Density = 2.770964 g / cm^3
# Si number density = 27.772857 Si / 1000 Ang^3
#
#
#
# Elastic Constant Matrix: (Units=GPa)
#
#
# Indices 1 2 3 4 5 6 
#
# 1 173.8598 30.5612 30.9809 0.0000 30.1388 0.0000
# 2 30.5612 141.8103 8.6515 0.0000 9.9261 0.0000
# 3 30.9809 8.6515 84.6298 0.0000 35.4222 0.0000
# 4 0.0000 0.0000 0.0000 17.9000 0.0000 3.6164
# 5 30.1388 9.9261 35.4222 0.0000 69.4655 0.0000
# 6 0.0000 0.0000 0.0000 3.6164 0.0000 20.0337
#
#
#
# Elastic Compliance Matrix: (Units=1/GPa)
#
#
# Indices 1 2 3 4 5 6 
#
# 1 0.006557 -0.001188 -0.001474 0.000000 -0.001923 0.000000
# 2 -0.001188 0.007348 -0.000118 0.000000 -0.000474 0.000000
# 3 -0.001474 -0.000118 0.015374 0.000000 -0.007184 0.000000
# 4 0.000000 0.000000 0.000000 0.057981 0.000000 -0.010467
# 5 -0.001923 -0.000474 -0.007184 0.000000 0.018961 0.000000
# 6 0.000000 0.000000 0.000000 -0.010467 0.000000 0.051805
#
#
# Mechanical properties :
#
#
# Convention : Reuss Voigt Hill
#
# Bulk Modulus (GPa) = 42.15877 60.07635 51.11756
# Shear Modulus (GPa) = 29.15583 43.48693 36.32138
#
# Velocity S-wave (km/s) = 3.24357 3.96132 3.62028
# Velocity P-wave (km/s) = 5.40745 6.52695 5.99339
#
# Compressibility (1/GPa) = 0.02371985
#
# Stress axis : x y z
#
# Youngs Moduli (GPa) = 152.51562 136.08817 65.04323
#
# Poissons Ratio (x) = 0.16174 0.09585
# Poissons Ratio (y) = 0.18126 0.00765
# Poissons Ratio (z) = 0.22476 0.01600
#
# Static dielectric constant tensor:
#      x y z
#    x 2.211010 0.000000 -0.040450 
#    y 0.000000 2.036980 0.000000 
#    z -0.040450 0.000000 2.262310 
# 
# From -- ./inp_files/267329.got.cif
#   From: 2010.05.17/outbox.cif.g08.bks.cpg/sg12_134_cif.got.tgz:267329.got - 2010.06.03 13:09:07.
