data_PCOD9209869
_publ_section_title
;
Structure prediction by ZEFSAII (Michael W. Deem and Ramdas Pophale) SiO2 
 PCOD9209869
Probable space group: C 2/M
;
_chemical_formula_sum "Si O2"
_cell_formula_units_Z 28
_cell_length_a 24.139785
_cell_length_b 7.657717
_cell_length_c 11.975092
_cell_angle_alpha 90.000000
_cell_angle_beta 134.447396
_cell_angle_gamma 90.000000
_cell_volume 1580.320214
_symmetry_space_group_name_H-M "C 2/M"
_symmetry_group_IT_number 12
_symmetry_cell_setting 'monoclinic'
loop_
_space_group_symop_operation_xyz
x,y,z
-x,y,-z
-x,-y,-z
x,-y,z
1/2+x,1/2+y,z
1/2-x,1/2+y,-z
1/2-x,1/2-y,-z
1/2+x,1/2-y,z
loop_
_atom_site_type_symbol
_atom_site_label
_atom_site_fract_x
_atom_site_fract_y
_atom_site_fract_z
Si Si1 0.164227 0.703408 0.832365
Si Si2 0.333032 0.500000 0.799921
Si Si3 0.923604 0.000000 0.161908
Si Si4 0.898150 0.000000 0.652943
Si Si5 0.710469 0.303935 0.653169
O O1 0.148777 0.500000 0.831006
O O2 0.104230 0.831389 0.807814
O O3 0.168387 0.740309 0.706104
O O4 0.250000 0.750000 0.000000
O O5 0.388800 0.500000 0.772084
O O6 0.277002 0.668271 0.717316
O O7 0.377910 0.500000 0.980118
O O8 0.014426 0.000000 0.265513
O O9 0.851176 0.836728 0.532630
O O10 0.742410 0.500000 0.721093
#
# Coordination Sequence:
#
# PCOD9209869 Si02
#       5
#     8   4   4   4   8
#     4  12  20  37  64  94 119 154 208 252 300 366
#     4  12  21  42  68  85 120 171 209 235 292 380
#     4  12  24  40  63  92 130 154 197 261 308 351
#     4  10  26  42  57  94 131 157 197 256 308 345
#     4  10  21  38  66  88 120 156 208 246 299 352
#
# _framework density 17.717929000000002
#
# number of rings (size 3 to 8) (size 9 to 14) (size 15 to 20)
#    0.857    0.000    7.143    1.286    0.000    2.286 
#    2.571    1.429    0.000    3.429    0.000    0.000 
#    0.000    0.000    0.000    0.000    0.000    0.000 
#
# Total GULP energy -78132.107997 kJ/mol
# GULP energy per Si atom -5580.864857 kJ/mol
# Density = 1.767760 g / cm^3
# Si number density = 17.717929 Si / 1000 Ang^3
#
#
#
# Elastic Constant Matrix: (Units=GPa)
#
#
# Indices 1 2 3 4 5 6 
#
# 1 89.2999 21.1248 8.5124 0.0000 -22.6004 0.0000
# 2 21.1248 134.2917 8.1855 0.0000 -6.1238 0.0000
# 3 8.5124 8.1855 16.2182 0.0000 0.1174 0.0000
# 4 0.0000 0.0000 0.0000 17.0655 0.0000 -6.2116
# 5 -22.6004 -6.1238 0.1174 0.0000 24.9261 0.0000
# 6 0.0000 0.0000 0.0000 -6.2116 0.0000 16.7135
#
#
#
# Elastic Compliance Matrix: (Units=1/GPa)
#
#
# Indices 1 2 3 4 5 6 
#
# 1 0.015810 -0.001377 -0.007705 0.000000 0.014033 0.000000
# 2 -0.001377 0.007894 -0.003267 0.000000 0.000706 0.000000
# 3 -0.007705 -0.003267 0.067410 0.000000 -0.008106 0.000000
# 4 0.000000 0.000000 0.000000 0.067765 0.000000 0.025185
# 5 0.014033 0.000706 -0.008106 0.000000 0.053054 0.000000
# 6 0.000000 0.000000 0.000000 0.025185 0.000000 0.069192
#
#
# Mechanical properties :
#
#
# Convention : Reuss Voigt Hill
#
# Bulk Modulus (GPa) = 15.05623 35.05058 25.05340
# Shear Modulus (GPa) = 15.24568 25.20682 20.22625
#
# Velocity S-wave (km/s) = 2.93655 3.77593 3.38238
# Velocity P-wave (km/s) = 4.47370 6.23183 5.42446
#
# Compressibility (1/GPa) = 0.06641771
#
# Stress axis : x y z
#
# Youngs Moduli (GPa) = 63.25129 126.67117 14.83451
#
# Poissons Ratio (x) = 0.17449 0.11429
# Poissons Ratio (y) = 0.08713 0.04846
# Poissons Ratio (z) = 0.48732 0.41378
#
# Static dielectric constant tensor:
#      x y z
#    x 1.571110 0.000000 -0.021230 
#    y 0.000000 1.604000 0.000000 
#    z -0.021230 0.000000 1.605770 
# 
# From -- ./inp_files/161680.got.cif
#   From: 2010.05.17/outbox.cif.g08.bks.cpg/sg12_81_cif.got.tgz:161680.got - 2010.06.03 13:09:07.
