data_PCOD9209586
_publ_section_title
;
Structure prediction by ZEFSAII (Michael W. Deem and Ramdas Pophale) SiO2 
 PCOD9209586
Probable space group: C 2/M
;
_chemical_formula_sum "Si O2"
_cell_formula_units_Z 44
_cell_length_a 9.147787
_cell_length_b 18.742229
_cell_length_c 13.654737
_cell_angle_alpha 90.000000
_cell_angle_beta 109.523177
_cell_angle_gamma 90.000000
_cell_volume 2206.505042
_symmetry_space_group_name_H-M "C 2/M"
_symmetry_group_IT_number 12
_symmetry_cell_setting 'monoclinic'
loop_
_space_group_symop_operation_xyz
x,y,z
-x,y,-z
-x,-y,-z
x,-y,z
1/2+x,1/2+y,z
1/2-x,1/2+y,-z
1/2-x,1/2-y,-z
1/2+x,1/2-y,z
loop_
_atom_site_type_symbol
_atom_site_label
_atom_site_fract_x
_atom_site_fract_y
_atom_site_fract_z
Si Si1 0.460712 0.360327 0.604248
Si Si2 0.397028 0.240584 0.231294
Si Si3 0.384293 0.500000 0.380880
Si Si4 0.483759 0.000000 0.674372
Si Si5 0.389631 0.836793 0.880281
Si Si6 0.575170 0.000000 0.124141
Si Si7 0.872519 0.637205 0.397859
O O1 0.500000 0.344081 0.500000
O O2 0.500510 0.295376 0.683162
O O3 0.565430 0.427389 0.659468
O O4 0.281093 0.379999 0.575584
O O5 0.505025 0.193941 0.184492
O O6 0.261982 0.286397 0.148632
O O7 0.328356 0.188424 0.298554
O O8 0.500000 0.500000 0.500000
O O9 0.203735 0.500000 0.366129
O O10 0.528711 0.000000 0.799918
O O11 0.549141 0.931867 0.632711
O O12 0.348469 0.920742 0.855076
O O13 0.500000 0.832107 0.000000
O O14 0.500000 0.000000 0.000000
O O15 0.000000 0.669585 0.500000
#
# Coordination Sequence:
#
# PCOD9209586 Si02
#       7
#     8   8   4   4   8   4   8
#     4  11  24  40  61  91 133 175 224 269 329 397
#     4  12  24  41  66  95 132 173 211 280 338 391
#     4  10  21  38  63  89 126 176 223 267 325 393
#     4  12  22  42  67  94 134 174 225 274 331 392
#     4  11  24  45  70 100 130 173 226 278 339 400
#     4  10  22  42  72  97 125 170 225 269 319 399
#     4  12  25  39  63  96 133 175 223 270 330 397
#
# _framework density 19.941036
#
# number of rings (size 3 to 8) (size 9 to 14) (size 15 to 20)
#    0.000    0.727    3.636    5.182    2.545    1.455 
#    0.000    0.000    0.000    0.000    0.000   10.182 
#    0.000    0.000    0.000    0.000    0.000    0.000 
#
# Total GULP energy -122821.681875 kJ/mol
# GULP energy per Si atom -5582.803722 kJ/mol
# Density = 1.989565 g / cm^3
# Si number density = 19.941036 Si / 1000 Ang^3
#
#
#
# Elastic Constant Matrix: (Units=GPa)
#
#
# Indices 1 2 3 4 5 6 
#
# 1 148.3223 42.2535 35.2487 0.0000 1.2804 0.0000
# 2 42.2535 138.2090 31.0465 0.0000 3.8355 0.0000
# 3 35.2487 31.0465 107.6287 0.0000 0.7102 0.0000
# 4 0.0000 0.0000 0.0000 44.6144 0.0000 -10.6035
# 5 1.2804 3.8355 0.7102 0.0000 31.6755 0.0000
# 6 0.0000 0.0000 0.0000 -10.6035 0.0000 10.0060
#
#
#
# Elastic Compliance Matrix: (Units=1/GPa)
#
#
# Indices 1 2 3 4 5 6 
#
# 1 0.007763 -0.001926 -0.001987 0.000000 -0.000036 0.000000
# 2 -0.001926 0.008240 -0.001740 0.000000 -0.000881 0.000000
# 3 -0.001987 -0.001740 0.010443 0.000000 0.000057 0.000000
# 4 0.000000 0.000000 0.000000 0.029960 0.000000 0.031749
# 5 -0.000036 -0.000881 0.000057 0.000000 0.031677 0.000000
# 6 0.000000 0.000000 0.000000 0.031749 0.000000 0.133585
#
#
# Mechanical properties :
#
#
# Convention : Reuss Voigt Hill
#
# Bulk Modulus (GPa) = 66.04839 67.91749 66.98294
# Shear Modulus (GPa) = 21.00656 36.29993 28.65325
#
# Velocity S-wave (km/s) = 3.24919 4.27120 3.79476
# Velocity P-wave (km/s) = 6.87532 7.64574 7.27074
#
# Compressibility (1/GPa) = 0.01514041
#
# Stress axis : x y z
#
# Youngs Moduli (GPa) = 128.81262 121.36472 95.75402
#
# Poissons Ratio (x) = 0.23376 0.19023
# Poissons Ratio (y) = 0.24811 0.16663
# Poissons Ratio (z) = 0.25590 0.21120
#
# Static dielectric constant tensor:
#      x y z
#    x 1.675670 0.000000 0.012670 
#    y 0.000000 1.751840 0.000000 
#    z 0.012670 0.000000 1.715830 
# 
# From -- ./inp_files/195589.got.cif
#   From: 2010.05.17/outbox.cif.g08.bks.cpg/sg12_98_cif.got.tgz:195589.got - 2010.06.03 13:09:07.
