data_PCOD9209205
_publ_section_title
;
Structure prediction by ZEFSAII (Michael W. Deem and Ramdas Pophale) SiO2 
 PCOD9209205
Probable space group: C 2/M
;
_chemical_formula_sum "Si O2"
_cell_formula_units_Z 40
_cell_length_a 11.969741
_cell_length_b 27.165333
_cell_length_c 8.574522
_cell_angle_alpha 90.000000
_cell_angle_beta 48.138105
_cell_angle_gamma 90.000000
_cell_volume 2076.459387
_symmetry_space_group_name_H-M "C 2/M"
_symmetry_group_IT_number 12
_symmetry_cell_setting 'monoclinic'
loop_
_space_group_symop_operation_xyz
x,y,z
-x,y,-z
-x,-y,-z
x,-y,z
1/2+x,1/2+y,z
1/2-x,1/2+y,-z
1/2-x,1/2-y,-z
1/2+x,1/2-y,z
loop_
_atom_site_type_symbol
_atom_site_label
_atom_site_fract_x
_atom_site_fract_y
_atom_site_fract_z
Si Si1 0.171445 0.554894 0.895034
Si Si2 0.329738 0.349529 0.606846
Si Si3 0.666715 0.054141 0.273671
Si Si4 0.835275 0.150134 0.230608
Si Si5 0.679435 0.752608 0.888082
O O1 0.228586 0.500000 0.798255
O O2 0.260873 0.599779 0.736394
O O3 0.168440 0.558013 0.085012
O O4 0.000000 0.558194 0.000000
O O5 0.500000 0.345775 0.500000
O O6 0.332538 0.348473 0.418451
O O7 0.242674 0.302537 0.755622
O O8 0.500000 0.055510 0.500000
O O9 0.752886 0.100813 0.256907
O O10 0.730626 0.000000 0.255883
O O11 0.763866 0.201179 0.237727
O O12 0.000000 0.147901 0.000000
O O13 0.500000 0.753210 0.000000
O O14 0.750000 0.750000 0.000000
#
# Coordination Sequence:
#
# PCOD9209205 Si02
#       5
#     8   8   8   8   8
#     4  10  21  39  62  89 122 161 207 257 311 373
#     4  12  24  40  64  92 124 163 209 259 316 374
#     4  10  21  38  61  89 120 157 201 249 304 367
#     4  11  24  41  60  88 123 160 203 253 309 369
#     4  11  24  44  67  94 128 164 209 261 317 378
#
# _framework density 19.263559999999998
#
# number of rings (size 3 to 8) (size 9 to 14) (size 15 to 20)
#    0.000    1.200    0.000    7.200    0.000    5.600 
#    0.000    0.000    0.000    0.000    0.000    0.000 
#    0.000    0.000    0.000    0.000    0.000    0.000 
#
# Total GULP energy -111570.518640 kJ/mol
# GULP energy per Si atom -5578.525932 kJ/mol
# Density = 1.921972 g / cm^3
# Si number density = 19.263560 Si / 1000 Ang^3
#
#
#
# Elastic Constant Matrix: (Units=GPa)
#
#
# Indices 1 2 3 4 5 6 
#
# 1 131.5485 92.9673 51.3058 0.0000 23.4160 0.0000
# 2 92.9673 237.0671 92.3088 0.0000 8.3456 0.0000
# 3 51.3058 92.3088 111.6128 0.0000 21.4328 0.0000
# 4 0.0000 0.0000 0.0000 55.4392 0.0000 -6.1809
# 5 23.4160 8.3456 21.4328 0.0000 39.0065 0.0000
# 6 0.0000 0.0000 0.0000 -6.1809 0.0000 38.7629
#
#
#
# Elastic Compliance Matrix: (Units=1/GPa)
#
#
# Indices 1 2 3 4 5 6 
#
# 1 0.011886 -0.004071 -0.001000 0.000000 -0.005715 0.000000
# 2 -0.004071 0.007715 -0.005212 0.000000 0.003657 0.000000
# 3 -0.001000 -0.005212 0.014981 0.000000 -0.006516 0.000000
# 4 0.000000 0.000000 0.000000 0.018364 0.000000 0.002928
# 5 -0.005715 0.003657 -0.006516 0.000000 0.031866 0.000000
# 6 0.000000 0.000000 0.000000 0.002928 0.000000 0.026265
#
#
# Mechanical properties :
#
#
# Convention : Reuss Voigt Hill
#
# Bulk Modulus (GPa) = 71.33883 105.93244 88.63564
# Shear Modulus (GPa) = 36.68036 42.88481 39.78258
#
# Velocity S-wave (km/s) = 4.36837 4.72340 4.54935
# Velocity P-wave (km/s) = 7.90930 9.21183 8.58530
#
# Compressibility (1/GPa) = 0.01401761
#
# Stress axis : x y z
#
# Youngs Moduli (GPa) = 84.13506 129.61461 66.75254
#
# Poissons Ratio (x) = 0.52762 0.06672
# Poissons Ratio (y) = 0.34248 0.34790
# Poissons Ratio (z) = 0.08409 0.67553
#
# Static dielectric constant tensor:
#      x y z
#    x 1.533360 0.000000 -0.079760 
#    y 0.000000 1.669330 0.000000 
#    z -0.079760 0.000000 1.619190 
# 
# From -- ./inp_files/52316.got.cif
#   From: 2010.05.17/outbox.cif.g08.bks.cpg/sg12_27_cif.got.tgz:52316.got - 2010.06.03 13:09:07.
