data_PCOD9209696
_publ_section_title
;
Structure prediction by ZEFSAII (Michael W. Deem and Ramdas Pophale) SiO2 
 PCOD9209696
Probable space group: C 2/M
;
_chemical_formula_sum "Si O2"
_cell_formula_units_Z 64
_cell_length_a 15.793119
_cell_length_b 13.556631
_cell_length_c 18.326980
_cell_angle_alpha 90.000000
_cell_angle_beta 138.429369
_cell_angle_gamma 90.000000
_cell_volume 2603.631634
_symmetry_space_group_name_H-M "C 2/M"
_symmetry_group_IT_number 12
_symmetry_cell_setting 'monoclinic'
loop_
_space_group_symop_operation_xyz
x,y,z
-x,y,-z
-x,-y,-z
x,-y,z
1/2+x,1/2+y,z
1/2-x,1/2+y,-z
1/2-x,1/2-y,-z
1/2+x,1/2-y,z
loop_
_atom_site_type_symbol
_atom_site_label
_atom_site_fract_x
_atom_site_fract_y
_atom_site_fract_z
Si Si1 0.791773 0.617286 0.506517
Si Si2 0.818666 0.384966 0.353756
Si Si3 0.376422 0.880219 0.716748
Si Si4 0.707502 0.723014 0.892393
Si Si5 0.886534 0.822662 0.375073
Si Si6 0.446368 0.113908 0.039667
Si Si7 0.500256 0.388250 0.304762
Si Si8 0.349541 0.613042 0.887766
O O1 0.811017 0.500000 0.517944
O O2 0.811156 0.643751 0.434133
O O3 0.869964 0.652819 0.627686
O O4 0.641935 0.636542 0.424037
O O5 0.862241 0.500000 0.375289
O O6 0.900049 0.295883 0.371754
O O7 0.688081 0.379788 0.222365
O O8 0.248254 0.845003 0.674903
O O9 0.491088 0.849457 0.844678
O O10 0.374953 0.000000 0.712880
O O11 0.563292 0.687669 0.791502
O O12 0.760477 0.809750 0.873934
O O13 0.750000 0.750000 0.000000
O O14 0.796520 0.627849 0.936388
O O15 0.905886 0.878485 0.312410
O O16 0.000000 0.856146 0.500000
O O17 0.481456 0.000000 0.061285
O O18 0.500000 0.160973 0.000000
O O19 0.506925 0.500000 0.280328
O O20 0.316637 0.500000 0.888725
O O21 0.500000 0.625545 0.000000
#
# Coordination Sequence:
#
# PCOD9209696 Si02
#       8
#     8   8   8   8   8   8   8   8
#     4   9  20  40  66  96 128 169 215 265 321 377
#     4  10  23  44  66  89 124 171 222 266 314 381
#     4  10  21  38  63  97 133 166 213 267 320 387
#     4  12  26  41  65  97 132 165 212 265 327 387
#     4  12  23  38  63  97 129 167 208 258 325 390
#     4  10  22  42  67  94 129 175 217 260 318 387
#     4  11  23  42  66  96 136 168 206 263 330 391
#     4  10  23  43  66  89 119 165 220 268 311 373
#
# _framework density 24.581050000000001
#
# number of rings (size 3 to 8) (size 9 to 14) (size 15 to 20)
#    0.000    1.500    2.500    1.875    3.500    3.250 
#    2.250    0.000    0.000    0.000    0.000    0.000 
#    0.000    0.000    0.000    0.000    0.000    0.000 
#
# Total GULP energy -178795.116828 kJ/mol
# GULP energy per Si atom -5587.347401 kJ/mol
# Density = 2.452510 g / cm^3
# Si number density = 24.581050 Si / 1000 Ang^3
#
#
#
# Elastic Constant Matrix: (Units=GPa)
#
#
# Indices 1 2 3 4 5 6 
#
# 1 28.8664 22.1268 35.6109 0.0000 -18.7285 0.0000
# 2 22.1268 104.6054 46.7068 0.0000 -12.6213 0.0000
# 3 35.6109 46.7068 213.2914 0.0000 -13.2674 0.0000
# 4 0.0000 0.0000 0.0000 21.8553 0.0000 -0.5859
# 5 -18.7285 -12.6213 -13.2674 0.0000 39.8373 0.0000
# 6 0.0000 0.0000 0.0000 -0.5859 0.0000 21.1898
#
#
#
# Elastic Compliance Matrix: (Units=1/GPa)
#
#
# Indices 1 2 3 4 5 6 
#
# 1 0.067586 -0.007508 -0.007977 0.000000 0.026739 0.000000
# 2 -0.007508 0.011709 -0.001327 0.000000 -0.000262 0.000000
# 3 -0.007977 -0.001327 0.006179 0.000000 -0.002112 0.000000
# 4 0.000000 0.000000 0.000000 0.045789 0.000000 0.001266
# 5 0.026739 -0.000262 -0.002112 0.000000 0.036886 0.000000
# 6 0.000000 0.000000 0.000000 0.001266 0.000000 0.047228
#
#
# Mechanical properties :
#
#
# Convention : Reuss Voigt Hill
#
# Bulk Modulus (GPa) = 19.28615 61.73912 40.51264
# Shear Modulus (GPa) = 18.77689 32.73105 25.75397
#
# Velocity S-wave (km/s) = 2.76683 3.65301 3.24036
# Velocity P-wave (km/s) = 4.25090 6.55467 5.52421
#
# Compressibility (1/GPa) = 0.05185067
#
# Stress axis : x y z
#
# Youngs Moduli (GPa) = 14.79590 85.40656 161.83010
#
# Poissons Ratio (x) = 0.64127 1.29087
# Poissons Ratio (y) = 0.11109 0.21470
# Poissons Ratio (z) = 0.11802 0.11331
#
# Static dielectric constant tensor:
#      x y z
#    x 1.999810 0.000000 -0.012400 
#    y 0.000000 1.939100 0.000000 
#    z -0.012400 0.000000 1.967670 
# 
# From -- ./inp_files/278188.got.cif
#   From: 2010.05.17/outbox.cif.g08.bks.cpg/sg12_140_cif.got.tgz:278188.got - 2010.06.03 13:09:07.
