data_PCOD9209102
_publ_section_title
;
Structure prediction by ZEFSAII (Michael W. Deem and Ramdas Pophale) SiO2 
 PCOD9209102
Probable space group: C 2/M
;
_chemical_formula_sum "Si O2"
_cell_formula_units_Z 48
_cell_length_a 14.623428
_cell_length_b 8.490564
_cell_length_c 30.038685
_cell_angle_alpha 90.000000
_cell_angle_beta 147.267881
_cell_angle_gamma 90.000000
_cell_volume 2016.659762
_symmetry_space_group_name_H-M "C 2/M"
_symmetry_group_IT_number 12
_symmetry_cell_setting 'monoclinic'
loop_
_space_group_symop_operation_xyz
x,y,z
-x,y,-z
-x,-y,-z
x,-y,z
1/2+x,1/2+y,z
1/2-x,1/2+y,-z
1/2-x,1/2-y,-z
1/2+x,1/2-y,z
loop_
_atom_site_type_symbol
_atom_site_label
_atom_site_fract_x
_atom_site_fract_y
_atom_site_fract_z
Si Si1 0.493290 0.820981 0.567660
Si Si2 0.100136 0.181324 0.379473
Si Si3 0.220695 0.686517 0.055230
Si Si4 0.850013 0.185055 0.881847
Si Si5 0.328082 0.183391 0.683057
Si Si6 0.575555 0.811391 0.178827
O O1 0.301681 0.805588 0.472140
O O2 0.486550 0.782973 0.617505
O O3 0.626204 0.708681 0.598101
O O4 0.549213 0.000000 0.582422
O O5 0.081867 0.233105 0.321197
O O6 0.048716 0.000000 0.364740
O O7 0.202639 0.500000 0.040228
O O8 0.243824 0.721241 0.117457
O O9 0.381085 0.757077 0.095850
O O10 0.047931 0.774393 0.971636
O O11 0.820136 0.239573 0.819240
O O12 0.819258 0.000000 0.874635
O O13 0.370300 0.242811 0.749869
O O14 0.371250 0.000000 0.698624
O O15 0.586772 0.000000 0.181115
#
# Coordination Sequence:
#
# PCOD9209102 Si02
#       6
#     8   8   8   8   8   8
#     4  10  21  38  61  87 115 149 191 238 286 339
#     4  10  21  38  61  87 115 149 191 238 286 339
#     4  11  22  39  63  89 116 150 191 237 286 337
#     4  11  22  39  63  89 116 150 191 237 286 337
#     4  11  24  39  58  84 117 155 192 235 286 341
#     4  11  24  41  58  83 118 155 194 235 284 341
#
# _framework density 23.801735999999998
#
# number of rings (size 3 to 8) (size 9 to 14) (size 15 to 20)
#    0.000    1.333    0.000    7.000    0.000    8.000 
#    0.000    0.000    0.000    0.000    0.000    0.000 
#    0.000    0.000    0.000    0.000    0.000    0.000 
#
# Total GULP energy -134444.030687 kJ/mol
# GULP energy per Si atom -5601.834612 kJ/mol
# Density = 2.374756 g / cm^3
# Si number density = 23.801736 Si / 1000 Ang^3
#
#
#
# Elastic Constant Matrix: (Units=GPa)
#
#
# Indices 1 2 3 4 5 6 
#
# 1 107.2300 0.3388 19.4663 0.0000 -21.1533 0.0000
# 2 0.3388 48.0430 10.3148 0.0000 -2.8393 0.0000
# 3 19.4663 10.3148 71.2411 0.0000 -23.4165 0.0000
# 4 0.0000 0.0000 0.0000 22.2941 0.0000 -11.4559
# 5 -21.1533 -2.8393 -23.4165 0.0000 48.7842 0.0000
# 6 0.0000 0.0000 0.0000 -11.4559 0.0000 30.7472
#
#
#
# Elastic Compliance Matrix: (Units=1/GPa)
#
#
# Indices 1 2 3 4 5 6 
#
# 1 0.010363 0.000508 -0.001684 0.000000 0.003715 0.000000
# 2 0.000508 0.021511 -0.003288 0.000000 -0.000106 0.000000
# 3 -0.001684 -0.003288 0.017418 0.000000 0.007439 0.000000
# 4 0.000000 0.000000 0.000000 0.055476 0.000000 0.020669
# 5 0.003715 -0.000106 0.007439 0.000000 0.025674 0.000000
# 6 0.000000 0.000000 0.000000 0.020669 0.000000 0.040224
#
#
# Mechanical properties :
#
#
# Convention : Reuss Voigt Hill
#
# Bulk Modulus (GPa) = 24.77506 31.86154 28.31830
# Shear Modulus (GPa) = 25.90019 33.45804 29.67912
#
# Velocity S-wave (km/s) = 3.30231 3.75333 3.53502
# Velocity P-wave (km/s) = 4.99719 5.67438 5.34652
#
# Compressibility (1/GPa) = 0.04036318
#
# Stress axis : x y z
#
# Youngs Moduli (GPa) = 96.50047 46.48830 57.41080
#
# Poissons Ratio (x) = -0.02362 0.09669
# Poissons Ratio (y) = -0.04903 0.18878
# Poissons Ratio (z) = 0.16252 0.15286
#
# Static dielectric constant tensor:
#      x y z
#    x 1.886570 0.000000 0.016370 
#    y 0.000000 1.793700 0.000000 
#    z 0.016370 0.000000 2.033870 
# 
# From -- ./inp_files/360336.got.cif
#   From: 2010.05.17/outbox.cif.g08.bks.cpg/sg12_181_cif.got.tgz:360336.got - 2010.06.03 13:09:07.
