data_PCOD9209871
_publ_section_title
;
Structure prediction by ZEFSAII (Michael W. Deem and Ramdas Pophale) SiO2 
 PCOD9209871
Probable space group: C 2/M
;
_chemical_formula_sum "Si O2"
_cell_formula_units_Z 52
_cell_length_a 23.352721
_cell_length_b 20.446095
_cell_length_c 5.191474
_cell_angle_alpha 90.000000
_cell_angle_beta 85.349788
_cell_angle_gamma 90.000000
_cell_volume 2470.623597
_symmetry_space_group_name_H-M "C 2/M"
_symmetry_group_IT_number 12
_symmetry_cell_setting 'monoclinic'
loop_
_space_group_symop_operation_xyz
x,y,z
-x,y,-z
-x,-y,-z
x,-y,z
1/2+x,1/2+y,z
1/2-x,1/2+y,-z
1/2-x,1/2-y,-z
1/2+x,1/2-y,z
loop_
_atom_site_type_symbol
_atom_site_label
_atom_site_fract_x
_atom_site_fract_y
_atom_site_fract_z
Si Si1 0.000000 0.622980 0.500000
Si Si2 0.708556 0.695492 0.284105
Si Si3 0.962695 0.075007 0.272769
Si Si4 0.365859 0.675613 0.170838
Si Si5 0.813157 0.334022 0.566868
Si Si6 0.918724 0.310786 0.187040
Si Si7 0.387869 0.925697 0.805067
O O1 0.980585 0.670602 0.276049
O O2 0.944838 0.580449 0.602780
O O3 0.672493 0.687373 0.561574
O O4 0.770285 0.666467 0.339710
O O5 0.710296 0.774741 0.246626
O O6 0.675625 0.664593 0.057058
O O7 0.907319 0.117072 0.230163
O O8 0.000000 0.101195 0.500000
O O9 0.947401 0.000000 0.342639
O O10 0.000000 0.075230 0.000000
O O11 0.405593 0.738852 0.086145
O O12 0.876209 0.313084 0.448661
O O13 0.828492 0.402810 0.690723
O O14 0.898744 0.370160 0.014412
O O15 0.384576 0.000000 0.901559
#
# Coordination Sequence:
#
# PCOD9209871 Si02
#       7
#     4   8   8   8   8   8   8
#     4  10  23  38  54  84 117 162 204 264 301 368
#     4  10  21  38  66  90 122 155 202 249 310 350
#     4  10  22  40  62  88 123 163 195 233 300 372
#     4  11  22  38  63  97 122 158 198 256 299 359
#     4   9  21  38  59  86 117 155 200 252 298 370
#     4  10  22  36  59  87 119 153 210 248 309 352
#     4  11  22  39  58  82 120 163 208 254 311 367
#
# _framework density 21.047318000000001
#
# number of rings (size 3 to 8) (size 9 to 14) (size 15 to 20)
#    0.000    1.846    1.538    1.615    3.231    6.769 
#    0.000    1.538    0.000    0.000    0.000    0.000 
#    0.000    0.000    0.000    0.000    0.000    0.000 
#
# Total GULP energy -145071.159988 kJ/mol
# GULP energy per Si atom -5579.660000 kJ/mol
# Density = 2.099941 g / cm^3
# Si number density = 21.047318 Si / 1000 Ang^3
#
#
#
# Elastic Constant Matrix: (Units=GPa)
#
#
# Indices 1 2 3 4 5 6 
#
# 1 88.6681 48.5950 32.6717 0.0000 33.9365 0.0000
# 2 48.5950 79.3359 19.6937 0.0000 22.1504 0.0000
# 3 32.6717 19.6937 109.0213 0.0000 35.2752 0.0000
# 4 0.0000 0.0000 0.0000 -8.9125 0.0000 60.1156
# 5 33.9365 22.1504 35.2752 0.0000 47.8452 0.0000
# 6 0.0000 0.0000 0.0000 60.1156 0.0000 -62.0347
#
#
#
# Elastic Compliance Matrix: (Units=1/GPa)
#
#
# Indices 1 2 3 4 5 6 
#
# 1 0.020618 -0.009741 -0.001506 0.000000 -0.009004 0.000000
# 2 -0.009741 0.019107 0.000124 0.000000 -0.002028 0.000000
# 3 -0.001506 0.000124 0.012180 0.000000 -0.007969 0.000000
# 4 0.000000 0.000000 0.000000 0.020266 0.000000 0.019639
# 5 -0.009004 -0.002028 -0.007969 0.000000 0.034102 0.000000
# 6 0.000000 0.000000 0.000000 0.019639 0.000000 0.002912
#
#
# Mechanical properties :
#
#
# Convention : Reuss Voigt Hill
#
# Bulk Modulus (GPa) = 33.71716 53.21623 43.46670
# Shear Modulus (GPa) = 35.38169 7.11726 21.24947
#
# Velocity S-wave (km/s) = 4.10451 1.84089 3.18088
# Velocity P-wave (km/s) = 6.20622 5.46420 5.84699
#
# Compressibility (1/GPa) = 0.02965849
#
# Stress axis : x y z
#
# Youngs Moduli (GPa) = 48.50189 52.33788 82.10201
#
# Poissons Ratio (x) = 0.50983 0.12362
# Poissons Ratio (y) = 0.47246 -0.01017
# Poissons Ratio (z) = 0.07303 -0.00648
#
# Static dielectric constant tensor:
#      x y z
#    x 1.810000 0.000000 -0.019830 
#    y 0.000000 1.778980 0.000000 
#    z -0.019830 0.000000 1.821480 
# 
# From -- ./inp_files/21178.got.cif
#   From: 2010.05.17/outbox.cif.g08.bks.cpg/sg12_11_cif.got.tgz:21178.got - 2010.06.03 13:09:07.
