data_PCOD9209693
_publ_section_title
;
Structure prediction by ZEFSAII (Michael W. Deem and Ramdas Pophale) SiO2 
 PCOD9209693
Probable space group: C 2/M
;
_chemical_formula_sum "Si O2"
_cell_formula_units_Z 58
_cell_length_a 23.463132
_cell_length_b 7.692362
_cell_length_c 20.533775
_cell_angle_alpha 90.000000
_cell_angle_beta 44.155855
_cell_angle_gamma 90.000000
_cell_volume 2581.700036
_symmetry_space_group_name_H-M "C 2/M"
_symmetry_group_IT_number 12
_symmetry_cell_setting 'monoclinic'
loop_
_space_group_symop_operation_xyz
x,y,z
-x,y,-z
-x,-y,-z
x,-y,z
1/2+x,1/2+y,z
1/2-x,1/2+y,-z
1/2-x,1/2-y,-z
1/2+x,1/2-y,z
loop_
_atom_site_type_symbol
_atom_site_label
_atom_site_fract_x
_atom_site_fract_y
_atom_site_fract_z
Si Si1 0.334915 0.796731 0.785186
Si Si2 0.298078 0.790505 0.675250
Si Si3 0.500000 0.000000 0.000000
Si Si4 0.808120 0.706919 0.013387
Si Si5 0.450863 0.296034 0.477311
Si Si6 0.113719 0.801702 0.861116
Si Si7 0.502552 0.698982 0.294058
Si Si8 0.506699 0.799578 0.148156
O O1 0.341195 0.730712 0.706814
O O2 0.242078 0.775362 0.884121
O O3 0.399096 0.701991 0.778317
O O4 0.355188 0.000000 0.771717
O O5 0.354658 0.722107 0.571370
O O6 0.203152 0.745863 0.761511
O O7 0.301588 0.000000 0.670551
O O8 0.428161 0.156142 0.059687
O O9 0.813277 0.500000 0.012092
O O10 0.750000 0.750000 0.000000
O O11 0.900769 0.769887 0.931385
O O12 0.500000 0.221265 0.500000
O O13 0.472601 0.500000 0.456047
O O14 0.471825 0.225100 0.388376
O O15 0.055100 0.802935 0.845939
O O16 0.117848 0.000000 0.884174
O O17 0.474180 0.500000 0.310674
O O18 0.482496 0.796123 0.243798
O O19 0.504147 0.000000 0.123581
#
# Coordination Sequence:
#
# PCOD9209693 Si02
#       8
#     8   8   2   8   8   8   8   8
#     4  11  22  36  56  88 126 165 209 261 326 396
#     4  10  24  42  64  94 131 169 216 278 339 397
#     4  12  26  48  72 102 130 184 228 272 336 388
#     4  11  23  36  56  86 122 162 209 258 318 393
#     4  10  21  38  63  97 131 169 219 274 339 404
#     4  11  26  47  70 102 138 179 231 280 330 400
#     4  11  22  38  61  93 127 170 216 268 331 398
#     4  11  24  43  64  92 129 176 225 273 334 403
#
# _framework density 22.465816
#
# number of rings (size 3 to 8) (size 9 to 14) (size 15 to 20)
#    0.000    1.241    3.448    1.862    2.897    3.586 
#    0.000    0.690    0.000    0.000    0.000    0.000 
#    0.000    0.000    0.000    0.000    0.000    0.000 
#
# Total GULP energy -161926.796756 kJ/mol
# GULP energy per Si atom -5583.682647 kJ/mol
# Density = 2.241468 g / cm^3
# Si number density = 22.465816 Si / 1000 Ang^3
#
#
#
# Elastic Constant Matrix: (Units=GPa)
#
#
# Indices 1 2 3 4 5 6 
#
# 1 69.5664 9.4765 17.0595 0.0008 -3.9251 -0.0020
# 2 9.4765 85.9397 16.3987 0.0113 -5.8906 -0.0079
# 3 17.0595 16.3987 128.2055 -0.0018 -1.9643 -0.0063
# 4 0.0008 0.0113 -0.0018 29.4105 -0.0029 -1.9245
# 5 -3.9251 -5.8906 -1.9643 -0.0029 33.5541 0.0050
# 6 -0.0020 -0.0079 -0.0063 -1.9245 0.0050 25.8831
#
#
#
# Elastic Compliance Matrix: (Units=1/GPa)
#
#
# Indices 1 2 3 4 5 6 
#
# 1 0.015070 -0.001214 -0.001828 0.000000 0.001443 0.000000
# 2 -0.001214 0.012161 -0.001365 -0.000004 0.001913 0.000003
# 3 -0.001828 -0.001365 0.008218 0.000001 0.000028 0.000002
# 4 0.000000 -0.000004 0.000001 0.034168 0.000002 0.002541
# 5 0.001443 0.001913 0.000028 0.000002 0.030309 -0.000005
# 6 0.000000 0.000003 0.000002 0.002541 -0.000005 0.038824
#
#
# Mechanical properties :
#
#
# Convention : Reuss Voigt Hill
#
# Bulk Modulus (GPa) = 37.54292 41.06458 39.30375
# Shear Modulus (GPa) = 31.96072 33.82134 32.89103
#
# Velocity S-wave (km/s) = 3.77588 3.88423 3.83044
# Velocity P-wave (km/s) = 5.97972 6.19957 6.09064
#
# Compressibility (1/GPa) = 0.02663618
#
# Stress axis : x y z
#
# Youngs Moduli (GPa) = 66.35803 82.22679 121.68144
#
# Poissons Ratio (x) = 0.09983 0.22241
# Poissons Ratio (y) = 0.08056 0.16606
# Poissons Ratio (z) = 0.12129 0.11222
#
# Static dielectric constant tensor:
#      x y z
#    x 2.413030 0.000000 0.507420 
#    y 0.000000 1.821630 0.000000 
#    z 0.507420 0.000000 2.257040 
# 
# From -- ./inp_files/324538.got.cif
#   From: 2010.05.17/outbox.cif.g08.bks.cpg/sg12_163_cif.got.tgz:324538.got - 2010.06.03 13:09:07.
