data_PCOD9209312
_publ_section_title
;
Structure prediction by ZEFSAII (Michael W. Deem and Ramdas Pophale) SiO2 
 PCOD9209312
Probable space group: C 2/M
;
_chemical_formula_sum "Si O2"
_cell_formula_units_Z 56
_cell_length_a 13.788058
_cell_length_b 22.319543
_cell_length_c 17.501692
_cell_angle_alpha 90.000000
_cell_angle_beta 28.281280
_cell_angle_gamma 90.000000
_cell_volume 2551.901808
_symmetry_space_group_name_H-M "C 2/M"
_symmetry_group_IT_number 12
_symmetry_cell_setting 'monoclinic'
loop_
_space_group_symop_operation_xyz
x,y,z
-x,y,-z
-x,-y,-z
x,-y,z
1/2+x,1/2+y,z
1/2-x,1/2+y,-z
1/2-x,1/2-y,-z
1/2+x,1/2-y,z
loop_
_atom_site_type_symbol
_atom_site_label
_atom_site_fract_x
_atom_site_fract_y
_atom_site_fract_z
Si Si1 0.278776 0.570386 0.545580
Si Si2 0.761974 0.170886 0.676917
Si Si3 0.425919 0.236714 0.816139
Si Si4 0.850168 0.146939 0.779138
Si Si5 0.274736 0.927648 0.683395
Si Si6 0.353415 0.889712 0.792096
Si Si7 0.651958 0.430798 0.086629
O O1 0.305080 0.500000 0.538268
O O2 0.235022 0.606388 0.654340
O O3 0.479124 0.601282 0.371667
O O4 0.082871 0.583379 0.628229
O O5 0.623145 0.217167 0.727498
O O6 0.720700 0.166414 0.795448
O O7 0.000000 0.187270 0.500000
O O8 0.451976 0.294244 0.744876
O O9 0.366332 0.179707 0.805839
O O10 0.250000 0.250000 0.000000
O O11 0.746199 0.111931 0.921346
O O12 0.500000 0.908491 0.500000
O O13 0.241359 0.901171 0.790605
O O14 0.085877 0.912035 0.759456
O O15 0.273880 0.000000 0.689818
O O16 0.250930 0.922734 0.935063
O O17 0.661733 0.500000 0.103075
#
# Coordination Sequence:
#
# PCOD9209312 Si02
#       7
#     8   8   8   8   8   8   8
#     4  10  21  40  67  98 133 173 216 268 335 393
#     4   9  23  42  67  99 130 172 220 275 328 391
#     4  11  24  46  66  91 134 178 218 272 331 389
#     4  11  23  42  66  94 129 169 221 270 326 387
#     4  10  21  38  61  93 131 169 216 272 328 395
#     4  11  22  40  64  90 128 176 217 269 331 389
#     4  11  22  37  61  94 129 169 219 273 333 393
#
# _framework density 21.944417999999999
#
# number of rings (size 3 to 8) (size 9 to 14) (size 15 to 20)
#    0.000    1.571    1.429    3.000    0.000   12.286 
#    2.571    2.857    0.000    2.571    0.000    0.000 
#    0.000    0.000    0.000    0.000    0.000    0.000 
#
# Total GULP energy -156654.844965 kJ/mol
# GULP energy per Si atom -5594.815892 kJ/mol
# Density = 2.189447 g / cm^3
# Si number density = 21.944418 Si / 1000 Ang^3
#
#
#
# Elastic Constant Matrix: (Units=GPa)
#
#
# Indices 1 2 3 4 5 6 
#
# 1 126.8636 53.5203 8.5003 -0.0693 23.6566 0.0786
# 2 53.5203 123.2062 10.6351 -0.0505 1.7570 0.0509
# 3 8.5003 10.6351 53.9130 -0.0734 4.5772 0.0567
# 4 -0.0693 -0.0505 -0.0734 28.7418 0.0430 1.6277
# 5 23.6566 1.7570 4.5772 0.0430 37.6898 -0.0472
# 6 0.0786 0.0509 0.0567 1.6277 -0.0472 14.8467
#
#
#
# Elastic Compliance Matrix: (Units=1/GPa)
#
#
# Indices 1 2 3 4 5 6 
#
# 1 0.011152 -0.004726 -0.000253 0.000032 -0.006749 -0.000067
# 2 -0.004726 0.010261 -0.001506 -0.000001 0.002671 0.000004
# 3 -0.000253 -0.001506 0.019063 0.000053 -0.002086 -0.000079
# 4 0.000032 -0.000001 0.000053 0.035010 -0.000071 -0.003839
# 5 -0.006749 0.002671 -0.002086 -0.000071 0.030897 0.000140
# 6 -0.000067 0.000004 -0.000079 -0.003839 0.000140 0.067777
#
#
# Mechanical properties :
#
#
# Convention : Reuss Voigt Hill
#
# Bulk Modulus (GPa) = 36.35569 49.92158 43.13864
# Shear Modulus (GPa) = 25.47136 31.67746 28.57441
#
# Velocity S-wave (km/s) = 3.41063 3.80351 3.61241
# Velocity P-wave (km/s) = 5.66684 6.48748 6.09099
#
# Compressibility (1/GPa) = 0.02750601
#
# Stress axis : x y z
#
# Youngs Moduli (GPa) = 89.67180 97.45261 52.45873
#
# Poissons Ratio (x) = 0.46058 0.01327
# Poissons Ratio (y) = 0.42381 0.07899
# Poissons Ratio (z) = 0.02268 0.14674
#
# Static dielectric constant tensor:
#      x y z
#    x 1.808540 -0.000020 0.000480 
#    y -0.000020 1.759600 0.000050 
#    z 0.000480 0.000050 1.854190 
# 
# From -- ./inp_files/272362.got.cif
#   From: 2010.05.17/outbox.cif.g08.bks.cpg/sg12_137_cif.got.tgz:272362.got - 2010.06.03 13:09:07.
