data_PCOD9209449
_publ_section_title
;
Structure prediction by ZEFSAII (Michael W. Deem and Ramdas Pophale) SiO2 
 PCOD9209449
Probable space group: C 2/M
;
_chemical_formula_sum "Si O2"
_cell_formula_units_Z 64
_cell_length_a 20.216621
_cell_length_b 7.971570
_cell_length_c 30.581247
_cell_angle_alpha 90.000000
_cell_angle_beta 37.262026
_cell_angle_gamma 90.000000
_cell_volume 2983.965749
_symmetry_space_group_name_H-M "C 2/M"
_symmetry_group_IT_number 12
_symmetry_cell_setting 'monoclinic'
loop_
_space_group_symop_operation_xyz
x,y,z
-x,y,-z
-x,-y,-z
x,-y,z
1/2+x,1/2+y,z
1/2-x,1/2+y,-z
1/2-x,1/2-y,-z
1/2+x,1/2-y,z
loop_
_atom_site_type_symbol
_atom_site_label
_atom_site_fract_x
_atom_site_fract_y
_atom_site_fract_z
Si Si1 0.188919 0.695191 0.117539
Si Si2 0.317556 0.297104 0.262326
Si Si3 0.884970 0.304843 0.686277
Si Si4 0.036141 0.197073 0.529190
Si Si5 0.076424 0.303014 0.997863
Si Si6 0.772657 0.202746 0.385381
Si Si7 0.485442 0.305772 0.722416
Si Si8 0.057553 0.298951 0.105975
O O1 0.217107 0.500000 0.097854
O O2 0.295683 0.785455 0.079750
O O3 0.087890 0.711227 0.203705
O O4 0.148280 0.766395 0.092259
O O5 0.318322 0.500000 0.261694
O O6 0.230108 0.240619 0.272196
O O7 0.278458 0.245803 0.331252
O O8 0.438469 0.235764 0.188430
O O9 0.872226 0.500000 0.705144
O O10 0.930390 0.210439 0.704305
O O11 0.970335 0.289458 0.601609
O O12 0.165888 0.221976 0.463755
O O13 0.000000 0.257978 0.500000
O O14 0.009298 0.000000 0.546421
O O15 0.047977 0.500000 0.016183
O O16 0.062473 0.230713 0.054095
O O17 0.000000 0.229803 0.000000
O O18 0.889026 0.252826 0.344533
O O19 0.762950 0.000000 0.392475
O O20 0.488080 0.500000 0.735151
O O21 0.073121 0.500000 0.096158
#
# Coordination Sequence:
#
# PCOD9209449 Si02
#       8
#     8   8   8   8   8   8   8   8
#     4  11  23  40  63  91 123 161 205 252 302 358
#     4  10  21  38  62  91 120 157 205 252 303 360
#     4  11  24  41  62  90 125 162 202 253 309 366
#     4  11  23  38  61  92 123 160 205 254 307 363
#     4  10  23  42  62  90 125 163 205 249 304 360
#     4  10  21  40  64  89 119 160 206 252 305 362
#     4  11  24  42  64  90 123 161 202 251 307 366
#     4  10  22  39  62  91 123 162 206 251 300 357
#
# _framework density 21.447966000000001
#
# number of rings (size 3 to 8) (size 9 to 14) (size 15 to 20)
#    0.000    1.500    2.500    1.875    1.750    4.750 
#    0.000    0.000    0.000    0.000    0.000    0.000 
#    0.000    0.000    0.000    0.000    0.000    0.000 
#
# Total GULP energy -178908.977475 kJ/mol
# GULP energy per Si atom -5590.905546 kJ/mol
# Density = 2.139915 g / cm^3
# Si number density = 21.447966 Si / 1000 Ang^3
#
#
#
# Elastic Constant Matrix: (Units=GPa)
#
#
# Indices 1 2 3 4 5 6 
#
# 1 150.1009 4.3120 20.2327 0.0020 -16.2129 0.0191
# 2 4.3120 20.9239 -9.3250 0.0158 4.3507 0.0291
# 3 20.2327 -9.3250 55.6198 -0.0004 -13.5520 0.0054
# 4 0.0020 0.0158 -0.0004 19.9556 -0.0003 -3.3608
# 5 -16.2129 4.3507 -13.5520 -0.0003 34.2188 0.0012
# 6 0.0191 0.0291 0.0054 -3.3608 0.0012 11.6682
#
#
#
# Elastic Compliance Matrix: (Units=1/GPa)
#
#
# Indices 1 2 3 4 5 6 
#
# 1 0.007413 -0.003264 -0.002531 0.000001 0.002925 -0.000003
# 2 -0.003264 0.053464 0.008985 -0.000067 -0.004786 -0.000151
# 3 -0.002531 0.008985 0.021954 -0.000012 0.006353 -0.000032
# 4 0.000001 -0.000067 -0.000012 0.052666 0.000004 0.015170
# 5 0.002925 -0.004786 0.006353 0.000004 0.033734 0.000002
# 6 -0.000003 -0.000151 -0.000032 0.015170 0.000002 0.090073
#
#
# Mechanical properties :
#
#
# Convention : Reuss Voigt Hill
#
# Bulk Modulus (GPa) = 11.20934 28.56490 19.88712
# Shear Modulus (GPa) = 17.68896 27.26350 22.47623
#
# Velocity S-wave (km/s) = 2.87494 3.56918 3.24071
# Velocity P-wave (km/s) = 4.03212 5.50750 4.82652
#
# Compressibility (1/GPa) = 0.08921133
#
# Stress axis : x y z
#
# Youngs Moduli (GPa) = 134.89697 18.70405 45.54909
#
# Poissons Ratio (x) = 0.06105 0.11529
# Poissons Ratio (y) = 0.44029 -0.40925
# Poissons Ratio (z) = 0.34145 -0.16805
#
# Static dielectric constant tensor:
#      x y z
#    x 1.788700 0.000000 0.000510 
#    y 0.000000 1.778010 0.000000 
#    z 0.000510 0.000000 1.740540 
# 
# From -- ./inp_files/378024.got.cif
#   From: 2010.05.17/outbox.cif.g08.bks.cpg/sg12_190_cif.got.tgz:378024.got - 2010.06.03 13:09:07.
