data_PCOD9209556
_publ_section_title
;
Structure prediction by ZEFSAII (Michael W. Deem and Ramdas Pophale) SiO2 
 PCOD9209556
Probable space group: C 2/M
;
_chemical_formula_sum "Si O2"
_cell_formula_units_Z 44
_cell_length_a 8.591092
_cell_length_b 19.549596
_cell_length_c 10.848141
_cell_angle_alpha 90.000000
_cell_angle_beta 80.423849
_cell_angle_gamma 90.000000
_cell_volume 1796.582579
_symmetry_space_group_name_H-M "C 2/M"
_symmetry_group_IT_number 12
_symmetry_cell_setting 'monoclinic'
loop_
_space_group_symop_operation_xyz
x,y,z
-x,y,-z
-x,-y,-z
x,-y,z
1/2+x,1/2+y,z
1/2-x,1/2+y,-z
1/2-x,1/2-y,-z
1/2+x,1/2-y,z
loop_
_atom_site_type_symbol
_atom_site_label
_atom_site_fract_x
_atom_site_fract_y
_atom_site_fract_z
Si Si1 0.720265 0.073825 0.844935
Si Si2 0.500000 0.179870 0.000000
Si Si3 0.567146 0.419865 0.851361
Si Si4 0.170932 0.195271 0.423705
Si Si5 0.331498 0.200015 0.776479
Si Si6 0.066258 0.599810 0.616679
O O1 0.642328 0.131518 0.937411
O O2 0.601779 0.067860 0.744577
O O3 0.905390 0.087211 0.792455
O O4 0.718897 0.000000 0.910430
O O5 0.423925 0.216422 0.891719
O O6 0.625028 0.500000 0.826373
O O7 0.692559 0.357772 0.811595
O O8 0.500000 0.414131 0.000000
O O9 0.250000 0.250000 0.500000
O O10 0.204432 0.227947 0.284601
O O11 0.260223 0.125621 0.435619
O O12 0.000000 0.188131 0.500000
O O13 0.453410 0.163364 0.666635
O O14 0.000000 0.568946 0.500000
#
# Coordination Sequence:
#
# PCOD9209556 Si02
#       6
#     8   4   8   8   8   8
#     4  10  22  39  64  95 133 174 213 264 326 387
#     4  10  21  38  62  96 132 166 213 264 322 400
#     4  10  21  40  65  97 133 175 217 258 320 391
#     4  12  23  44  71  91 123 172 221 272 326 389
#     4  11  22  39  67  96 128 171 218 268 323 387
#     4  11  24  42  66  98 127 171 225 267 327 388
#
# _framework density 24.490940999999999
#
# number of rings (size 3 to 8) (size 9 to 14) (size 15 to 20)
#    0.000    1.273    5.455    0.273    2.545    3.273 
#    0.000    3.636   10.000    3.273    0.000    0.000 
#    0.000    0.000    0.000    0.000    0.000    0.000 
#
# Total GULP energy -122748.179572 kJ/mol
# GULP energy per Si atom -5579.462708 kJ/mol
# Density = 2.443520 g / cm^3
# Si number density = 24.490941 Si / 1000 Ang^3
#
#
#
# Elastic Constant Matrix: (Units=GPa)
#
#
# Indices 1 2 3 4 5 6 
#
# 1 138.9920 41.3684 45.7193 0.0000 2.8320 0.0000
# 2 41.3684 71.8958 25.1088 0.0000 1.0237 0.0000
# 3 45.7193 25.1088 114.2835 0.0000 33.5799 0.0000
# 4 0.0000 0.0000 0.0000 -57.3252 0.0000 12.1302
# 5 2.8320 1.0237 33.5799 0.0000 64.3501 0.0000
# 6 0.0000 0.0000 0.0000 12.1302 0.0000 12.8804
#
#
#
# Elastic Compliance Matrix: (Units=1/GPa)
#
#
# Indices 1 2 3 4 5 6 
#
# 1 0.009538 -0.004372 -0.003251 0.000000 0.001346 0.000000
# 2 -0.004372 0.017239 -0.002379 0.000000 0.001160 0.000000
# 3 -0.003251 -0.002379 0.012425 0.000000 -0.006303 0.000000
# 4 0.000000 0.000000 0.000000 -0.014546 0.000000 0.013699
# 5 0.001346 0.001160 -0.006303 0.000000 0.018751 0.000000
# 6 0.000000 0.000000 0.000000 0.013699 0.000000 0.064737
#
#
# Mechanical properties :
#
#
# Convention : Reuss Voigt Hill
#
# Bulk Modulus (GPa) = 52.08730 61.06271 56.57501
# Shear Modulus (GPa) = 37.16164 18.17937 27.67051
#
# Velocity S-wave (km/s) = 3.89956 2.72746 3.36494
# Velocity P-wave (km/s) = 6.44900 5.90809 6.18446
#
# Compressibility (1/GPa) = 0.01919854
#
# Stress axis : x y z
#
# Youngs Moduli (GPa) = 104.84761 58.00801 80.48084
#
# Poissons Ratio (x) = 0.25360 0.26161
# Poissons Ratio (y) = 0.45838 0.19149
# Poissons Ratio (z) = 0.34081 0.13802
#
# Static dielectric constant tensor:
#      x y z
#    x 1.959800 0.000000 0.075980 
#    y 0.000000 2.246120 0.000000 
#    z 0.075980 0.000000 1.974830 
# 
# From -- ./inp_files/120734.got.cif
#   From: 2010.05.17/outbox.cif.g08.bks.cpg/sg12_61_cif.got.tgz:120734.got - 2010.06.03 13:09:07.
