data_PCOD9209162
_publ_section_title
;
Structure prediction by ZEFSAII (Michael W. Deem and Ramdas Pophale) SiO2 
 PCOD9209162
Probable space group: C 2/M
;
_chemical_formula_sum "Si O2"
_cell_formula_units_Z 64
_cell_length_a 20.394375
_cell_length_b 8.653322
_cell_length_c 20.100865
_cell_angle_alpha 90.000000
_cell_angle_beta 112.478781
_cell_angle_gamma 90.000000
_cell_volume 3277.856554
_symmetry_space_group_name_H-M "C 2/M"
_symmetry_group_IT_number 12
_symmetry_cell_setting 'monoclinic'
loop_
_space_group_symop_operation_xyz
x,y,z
-x,y,-z
-x,-y,-z
x,-y,z
1/2+x,1/2+y,z
1/2-x,1/2+y,-z
1/2-x,1/2-y,-z
1/2+x,1/2-y,z
loop_
_atom_site_type_symbol
_atom_site_label
_atom_site_fract_x
_atom_site_fract_y
_atom_site_fract_z
Si Si1 0.028636 0.811811 0.439609
Si Si2 0.408337 0.316333 0.288678
Si Si3 0.853239 0.314734 0.720055
Si Si4 0.982212 0.315083 0.191240
Si Si5 0.282015 0.682706 0.944654
Si Si6 0.679188 0.685979 0.438334
Si Si7 0.742582 0.185028 0.782521
Si Si8 0.934746 0.684381 0.022753
O O1 0.107894 0.762691 0.450196
O O2 0.000000 0.759650 0.500000
O O3 0.971569 0.764589 0.362009
O O4 0.029895 0.000000 0.440894
O O5 0.399676 0.500000 0.292247
O O6 0.433775 0.272749 0.224955
O O7 0.333854 0.235760 0.274154
O O8 0.848427 0.500000 0.714479
O O9 0.935435 0.273457 0.765641
O O10 0.828758 0.243653 0.640459
O O11 0.803990 0.255555 0.760651
O O12 0.975015 0.500000 0.199311
O O13 0.957588 0.282194 0.106999
O O14 0.270904 0.500000 0.942594
O O15 0.249134 0.739366 0.861985
O O16 0.250000 0.750000 0.000000
O O17 0.364742 0.724608 0.975891
O O18 0.681333 0.500000 0.439627
O O19 0.750000 0.750000 0.500000
O O20 0.748753 0.000000 0.784091
O O21 0.920168 0.500000 0.012006
O O22 0.000000 0.720341 0.000000
#
# Coordination Sequence:
#
# PCOD9209162 Si02
#       8
#     8   8   8   8   8   8   8   8
#     4   9  20  39  62  89 123 160 200 247 295 350
#     4  11  22  38  63  91 119 159 206 250 303 364
#     4  11  23  41  65  91 123 165 210 254 306 371
#     4  10  21  38  61  88 121 158 199 252 308 365
#     4  11  24  41  61  87 122 163 206 256 312 371
#     4  11  23  41  65  94 129 166 204 252 307 362
#     4  11  25  42  60  88 126 163 204 260 315 363
#     4  10  21  38  61  88 119 156 200 252 308 365
#
# _framework density 19.524954000000001
#
# number of rings (size 3 to 8) (size 9 to 14) (size 15 to 20)
#    0.000    1.500    1.250    3.375    1.750    7.250 
#    0.000    0.000    0.000    3.000    0.000    0.000 
#    0.000    0.000    0.000    0.000    0.000    0.000 
#
# Total GULP energy -178903.629485 kJ/mol
# GULP energy per Si atom -5590.738421 kJ/mol
# Density = 1.948051 g / cm^3
# Si number density = 19.524954 Si / 1000 Ang^3
#
#
#
# Elastic Constant Matrix: (Units=GPa)
#
#
# Indices 1 2 3 4 5 6 
#
# 1 91.1564 18.7682 19.8858 0.0000 -4.3048 0.0000
# 2 18.7682 29.6579 16.5008 0.0000 0.3334 0.0000
# 3 19.8858 16.5008 83.5263 0.0000 0.9847 0.0000
# 4 0.0000 0.0000 0.0000 26.5998 0.0000 0.4217
# 5 -4.3048 0.3334 0.9847 0.0000 40.8282 0.0000
# 6 0.0000 0.0000 0.0000 0.4217 0.0000 34.9145
#
#
#
# Elastic Compliance Matrix: (Units=1/GPa)
#
#
# Indices 1 2 3 4 5 6 
#
# 1 0.012894 -0.007256 -0.001653 0.000000 0.001459 0.000000
# 2 -0.007256 0.041965 -0.006552 0.000000 -0.000950 0.000000
# 3 -0.001653 -0.006552 0.013666 0.000000 -0.000450 0.000000
# 4 0.000000 0.000000 0.000000 0.037601 0.000000 -0.000454
# 5 0.001459 -0.000950 -0.000450 0.000000 0.024665 0.000000
# 6 0.000000 0.000000 0.000000 -0.000454 0.000000 0.028647
#
#
# Mechanical properties :
#
#
# Convention : Reuss Voigt Hill
#
# Bulk Modulus (GPa) = 26.59396 34.96113 30.77755
# Shear Modulus (GPa) = 24.64337 30.41423 27.52880
#
# Velocity S-wave (km/s) = 3.55653 3.95107 3.75898
# Velocity P-wave (km/s) = 5.52406 6.22570 5.88534
#
# Compressibility (1/GPa) = 0.03760252
#
# Stress axis : x y z
#
# Youngs Moduli (GPa) = 77.55750 23.82919 73.17679
#
# Poissons Ratio (x) = 0.17290 0.12100
# Poissons Ratio (y) = 0.56274 0.47943
# Poissons Ratio (z) = 0.12824 0.15612
#
# Static dielectric constant tensor:
#      x y z
#    x 1.661930 0.000000 -0.004900 
#    y 0.000000 1.667160 0.000000 
#    z -0.004900 0.000000 1.668860 
# 
# From -- ./inp_files/320124.got.cif
#   From: 2010.05.17/outbox.cif.g08.bks.cpg/sg12_161_cif.got.tgz:320124.got - 2010.06.03 13:09:07.
