data_PCOD9209224
_publ_section_title
;
Structure prediction by ZEFSAII (Michael W. Deem and Ramdas Pophale) SiO2 
 PCOD9209224
Probable space group: C 2/M
;
_chemical_formula_sum "Si O2"
_cell_formula_units_Z 40
_cell_length_a 14.684924
_cell_length_b 11.886606
_cell_length_c 18.365483
_cell_angle_alpha 90.000000
_cell_angle_beta 144.257163
_cell_angle_gamma 90.000000
_cell_volume 1872.642898
_symmetry_space_group_name_H-M "C 2/M"
_symmetry_group_IT_number 12
_symmetry_cell_setting 'monoclinic'
loop_
_space_group_symop_operation_xyz
x,y,z
-x,y,-z
-x,-y,-z
x,-y,z
1/2+x,1/2+y,z
1/2-x,1/2+y,-z
1/2-x,1/2-y,-z
1/2+x,1/2-y,z
loop_
_atom_site_type_symbol
_atom_site_label
_atom_site_fract_x
_atom_site_fract_y
_atom_site_fract_z
Si Si1 0.593953 0.626065 0.627355
Si Si2 0.826724 0.375069 0.103423
Si Si3 0.822177 0.125719 0.567831
Si Si4 0.501059 0.334161 0.169893
Si Si5 0.155718 0.226005 0.133629
O O1 0.500000 0.681500 0.500000
O O2 0.639618 0.500000 0.633580
O O3 0.472121 0.619634 0.613542
O O4 0.739386 0.693051 0.750673
O O5 0.882957 0.500000 0.153064
O O6 0.961554 0.297286 0.158469
O O7 0.757556 0.323944 0.133850
O O8 0.677041 0.378015 0.951866
O O9 0.750000 0.250000 0.500000
O O10 0.889235 0.129580 0.693302
O O11 0.741206 0.000000 0.506243
O O12 0.582963 0.358888 0.146000
O O13 0.000000 0.282221 0.000000
#
# Coordination Sequence:
#
# PCOD9209224 Si02
#       5
#     8   8   8   8   8
#     4  10  21  39  60  85 123 166 208 260 321 381
#     4  10  21  38  61  90 125 165 207 258 321 385
#     4  11  23  40  63  89 123 165 213 264 319 381
#     4  10  21  38  61  89 123 163 208 259 314 382
#     4  10  21  38  61  92 127 160 208 263 321 383
#
# _framework density 21.360187
#
# number of rings (size 3 to 8) (size 9 to 14) (size 15 to 20)
#    0.000    1.800    2.000    1.800    0.000    6.400 
#    0.000    0.000    0.000    2.400    0.000    0.000 
#    0.000    0.000    0.000    0.000    0.000    0.000 
#
# Total GULP energy -111420.945790 kJ/mol
# GULP energy per Si atom -5571.047290 kJ/mol
# Density = 2.131157 g / cm^3
# Si number density = 21.360187 Si / 1000 Ang^3
#
#
#
# Elastic Constant Matrix: (Units=GPa)
#
#
# Indices 1 2 3 4 5 6 
#
# 1 74.4668 7.0278 7.1284 0.0000 -9.9545 0.0000
# 2 7.0278 136.9598 45.8604 0.0000 16.8329 0.0000
# 3 7.1284 45.8604 124.9784 -0.0001 -20.2626 0.0000
# 4 0.0000 0.0000 -0.0001 -1.1502 0.0000 -8.9050
# 5 -9.9545 16.8329 -20.2626 0.0000 26.4596 0.0000
# 6 0.0000 0.0000 0.0000 -8.9050 0.0000 6.4438
#
#
#
# Elastic Compliance Matrix: (Units=1/GPa)
#
#
# Indices 1 2 3 4 5 6 
#
# 1 0.014543 -0.002092 0.001189 0.000000 0.007713 0.000000
# 2 -0.002092 0.010859 -0.005838 0.000000 -0.012165 0.000000
# 3 0.001189 -0.005838 0.012274 0.000000 0.013560 0.000000
# 4 0.000000 0.000000 0.000000 -0.074313 0.000000 -0.102698
# 5 0.007713 -0.012165 0.013560 0.000000 0.058819 0.000000
# 6 0.000000 0.000000 0.000000 -0.102698 0.000000 0.013264
#
#
# Mechanical properties :
#
#
# Convention : Reuss Voigt Hill
#
# Bulk Modulus (GPa) = 41.33242 50.71534 46.02388
# Shear Modulus (GPa) = 87.73006 24.77654 56.25330
#
# Velocity S-wave (km/s) = 6.41568 3.40948 5.13739
# Velocity P-wave (km/s) = 8.61821 6.26849 7.53550
#
# Compressibility (1/GPa) = 0.02419409
#
# Stress axis : x y z
#
# Youngs Moduli (GPa) = 68.75928 92.09257 81.47171
#
# Poissons Ratio (x) = 0.19268 -0.09684
# Poissons Ratio (y) = 0.14386 0.47560
# Poissons Ratio (z) = -0.08173 0.53760
#
# Static dielectric constant tensor:
#      x y z
#    x 1.758750 0.000000 -0.040380 
#    y 0.000000 1.876800 0.000000 
#    z -0.040380 0.000000 1.831760 
# 
# From -- ./inp_files/71319.got.cif
#   From: 2010.05.17/outbox.cif.g08.bks.cpg/sg12_36_cif.got.tgz:71319.got - 2010.06.03 13:09:07.
