data_PCOD9209215
_publ_section_title
;
Structure prediction by ZEFSAII (Michael W. Deem and Ramdas Pophale) SiO2 
 PCOD9209215
Probable space group: C 2/M
;
_chemical_formula_sum "Si O2"
_cell_formula_units_Z 64
_cell_length_a 18.794508
_cell_length_b 9.044370
_cell_length_c 29.089642
_cell_angle_alpha 90.000000
_cell_angle_beta 43.558458
_cell_angle_gamma 90.000000
_cell_volume 3407.425111
_symmetry_space_group_name_H-M "C 2/M"
_symmetry_group_IT_number 12
_symmetry_cell_setting 'monoclinic'
loop_
_space_group_symop_operation_xyz
x,y,z
-x,y,-z
-x,-y,-z
x,-y,z
1/2+x,1/2+y,z
1/2-x,1/2+y,-z
1/2-x,1/2-y,-z
1/2+x,1/2-y,z
loop_
_atom_site_type_symbol
_atom_site_label
_atom_site_fract_x
_atom_site_fract_y
_atom_site_fract_z
Si Si1 0.429651 0.322369 0.802770
Si Si2 0.850561 0.321795 0.315694
Si Si3 0.139181 0.177927 0.061424
Si Si4 0.746088 0.323418 0.189645
Si Si5 0.536028 0.325435 0.930590
Si Si6 0.985520 0.335249 0.452384
Si Si7 0.290628 0.824283 0.695629
Si Si8 0.220447 0.173995 0.466595
O O1 0.446771 0.500000 0.793179
O O2 0.533468 0.240040 0.738883
O O3 0.400680 0.282920 0.868851
O O4 0.334750 0.287310 0.813161
O O5 0.850521 0.500000 0.313083
O O6 0.790294 0.254208 0.300365
O O7 0.788554 0.275757 0.390898
O O8 0.054151 0.219644 0.062798
O O9 0.150429 0.000000 0.054385
O O10 0.250000 0.250000 0.000000
O O11 0.745711 0.500000 0.195859
O O12 0.860397 0.266949 0.124618
O O13 0.714653 0.244094 0.251469
O O14 0.557701 0.500000 0.911949
O O15 0.500000 0.310093 0.000000
O O16 0.951312 0.500000 0.452518
O O17 0.094659 0.302355 0.378114
O O18 0.000000 0.342534 0.500000
O O19 0.898379 0.215784 0.484862
O O20 0.269440 0.000000 0.706642
O O21 0.250000 0.250000 0.500000
O O22 0.234570 0.000000 0.463686
#
# Coordination Sequence:
#
# PCOD9209215 Si02
#       8
#     8   8   8   8   8   8   8   8
#     4  10  23  41  60  86 123 164 204 247 300 359
#     4  11  24  41  62  90 120 156 204 252 301 362
#     4  10  21  38  61  89 121 158 199 242 297 359
#     4  11  24  40  60  90 123 159 208 256 301 358
#     4  10  21  38  62  92 124 160 205 253 304 363
#     4  10  21  40  64  90 117 154 202 248 305 372
#     4  11  23  40  64  88 119 159 199 250 310 370
#     4  11  25  41  61  89 123 159 201 252 304 363
#
# _framework density 18.782511
#
# number of rings (size 3 to 8) (size 9 to 14) (size 15 to 20)
#    0.000    1.500    1.250    3.000    1.750    6.000 
#    0.000    0.000    0.000    0.000    0.000    0.000 
#    0.000    0.000    0.000    0.000    0.000    0.000 
#
# Total GULP energy -178834.928290 kJ/mol
# GULP energy per Si atom -5588.591509 kJ/mol
# Density = 1.873976 g / cm^3
# Si number density = 18.782511 Si / 1000 Ang^3
#
#
#
# Elastic Constant Matrix: (Units=GPa)
#
#
# Indices 1 2 3 4 5 6 
#
# 1 165.9414 60.7856 74.1559 0.0000 2.3584 0.0002
# 2 60.7856 56.1568 56.9565 0.0000 -4.5040 0.0007
# 3 74.1559 56.9565 113.9004 0.0000 -8.1204 0.0000
# 4 0.0000 0.0000 0.0000 36.0067 0.0000 -6.5229
# 5 2.3584 -4.5040 -8.1204 0.0000 29.3543 -0.0001
# 6 0.0002 0.0007 0.0000 -6.5229 -0.0001 32.1607
#
#
#
# Elastic Compliance Matrix: (Units=1/GPa)
#
#
# Indices 1 2 3 4 5 6 
#
# 1 0.010513 -0.009051 -0.002528 0.000000 -0.002933 0.000000
# 2 -0.009051 0.043935 -0.015857 0.000000 0.003082 -0.000001
# 3 -0.002528 -0.015857 0.018562 0.000000 0.002905 0.000000
# 4 0.000000 0.000000 0.000000 0.028832 0.000000 0.005848
# 5 -0.002933 0.003082 0.002905 0.000000 0.035579 0.000000
# 6 0.000000 -0.000001 0.000000 0.005848 0.000000 0.032280
#
#
# Mechanical properties :
#
#
# Convention : Reuss Voigt Hill
#
# Bulk Modulus (GPa) = 55.13431 79.97719 67.55575
# Shear Modulus (GPa) = 21.68094 29.11105 25.39599
#
# Velocity S-wave (km/s) = 3.40121 3.94115 3.68109
# Velocity P-wave (km/s) = 6.69642 7.96136 7.35613
#
# Compressibility (1/GPa) = 0.01813752
#
# Stress axis : x y z
#
# Youngs Moduli (GPa) = 95.12122 22.76111 53.87411
#
# Poissons Ratio (x) = 0.20601 0.13617
# Poissons Ratio (y) = 0.86095 0.85429
# Poissons Ratio (z) = 0.24042 0.36093
#
# Static dielectric constant tensor:
#      x y z
#    x 1.607110 0.000000 0.006900 
#    y 0.000000 1.642020 0.000000 
#    z 0.006900 0.000000 1.618400 
# 
# From -- ./inp_files/378114.got.cif
#   From: 2010.05.17/outbox.cif.g08.bks.cpg/sg12_190_cif.got.tgz:378114.got - 2010.06.03 13:09:07.
