data_PCOD9209588
_publ_section_title
;
Structure prediction by ZEFSAII (Michael W. Deem and Ramdas Pophale) SiO2 
 PCOD9209588
Probable space group: C 2/M
;
_chemical_formula_sum "Si O2"
_cell_formula_units_Z 40
_cell_length_a 13.820525
_cell_length_b 28.147076
_cell_length_c 5.377064
_cell_angle_alpha 90.000000
_cell_angle_beta 56.590217
_cell_angle_gamma 90.000000
_cell_volume 1746.069265
_symmetry_space_group_name_H-M "C 2/M"
_symmetry_group_IT_number 12
_symmetry_cell_setting 'monoclinic'
loop_
_space_group_symop_operation_xyz
x,y,z
-x,y,-z
-x,-y,-z
x,-y,z
1/2+x,1/2+y,z
1/2-x,1/2+y,-z
1/2-x,1/2-y,-z
1/2+x,1/2-y,z
loop_
_atom_site_type_symbol
_atom_site_label
_atom_site_fract_x
_atom_site_fract_y
_atom_site_fract_z
Si Si1 0.103922 0.146557 0.049538
Si Si2 0.723341 0.554279 0.945087
Si Si3 0.347275 0.730077 0.678497
Si Si4 0.178326 0.321342 0.535779
Si Si5 0.370238 0.076678 0.232513
O O1 0.086394 0.192219 0.247102
O O2 0.117087 0.091917 0.111144
O O3 0.238657 0.155235 0.786504
O O4 0.000000 0.148747 0.000000
O O5 0.682853 0.500000 0.006176
O O6 0.802731 0.559722 0.579332
O O7 0.798008 0.564449 0.087914
O O8 0.275578 0.701001 0.576478
O O9 0.395559 0.777279 0.469185
O O10 0.250000 0.750000 0.000000
O O11 0.120259 0.365937 0.748390
O O12 0.500000 0.058099 0.000000
#
# Coordination Sequence:
#
# PCOD9209588 Si02
#       5
#     8   8   8   8   8
#     4  10  21  38  63  89 129 178 217 266 327 388
#     4  11  24  43  66  97 132 169 223 286 335 389
#     4   9  17  36  61  83 125 165 212 265 317 384
#     4   9  19  37  61  87 126 164 211 270 320 386
#     4  11  23  42  68  96 131 172 216 275 340 400
#
# _framework density 22.908598999999999
#
# number of rings (size 3 to 8) (size 9 to 14) (size 15 to 20)
#    0.000    2.000    2.000    1.200    0.000    3.600 
#    0.000   11.000    4.400    3.600    0.000    0.000 
#    0.000    0.000    0.000    0.000    0.000    0.000 
#
# Total GULP energy -111377.054778 kJ/mol
# GULP energy per Si atom -5568.852739 kJ/mol
# Density = 2.285646 g / cm^3
# Si number density = 22.908599 Si / 1000 Ang^3
#
#
#
# Elastic Constant Matrix: (Units=GPa)
#
#
# Indices 1 2 3 4 5 6 
#
# 1 129.4381 63.6060 8.4717 0.0000 25.3103 0.0000
# 2 63.6060 216.6877 14.6362 0.0000 16.3392 0.0000
# 3 8.4717 14.6362 57.5279 0.0000 10.9680 0.0000
# 4 0.0000 0.0000 0.0000 17.4756 0.0000 20.6859
# 5 25.3103 16.3392 10.9680 0.0000 36.5273 0.0000
# 6 0.0000 0.0000 0.0000 20.6859 0.0000 -8.7185
#
#
#
# Elastic Compliance Matrix: (Units=1/GPa)
#
#
# Indices 1 2 3 4 5 6 
#
# 1 0.010122 -0.002541 0.000293 0.000000 -0.005965 0.000000
# 2 -0.002541 0.005454 -0.000938 0.000000 -0.000397 0.000000
# 3 0.000293 -0.000938 0.018602 0.000000 -0.005369 0.000000
# 4 0.000000 0.000000 0.000000 0.015025 0.000000 0.035649
# 5 -0.005965 -0.000397 -0.005369 0.000000 0.033300 0.000000
# 6 0.000000 0.000000 0.000000 0.035649 0.000000 -0.030116
#
#
# Mechanical properties :
#
#
# Convention : Reuss Voigt Hill
#
# Bulk Modulus (GPa) = 35.96280 64.12016 50.04148
# Shear Modulus (GPa) = 73.50144 30.18622 51.84383
#
# Velocity S-wave (km/s) = 5.67048 3.63393 4.76234
# Velocity P-wave (km/s) = 7.65538 6.75704 7.22019
#
# Compressibility (1/GPa) = 0.02780651
#
# Stress axis : x y z
#
# Youngs Moduli (GPa) = 98.79910 183.34679 53.75785
#
# Poissons Ratio (x) = 0.46590 -0.01576
# Poissons Ratio (y) = 0.25106 0.05041
# Poissons Ratio (z) = -0.02897 0.17192
#
# Static dielectric constant tensor:
#      x y z
#    x 0.438570 0.000000 -1.541220 
#    y 0.000000 1.850070 0.000000 
#    z -1.541220 0.000000 0.125600 
# 
# From -- ./inp_files/12027.got.cif
#   From: 2010.05.17/outbox.cif.g08.bks.cpg/sg12_7_cif.got.tgz:12027.got - 2010.06.03 13:09:07.
