data_PCOD9209847
_publ_section_title
;
Structure prediction by ZEFSAII (Michael W. Deem and Ramdas Pophale) SiO2 
 PCOD9209847
Probable space group: C 2/M
;
_chemical_formula_sum "Si O2"
_cell_formula_units_Z 56
_cell_length_a 16.622950
_cell_length_b 20.090629
_cell_length_c 14.018607
_cell_angle_alpha 90.000000
_cell_angle_beta 29.611489
_cell_angle_gamma 90.000000
_cell_volume 2313.319366
_symmetry_space_group_name_H-M "C 2/M"
_symmetry_group_IT_number 12
_symmetry_cell_setting 'monoclinic'
loop_
_space_group_symop_operation_xyz
x,y,z
-x,y,-z
-x,-y,-z
x,-y,z
1/2+x,1/2+y,z
1/2-x,1/2+y,-z
1/2-x,1/2-y,-z
1/2+x,1/2-y,z
loop_
_atom_site_type_symbol
_atom_site_label
_atom_site_fract_x
_atom_site_fract_y
_atom_site_fract_z
Si Si1 0.425328 0.092796 0.176149
Si Si2 0.941136 0.432169 0.363320
Si Si3 0.380849 0.313752 0.874010
Si Si4 0.151838 0.330064 0.413294
Si Si5 0.734648 0.425164 0.856373
Si Si6 0.965852 0.076627 0.422515
Si Si7 0.585039 0.753694 0.816530
O O1 0.507464 0.067562 0.188293
O O2 0.231298 0.081074 0.386412
O O3 0.459415 0.170541 0.143096
O O4 0.500000 0.068299 0.000000
O O5 0.839073 0.500000 0.479063
O O6 0.865974 0.361573 0.463854
O O7 0.079111 0.434654 0.301272
O O8 0.441140 0.360842 0.724108
O O9 0.530805 0.281392 0.776161
O O10 0.250000 0.250000 0.000000
O O11 0.322246 0.370475 0.008778
O O12 0.260628 0.386899 0.248885
O O13 0.228923 0.258842 0.350382
O O14 0.000000 0.321222 0.500000
O O15 0.662114 0.500000 0.929943
O O16 0.000000 0.080254 0.500000
O O17 0.013571 0.000000 0.341467
O O18 0.500000 0.725510 0.000000
#
# Coordination Sequence:
#
# PCOD9209847 Si02
#       7
#     8   8   8   8   8   8   8
#     4  11  26  45  69  98 138 192 250 312 373 434
#     4  10  21  38  65  96 129 170 231 298 356 433
#     4  12  26  45  74 106 147 195 248 303 373 440
#     4  10  21  40  68  99 137 178 224 290 372 443
#     4  10  21  39  66 101 138 183 231 289 367 446
#     4  11  28  49  73 108 149 195 250 313 374 443
#     4  11  24  43  65 101 140 178 237 296 359 445
#
# _framework density 24.207639
#
# number of rings (size 3 to 8) (size 9 to 14) (size 15 to 20)
#    0.000    1.286    1.429    3.000    6.000    8.000 
#    0.000    2.857    0.000    0.000    0.000    0.000 
#    0.000    0.000    0.000    0.000    0.000    0.000 
#
# Total GULP energy -156016.614912 kJ/mol
# GULP energy per Si atom -5572.021961 kJ/mol
# Density = 2.415254 g / cm^3
# Si number density = 24.207639 Si / 1000 Ang^3
#
#
#
# Elastic Constant Matrix: (Units=GPa)
#
#
# Indices 1 2 3 4 5 6 
#
# 1 91.1200 32.9962 19.6016 0.0019 18.1648 0.0032
# 2 32.9962 126.2496 36.9125 0.0062 4.1099 0.0053
# 3 19.6016 36.9125 57.4044 -0.0067 19.3374 0.0105
# 4 0.0019 0.0062 -0.0067 29.6990 0.0026 15.1323
# 5 18.1648 4.1099 19.3374 0.0026 40.3903 -0.0056
# 6 0.0032 0.0053 0.0105 15.1323 -0.0056 29.6018
#
#
#
# Elastic Compliance Matrix: (Units=1/GPa)
#
#
# Indices 1 2 3 4 5 6 
#
# 1 0.013314 -0.003079 -0.000781 0.000001 -0.005301 -0.000002
# 2 -0.003079 0.010665 -0.007044 -0.000006 0.003672 0.000005
# 3 -0.000781 -0.007044 0.026059 0.000018 -0.011408 -0.000019
# 4 0.000001 -0.000006 0.000018 0.045530 -0.000015 -0.023275
# 5 -0.005301 0.003672 -0.011408 -0.000015 0.032231 0.000018
# 6 -0.000002 0.000005 -0.000019 -0.023275 0.000018 0.045680
#
#
# Mechanical properties :
#
#
# Convention : Reuss Voigt Hill
#
# Bulk Modulus (GPa) = 35.42101 50.42163 42.92132
# Shear Modulus (GPa) = 24.42638 32.28913 28.35775
#
# Velocity S-wave (km/s) = 3.17998 3.65614 3.42634
# Velocity P-wave (km/s) = 5.30537 6.22071 5.78118
#
# Compressibility (1/GPa) = 0.02823184
#
# Stress axis : x y z
#
# Youngs Moduli (GPa) = 75.10824 93.76156 38.37422
#
# Poissons Ratio (x) = 0.28868 0.02997
# Poissons Ratio (y) = 0.23125 0.27029
# Poissons Ratio (z) = 0.05866 0.66042
#
# Static dielectric constant tensor:
#      x y z
#    x 1.885460 0.000010 -0.027410 
#    y 0.000010 2.565120 0.000030 
#    z -0.027410 0.000030 2.102600 
# 
# From -- ./inp_files/227600.got.cif
#   From: 2010.05.17/outbox.cif.g08.bks.cpg/sg12_114_cif.got.tgz:227600.got - 2010.06.03 13:09:07.
