data_PCOD9209570
_publ_section_title
;
Structure prediction by ZEFSAII (Michael W. Deem and Ramdas Pophale) SiO2 
 PCOD9209570
Probable space group: C 2/M
;
_chemical_formula_sum "Si O2"
_cell_formula_units_Z 60
_cell_length_a 9.187534
_cell_length_b 20.724266
_cell_length_c 23.574744
_cell_angle_alpha 90.000000
_cell_angle_beta 136.842547
_cell_angle_gamma 90.000000
_cell_volume 3070.327888
_symmetry_space_group_name_H-M "C 2/M"
_symmetry_group_IT_number 12
_symmetry_cell_setting 'monoclinic'
loop_
_space_group_symop_operation_xyz
x,y,z
-x,y,-z
-x,-y,-z
x,-y,z
1/2+x,1/2+y,z
1/2-x,1/2+y,-z
1/2-x,1/2-y,-z
1/2+x,1/2-y,z
loop_
_atom_site_type_symbol
_atom_site_label
_atom_site_fract_x
_atom_site_fract_y
_atom_site_fract_z
Si Si1 0.819718 0.000000 0.767473
Si Si2 0.039795 0.890913 0.751227
Si Si3 0.242095 0.716058 0.709157
Si Si4 0.438923 0.300284 0.547870
Si Si5 0.562834 0.177987 0.078527
Si Si6 0.366143 0.792716 0.132084
Si Si7 0.541359 0.882541 0.737650
Si Si8 0.934736 0.073949 0.372254
O O1 0.944320 0.944013 0.765696
O O2 0.686705 0.942990 0.763209
O O3 0.872778 0.831313 0.704763
O O4 0.069310 0.917599 0.696678
O O5 0.259929 0.864122 0.838982
O O6 0.418847 0.750150 0.798515
O O7 0.122512 0.770573 0.639933
O O8 0.084952 0.673444 0.703221
O O9 0.500000 0.302278 0.500000
O O10 0.250000 0.250000 0.500000
O O11 0.400004 0.373416 0.556886
O O12 0.369761 0.186291 0.067662
O O13 0.674082 0.246238 0.094885
O O14 0.500000 0.148824 0.000000
O O15 0.391230 0.851281 0.183110
O O16 0.297118 0.905601 0.670126
O O17 0.982651 0.000000 0.400665
#
# Coordination Sequence:
#
# PCOD9209570 Si02
#       8
#     4   8   8   8   8   8   8   8
#     4  10  22  38  59  91 118 154 210 264 304 348
#     4  10  21  39  65  89 117 161 215 259 298 374
#     4  10  21  38  63  88 122 160 210 259 309 361
#     4  12  25  40  62  93 129 164 202 257 320 379
#     4  11  22  36  58  95 130 160 198 261 328 370
#     4  11  20  36  61  91 123 158 210 259 310 373
#     4  11  20  36  63  94 118 157 211 267 297 360
#     4  12  23  40  67  91 123 165 214 257 305 370
#
# _framework density 19.541886000000002
#
# number of rings (size 3 to 8) (size 9 to 14) (size 15 to 20)
#    0.000    1.067    5.333    2.000    1.867    0.267 
#    0.000    0.333    1.467    2.000    0.000    0.000 
#    0.000    0.000    0.000    0.000    0.000    0.000 
#
# Total GULP energy -167162.120983 kJ/mol
# GULP energy per Si atom -5572.070699 kJ/mol
# Density = 1.949741 g / cm^3
# Si number density = 19.541886 Si / 1000 Ang^3
#
#
#
# Elastic Constant Matrix: (Units=GPa)
#
#
# Indices 1 2 3 4 5 6 
#
# 1 101.7577 44.9153 15.5713 0.0001 -21.4436 0.0001
# 2 44.9153 149.1773 21.7330 0.0001 -8.0326 0.0000
# 3 15.5713 21.7330 42.3107 0.0000 -12.4256 0.0001
# 4 0.0001 0.0001 0.0000 14.1764 0.0000 -2.4728
# 5 -21.4436 -8.0326 -12.4256 0.0000 27.1579 0.0000
# 6 0.0001 0.0000 0.0001 -2.4728 0.0000 32.2913
#
#
#
# Elastic Compliance Matrix: (Units=1/GPa)
#
#
# Indices 1 2 3 4 5 6 
#
# 1 0.013394 -0.003471 -0.000395 0.000000 0.009368 0.000000
# 2 -0.003471 0.008151 -0.003473 0.000000 -0.001919 0.000000
# 3 -0.000395 -0.003473 0.029078 0.000000 0.011965 0.000000
# 4 0.000000 0.000000 0.000000 0.071495 0.000000 0.005475
# 5 0.009368 -0.001919 0.011965 0.000000 0.049125 0.000000
# 6 0.000000 0.000000 0.000000 0.005475 0.000000 0.031387
#
#
# Mechanical properties :
#
#
# Convention : Reuss Voigt Hill
#
# Bulk Modulus (GPa) = 27.82040 50.85389 39.33714
# Shear Modulus (GPa) = 21.80648 28.79354 25.30001
#
# Velocity S-wave (km/s) = 3.34411 3.84269 3.60204
# Velocity P-wave (km/s) = 5.40166 6.76519 6.12151
#
# Compressibility (1/GPa) = 0.03594484
#
# Stress axis : x y z
#
# Youngs Moduli (GPa) = 74.66088 122.68331 34.39055
#
# Poissons Ratio (x) = 0.42580 0.01359
# Poissons Ratio (y) = 0.25913 0.11944
# Poissons Ratio (z) = 0.02951 0.42607
#
# Static dielectric constant tensor:
#      x y z
#    x 1.705470 0.000000 0.006930 
#    y 0.000000 1.684680 0.000000 
#    z 0.006930 0.000000 1.698430 
# 
# From -- ./inp_files/301939.got.cif
#   From: 2010.05.17/outbox.cif.g08.bks.cpg/sg12_151_cif.got.tgz:301939.got - 2010.06.03 13:09:07.
