data_PCOD9209126
_publ_section_title
;
Structure prediction by ZEFSAII (Michael W. Deem and Ramdas Pophale) SiO2 
 PCOD9209126
Probable space group: C 2/M
;
_chemical_formula_sum "Si O2"
_cell_formula_units_Z 52
_cell_length_a 16.871456
_cell_length_b 16.139016
_cell_length_c 16.338949
_cell_angle_alpha 90.000000
_cell_angle_beta 141.589693
_cell_angle_gamma 90.000000
_cell_volume 2764.058449
_symmetry_space_group_name_H-M "C 2/M"
_symmetry_group_IT_number 12
_symmetry_cell_setting 'monoclinic'
loop_
_space_group_symop_operation_xyz
x,y,z
-x,y,-z
-x,-y,-z
x,-y,z
1/2+x,1/2+y,z
1/2-x,1/2+y,-z
1/2-x,1/2-y,-z
1/2+x,1/2-y,z
loop_
_atom_site_type_symbol
_atom_site_label
_atom_site_fract_x
_atom_site_fract_y
_atom_site_fract_z
Si Si1 0.901125 0.827639 0.073316
Si Si2 0.809580 0.404137 0.763438
Si Si3 0.587303 0.597794 0.349613
Si Si4 0.500000 0.774491 0.000000
Si Si5 0.861669 0.597589 0.611983
Si Si6 0.629896 0.812970 0.813809
Si Si7 0.427159 0.313904 0.362462
O O1 0.884803 0.752807 0.124759
O O2 0.002101 0.886590 0.200176
O O3 0.759355 0.862613 0.939544
O O4 0.952415 0.784816 0.033515
O O5 0.841531 0.500000 0.807826
O O6 0.829073 0.391859 0.682044
O O7 0.667452 0.383444 0.678617
O O8 0.895599 0.337447 0.879364
O O9 0.590264 0.500000 0.370901
O O10 0.734401 0.627140 0.461504
O O11 0.521005 0.645622 0.371323
O O12 0.876499 0.500000 0.608552
O O13 0.995666 0.640023 0.700294
O O14 0.646069 0.758636 0.744969
O O15 0.500000 0.279279 0.500000
#
# Coordination Sequence:
#
# PCOD9209126 Si02
#       7
#     8   8   8   4   8   8   8
#     4  10  22  37  59  81 118 157 198 244 286 347
#     4  11  22  35  57  91 123 152 188 238 301 354
#     4  10  22  38  59  87 118 155 197 244 293 348
#     4  12  21  40  57  86 118 156 196 244 287 346
#     4  10  21  38  61  87 120 155 195 243 296 355
#     4  10  21  39  55  85 120 156 198 237 291 353
#     4  11  21  35  59  89 120 152 191 240 296 356
#
# _framework density 18.812915
#
# number of rings (size 3 to 8) (size 9 to 14) (size 15 to 20)
#    0.000    1.538    4.615    0.692    0.000    4.923 
#    0.000    0.385    0.000    0.462    0.000    0.000 
#    0.000    0.000    0.000    0.000    0.000    0.000 
#
# Total GULP energy -145001.011922 kJ/mol
# GULP energy per Si atom -5576.961997 kJ/mol
# Density = 1.877010 g / cm^3
# Si number density = 18.812915 Si / 1000 Ang^3
#
#
#
# Elastic Constant Matrix: (Units=GPa)
#
#
# Indices 1 2 3 4 5 6 
#
# 1 69.8171 24.6417 50.1607 0.0000 8.2644 0.0000
# 2 24.6417 34.4315 27.9542 0.0000 9.8530 0.0000
# 3 50.1607 27.9542 124.4799 0.0000 20.6303 0.0000
# 4 0.0000 0.0000 0.0000 74.2525 0.0000 0.4940
# 5 8.2644 9.8530 20.6303 0.0000 37.8798 0.0000
# 6 0.0000 0.0000 0.0000 0.4940 0.0000 -1.9584
#
#
#
# Elastic Compliance Matrix: (Units=1/GPa)
#
#
# Indices 1 2 3 4 5 6 
#
# 1 0.023225 -0.011360 -0.007098 0.000000 0.001754 0.000000
# 2 -0.011360 0.042102 -0.003817 0.000000 -0.006394 0.000000
# 3 -0.007098 -0.003817 0.012454 0.000000 -0.004241 0.000000
# 4 0.000000 0.000000 0.000000 0.013445 0.000000 0.003392
# 5 0.001754 -0.006394 -0.004241 0.000000 0.029990 0.000000
# 6 0.000000 0.000000 0.000000 0.003392 0.000000 -0.509773
#
#
# Mechanical properties :
#
#
# Convention : Reuss Voigt Hill
#
# Bulk Modulus (GPa) = 30.09406 48.24905 39.17155
# Shear Modulus (GPa) = -15.01823 30.43293 7.70735
#
# Velocity S-wave (km/s) = -2.82847 4.02638 2.02626
# Velocity P-wave (km/s) = 2.31607 6.87881 5.13236
#
# Compressibility (1/GPa) = 0.03322915
#
# Stress axis : x y z
#
# Youngs Moduli (GPa) = 43.05719 23.75166 80.29620
#
# Poissons Ratio (x) = 0.26983 0.56996
# Poissons Ratio (y) = 0.48915 0.30652
# Poissons Ratio (z) = 0.30563 0.09067
#
# Static dielectric constant tensor:
#      x y z
#    x 1.639020 0.000000 0.041540 
#    y 0.000000 1.622140 0.000000 
#    z 0.041540 0.000000 1.710900 
# 
# From -- ./inp_files/225801.got.cif
#   From: 2010.05.17/outbox.cif.g08.bks.cpg/sg12_113_cif.got.tgz:225801.got - 2010.06.03 13:09:07.
