data_PCOD9209070
_publ_section_title
;
Structure prediction by ZEFSAII (Michael W. Deem and Ramdas Pophale) SiO2 
 PCOD9209070
Probable space group: C 2/M
;
_chemical_formula_sum "Si O2"
_cell_formula_units_Z 40
_cell_length_a 31.003770
_cell_length_b 9.768549
_cell_length_c 7.002707
_cell_angle_alpha 90.000000
_cell_angle_beta 71.425364
_cell_angle_gamma 90.000000
_cell_volume 2010.376524
_symmetry_space_group_name_H-M "C 2/M"
_symmetry_group_IT_number 12
_symmetry_cell_setting 'monoclinic'
loop_
_space_group_symop_operation_xyz
x,y,z
-x,y,-z
-x,-y,-z
x,-y,z
1/2+x,1/2+y,z
1/2-x,1/2+y,-z
1/2-x,1/2-y,-z
1/2+x,1/2-y,z
loop_
_atom_site_type_symbol
_atom_site_label
_atom_site_fract_x
_atom_site_fract_y
_atom_site_fract_z
Si Si1 0.919487 0.500000 0.409857
Si Si2 0.890350 0.000000 0.819969
Si Si3 0.048501 0.264711 0.349019
Si Si4 0.186926 0.000000 0.790393
Si Si5 0.153921 0.500000 0.789306
Si Si6 0.769618 0.722087 0.263256
Si Si7 0.198672 0.000000 0.313145
Si Si8 0.055070 0.500000 0.048731
O O1 0.929255 0.366906 0.524392
O O2 0.869023 0.500000 0.388743
O O3 0.950633 0.500000 0.172573
O O4 0.920211 0.136228 0.747241
O O5 0.848615 0.000000 0.729338
O O6 0.864480 0.000000 0.060022
O O7 0.039919 0.363684 0.179280
O O8 0.000000 0.218359 0.500000
O O9 0.213463 0.867972 0.830154
O O10 0.189259 0.000000 0.556110
O O11 0.185699 0.629145 0.779176
O O12 0.110464 0.500000 0.988190
O O13 0.750000 0.750000 0.500000
O O14 0.730015 0.632415 0.224638
#
# Coordination Sequence:
#
# PCOD9209070 Si02
#       8
#     4   4   8   4   4   8   4   4
#     4   9  22  39  70  89 112 159 205 253 297 365
#     4  12  26  39  60  91 124 173 196 242 308 379
#     4  11  24  42  61  91 124 155 202 258 311 362
#     4  10  21  38  61  85 125 162 201 248 298 349
#     4   9  18  34  61  89 114 153 197 239 300 345
#     4   9  18  35  59  86 120 160 191 249 289 342
#     4   9  22  39  59  83 124 161 212 240 293 356
#     4   9  20  41  68  91 115 154 206 258 302 356
#
# _framework density 19.89677
#
# number of rings (size 3 to 8) (size 9 to 14) (size 15 to 20)
#    0.600    1.600    0.000    3.300    5.600    2.400 
#    0.000    0.000    0.000    3.600    0.000    0.000 
#    0.000    0.000    0.000    0.000    0.000    0.000 
#
# Total GULP energy -111558.349633 kJ/mol
# GULP energy per Si atom -5577.917482 kJ/mol
# Density = 1.985148 g / cm^3
# Si number density = 19.896770 Si / 1000 Ang^3
#
#
#
# Elastic Constant Matrix: (Units=GPa)
#
#
# Indices 1 2 3 4 5 6 
#
# 1 100.3337 62.0075 35.4133 0.0000 -11.9024 0.0000
# 2 62.0075 177.7347 42.2058 0.0000 -17.4329 0.0000
# 3 35.4133 42.2058 93.9370 0.0000 -12.5300 0.0000
# 4 0.0000 0.0000 0.0000 33.1779 0.0000 -2.5008
# 5 -11.9024 -17.4329 -12.5300 0.0000 46.6048 0.0000
# 6 0.0000 0.0000 0.0000 -2.5008 0.0000 22.2685
#
#
#
# Elastic Compliance Matrix: (Units=1/GPa)
#
#
# Indices 1 2 3 4 5 6 
#
# 1 0.013646 -0.003876 -0.003248 0.000000 0.001162 0.000000
# 2 -0.003876 0.007524 -0.001739 0.000000 0.001357 0.000000
# 3 -0.003248 -0.001739 0.012917 0.000000 0.001993 0.000000
# 4 0.000000 0.000000 0.000000 0.030398 0.000000 0.003414
# 5 0.001162 0.001357 0.001993 0.000000 0.022797 0.000000
# 6 0.000000 0.000000 0.000000 0.003414 0.000000 0.045290
#
#
# Mechanical properties :
#
#
# Convention : Reuss Voigt Hill
#
# Bulk Modulus (GPa) = 61.11391 72.36209 66.73800
# Shear Modulus (GPa) = 32.10239 35.90217 34.00228
#
# Velocity S-wave (km/s) = 4.02113 4.25246 4.13841
# Velocity P-wave (km/s) = 7.23474 7.78196 7.51334
#
# Compressibility (1/GPa) = 0.01636289
#
# Stress axis : x y z
#
# Youngs Moduli (GPa) = 73.28051 132.90015 77.41760
#
# Poissons Ratio (x) = 0.51506 0.25147
# Poissons Ratio (y) = 0.28400 0.13460
# Poissons Ratio (z) = 0.23803 0.23107
#
# Static dielectric constant tensor:
#      x y z
#    x 1.692770 0.000000 -0.005620 
#    y 0.000000 1.684130 0.000000 
#    z -0.005620 0.000000 1.707460 
# 
# From -- ./inp_files/107824.got.cif
#   From: 2010.05.17/outbox.cif.g08.bks.cpg/sg12_54_cif.got.tgz:107824.got - 2010.06.03 13:09:07.
