data_PCOD9209092
_publ_section_title
;
Structure prediction by ZEFSAII (Michael W. Deem and Ramdas Pophale) SiO2 
 PCOD9209092
Probable space group: C 2/M
;
_chemical_formula_sum "Si O2"
_cell_formula_units_Z 64
_cell_length_a 8.893411
_cell_length_b 22.540521
_cell_length_c 19.985901
_cell_angle_alpha 90.000000
_cell_angle_beta 50.653842
_cell_angle_gamma 90.000000
_cell_volume 3098.280514
_symmetry_space_group_name_H-M "C 2/M"
_symmetry_group_IT_number 12
_symmetry_cell_setting 'monoclinic'
loop_
_space_group_symop_operation_xyz
x,y,z
-x,y,-z
-x,-y,-z
x,-y,z
1/2+x,1/2+y,z
1/2-x,1/2+y,-z
1/2-x,1/2-y,-z
1/2+x,1/2-y,z
loop_
_atom_site_type_symbol
_atom_site_label
_atom_site_fract_x
_atom_site_fract_y
_atom_site_fract_z
Si Si1 0.633302 0.432819 0.020158
Si Si2 0.580537 0.892645 0.672840
Si Si3 0.914404 0.266414 0.707988
Si Si4 0.282589 0.858012 0.092682
Si Si5 0.485172 0.247256 0.830045
Si Si6 0.506702 0.334079 0.422180
Si Si7 0.673256 0.933349 0.504550
Si Si8 0.502747 0.889075 0.154169
O O1 0.567565 0.500000 0.048138
O O2 0.649514 0.401421 0.086491
O O3 0.500000 0.404271 0.000000
O O4 0.848904 0.428982 0.928686
O O5 0.463889 0.834461 0.680322
O O6 0.797259 0.872541 0.632333
O O7 0.594986 0.932719 0.603287
O O8 0.502709 0.911544 0.767848
O O9 0.696508 0.261534 0.800015
O O10 0.969191 0.219877 0.635695
O O11 0.043034 0.249599 0.735671
O O12 0.310916 0.880544 0.161292
O O13 0.179095 0.795079 0.111018
O O14 0.500000 0.855707 0.000000
O O15 0.427301 0.179875 0.862311
O O16 0.500000 0.310084 0.500000
O O17 0.329130 0.379402 0.457732
O O18 0.500000 0.924151 0.500000
O O19 0.755873 0.000000 0.468832
#
# Coordination Sequence:
#
# PCOD9209092 Si02
#       8
#     8   8   8   8   8   8   8   8
#     4  10  24  42  61  86 117 155 203 253 300 351
#     4  10  22  38  61  92 120 163 197 242 300 357
#     4  11  21  37  58  90 129 156 190 245 300 364
#     4  10  22  38  62  89 122 160 203 244 302 358
#     4  11  21  37  59  89 129 155 191 246 301 361
#     4  10  21  38  61  86 122 155 202 236 299 360
#     4  10  24  43  62  87 120 157 206 256 298 349
#     4  10  21  39  60  89 121 157 199 242 297 358
#
# _framework density 20.656618000000002
#
# number of rings (size 3 to 8) (size 9 to 14) (size 15 to 20)
#    0.000    1.750    3.750    0.000    5.250   10.000 
#    0.000    0.000    0.000    0.750    0.000    0.000 
#    0.000    0.000    0.000    0.000    0.000    0.000 
#
# Total GULP energy -178259.776925 kJ/mol
# GULP energy per Si atom -5570.618029 kJ/mol
# Density = 2.060960 g / cm^3
# Si number density = 20.656618 Si / 1000 Ang^3
#
#
#
# Elastic Constant Matrix: (Units=GPa)
#
#
# Indices 1 2 3 4 5 6 
#
# 1 93.6656 34.2961 7.0452 0.0000 21.6379 0.0000
# 2 34.2961 54.9087 11.4365 0.0000 6.4359 0.0000
# 3 7.0452 11.4365 26.4075 0.0000 13.4817 0.0000
# 4 0.0000 0.0000 0.0000 16.7644 0.0000 2.1459
# 5 21.6379 6.4359 13.4817 0.0000 37.9433 0.0000
# 6 0.0000 0.0000 0.0000 2.1459 0.0000 13.1992
#
#
#
# Elastic Compliance Matrix: (Units=1/GPa)
#
#
# Indices 1 2 3 4 5 6 
#
# 1 0.016079 -0.009947 0.004689 0.000000 -0.009148 0.000000
# 2 -0.009947 0.026176 -0.011375 0.000000 0.005274 0.000000
# 3 0.004689 -0.011375 0.051213 0.000000 -0.018941 0.000000
# 4 0.000000 0.000000 0.000000 0.060918 0.000000 -0.009904
# 5 -0.009148 0.005274 -0.018941 0.000000 0.037407 0.000000
# 6 0.000000 0.000000 0.000000 -0.009904 0.000000 0.077372
#
#
# Mechanical properties :
#
#
# Convention : Reuss Voigt Hill
#
# Bulk Modulus (GPa) = 16.61110 31.17081 23.89096
# Shear Modulus (GPa) = 15.50381 21.72832 18.61607
#
# Velocity S-wave (km/s) = 2.74259 3.24679 3.00528
# Velocity P-wave (km/s) = 4.25300 5.40169 4.86140
#
# Compressibility (1/GPa) = 0.06020069
#
# Stress axis : x y z
#
# Youngs Moduli (GPa) = 62.19207 38.20263 19.52618
#
# Poissons Ratio (x) = 0.38002 -0.09155
# Poissons Ratio (y) = 0.61865 0.22211
# Poissons Ratio (z) = -0.29159 0.43456
#
# Static dielectric constant tensor:
#      x y z
#    x 1.760660 0.000000 0.023220 
#    y 0.000000 1.743220 0.000000 
#    z 0.023220 0.000000 1.809310 
# 
# From -- ./inp_files/302317.got.cif
#   From: 2010.05.17/outbox.cif.g08.bks.cpg/sg12_152_cif.got.tgz:302317.got - 2010.06.03 13:09:07.
