data_PCOD9209632
_publ_section_title
;
Structure prediction by ZEFSAII (Michael W. Deem and Ramdas Pophale) SiO2 
 PCOD9209632
Probable space group: C 2/M
;
_chemical_formula_sum "Si O2"
_cell_formula_units_Z 56
_cell_length_a 30.843712
_cell_length_b 8.921574
_cell_length_c 12.115006
_cell_angle_alpha 90.000000
_cell_angle_beta 63.346943
_cell_angle_gamma 90.000000
_cell_volume 2979.494386
_symmetry_space_group_name_H-M "C 2/M"
_symmetry_group_IT_number 12
_symmetry_cell_setting 'monoclinic'
loop_
_space_group_symop_operation_xyz
x,y,z
-x,y,-z
-x,-y,-z
x,-y,z
1/2+x,1/2+y,z
1/2-x,1/2+y,-z
1/2-x,1/2-y,-z
1/2+x,1/2-y,z
loop_
_atom_site_type_symbol
_atom_site_label
_atom_site_fract_x
_atom_site_fract_y
_atom_site_fract_z
Si Si1 0.364681 0.179549 0.568919
Si Si2 0.551188 0.322893 0.378037
Si Si3 0.319378 0.822320 0.002256
Si Si4 0.477585 0.178610 0.818697
Si Si5 0.908382 0.321201 0.284910
Si Si6 0.902126 0.178186 0.058016
Si Si7 0.708455 0.677289 0.195238
O O1 0.407063 0.246204 0.597716
O O2 0.377307 0.218143 0.428299
O O3 0.314907 0.248067 0.670944
O O4 0.364472 0.000000 0.579143
O O5 0.500000 0.304397 0.500000
O O6 0.560965 0.500000 0.355217
O O7 0.545782 0.248018 0.264679
O O8 0.359688 0.741688 0.028742
O O9 0.266092 0.800542 0.116581
O O10 0.329162 0.000000 0.984378
O O11 0.316008 0.753235 0.883935
O O12 0.535023 0.208971 0.753399
O O13 0.470400 0.000000 0.828067
O O14 0.451535 0.250948 0.953556
O O15 0.903762 0.500000 0.270188
O O16 0.894370 0.233232 0.191355
O O17 0.904184 0.000000 0.049505
O O18 0.698799 0.500000 0.205002
#
# Coordination Sequence:
#
# PCOD9209632 Si02
#       7
#     8   8   8   8   8   8   8
#     4  11  22  38  60  86 118 156 195 234 286 348
#     4  11  22  35  55  84 119 152 188 238 287 333
#     4  10  21  40  64  88 117 152 190 235 287 345
#     4  11  22  39  61  83 114 155 199 240 285 344
#     4  10  23  41  59  81 113 156 200 238 280 342
#     4  12  25  39  59  86 116 150 194 244 292 340
#     4  10  21  38  63  93 120 147 186 237 292 344
#
# _framework density 18.795135999999999
#
# number of rings (size 3 to 8) (size 9 to 14) (size 15 to 20)
#    0.000    1.286    1.429    4.714    0.000    6.286 
#    0.000    0.714    0.000    0.000    0.000    0.000 
#    0.000    0.000    0.000    0.000    0.000    0.000 
#
# Total GULP energy -156637.419545 kJ/mol
# GULP energy per Si atom -5594.193555 kJ/mol
# Density = 1.875236 g / cm^3
# Si number density = 18.795136 Si / 1000 Ang^3
#
#
#
# Elastic Constant Matrix: (Units=GPa)
#
#
# Indices 1 2 3 4 5 6 
#
# 1 31.0626 29.5069 37.7352 0.0000 2.5024 0.0000
# 2 29.5069 92.4867 73.9328 0.0000 -2.5766 0.0000
# 3 37.7352 73.9328 148.3387 0.0000 -4.2868 0.0000
# 4 0.0000 0.0000 0.0000 28.6907 0.0000 -3.9550
# 5 2.5024 -2.5766 -4.2868 0.0000 21.3508 0.0000
# 6 0.0000 0.0000 0.0000 -3.9550 0.0000 26.3795
#
#
#
# Elastic Compliance Matrix: (Units=1/GPa)
#
#
# Indices 1 2 3 4 5 6 
#
# 1 0.053281 -0.010319 -0.008678 0.000000 -0.009232 0.000000
# 2 -0.010319 0.019975 -0.007268 0.000000 0.002161 0.000000
# 3 -0.008678 -0.007268 0.012649 0.000000 0.002680 0.000000
# 4 0.000000 0.000000 0.000000 0.035590 0.000000 0.005336
# 5 -0.009232 0.002161 0.002680 0.000000 0.048718 0.000000
# 6 0.000000 0.000000 0.000000 0.005336 0.000000 0.038708
#
#
# Mechanical properties :
#
#
# Convention : Reuss Voigt Hill
#
# Bulk Modulus (GPa) = 29.96279 61.58198 45.77239
# Shear Modulus (GPa) = 18.34361 23.99839 21.17100
#
# Velocity S-wave (km/s) = 3.12745 3.57717 3.35984
# Velocity P-wave (km/s) = 5.38680 7.06381 6.28153
#
# Compressibility (1/GPa) = 0.03337473
#
# Stress axis : x y z
#
# Youngs Moduli (GPa) = 18.76850 50.06314 79.05983
#
# Poissons Ratio (x) = 0.51661 0.68605
# Poissons Ratio (y) = 0.19367 0.57461
# Poissons Ratio (z) = 0.16286 0.36386
#
# Static dielectric constant tensor:
#      x y z
#    x 1.626120 0.000000 -0.025040 
#    y 0.000000 1.621840 0.000000 
#    z -0.025040 0.000000 1.651760 
# 
# From -- ./inp_files/187247.got.cif
#   From: 2010.05.17/outbox.cif.g08.bks.cpg/sg12_94_cif.got.tgz:187247.got - 2010.06.03 13:09:07.
