data_PCOD9209796
_publ_section_title
;
Structure prediction by ZEFSAII (Michael W. Deem and Ramdas Pophale) SiO2 
 PCOD9209796
Probable space group: C 2/M
;
_chemical_formula_sum "Si O2"
_cell_formula_units_Z 48
_cell_length_a 18.842941
_cell_length_b 27.955018
_cell_length_c 9.526324
_cell_angle_alpha 90.000000
_cell_angle_beta 151.514856
_cell_angle_gamma 90.000000
_cell_volume 2393.256542
_symmetry_space_group_name_H-M "C 2/M"
_symmetry_group_IT_number 12
_symmetry_cell_setting 'monoclinic'
loop_
_space_group_symop_operation_xyz
x,y,z
-x,y,-z
-x,-y,-z
x,-y,z
1/2+x,1/2+y,z
1/2-x,1/2+y,-z
1/2-x,1/2-y,-z
1/2+x,1/2-y,z
loop_
_atom_site_type_symbol
_atom_site_label
_atom_site_fract_x
_atom_site_fract_y
_atom_site_fract_z
Si Si1 0.368212 0.206128 0.388716
Si Si2 0.123447 0.599422 0.596200
Si Si3 0.089729 0.945293 0.798437
Si Si4 0.082905 0.111138 0.289993
Si Si5 0.150429 0.446738 0.349062
Si Si6 0.519223 0.700361 0.700629
O O1 0.500000 0.205084 0.500000
O O2 0.379385 0.153049 0.470813
O O3 0.420273 0.252606 0.564511
O O4 0.195839 0.209875 0.037482
O O5 0.118730 0.563933 0.457237
O O6 0.000000 0.592758 0.500000
O O7 0.275648 0.590869 0.945043
O O8 0.000000 0.936743 0.500000
O O9 0.985088 0.934560 0.747975
O O10 0.143148 0.000000 0.890000
O O11 0.247735 0.095142 0.536782
O O12 0.047896 0.156063 0.329081
O O13 0.000000 0.119736 0.000000
O O14 0.219412 0.500000 0.458584
O O15 0.000000 0.447353 0.000000
O O16 0.500000 0.691283 0.500000
#
# Coordination Sequence:
#
# PCOD9209796 Si02
#       6
#     8   8   8   8   8   8
#     4  10  21  38  64  98 131 169 220 274 335 386
#     4  11  24  43  67  95 135 170 219 273 330 398
#     4  11  24  41  67  99 128 170 224 275 326 384
#     4  12  24  43  66  93 133 178 219 271 333 398
#     4  11  26  44  64  94 131 177 220 266 336 403
#     4  11  22  40  66  97 129 172 223 277 325 393
#
# _framework density 20.056353999999999
#
# number of rings (size 3 to 8) (size 9 to 14) (size 15 to 20)
#    0.000    1.000    3.333    3.500    2.333    4.667 
#    0.000    4.167    0.000    0.000    0.000    0.000 
#    0.000    0.000    0.000    0.000    0.000    0.000 
#
# Total GULP energy -133896.463379 kJ/mol
# GULP energy per Si atom -5579.019307 kJ/mol
# Density = 2.001070 g / cm^3
# Si number density = 20.056354 Si / 1000 Ang^3
#
#
#
# Elastic Constant Matrix: (Units=GPa)
#
#
# Indices 1 2 3 4 5 6 
#
# 1 96.5717 39.9176 47.7959 0.0000 8.3990 0.0000
# 2 39.9176 128.6915 42.9896 0.0000 4.8157 0.0000
# 3 47.7959 42.9896 94.6082 0.0000 11.9559 0.0000
# 4 0.0000 0.0000 0.0000 45.0905 0.0000 -4.7855
# 5 8.3990 4.8157 11.9559 0.0000 28.0746 0.0000
# 6 0.0000 0.0000 0.0000 -4.7855 0.0000 40.5307
#
#
#
# Elastic Compliance Matrix: (Units=1/GPa)
#
#
# Indices 1 2 3 4 5 6 
#
# 1 0.014459 -0.002418 -0.006036 0.000000 -0.001340 0.000000
# 2 -0.002418 0.009567 -0.003181 0.000000 0.000437 0.000000
# 3 -0.006036 -0.003181 0.015607 0.000000 -0.004295 0.000000
# 4 0.000000 0.000000 0.000000 0.022459 0.000000 0.002652
# 5 -0.001340 0.000437 -0.004295 0.000000 0.037775 0.000000
# 6 0.000000 0.000000 0.000000 0.002652 0.000000 0.024986
#
#
# Mechanical properties :
#
#
# Convention : Reuss Voigt Hill
#
# Bulk Modulus (GPa) = 61.11498 64.58640 62.85069
# Shear Modulus (GPa) = 32.55702 35.35037 33.95370
#
# Velocity S-wave (km/s) = 4.03336 4.20283 4.11897
# Velocity P-wave (km/s) = 7.22693 7.47155 7.35026
#
# Compressibility (1/GPa) = 0.01636260
#
# Stress axis : x y z
#
# Youngs Moduli (GPa) = 69.16280 104.52876 64.07180
#
# Poissons Ratio (x) = 0.25277 0.38676
# Poissons Ratio (y) = 0.16725 0.20379
# Poissons Ratio (z) = 0.41749 0.33247
#
# Static dielectric constant tensor:
#      x y z
#    x 1.713520 0.000000 0.035130 
#    y 0.000000 1.750030 0.000000 
#    z 0.035130 0.000000 1.710820 
# 
# From -- ./inp_files/80806.got.cif
#   From: 2010.05.17/outbox.cif.g08.bks.cpg/sg12_41_cif.got.tgz:80806.got - 2010.06.03 13:09:07.
