data_PCOD9209477
_publ_section_title
;
Structure prediction by ZEFSAII (Michael W. Deem and Ramdas Pophale) SiO2 
 PCOD9209477
Probable space group: C 2/M
;
_chemical_formula_sum "Si O2"
_cell_formula_units_Z 64
_cell_length_a 28.647524
_cell_length_b 14.513841
_cell_length_c 9.186789
_cell_angle_alpha 90.000000
_cell_angle_beta 61.269787
_cell_angle_gamma 90.000000
_cell_volume 3349.497862
_symmetry_space_group_name_H-M "C 2/M"
_symmetry_group_IT_number 12
_symmetry_cell_setting 'monoclinic'
loop_
_space_group_symop_operation_xyz
x,y,z
-x,y,-z
-x,-y,-z
x,-y,z
1/2+x,1/2+y,z
1/2-x,1/2+y,-z
1/2-x,1/2-y,-z
1/2+x,1/2-y,z
loop_
_atom_site_type_symbol
_atom_site_label
_atom_site_fract_x
_atom_site_fract_y
_atom_site_fract_z
Si Si1 0.549555 0.892337 0.639082
Si Si2 0.624386 0.742768 0.054567
Si Si3 0.008561 0.791120 0.315376
Si Si4 0.777752 0.338760 0.527191
Si Si5 0.858098 0.720220 0.647588
Si Si6 0.879142 0.605011 0.183774
Si Si7 0.167152 0.899623 0.777019
Si Si8 0.903619 0.110094 0.401315
O O1 0.503076 0.817648 0.693298
O O2 0.594903 0.852053 0.463157
O O3 0.575494 0.883645 0.760829
O O4 0.537252 0.000000 0.631066
O O5 0.568529 0.693024 0.175871
O O6 0.648459 0.775353 0.170869
O O7 0.614178 0.825837 0.958556
O O8 0.661949 0.673573 0.911739
O O9 0.964016 0.852150 0.301148
O O10 0.000000 0.809074 0.500000
O O11 0.750000 0.250000 0.500000
O O12 0.807493 0.311536 0.631224
O O13 0.823425 0.375877 0.351212
O O14 0.727550 0.402731 0.631549
O O15 0.876648 0.820627 0.558833
O O16 0.880276 0.500000 0.131590
O O17 0.128684 0.873593 0.699861
O O18 0.150126 0.000000 0.854090
O O19 0.901712 0.000000 0.436222
#
# Coordination Sequence:
#
# PCOD9209477 Si02
#       8
#     8   8   8   8   8   8   8   8
#     4   9  19  38  61  85 116 159 206 242 286 358
#     4  12  23  39  59  89 129 153 195 254 299 354
#     4  11  22  39  58  88 120 166 200 241 306 357
#     4  11  19  41  70  84 114 160 199 239 294 364
#     4  10  21  38  62  92 120 158 197 243 302 352
#     4  10  22  39  61  90 120 155 197 246 298 356
#     4  11  24  41  64  91 119 157 202 251 300 354
#     4  10  21  40  62  87 118 160 211 247 289 357
#
# _framework density 19.107341999999999
#
# number of rings (size 3 to 8) (size 9 to 14) (size 15 to 20)
#    0.000    1.500    5.000    1.875    0.000    5.500 
#    0.000    2.500    0.000    0.000    0.000    0.000 
#    0.000    0.000    0.000    0.000    0.000    0.000 
#
# Total GULP energy -178629.342726 kJ/mol
# GULP energy per Si atom -5582.166960 kJ/mol
# Density = 1.906385 g / cm^3
# Si number density = 19.107342 Si / 1000 Ang^3
#
#
#
# Elastic Constant Matrix: (Units=GPa)
#
#
# Indices 1 2 3 4 5 6 
#
# 1 77.3895 -2.9496 18.3086 0.0000 -1.5724 0.0000
# 2 -2.9496 73.0193 17.8167 0.0000 13.7605 0.0000
# 3 18.3086 17.8167 80.9874 0.0000 15.0584 0.0000
# 4 0.0000 0.0000 0.0000 2.0599 0.0000 -0.0911
# 5 -1.5724 13.7605 15.0584 0.0000 27.8270 0.0000
# 6 0.0000 0.0000 0.0000 -0.0911 0.0000 11.9863
#
#
#
# Elastic Compliance Matrix: (Units=1/GPa)
#
#
# Indices 1 2 3 4 5 6 
#
# 1 0.013910 0.001053 -0.003809 0.000000 0.002327 0.000000
# 2 0.001053 0.015527 -0.002487 0.000000 -0.006272 0.000000
# 3 -0.003809 -0.002487 0.015085 0.000000 -0.007148 0.000000
# 4 0.000000 0.000000 0.000000 0.485618 0.000000 0.003693
# 5 0.002327 -0.006272 -0.007148 0.000000 0.043038 0.000000
# 6 0.000000 0.000000 0.000000 0.003693 0.000000 0.083457
#
#
# Mechanical properties :
#
#
# Convention : Reuss Voigt Hill
#
# Bulk Modulus (GPa) = 29.38183 33.08305 31.23244
# Shear Modulus (GPa) = 7.36957 21.58934 14.47946
#
# Velocity S-wave (km/s) = 1.96604 3.36504 2.75579
# Velocity P-wave (km/s) = 4.53479 5.69648 5.14851
#
# Compressibility (1/GPa) = 0.03403464
#
# Stress axis : x y z
#
# Youngs Moduli (GPa) = 71.89007 64.40600 66.29105
#
# Poissons Ratio (x) = -0.06781 0.25249
# Poissons Ratio (y) = -0.07569 0.16490
# Poissons Ratio (z) = 0.27382 0.16021
#
# Static dielectric constant tensor:
#      x y z
#    x 1.672430 0.000000 -0.011650 
#    y 0.000000 1.577680 0.000000 
#    z -0.011650 0.000000 1.654090 
# 
# From -- ./inp_files/111613.got.cif
#   From: 2010.05.17/outbox.cif.g08.bks.cpg/sg12_56_cif.got.tgz:111613.got - 2010.06.03 13:09:07.
