data_PCOD9209506
_publ_section_title
;
Structure prediction by ZEFSAII (Michael W. Deem and Ramdas Pophale) SiO2 
 PCOD9209506
Probable space group: C 2/M
;
_chemical_formula_sum "Si O2"
_cell_formula_units_Z 64
_cell_length_a 8.953593
_cell_length_b 27.229978
_cell_length_c 18.727250
_cell_angle_alpha 90.000000
_cell_angle_beta 137.245835
_cell_angle_gamma 90.000000
_cell_volume 3099.524747
_symmetry_space_group_name_H-M "C 2/M"
_symmetry_group_IT_number 12
_symmetry_cell_setting 'monoclinic'
loop_
_space_group_symop_operation_xyz
x,y,z
-x,y,-z
-x,-y,-z
x,-y,z
1/2+x,1/2+y,z
1/2-x,1/2+y,-z
1/2-x,1/2-y,-z
1/2+x,1/2-y,z
loop_
_atom_site_type_symbol
_atom_site_label
_atom_site_fract_x
_atom_site_fract_y
_atom_site_fract_z
Si Si1 0.221619 0.314463 0.837547
Si Si2 0.299522 0.942274 0.485524
Si Si3 0.258544 0.679064 0.008524
Si Si4 0.576991 0.558121 0.104320
Si Si5 0.724002 0.203613 0.153195
Si Si6 0.965283 0.397937 0.692369
Si Si7 0.752610 0.441440 0.887266
Si Si8 0.865554 0.884286 0.295016
O O1 0.195191 0.340637 0.906141
O O2 0.166704 0.256588 0.821128
O O3 0.074585 0.343619 0.729241
O O4 0.479540 0.316618 0.909707
O O5 0.500000 0.941511 0.500000
O O6 0.383362 0.921742 0.590643
O O7 0.109747 0.905228 0.392760
O O8 0.226701 0.000000 0.465630
O O9 0.038830 0.714437 0.931703
O O10 0.248253 0.670253 0.090598
O O11 0.550315 0.500000 0.094815
O O12 0.828121 0.570507 0.207465
O O13 0.417770 0.576341 0.111611
O O14 0.500000 0.575617 0.000000
O O15 0.825862 0.171703 0.253490
O O16 0.770532 0.394596 0.681153
O O17 0.718415 0.500000 0.867138
O O18 0.726168 0.416766 0.801977
O O19 0.000000 0.433363 0.000000
#
# Coordination Sequence:
#
# PCOD9209506 Si02
#       8
#     8   8   8   8   8   8   8   8
#     4  11  22  38  61  97 139 182 221 261 312 380
#     4  11  27  53  76  95 120 161 220 279 332 397
#     4  10  21  38  62  92 139 188 223 258 310 376
#     4  10  22  39  59  89 128 166 206 258 323 392
#     4  11  22  38  61  97 139 182 221 261 312 380
#     4  12  26  41  67  97 127 165 217 268 330 388
#     4  10  22  39  59  89 128 166 206 258 323 392
#     4  12  26  41  67  97 127 165 217 268 330 388
#
# _framework density 20.648326000000001
#
# number of rings (size 3 to 8) (size 9 to 14) (size 15 to 20)
#    0.000    1.125    1.250    5.625    7.000    5.500 
#    0.000    0.625    0.000    0.000    0.000    0.000 
#    0.000    0.000    0.000    0.000    0.000    0.000 
#
# Total GULP energy -178261.952125 kJ/mol
# GULP energy per Si atom -5570.686004 kJ/mol
# Density = 2.060133 g / cm^3
# Si number density = 20.648326 Si / 1000 Ang^3
#
#
#
# Elastic Constant Matrix: (Units=GPa)
#
#
# Indices 1 2 3 4 5 6 
#
# 1 92.1057 29.4602 10.0071 -0.0001 -11.6542 0.0001
# 2 29.4602 107.6199 38.0713 -0.0001 -6.1205 0.0001
# 3 10.0071 38.0713 80.3930 -0.0003 -14.2083 0.0002
# 4 -0.0001 -0.0001 -0.0003 19.9969 -0.0002 -2.8388
# 5 -11.6542 -6.1205 -14.2083 -0.0002 38.1933 0.0001
# 6 0.0001 0.0001 0.0002 -2.8388 0.0001 31.7915
#
#
#
# Elastic Compliance Matrix: (Units=1/GPa)
#
#
# Indices 1 2 3 4 5 6 
#
# 1 0.012314 -0.003422 0.000701 0.000000 0.003470 0.000000
# 2 -0.003422 0.012114 -0.005515 0.000000 -0.001154 0.000000
# 3 0.000701 -0.005515 0.015890 0.000000 0.005241 0.000000
# 4 0.000000 0.000000 0.000000 0.050650 0.000000 0.004523
# 5 0.003470 -0.001154 0.005241 0.000000 0.029006 0.000000
# 6 0.000000 0.000000 0.000000 0.004523 0.000000 0.031859
#
#
# Mechanical properties :
#
#
# Convention : Reuss Voigt Hill
#
# Bulk Modulus (GPa) = 41.93470 48.35511 45.14490
# Shear Modulus (GPa) = 28.36834 31.50165 29.93500
#
# Velocity S-wave (km/s) = 3.71061 3.91017 3.81169
# Velocity P-wave (km/s) = 6.22184 6.62232 6.42520
#
# Compressibility (1/GPa) = 0.02384660
#
# Stress axis : x y z
#
# Youngs Moduli (GPa) = 81.20575 82.55028 62.93427
#
# Poissons Ratio (x) = 0.28245 -0.04410
# Poissons Ratio (y) = 0.27785 0.34707
# Poissons Ratio (z) = -0.05690 0.45525
#
# Static dielectric constant tensor:
#      x y z
#    x 1.756900 0.000000 -0.016210 
#    y 0.000000 1.846630 0.000000 
#    z -0.016210 0.000000 1.685960 
# 
# From -- ./inp_files/260390.got.cif
#   From: 2010.05.17/outbox.cif.g08.bks.cpg/sg12_131_cif.got.tgz:260390.got - 2010.06.03 13:09:07.
