data_PCOD9209186
_publ_section_title
;
Structure prediction by ZEFSAII (Michael W. Deem and Ramdas Pophale) SiO2 
 PCOD9209186
Probable space group: C 2/M
;
_chemical_formula_sum "Si O2"
_cell_formula_units_Z 56
_cell_length_a 14.782174
_cell_length_b 16.867290
_cell_length_c 13.292056
_cell_angle_alpha 90.000000
_cell_angle_beta 47.681519
_cell_angle_gamma 90.000000
_cell_volume 2450.549265
_symmetry_space_group_name_H-M "C 2/M"
_symmetry_group_IT_number 12
_symmetry_cell_setting 'monoclinic'
loop_
_space_group_symop_operation_xyz
x,y,z
-x,y,-z
-x,-y,-z
x,-y,z
1/2+x,1/2+y,z
1/2-x,1/2+y,-z
1/2-x,1/2-y,-z
1/2+x,1/2-y,z
loop_
_atom_site_type_symbol
_atom_site_label
_atom_site_fract_x
_atom_site_fract_y
_atom_site_fract_z
Si Si1 0.606682 0.279686 0.174786
Si Si2 0.029511 0.329221 0.860590
Si Si3 0.768651 0.265527 0.720343
Si Si4 0.859510 0.168195 0.471098
Si Si5 0.534227 0.589497 0.087038
Si Si6 0.098497 0.500000 0.833321
Si Si7 0.741168 0.408944 0.627110
Si Si8 0.861660 0.000000 0.569714
O O1 0.576793 0.202897 0.130359
O O2 0.706204 0.262909 0.185493
O O3 0.483184 0.301514 0.328023
O O4 0.620129 0.352112 0.086000
O O5 0.134418 0.262168 0.784021
O O6 0.073960 0.416773 0.795892
O O7 0.000000 0.336233 0.000000
O O8 0.848370 0.215125 0.582973
O O9 0.791043 0.358798 0.685025
O O10 0.751716 0.158139 0.467491
O O11 0.856410 0.077176 0.506248
O O12 0.584247 0.500000 0.040654
O O13 0.404093 0.584149 0.241595
O O14 0.500000 0.617915 0.000000
O O15 0.247790 0.500000 0.734481
O O16 0.000000 0.500000 0.000000
O O17 0.786536 0.500000 0.579371
O O18 0.000000 0.000000 0.500000
#
# Coordination Sequence:
#
# PCOD9209186 Si02
#       8
#     8   8   8   8   8   4   8   4
#     4  11  24  39  64  96 130 172 220 284 341 409
#     4  11  24  45  66  90 130 182 236 277 337 426
#     4  12  23  40  65  92 128 169 220 279 346 401
#     4  11  22  40  61  96 134 164 214 285 354 403
#     4   9  18  37  61  86 125 162 203 264 336 403
#     4  10  24  46  68  91 137 194 231 275 350 419
#     4  10  21  38  61  88 123 171 215 271 347 417
#     4  12  22  36  68 109 136 170 231 299 352 404
#
# _framework density 22.852018999999999
#
# number of rings (size 3 to 8) (size 9 to 14) (size 15 to 20)
#    0.000    1.286    5.000    2.143    1.000    0.571 
#    3.857    0.000    0.000    0.857    0.000    0.000 
#    0.000    0.000    0.000    0.000    0.000    0.000 
#
# Total GULP energy -156102.623344 kJ/mol
# GULP energy per Si atom -5575.093691 kJ/mol
# Density = 2.280001 g / cm^3
# Si number density = 22.852019 Si / 1000 Ang^3
#
#
#
# Elastic Constant Matrix: (Units=GPa)
#
#
# Indices 1 2 3 4 5 6 
#
# 1 91.1346 36.9698 25.3955 0.0000 34.3551 0.0000
# 2 36.9698 153.4413 17.3709 0.0000 22.4149 0.0000
# 3 25.3955 17.3709 89.1674 0.0000 5.3781 0.0000
# 4 0.0000 0.0000 0.0000 29.7062 0.0000 10.2782
# 5 34.3551 22.4149 5.3781 0.0000 34.3870 0.0000
# 6 0.0000 0.0000 0.0000 10.2782 0.0000 13.9542
#
#
#
# Elastic Compliance Matrix: (Units=1/GPa)
#
#
# Indices 1 2 3 4 5 6 
#
# 1 0.019487 -0.001630 -0.004162 0.000000 -0.017755 0.000000
# 2 -0.001630 0.007454 -0.000801 0.000000 -0.003105 0.000000
# 3 -0.004162 -0.000801 0.012391 0.000000 0.002742 0.000000
# 4 0.000000 0.000000 0.000000 0.045176 0.000000 -0.033276
# 5 -0.017755 -0.003105 0.002742 0.000000 0.048415 0.000000
# 6 0.000000 0.000000 0.000000 -0.033276 0.000000 0.096173
#
#
# Mechanical properties :
#
#
# Convention : Reuss Voigt Hill
#
# Bulk Modulus (GPa) = 38.24515 54.80174 46.52345
# Shear Modulus (GPa) = 19.92057 32.54327 26.23192
#
# Velocity S-wave (km/s) = 2.95569 3.77780 3.39175
# Velocity P-wave (km/s) = 5.33109 6.56218 5.97841
#
# Compressibility (1/GPa) = 0.02614711
#
# Stress axis : x y z
#
# Youngs Moduli (GPa) = 51.31604 134.15343 80.70572
#
# Poissons Ratio (x) = 0.21871 0.33586
# Poissons Ratio (y) = 0.08366 0.06461
# Poissons Ratio (z) = 0.21355 0.10740
#
# Static dielectric constant tensor:
#      x y z
#    x 3.405640 0.000000 -0.232760 
#    y 0.000000 1.849790 0.000000 
#    z -0.232760 0.000000 2.057240 
# 
# From -- ./inp_files/146083.got.cif
#   From: 2010.05.17/outbox.cif.g08.bks.cpg/sg12_74_cif.got.tgz:146083.got - 2010.06.03 13:09:07.
