data_PCOD9209783
_publ_section_title
;
Structure prediction by ZEFSAII (Michael W. Deem and Ramdas Pophale) SiO2 
 PCOD9209783
Probable space group: C 2/M
;
_chemical_formula_sum "Si O2"
_cell_formula_units_Z 40
_cell_length_a 13.897029
_cell_length_b 13.983911
_cell_length_c 19.206790
_cell_angle_alpha 90.000000
_cell_angle_beta 150.858534
_cell_angle_gamma 90.000000
_cell_volume 1817.630015
_symmetry_space_group_name_H-M "C 2/M"
_symmetry_group_IT_number 12
_symmetry_cell_setting 'monoclinic'
loop_
_space_group_symop_operation_xyz
x,y,z
-x,y,-z
-x,-y,-z
x,-y,z
1/2+x,1/2+y,z
1/2-x,1/2+y,-z
1/2-x,1/2-y,-z
1/2+x,1/2-y,z
loop_
_atom_site_type_symbol
_atom_site_label
_atom_site_fract_x
_atom_site_fract_y
_atom_site_fract_z
Si Si1 0.422918 0.612661 0.101765
Si Si2 0.160983 0.613385 0.809386
Si Si3 0.183827 0.720014 0.326501
Si Si4 0.204981 0.387221 0.098169
Si Si5 0.414121 0.727611 0.338753
O O1 0.475900 0.500000 0.138333
O O2 0.582672 0.682733 0.235452
O O3 0.235139 0.627182 0.035263
O O4 0.348735 0.635482 0.977435
O O5 0.151560 0.500000 0.794088
O O6 0.161646 0.670286 0.737536
O O7 0.972471 0.652162 0.733985
O O8 0.284509 0.682465 0.318963
O O9 0.365216 0.737647 0.493616
O O10 0.211551 0.500000 0.115139
O O11 0.383722 0.338707 0.252530
O O12 0.000000 0.349598 0.000000
#
# Coordination Sequence:
#
# PCOD9209783 Si02
#       5
#     8   8   8   8   8
#     4  10  22  40  65  91 123 164 210 260 314 374
#     4  11  24  42  65  96 127 166 213 264 315 372
#     4  11  24  43  62  93 131 167 210 261 317 374
#     4  10  21  38  64  96 125 160 208 260 317 376
#     4  11  25  40  65  95 127 169 211 259 317 375
#
# _framework density 22.006678000000001
#
# number of rings (size 3 to 8) (size 9 to 14) (size 15 to 20)
#    0.000    1.400    2.000    2.400    2.800    4.800 
#    0.000    6.000    0.000    0.000    0.000    0.000 
#    0.000    0.000    0.000    0.000    0.000    0.000 
#
# Total GULP energy -111803.322442 kJ/mol
# GULP energy per Si atom -5590.166122 kJ/mol
# Density = 2.195659 g / cm^3
# Si number density = 22.006678 Si / 1000 Ang^3
#
#
#
# Elastic Constant Matrix: (Units=GPa)
#
#
# Indices 1 2 3 4 5 6 
#
# 1 72.2461 7.7884 15.5468 0.0020 -11.7095 0.0006
# 2 7.7884 50.2441 13.4213 0.0023 -6.4709 0.0012
# 3 15.5468 13.4213 118.8776 0.0036 -11.2539 0.0020
# 4 0.0020 0.0023 0.0036 -1.1181 0.0017 -7.8680
# 5 -11.7095 -6.4709 -11.2539 0.0017 33.4236 0.0008
# 6 0.0006 0.0012 0.0020 -7.8680 0.0008 24.6373
#
#
#
# Elastic Compliance Matrix: (Units=1/GPa)
#
#
# Indices 1 2 3 4 5 6 
#
# 1 0.015021 -0.001376 -0.001380 0.000009 0.004531 0.000003
# 2 -0.001376 0.021006 -0.001913 0.000014 0.002940 0.000004
# 3 -0.001380 -0.001913 0.009015 0.000009 0.002181 0.000002
# 4 0.000009 0.000014 0.000009 -0.275422 0.000026 -0.087957
# 5 0.004531 0.002940 0.002181 0.000026 0.032810 0.000007
# 6 0.000003 0.000004 0.000002 -0.087957 0.000007 0.012500
#
#
# Mechanical properties :
#
#
# Convention : Reuss Voigt Hill
#
# Bulk Modulus (GPa) = 28.00876 34.98678 31.49777
# Shear Modulus (GPa) = -30.51958 25.02929 -2.74515
#
# Velocity S-wave (km/s) = -3.72806 3.37612 -1.11809
# Velocity P-wave (km/s) = 2.40338 5.57946 3.56049
#
# Compressibility (1/GPa) = 0.03570312
#
# Stress axis : x y z
#
# Youngs Moduli (GPa) = 66.57178 47.60566 110.92582
#
# Poissons Ratio (x) = 0.06552 0.15309
# Poissons Ratio (y) = 0.09162 0.21223
# Poissons Ratio (z) = 0.09188 0.09108
#
# Static dielectric constant tensor:
#      x y z
#    x 1.868930 0.000000 0.031120 
#    y 0.000000 1.779440 0.000000 
#    z 0.031120 0.000000 1.767440 
# 
# From -- ./inp_files/58916.got.cif
#   From: 2010.05.17/outbox.cif.g08.bks.cpg/sg12_30_cif.got.tgz:58916.got - 2010.06.03 13:09:07.
