data_PCOD9209831
_publ_section_title
;
Structure prediction by ZEFSAII (Michael W. Deem and Ramdas Pophale) SiO2 
 PCOD9209831
Probable space group: C 2/M
;
_chemical_formula_sum "Si O2"
_cell_formula_units_Z 36
_cell_length_a 8.825604
_cell_length_b 21.874168
_cell_length_c 13.291860
_cell_angle_alpha 90.000000
_cell_angle_beta 49.295568
_cell_angle_gamma 90.000000
_cell_volume 1945.266051
_symmetry_space_group_name_H-M "C 2/M"
_symmetry_group_IT_number 12
_symmetry_cell_setting 'monoclinic'
loop_
_space_group_symop_operation_xyz
x,y,z
-x,y,-z
-x,-y,-z
x,-y,z
1/2+x,1/2+y,z
1/2-x,1/2+y,-z
1/2-x,1/2-y,-z
1/2+x,1/2-y,z
loop_
_atom_site_type_symbol
_atom_site_label
_atom_site_fract_x
_atom_site_fract_y
_atom_site_fract_z
Si Si1 0.259325 0.571687 0.102643
Si Si2 0.708185 0.816327 0.970117
Si Si3 0.091870 0.177517 0.661144
Si Si4 0.000000 0.250123 0.500000
Si Si5 0.789871 0.567679 0.647020
O O1 0.196068 0.500000 0.109310
O O2 0.191023 0.589849 0.245637
O O3 0.500000 0.571387 0.000000
O O4 0.200283 0.625555 0.050243
O O5 0.900767 0.821135 0.815151
O O6 0.500000 0.814819 0.000000
O O7 0.750000 0.750000 0.000000
O O8 0.040099 0.208464 0.578851
O O9 0.299365 0.210192 0.606667
O O10 0.150313 0.107148 0.636568
O O11 0.705815 0.500000 0.694412
O O12 0.000000 0.566146 0.500000
#
# Coordination Sequence:
#
# PCOD9209831 Si02
#       5
#     8   8   8   4   8
#     4  10  21  40  65  90 122 165 209 255 312 375
#     4  12  26  39  61  92 128 165 212 261 311 373
#     4  11  22  41  60  89 121 164 204 256 309 373
#     4  10  24  38  62  88 124 162 202 252 322 366
#     4  10  21  38  65  93 120 160 206 251 304 370
#
# _framework density 18.506466
#
# number of rings (size 3 to 8) (size 9 to 14) (size 15 to 20)
#    0.000    1.333    3.333    2.000    3.111    2.222 
#    0.000    0.556    0.000    0.000    0.000    0.000 
#    0.000    0.000    0.000    0.000    0.000    0.000 
#
# Total GULP energy -100297.921351 kJ/mol
# GULP energy per Si atom -5572.106742 kJ/mol
# Density = 1.846434 g / cm^3
# Si number density = 18.506466 Si / 1000 Ang^3
#
#
#
# Elastic Constant Matrix: (Units=GPa)
#
#
# Indices 1 2 3 4 5 6 
#
# 1 94.9704 55.7418 26.3549 0.0000 -6.5536 0.0000
# 2 55.7418 102.9209 22.6085 0.0000 9.4382 0.0000
# 3 26.3549 22.6085 110.0078 0.0000 1.6537 0.0000
# 4 0.0000 0.0000 0.0000 18.2494 0.0000 16.5252
# 5 -6.5536 9.4382 1.6537 0.0000 28.6008 0.0000
# 6 0.0000 0.0000 0.0000 16.5252 0.0000 29.8429
#
#
#
# Elastic Compliance Matrix: (Units=1/GPa)
#
#
# Indices 1 2 3 4 5 6 
#
# 1 0.017234 -0.009493 -0.002286 0.000000 0.007214 0.000000
# 2 -0.009493 0.015714 -0.000845 0.000000 -0.007312 0.000000
# 3 -0.002286 -0.000845 0.009824 0.000000 -0.000813 0.000000
# 4 0.000000 0.000000 0.000000 0.109906 0.000000 -0.060859
# 5 0.007214 -0.007312 -0.000813 0.000000 0.039077 0.000000
# 6 0.000000 0.000000 0.000000 -0.060859 0.000000 0.067209
#
#
# Mechanical properties :
#
#
# Convention : Reuss Voigt Hill
#
# Bulk Modulus (GPa) = 57.06978 57.47882 57.27430
# Shear Modulus (GPa) = 17.23823 28.88488 23.06156
#
# Velocity S-wave (km/s) = 3.05531 3.95498 3.53389
# Velocity P-wave (km/s) = 6.58417 7.20986 6.90410
#
# Compressibility (1/GPa) = 0.01752241
#
# Stress axis : x y z
#
# Youngs Moduli (GPa) = 58.02600 63.63822 101.79253
#
# Poissons Ratio (x) = 0.60412 0.23271
# Poissons Ratio (y) = 0.55084 0.08604
# Poissons Ratio (z) = 0.13266 0.05379
#
# Static dielectric constant tensor:
#      x y z
#    x 1.605600 0.000000 0.049730 
#    y 0.000000 1.721840 0.000000 
#    z 0.049730 0.000000 1.489130 
# 
# From -- ./inp_files/197457.got.cif
#   From: 2010.05.17/outbox.cif.g08.bks.cpg/sg12_99_cif.got.tgz:197457.got - 2010.06.03 13:09:07.
