data_PCOD9209659
_publ_section_title
;
Structure prediction by ZEFSAII (Michael W. Deem and Ramdas Pophale) SiO2 
 PCOD9209659
Probable space group: C 2/M
;
_chemical_formula_sum "Si O2"
_cell_formula_units_Z 48
_cell_length_a 19.719839
_cell_length_b 12.698510
_cell_length_c 10.469334
_cell_angle_alpha 90.000000
_cell_angle_beta 136.797547
_cell_angle_gamma 90.000000
_cell_volume 1794.726698
_symmetry_space_group_name_H-M "C 2/M"
_symmetry_group_IT_number 12
_symmetry_cell_setting 'monoclinic'
loop_
_space_group_symop_operation_xyz
x,y,z
-x,y,-z
-x,-y,-z
x,-y,z
1/2+x,1/2+y,z
1/2-x,1/2+y,-z
1/2-x,1/2-y,-z
1/2+x,1/2-y,z
loop_
_atom_site_type_symbol
_atom_site_label
_atom_site_fract_x
_atom_site_fract_y
_atom_site_fract_z
Si Si1 0.131336 0.160482 0.765362
Si Si2 0.891463 0.883541 0.824703
Si Si3 0.650117 0.120087 0.887162
Si Si4 0.328145 0.126736 0.513240
Si Si5 0.576604 0.338470 0.416721
Si Si6 0.116347 0.381935 0.126032
O O1 0.118990 0.287595 0.749931
O O2 0.132929 0.126660 0.620826
O O3 0.035101 0.126727 0.709801
O O4 0.231535 0.121653 0.964353
O O5 0.778289 0.850415 0.699316
O O6 0.888033 0.885449 0.666844
O O7 0.899916 0.000000 0.892787
O O8 0.000000 0.830974 0.000000
O O9 0.612277 0.000000 0.819529
O O10 0.628514 0.165219 0.001395
O O11 0.407296 0.211693 0.572787
O O12 0.330567 0.151125 0.669786
O O13 0.348741 0.000000 0.528417
O O14 0.152654 0.500000 0.153655
O O15 0.000000 0.386825 0.000000
#
# Coordination Sequence:
#
# PCOD9209659 Si02
#       6
#     8   8   8   8   8   8
#     4  10  24  39  57  90 120 162 217 243 295 383
#     4  10  23  42  65  93 122 160 211 261 314 374
#     4  10  21  40  62  85 122 162 202 258 306 359
#     4  10  21  38  63  94 125 161 206 257 320 380
#     4  11  23  40  60  86 126 163 200 259 311 363
#     4   9  17  31  57  92 123 155 198 248 308 370
#
# _framework density 26.745018000000002
#
# number of rings (size 3 to 8) (size 9 to 14) (size 15 to 20)
#    0.000    2.000    0.000    2.500    0.000   10.000 
#    0.000    5.000    0.000    0.000    0.000    0.000 
#    0.000    0.667    0.000    0.000    0.000    0.000 
#
# Total GULP energy -134082.021899 kJ/mol
# GULP energy per Si atom -5586.750912 kJ/mol
# Density = 2.668415 g / cm^3
# Si number density = 26.745018 Si / 1000 Ang^3
#
#
#
# Elastic Constant Matrix: (Units=GPa)
#
#
# Indices 1 2 3 4 5 6 
#
# 1 85.6562 8.5239 37.1568 0.0000 -1.3741 0.0000
# 2 8.5239 153.2371 -3.0195 0.0000 -3.1099 0.0000
# 3 37.1568 -3.0195 112.5922 0.0000 21.2042 0.0000
# 4 0.0000 0.0000 0.0000 9.8042 0.0000 -1.6848
# 5 -1.3741 -3.1099 21.2042 0.0000 45.7337 0.0000
# 6 0.0000 0.0000 0.0000 -1.6848 0.0000 3.0498
#
#
#
# Elastic Compliance Matrix: (Units=1/GPa)
#
#
# Indices 1 2 3 4 5 6 
#
# 1 0.014048 -0.000827 -0.005179 0.000000 0.002767 0.000000
# 2 -0.000827 0.006585 0.000405 0.000000 0.000235 0.000000
# 3 -0.005179 0.000405 0.011642 0.000000 -0.005526 0.000000
# 4 0.000000 0.000000 0.000000 0.112696 0.000000 0.062258
# 5 0.002767 0.000235 -0.005526 0.000000 0.024527 0.000000
# 6 0.000000 0.000000 0.000000 0.062258 0.000000 0.362285
#
#
# Mechanical properties :
#
#
# Convention : Reuss Voigt Hill
#
# Bulk Modulus (GPa) = 47.45529 48.53419 47.99474
# Shear Modulus (GPa) = 9.09074 32.30583 20.69829
#
# Velocity S-wave (km/s) = 1.84565 3.47928 2.78495
# Velocity P-wave (km/s) = 4.72483 5.85892 5.32217
#
# Compressibility (1/GPa) = 0.02107246
#
# Stress axis : x y z
#
# Youngs Moduli (GPa) = 71.18425 151.86924 85.89272
#
# Poissons Ratio (x) = 0.12565 0.44487
# Poissons Ratio (y) = 0.05889 -0.03482
# Poissons Ratio (z) = 0.36869 -0.06156
#
# Static dielectric constant tensor:
#      x y z
#    x 2.033720 0.000000 -0.003860 
#    y 0.000000 2.134670 0.000000 
#    z -0.003860 0.000000 2.062090 
# 
# From -- ./inp_files/167652.got.cif
#   From: 2010.05.17/outbox.cif.g08.bks.cpg/sg12_84_cif.got.tgz:167652.got - 2010.06.03 13:09:07.
