data_PCOD9209155
_publ_section_title
;
Structure prediction by ZEFSAII (Michael W. Deem and Ramdas Pophale) SiO2 
 PCOD9209155
Probable space group: C 2/M
;
_chemical_formula_sum "Si O2"
_cell_formula_units_Z 48
_cell_length_a 30.136351
_cell_length_b 9.465370
_cell_length_c 9.290094
_cell_angle_alpha 90.000000
_cell_angle_beta 99.360267
_cell_angle_gamma 90.000000
_cell_volume 2614.730765
_symmetry_space_group_name_H-M "C 2/M"
_symmetry_group_IT_number 12
_symmetry_cell_setting 'monoclinic'
loop_
_space_group_symop_operation_xyz
x,y,z
-x,y,-z
-x,-y,-z
x,-y,z
1/2+x,1/2+y,z
1/2-x,1/2+y,-z
1/2-x,1/2-y,-z
1/2+x,1/2-y,z
loop_
_atom_site_type_symbol
_atom_site_label
_atom_site_fract_x
_atom_site_fract_y
_atom_site_fract_z
Si Si1 0.220859 0.161113 0.096162
Si Si2 0.632718 0.167653 0.146090
Si Si3 0.220187 0.657583 0.587180
Si Si4 0.454762 0.665744 0.381982
Si Si5 0.541839 0.168380 0.916608
Si Si6 0.120072 0.331410 0.479406
O O1 0.174853 0.240380 0.114917
O O2 0.253439 0.152947 0.250797
O O3 0.211599 0.000000 0.042864
O O4 0.250000 0.250000 0.000000
O O5 0.622027 0.196668 0.308781
O O6 0.643578 0.000000 0.140604
O O7 0.588432 0.194235 0.026653
O O8 0.217212 0.500000 0.522758
O O9 0.250000 0.750000 0.500000
O O10 0.168951 0.706324 0.569452
O O11 0.500000 0.676142 0.500000
O O12 0.444540 0.500000 0.354747
O O13 0.459900 0.743611 0.231383
O O14 0.416725 0.742927 0.455566
O O15 0.539540 0.000000 0.882767
O O16 0.500000 0.201479 0.000000
O O17 0.112037 0.500000 0.494488
#
# Coordination Sequence:
#
# PCOD9209155 Si02
#       6
#     8   8   8   8   8   8
#     4  11  24  39  58  87 123 162 203 246 296 353
#     4  10  21  39  63  90 119 154 199 248 300 354
#     4  10  21  38  61  88 118 157 202 246 293 347
#     4  11  25  42  61  90 124 157 195 242 297 356
#     4  10  22  41  66  92 118 154 200 245 294 356
#     4  10  21  39  64  90 118 156 201 248 294 347
#
# _framework density 18.357531000000002
#
# number of rings (size 3 to 8) (size 9 to 14) (size 15 to 20)
#    0.000    1.667    1.667    2.000    2.333    5.667 
#    0.000    0.000    0.000    0.000    0.000    0.000 
#    0.000    0.000    0.000    0.000    0.000    0.000 
#
# Total GULP energy -134019.958202 kJ/mol
# GULP energy per Si atom -5584.164925 kJ/mol
# Density = 1.831575 g / cm^3
# Si number density = 18.357531 Si / 1000 Ang^3
#
#
#
# Elastic Constant Matrix: (Units=GPa)
#
#
# Indices 1 2 3 4 5 6 
#
# 1 165.3447 103.0219 78.6394 0.0000 -19.5649 0.0000
# 2 103.0219 122.0015 86.1219 0.0000 -23.0304 0.0000
# 3 78.6394 86.1219 113.0830 0.0000 -14.8503 0.0000
# 4 0.0000 0.0000 0.0000 28.1629 0.0000 -0.2376
# 5 -19.5649 -23.0304 -14.8503 0.0000 36.0229 0.0000
# 6 0.0000 0.0000 0.0000 -0.2376 0.0000 32.7035
#
#
#
# Elastic Compliance Matrix: (Units=1/GPa)
#
#
# Indices 1 2 3 4 5 6 
#
# 1 0.012874 -0.009819 -0.001459 0.000000 0.000113 0.000000
# 2 -0.009819 0.026581 -0.012564 0.000000 0.006481 0.000000
# 3 -0.001459 -0.012564 0.019313 0.000000 -0.000863 0.000000
# 4 0.000000 0.000000 0.000000 0.035510 0.000000 0.000258
# 5 0.000113 0.006481 -0.000863 0.000000 0.031609 0.000000
# 6 0.000000 0.000000 0.000000 0.000258 0.000000 0.030580
#
#
# Mechanical properties :
#
#
# Convention : Reuss Voigt Hill
#
# Bulk Modulus (GPa) = 90.23523 103.99949 97.11736
# Shear Modulus (GPa) = 24.05637 28.22093 26.13865
#
# Velocity S-wave (km/s) = 3.62392 3.92509 3.77751
# Velocity P-wave (km/s) = 8.17138 8.79301 8.48789
#
# Compressibility (1/GPa) = 0.01108215
#
# Stress axis : x y z
#
# Youngs Moduli (GPa) = 77.67821 37.62110 51.77883
#
# Poissons Ratio (x) = 0.36942 0.07557
# Poissons Ratio (y) = 0.76276 0.65054
# Poissons Ratio (z) = 0.11336 0.47266
#
# Static dielectric constant tensor:
#      x y z
#    x 1.346080 0.000000 0.128280 
#    y 0.000000 1.635180 0.000000 
#    z 0.128280 0.000000 1.558640 
# 
# From -- ./inp_files/108604.got.cif
#   From: 2010.05.17/outbox.cif.g08.bks.cpg/sg12_55_cif.got.tgz:108604.got - 2010.06.03 13:09:07.
