data_PCOD9209201
_publ_section_title
;
Structure prediction by ZEFSAII (Michael W. Deem and Ramdas Pophale) SiO2 
 PCOD9209201
Probable space group: C 2/M
;
_chemical_formula_sum "Si O2"
_cell_formula_units_Z 40
_cell_length_a 30.886006
_cell_length_b 10.666726
_cell_length_c 4.903527
_cell_angle_alpha 90.000000
_cell_angle_beta 72.754227
_cell_angle_gamma 90.000000
_cell_volume 1542.850518
_symmetry_space_group_name_H-M "C 2/M"
_symmetry_group_IT_number 12
_symmetry_cell_setting 'monoclinic'
loop_
_space_group_symop_operation_xyz
x,y,z
-x,y,-z
-x,-y,-z
x,-y,z
1/2+x,1/2+y,z
1/2-x,1/2+y,-z
1/2-x,1/2-y,-z
1/2+x,1/2-y,z
loop_
_atom_site_type_symbol
_atom_site_label
_atom_site_fract_x
_atom_site_fract_y
_atom_site_fract_z
Si Si1 0.167842 0.358209 0.058306
Si Si2 0.238644 0.856391 0.298376
Si Si3 0.853645 0.137743 0.322530
Si Si4 0.451584 0.710601 0.066360
Si Si5 0.072031 0.360426 0.415449
O O1 0.161834 0.500000 0.953548
O O2 0.126905 0.353117 0.351464
O O3 0.222111 0.348995 0.007669
O O4 0.156685 0.251892 0.860005
O O5 0.250000 0.750000 0.500000
O O6 0.183955 0.852254 0.365367
O O7 0.245560 0.000000 0.393542
O O8 0.907436 0.141402 0.268833
O O9 0.844994 0.000000 0.211707
O O10 0.453078 0.831764 0.258949
O O11 0.500000 0.646024 0.000000
O O12 0.441684 0.757127 0.780801
O O13 0.061736 0.500000 0.336683
#
# Coordination Sequence:
#
# PCOD9209201 Si02
#       5
#     8   8   8   8   8
#     4   8  15  30  55  87 119 150 188 238 293 347
#     4   8  13  25  49  80 114 150 188 232 284 343
#     4   9  18  33  54  82 117 157 198 238 286 346
#     4  11  23  38  57  84 116 153 198 245 290 338
#     4  10  21  38  61  89 120 152 190 239 295 352
#
# _framework density 25.926034999999999
#
# number of rings (size 3 to 8) (size 9 to 14) (size 15 to 20)
#    0.000    2.800    0.000    1.200    0.000    3.600 
#    0.000    5.000    0.000    6.000    0.000   16.800 
#    0.000    0.000    0.000    0.000    0.000    0.000 
#
# Total GULP energy -111552.991481 kJ/mol
# GULP energy per Si atom -5577.649574 kJ/mol
# Density = 2.586703 g / cm^3
# Si number density = 25.926035 Si / 1000 Ang^3
#
#
#
# Elastic Constant Matrix: (Units=GPa)
#
#
# Indices 1 2 3 4 5 6 
#
# 1 166.1847 39.3013 51.4206 0.0000 -50.7266 0.0000
# 2 39.3013 121.5350 21.1894 0.0000 -10.6115 0.0000
# 3 51.4206 21.1894 104.4239 0.0000 -19.2981 0.0000
# 4 0.0000 0.0000 0.0000 7.1371 0.0000 -1.1557
# 5 -50.7266 -10.6115 -19.2981 0.0000 57.2897 0.0000
# 6 0.0000 0.0000 0.0000 -1.1557 0.0000 8.3706
#
#
#
# Elastic Compliance Matrix: (Units=1/GPa)
#
#
# Indices 1 2 3 4 5 6 
#
# 1 0.009579 -0.001953 -0.003007 0.000000 0.007107 0.000000
# 2 -0.001953 0.008989 -0.000932 0.000000 -0.000378 0.000000
# 3 -0.003007 -0.000932 0.011434 0.000000 0.001016 0.000000
# 4 0.000000 0.000000 0.000000 0.143318 0.000000 0.019787
# 5 0.007107 -0.000378 0.001016 0.000000 0.024020 0.000000
# 6 0.000000 0.000000 0.000000 0.019787 0.000000 0.122197
#
#
# Mechanical properties :
#
#
# Convention : Reuss Voigt Hill
#
# Bulk Modulus (GPa) = 54.89208 68.44069 61.66638
# Shear Modulus (GPa) = 14.81943 33.24164 24.03053
#
# Velocity S-wave (km/s) = 2.39342 3.58463 3.04779
# Velocity P-wave (km/s) = 5.37182 6.60216 6.01851
#
# Compressibility (1/GPa) = 0.01821756
#
# Stress axis : x y z
#
# Youngs Moduli (GPa) = 104.39423 111.24583 87.45711
#
# Poissons Ratio (x) = 0.21724 0.26301
# Poissons Ratio (y) = 0.20386 0.08154
# Poissons Ratio (z) = 0.31394 0.10372
#
# Static dielectric constant tensor:
#      x y z
#    x 2.128540 0.000000 -0.051130 
#    y 0.000000 2.124200 0.000000 
#    z -0.051130 0.000000 1.967600 
# 
# From -- ./inp_files/30750.got.cif
#   From: 2010.05.17/outbox.cif.g08.bks.cpg/sg12_16_cif.got.tgz:30750.got - 2010.06.03 13:09:07.
