data_PCOD9209521
_publ_section_title
;
Structure prediction by ZEFSAII (Michael W. Deem and Ramdas Pophale) SiO2 
 PCOD9209521
Probable space group: C 2/M
;
_chemical_formula_sum "Si O2"
_cell_formula_units_Z 48
_cell_length_a 28.238689
_cell_length_b 13.969812
_cell_length_c 11.460313
_cell_angle_alpha 90.000000
_cell_angle_beta 152.609904
_cell_angle_gamma 90.000000
_cell_volume 2079.855318
_symmetry_space_group_name_H-M "C 2/M"
_symmetry_group_IT_number 12
_symmetry_cell_setting 'monoclinic'
loop_
_space_group_symop_operation_xyz
x,y,z
-x,y,-z
-x,-y,-z
x,-y,z
1/2+x,1/2+y,z
1/2-x,1/2+y,-z
1/2-x,1/2-y,-z
1/2+x,1/2-y,z
loop_
_atom_site_type_symbol
_atom_site_label
_atom_site_fract_x
_atom_site_fract_y
_atom_site_fract_z
Si Si1 0.851606 0.614067 0.173429
Si Si2 0.287171 0.149862 0.626117
Si Si3 0.668190 0.272849 0.671349
Si Si4 0.188643 0.600950 0.580644
Si Si5 0.955037 0.393110 0.158604
Si Si6 0.571774 0.608741 0.267271
O O1 0.855173 0.500000 0.218645
O O2 0.862695 0.701558 0.290296
O O3 0.932680 0.623810 0.245211
O O4 0.740000 0.641096 0.873949
O O5 0.250000 0.250000 0.500000
O O6 0.315238 0.099569 0.566543
O O7 0.189635 0.105870 0.479168
O O8 0.384627 0.167104 0.920316
O O9 0.733152 0.198561 0.731622
O O10 0.579988 0.319761 0.396155
O O11 0.236514 0.500000 0.725157
O O12 0.071883 0.605326 0.372997
O O13 0.912686 0.500000 0.044542
O O14 0.539659 0.500000 0.228731
O O15 0.500000 0.639140 0.000000
#
# Coordination Sequence:
#
# PCOD9209521 Si02
#       6
#     8   8   8   8   8   8
#     4  10  21  41  69  97 128 173 222 268 325 386
#     4  12  22  37  62  93 132 172 214 265 329 395
#     4  11  22  39  64  97 131 174 216 268 318 383
#     4  11  23  37  60  95 133 167 209 269 332 391
#     4  10  21  38  62  93 130 171 211 264 332 393
#     4  11  24  42  65  95 133 177 220 265 321 391
#
# _framework density 23.078529
#
# number of rings (size 3 to 8) (size 9 to 14) (size 15 to 20)
#    0.000    1.167    3.333    3.000    2.333    2.000 
#    0.000    2.500    0.000    1.500    0.000    5.833 
#    0.000    0.000    0.000    0.000    0.000    0.000 
#
# Total GULP energy -133905.860626 kJ/mol
# GULP energy per Si atom -5579.410859 kJ/mol
# Density = 2.302600 g / cm^3
# Si number density = 23.078529 Si / 1000 Ang^3
#
#
#
# Elastic Constant Matrix: (Units=GPa)
#
#
# Indices 1 2 3 4 5 6 
#
# 1 119.7635 27.0983 9.0210 0.0000 -15.7102 0.0000
# 2 27.0983 145.6304 28.2782 0.0000 -19.6066 0.0000
# 3 9.0210 28.2782 82.6249 0.0000 -15.8686 0.0000
# 4 0.0000 0.0000 0.0000 21.7274 0.0000 -0.6302
# 5 -15.7102 -19.6066 -15.8686 0.0000 38.0276 0.0000
# 6 0.0000 0.0000 0.0000 -0.6302 0.0000 15.3696
#
#
#
# Elastic Compliance Matrix: (Units=1/GPa)
#
#
# Indices 1 2 3 4 5 6 
#
# 1 0.009041 -0.001274 0.000044 0.000000 0.003096 0.000000
# 2 -0.001274 0.007860 -0.002037 0.000000 0.002676 0.000000
# 3 0.000044 -0.002037 0.013695 0.000000 0.004682 0.000000
# 4 0.000000 0.000000 0.000000 0.046080 0.000000 0.001889
# 5 0.003096 0.002676 0.004682 0.000000 0.030910 0.000000
# 6 0.000000 0.000000 0.000000 0.001889 0.000000 0.065141
#
#
# Mechanical properties :
#
#
# Convention : Reuss Voigt Hill
#
# Bulk Modulus (GPa) = 41.56164 52.97932 47.27048
# Shear Modulus (GPa) = 26.69801 33.93300 30.31550
#
# Velocity S-wave (km/s) = 3.40491 3.83864 3.62827
# Velocity P-wave (km/s) = 5.78842 6.53092 6.17085
#
# Compressibility (1/GPa) = 0.02406065
#
# Stress axis : x y z
#
# Youngs Moduli (GPa) = 110.60817 127.23404 73.02181
#
# Poissons Ratio (x) = 0.16208 -0.00318
# Poissons Ratio (y) = 0.14090 0.14874
# Poissons Ratio (z) = -0.00482 0.25916
#
# Static dielectric constant tensor:
#      x y z
#    x 1.915830 0.000000 -0.046550 
#    y 0.000000 2.516940 0.000000 
#    z -0.046550 0.000000 1.927140 
# 
# From -- ./inp_files/189526.got.cif
#   From: 2010.05.17/outbox.cif.g08.bks.cpg/sg12_95_cif.got.tgz:189526.got - 2010.06.03 13:09:07.
