data_PCOD9209041
_publ_section_title
;
Structure prediction by ZEFSAII (Michael W. Deem and Ramdas Pophale) SiO2 
 PCOD9209041
Probable space group: C 2/M
;
_chemical_formula_sum "Si O2"
_cell_formula_units_Z 52
_cell_length_a 9.144081
_cell_length_b 26.873254
_cell_length_c 10.669098
_cell_angle_alpha 90.000000
_cell_angle_beta 95.608753
_cell_angle_gamma 90.000000
_cell_volume 2609.178791
_symmetry_space_group_name_H-M "C 2/M"
_symmetry_group_IT_number 12
_symmetry_cell_setting 'monoclinic'
loop_
_space_group_symop_operation_xyz
x,y,z
-x,y,-z
-x,-y,-z
x,-y,z
1/2+x,1/2+y,z
1/2-x,1/2+y,-z
1/2-x,1/2-y,-z
1/2+x,1/2-y,z
loop_
_atom_site_type_symbol
_atom_site_label
_atom_site_fract_x
_atom_site_fract_y
_atom_site_fract_z
Si Si1 0.325045 0.696918 0.282887
Si Si2 0.108817 0.440894 0.119234
Si Si3 0.952944 0.592812 0.351592
Si Si4 0.636676 0.557684 0.330861
Si Si5 0.992664 0.706721 0.351826
Si Si6 0.000000 0.131768 0.500000
Si Si7 0.912399 0.890924 0.118792
O O1 0.156338 0.703083 0.309527
O O2 0.398387 0.750918 0.276858
O O3 0.413191 0.666950 0.397930
O O4 0.350843 0.661089 0.167316
O O5 0.093740 0.500000 0.126971
O O6 0.071621 0.419420 0.254082
O O7 0.271859 0.426057 0.093339
O O8 0.000000 0.422560 0.000000
O O9 0.922931 0.651849 0.340499
O O10 0.000000 0.581934 0.500000
O O11 0.805801 0.562966 0.305618
O O12 0.602186 0.500000 0.352853
O O13 0.616353 0.594179 0.447341
O O14 0.524138 0.581347 0.222453
O O15 0.000000 0.719909 0.500000
O O16 0.000000 0.882517 0.000000
#
# Coordination Sequence:
#
# PCOD9209041 Si02
#       7
#     8   8   8   8   8   4   8
#     4  11  23  40  64  97 128 170 212 264 327 387
#     4  11  24  45  71  96 128 177 228 273 328 400
#     4  11  24  42  65 102 139 174 220 277 333 390
#     4  11  24  39  64  96 133 175 215 265 326 387
#     4  11  22  38  67  96 131 169 213 265 324 396
#     4  10  21  38  60  94 136 168 209 256 322 390
#     4  11  25  46  66  93 131 170 224 276 327 392
#
# _framework density 19.929642000000001
#
# number of rings (size 3 to 8) (size 9 to 14) (size 15 to 20)
#    0.000    1.077    2.308    4.385    6.462    3.692 
#    0.000    1.538    0.000    0.000    0.000    0.000 
#    0.000    0.000    0.000    0.000    0.000    0.000 
#
# Total GULP energy -145306.013370 kJ/mol
# GULP energy per Si atom -5588.692822 kJ/mol
# Density = 1.988428 g / cm^3
# Si number density = 19.929642 Si / 1000 Ang^3
#
#
#
# Elastic Constant Matrix: (Units=GPa)
#
#
# Indices 1 2 3 4 5 6 
#
# 1 100.4223 17.9628 23.9573 0.0000 -10.4018 0.0000
# 2 17.9628 99.9556 22.7453 0.0000 0.2823 0.0000
# 3 23.9573 22.7453 69.4226 0.0000 -13.8388 0.0000
# 4 0.0000 0.0000 0.0000 2.3193 0.0000 12.5260
# 5 -10.4018 0.2823 -13.8388 0.0000 34.6905 0.0000
# 6 0.0000 0.0000 0.0000 12.5260 0.0000 13.2212
#
#
#
# Elastic Compliance Matrix: (Units=1/GPa)
#
#
# Indices 1 2 3 4 5 6 
#
# 1 0.011129 -0.001329 -0.002974 0.000000 0.002161 0.000000
# 2 -0.001329 0.011055 -0.003542 0.000000 -0.001902 0.000000
# 3 -0.002974 -0.003542 0.017838 0.000000 0.006253 0.000000
# 4 0.000000 0.000000 0.000000 -0.104733 0.000000 0.099226
# 5 0.002161 -0.001902 0.006253 0.000000 0.031984 0.000000
# 6 0.000000 0.000000 0.000000 0.099226 0.000000 -0.018373
#
#
# Mechanical properties :
#
#
# Convention : Reuss Voigt Hill
#
# Bulk Modulus (GPa) = 41.10104 44.34791 42.72447
# Shear Modulus (GPa) = -183.16622 23.72187 -79.72218
#
# Velocity S-wave (km/s) = -9.59718 3.45379 -6.33156
# Velocity P-wave (km/s) = 10.10644 6.18105 5.65397
#
# Compressibility (1/GPa) = 0.02433028
#
# Stress axis : x y z
#
# Youngs Moduli (GPa) = 89.85413 90.45880 56.06020
#
# Poissons Ratio (x) = 0.12025 0.16674
# Poissons Ratio (y) = 0.11944 0.19858
# Poissons Ratio (z) = 0.26725 0.32043
#
# Static dielectric constant tensor:
#      x y z
#    x 1.702750 0.000000 -0.021020 
#    y 0.000000 1.676200 0.000000 
#    z -0.021020 0.000000 1.726450 
# 
# From -- ./inp_files/123695.got.cif
#   From: 2010.05.17/outbox.cif.g08.bks.cpg/sg12_62_cif.got.tgz:123695.got - 2010.06.03 13:09:07.
