data_PCOD9209075
_publ_section_title
;
Structure prediction by ZEFSAII (Michael W. Deem and Ramdas Pophale) SiO2 
 PCOD9209075
Probable space group: C 2/M
;
_chemical_formula_sum "Si O2"
_cell_formula_units_Z 48
_cell_length_a 29.582336
_cell_length_b 9.255725
_cell_length_c 8.568042
_cell_angle_alpha 90.000000
_cell_angle_beta 89.677490
_cell_angle_gamma 90.000000
_cell_volume 2345.943859
_symmetry_space_group_name_H-M "C 2/M"
_symmetry_group_IT_number 12
_symmetry_cell_setting 'monoclinic'
loop_
_space_group_symop_operation_xyz
x,y,z
-x,y,-z
-x,-y,-z
x,-y,z
1/2+x,1/2+y,z
1/2-x,1/2+y,-z
1/2-x,1/2-y,-z
1/2+x,1/2-y,z
loop_
_atom_site_type_symbol
_atom_site_label
_atom_site_fract_x
_atom_site_fract_y
_atom_site_fract_z
Si Si1 0.730383 0.670036 0.849476
Si Si2 0.678006 0.170207 0.319256
Si Si3 0.900008 0.828667 0.837489
Si Si4 0.346637 0.829573 0.328188
Si Si5 0.435134 0.168229 0.139406
Si Si6 0.023406 0.329694 0.334359
O O1 0.724586 0.500000 0.880723
O O2 0.769070 0.687417 0.716337
O O3 0.684513 0.740601 0.789067
O O4 0.750000 0.750000 0.000000
O O5 0.648748 0.260958 0.197663
O O6 0.664323 0.213350 0.494501
O O7 0.667068 0.000000 0.299687
O O8 0.933676 0.766908 0.704609
O O9 0.898324 0.000000 0.837214
O O10 0.919890 0.768259 0.998661
O O11 0.398881 0.813240 0.279573
O O12 0.335568 0.000000 0.313162
O O13 0.485114 0.193906 0.203532
O O14 0.432542 0.000000 0.088516
O O15 0.036083 0.500000 0.332996
O O16 0.000000 0.299344 0.500000
#
# Coordination Sequence:
#
# PCOD9209075 Si02
#       6
#     8   8   8   8   8   8
#     4  11  23  38  59  87 119 155 194 238 288 344
#     4  10  22  41  62  84 114 154 198 239 284 346
#     4  12  25  38  57  87 121 154 190 238 291 340
#     4  10  21  39  63  88 114 147 192 244 292 341
#     4  10  21  38  61  86 113 151 195 236 283 345
#     4  10  21  40  65  88 113 151 197 239 283 342
#
# _framework density 20.460847999999999
#
# number of rings (size 3 to 8) (size 9 to 14) (size 15 to 20)
#    0.000    1.500    0.000    5.000    0.000   12.333 
#    0.000    1.667    0.000    0.000    0.000    0.000 
#    0.000    0.000    0.000    0.000    0.000    0.000 
#
# Total GULP energy -134288.079035 kJ/mol
# GULP energy per Si atom -5595.336626 kJ/mol
# Density = 2.041428 g / cm^3
# Si number density = 20.460848 Si / 1000 Ang^3
#
#
#
# Elastic Constant Matrix: (Units=GPa)
#
#
# Indices 1 2 3 4 5 6 
#
# 1 59.7233 24.1820 -15.9662 0.0000 2.6517 0.0000
# 2 24.1820 50.9734 14.7088 0.0000 8.0595 0.0000
# 3 -15.9662 14.7088 56.4377 0.0000 -2.0934 0.0000
# 4 0.0000 0.0000 0.0000 14.0531 0.0000 -3.3988
# 5 2.6517 8.0595 -2.0934 0.0000 30.0762 0.0000
# 6 0.0000 0.0000 0.0000 -3.3988 0.0000 18.6903
#
#
#
# Elastic Compliance Matrix: (Units=1/GPa)
#
#
# Indices 1 2 3 4 5 6 
#
# 1 0.026438 -0.016425 0.011868 0.000000 0.002896 0.000000
# 2 -0.016425 0.032590 -0.013445 0.000000 -0.008221 0.000000
# 3 0.011868 -0.013445 0.024739 0.000000 0.004278 0.000000
# 4 0.000000 0.000000 0.000000 0.074432 0.000000 0.013535
# 5 0.002896 -0.008221 0.004278 0.000000 0.035494 0.000000
# 6 0.000000 0.000000 0.000000 0.013535 0.000000 0.055965
#
#
# Mechanical properties :
#
#
# Convention : Reuss Voigt Hill
#
# Bulk Modulus (GPa) = 20.93724 23.66485 22.30104
# Shear Modulus (GPa) = 16.57914 22.17791 19.37853
#
# Velocity S-wave (km/s) = 2.84964 3.29587 3.08084
# Velocity P-wave (km/s) = 4.59155 5.10634 4.85577
#
# Compressibility (1/GPa) = 0.04776178
#
# Stress axis : x y z
#
# Youngs Moduli (GPa) = 37.82380 30.68457 40.42247
#
# Poissons Ratio (x) = 0.50399 -0.47971
# Poissons Ratio (y) = 0.62125 0.54348
# Poissons Ratio (z) = -0.44887 0.41256
#
# Static dielectric constant tensor:
#      x y z
#    x 1.705280 0.000000 -0.031570 
#    y 0.000000 1.675090 0.000000 
#    z -0.031570 0.000000 1.739270 
# 
# From -- ./inp_files/108771.got.cif
#   From: 2010.05.17/outbox.cif.g08.bks.cpg/sg12_55_cif.got.tgz:108771.got - 2010.06.03 13:09:07.
