data_PCOD9209370
_publ_section_title
;
Structure prediction by ZEFSAII (Michael W. Deem and Ramdas Pophale) SiO2 
 PCOD9209370
Probable space group: C 2/M
;
_chemical_formula_sum "Si O2"
_cell_formula_units_Z 52
_cell_length_a 19.064292
_cell_length_b 9.255645
_cell_length_c 22.506345
_cell_angle_alpha 90.000000
_cell_angle_beta 143.007660
_cell_angle_gamma 90.000000
_cell_volume 2389.562013
_symmetry_space_group_name_H-M "C 2/M"
_symmetry_group_IT_number 12
_symmetry_cell_setting 'monoclinic'
loop_
_space_group_symop_operation_xyz
x,y,z
-x,y,-z
-x,-y,-z
x,-y,z
1/2+x,1/2+y,z
1/2-x,1/2+y,-z
1/2-x,1/2-y,-z
1/2+x,1/2-y,z
loop_
_atom_site_type_symbol
_atom_site_label
_atom_site_fract_x
_atom_site_fract_y
_atom_site_fract_z
Si Si1 0.919912 0.170350 0.004181
Si Si2 0.194036 0.341419 0.713435
Si Si3 0.714981 0.329010 0.914778
Si Si4 0.563850 0.333346 0.291858
Si Si5 0.500288 0.336952 0.628011
Si Si6 0.604071 0.829687 0.206300
Si Si7 0.500000 0.759269 0.500000
O O1 0.797289 0.253178 0.921279
O O2 0.903018 0.000000 0.003429
O O3 0.000000 0.187762 0.000000
O O4 0.992952 0.243641 0.106355
O O5 0.242694 0.500000 0.759801
O O6 0.102552 0.281351 0.699066
O O7 0.290781 0.224818 0.763677
O O8 0.110579 0.346059 0.598791
O O9 0.741349 0.500000 0.936123
O O10 0.576778 0.315590 0.809765
O O11 0.750000 0.250000 0.000000
O O12 0.592288 0.500000 0.295395
O O13 0.587903 0.309422 0.377982
O O14 0.623211 0.225629 0.286171
O O15 0.545515 0.500000 0.668522
O O16 0.461165 0.327540 0.532756
O O17 0.588157 0.000000 0.192459
#
# Coordination Sequence:
#
# PCOD9209370 Si02
#       7
#     8   8   8   8   8   8   4
#     4  11  25  42  60  86 120 158 201 248 299 354
#     4  10  21  38  62  88 119 154 192 242 297 355
#     4  11  22  38  62  87 118 160 203 248 296 350
#     4  10  22  40  60  87 123 161 198 244 302 354
#     4   9  19  36  62  92 120 152 195 244 293 354
#     4  12  25  40  60  87 119 157 200 248 300 351
#     4   8  20  36  66  92 118 156 194 242 296 358
#
# _framework density 21.761310000000002
#
# number of rings (size 3 to 8) (size 9 to 14) (size 15 to 20)
#    0.923    0.769    1.538    3.231    2.154    2.462 
#    0.000    0.769    0.000    0.000    0.000    0.000 
#    0.000    0.000    0.000    0.000    0.000    0.000 
#
# Total GULP energy -145038.665955 kJ/mol
# GULP energy per Si atom -5578.410229 kJ/mol
# Density = 2.171178 g / cm^3
# Si number density = 21.761310 Si / 1000 Ang^3
#
#
#
# Elastic Constant Matrix: (Units=GPa)
#
#
# Indices 1 2 3 4 5 6 
#
# 1 70.3686 48.3575 -12.6309 0.0000 -17.0084 0.0000
# 2 48.3575 125.9143 0.4733 0.0000 -14.0309 0.0000
# 3 -12.6309 0.4733 39.8199 0.0000 -13.2390 0.0000
# 4 0.0000 0.0000 0.0000 15.8309 0.0000 5.9697
# 5 -17.0084 -14.0309 -13.2390 0.0000 36.6610 0.0000
# 6 0.0000 0.0000 0.0000 5.9697 0.0000 27.6288
#
#
#
# Elastic Compliance Matrix: (Units=1/GPa)
#
#
# Indices 1 2 3 4 5 6 
#
# 1 0.025326 -0.008317 0.012479 0.000000 0.013073 0.000000
# 2 -0.008317 0.011068 -0.003005 0.000000 -0.000707 0.000000
# 3 0.012479 -0.003005 0.034831 0.000000 0.017218 0.000000
# 4 0.000000 0.000000 0.000000 0.068771 0.000000 -0.014859
# 5 0.013073 -0.000707 0.017218 0.000000 0.039289 0.000000
# 6 0.000000 0.000000 0.000000 -0.014859 0.000000 0.039405
#
#
# Mechanical properties :
#
#
# Convention : Reuss Voigt Hill
#
# Bulk Modulus (GPa) = 13.59806 34.27806 23.93806
# Shear Modulus (GPa) = 20.75647 29.35099 25.05373
#
# Velocity S-wave (km/s) = 3.09176 3.67654 3.39676
# Velocity P-wave (km/s) = 4.35977 5.81452 5.13888
#
# Compressibility (1/GPa) = 0.07353993
#
# Stress axis : x y z
#
# Youngs Moduli (GPa) = 39.48569 90.34767 28.70975
#
# Poissons Ratio (x) = 0.75138 -0.35826
# Poissons Ratio (y) = 0.32838 0.08627
# Poissons Ratio (z) = -0.49272 0.27147
#
# Static dielectric constant tensor:
#      x y z
#    x 1.832180 0.000000 -0.047190 
#    y 0.000000 1.752410 0.000000 
#    z -0.047190 0.000000 1.879110 
# 
# From -- ./inp_files/346325.got.cif
#   From: 2010.05.17/outbox.cif.g08.bks.cpg/sg12_174_cif.got.tgz:346325.got - 2010.06.03 13:09:07.
