data_PCOD9209852
_publ_section_title
;
Structure prediction by ZEFSAII (Michael W. Deem and Ramdas Pophale) SiO2 
 PCOD9209852
Probable space group: C 2/M
;
_chemical_formula_sum "Si O2"
_cell_formula_units_Z 48
_cell_length_a 14.873695
_cell_length_b 10.764291
_cell_length_c 20.692396
_cell_angle_alpha 90.000000
_cell_angle_beta 43.523220
_cell_angle_gamma 90.000000
_cell_volume 2281.459066
_symmetry_space_group_name_H-M "C 2/M"
_symmetry_group_IT_number 12
_symmetry_cell_setting 'monoclinic'
loop_
_space_group_symop_operation_xyz
x,y,z
-x,y,-z
-x,-y,-z
x,-y,z
1/2+x,1/2+y,z
1/2-x,1/2+y,-z
1/2-x,1/2-y,-z
1/2+x,1/2-y,z
loop_
_atom_site_type_symbol
_atom_site_label
_atom_site_fract_x
_atom_site_fract_y
_atom_site_fract_z
Si Si1 0.568554 0.636601 0.101279
Si Si2 0.736299 0.638159 0.221775
Si Si3 0.628278 0.854873 0.476115
Si Si4 0.528929 0.140541 0.314460
Si Si5 0.364347 0.223732 0.284382
Si Si6 0.651056 0.862414 0.974335
O O1 0.560661 0.500000 0.075447
O O2 0.445719 0.663175 0.210843
O O3 0.700426 0.641331 0.075343
O O4 0.580144 0.747650 0.044338
O O5 0.674796 0.500000 0.248448
O O6 0.635424 0.751931 0.268053
O O7 0.806686 0.649687 0.253831
O O8 0.834288 0.648310 0.110100
O O9 0.500000 0.828373 0.500000
O O10 0.582821 0.838146 0.573465
O O11 0.746277 0.772180 0.389818
O O12 0.661613 0.000000 0.449385
O O13 0.465167 0.150876 0.277182
O O14 0.580740 0.000000 0.298005
O O15 0.598563 0.000000 0.018433
#
# Coordination Sequence:
#
# PCOD9209852 Si02
#       6
#     8   8   8   8   8   8
#     4  10  21  38  65  97 126 167 217 262 318 382
#     4  11  24  43  66  96 132 170 215 265 323 383
#     4  10  21  40  65  94 132 174 214 261 322 383
#     4  11  24  43  66  96 131 170 217 267 321 379
#     4  12  23  40  67  99 130 167 216 269 319 382
#     4   9  20  41  63  89 128 171 211 261 321 381
#
# _framework density 21.039168
#
# number of rings (size 3 to 8) (size 9 to 14) (size 15 to 20)
#    0.000    1.500    3.333    1.500    0.000    4.000 
#    0.000    5.000    0.000    0.000    0.000    0.000 
#    0.000    0.000    0.000    0.000    0.000    0.000 
#
# Total GULP energy -134160.518081 kJ/mol
# GULP energy per Si atom -5590.021587 kJ/mol
# Density = 2.099128 g / cm^3
# Si number density = 21.039168 Si / 1000 Ang^3
#
#
#
# Elastic Constant Matrix: (Units=GPa)
#
#
# Indices 1 2 3 4 5 6 
#
# 1 101.6754 58.3342 29.6797 0.0000 17.7219 0.0000
# 2 58.3342 155.8801 55.8587 0.0000 9.5832 0.0000
# 3 29.6797 55.8587 56.3834 0.0000 15.9605 0.0000
# 4 0.0000 0.0000 0.0000 32.9986 0.0000 3.9456
# 5 17.7219 9.5832 15.9605 0.0000 24.4607 0.0000
# 6 0.0000 0.0000 0.0000 3.9456 0.0000 15.5532
#
#
#
# Elastic Compliance Matrix: (Units=1/GPa)
#
#
# Indices 1 2 3 4 5 6 
#
# 1 0.014003 -0.004522 -0.000638 0.000000 -0.007957 0.000000
# 2 -0.004522 0.011603 -0.010739 0.000000 0.005738 0.000000
# 3 -0.000638 -0.010739 0.033593 0.000000 -0.017250 0.000000
# 4 0.000000 0.000000 0.000000 0.031252 0.000000 -0.007928
# 5 -0.007957 0.005738 -0.017250 0.000000 0.055654 0.000000
# 6 0.000000 0.000000 0.000000 -0.007928 0.000000 0.066307
#
#
# Mechanical properties :
#
#
# Convention : Reuss Voigt Hill
#
# Bulk Modulus (GPa) = 36.49549 66.85377 51.67463
# Shear Modulus (GPa) = 19.73594 25.94026 22.83810
#
# Velocity S-wave (km/s) = 3.06609 3.51515 3.29827
# Velocity P-wave (km/s) = 5.46980 6.95125 6.25454
#
# Compressibility (1/GPa) = 0.02740065
#
# Stress axis : x y z
#
# Youngs Moduli (GPa) = 71.41289 86.18509 29.76779
#
# Poissons Ratio (x) = 0.38976 0.01900
# Poissons Ratio (y) = 0.32295 0.31966
# Poissons Ratio (z) = 0.04559 0.92551
#
# Static dielectric constant tensor:
#      x y z
#    x 1.780190 0.000000 -0.003100 
#    y 0.000000 1.743080 0.000000 
#    z -0.003100 0.000000 1.729450 
# 
# From -- ./inp_files/310190.got.cif
#   From: 2010.05.17/outbox.cif.g08.bks.cpg/sg12_156_cif.got.tgz:310190.got - 2010.06.03 13:09:07.
