data_PCOD9209503
_publ_section_title
;
Structure prediction by ZEFSAII (Michael W. Deem and Ramdas Pophale) SiO2 
 PCOD9209503
Probable space group: C 2/M
;
_chemical_formula_sum "Si O2"
_cell_formula_units_Z 52
_cell_length_a 27.706732
_cell_length_b 7.689959
_cell_length_c 12.520648
_cell_angle_alpha 90.000000
_cell_angle_beta 72.581564
_cell_angle_gamma 90.000000
_cell_volume 2545.365093
_symmetry_space_group_name_H-M "C 2/M"
_symmetry_group_IT_number 12
_symmetry_cell_setting 'monoclinic'
loop_
_space_group_symop_operation_xyz
x,y,z
-x,y,-z
-x,-y,-z
x,-y,z
1/2+x,1/2+y,z
1/2-x,1/2+y,-z
1/2-x,1/2-y,-z
1/2+x,1/2-y,z
loop_
_atom_site_type_symbol
_atom_site_label
_atom_site_fract_x
_atom_site_fract_y
_atom_site_fract_z
Si Si1 0.192127 0.709249 0.007654
Si Si2 0.014655 0.802092 0.366447
Si Si3 0.286903 0.791292 0.622765
Si Si4 0.822684 0.297811 0.221248
Si Si5 0.442788 0.000000 0.368586
Si Si6 0.870090 0.289882 0.746762
Si Si7 0.364340 0.309018 0.408221
O O1 0.188822 0.500000 0.005810
O O2 0.178191 0.773249 0.898551
O O3 0.250000 0.750000 0.000000
O O4 0.154472 0.769933 0.125342
O O5 0.074680 0.782680 0.312823
O O6 0.000000 0.765255 0.500000
O O7 0.985303 0.654293 0.321601
O O8 0.000475 0.000000 0.350047
O O9 0.234606 0.713885 0.698227
O O10 0.330166 0.746698 0.680734
O O11 0.309373 0.720636 0.497646
O O12 0.281398 0.000000 0.621285
O O13 0.838645 0.500000 0.209937
O O14 0.857316 0.204518 0.285451
O O15 0.400138 0.847019 0.420310
O O16 0.874185 0.500000 0.746141
O O17 0.382420 0.500000 0.427815
#
# Coordination Sequence:
#
# PCOD9209503 Si02
#       7
#     8   8   8   8   4   8   8
#     4  10  21  38  62  92 130 170 211 263 324 387
#     4  11  24  40  65  98 132 170 218 271 334 388
#     4  11  21  36  60  91 133 171 213 263 322 392
#     4  11  22  39  60  90 131 172 217 271 320 386
#     4  12  23  44  64  89 130 168 220 275 320 379
#     4  10  21  38  62  94 132 172 209 264 332 387
#     4  12  25  41  63  91 126 176 224 268 325 382
#
# _framework density 20.429289000000001
#
# number of rings (size 3 to 8) (size 9 to 14) (size 15 to 20)
#    0.000    1.077    3.846    3.000    2.154    3.692 
#    0.000    0.000    0.000    1.846    0.000    2.154 
#    0.000    0.000    0.000    0.000    0.000    0.000 
#
# Total GULP energy -144885.196593 kJ/mol
# GULP energy per Si atom -5572.507561 kJ/mol
# Density = 2.038279 g / cm^3
# Si number density = 20.429289 Si / 1000 Ang^3
#
#
#
# Elastic Constant Matrix: (Units=GPa)
#
#
# Indices 1 2 3 4 5 6 
#
# 1 55.2389 13.6937 13.5250 0.0000 -27.7379 0.0000
# 2 13.6937 102.9342 9.4352 0.0000 2.1347 0.0000
# 3 13.5250 9.4352 118.5597 0.0000 -6.0915 0.0000
# 4 0.0000 0.0000 0.0000 6.1534 0.0000 -9.4298
# 5 -27.7379 2.1347 -6.0915 0.0000 26.4901 0.0000
# 6 0.0000 0.0000 0.0000 -9.4298 0.0000 21.4960
#
#
#
# Elastic Compliance Matrix: (Units=1/GPa)
#
#
# Indices 1 2 3 4 5 6 
#
# 1 0.042635 -0.006410 -0.002058 0.000000 0.044687 0.000000
# 2 -0.006410 0.010775 -0.000522 0.000000 -0.007700 0.000000
# 3 -0.002058 -0.000522 0.008705 0.000000 -0.000111 0.000000
# 4 0.000000 0.000000 0.000000 0.495838 0.000000 0.217513
# 5 0.044687 -0.007700 -0.000111 0.000000 0.085137 0.000000
# 6 0.000000 0.000000 0.000000 0.217513 0.000000 0.141938
#
#
# Mechanical properties :
#
#
# Convention : Reuss Voigt Hill
#
# Bulk Modulus (GPa) = 22.65696 38.89339 30.77518
# Shear Modulus (GPa) = 6.11456 26.83315 16.47386
#
# Velocity S-wave (km/s) = 1.73192 3.62811 2.84277
# Velocity P-wave (km/s) = 3.88766 6.05229 5.08646
#
# Compressibility (1/GPa) = 0.04413654
#
# Stress axis : x y z
#
# Youngs Moduli (GPa) = 23.45471 92.80543 114.87457
#
# Poissons Ratio (x) = 0.59489 0.23637
# Poissons Ratio (y) = 0.15035 0.05995
# Poissons Ratio (z) = 0.04826 0.04844
#
# Static dielectric constant tensor:
#      x y z
#    x 1.730340 0.000000 0.036270 
#    y 0.000000 1.735380 0.000000 
#    z 0.036270 0.000000 1.750220 
# 
# From -- ./inp_files/179897.got.cif
#   From: 2010.05.17/outbox.cif.g08.bks.cpg/sg12_90_cif.got.tgz:179897.got - 2010.06.03 13:09:07.
