data_PCOD9209142
_publ_section_title
;
Structure prediction by ZEFSAII (Michael W. Deem and Ramdas Pophale) SiO2 
 PCOD9209142
Probable space group: C 2/M
;
_chemical_formula_sum "Si O2"
_cell_formula_units_Z 56
_cell_length_a 19.642656
_cell_length_b 9.033896
_cell_length_c 22.013799
_cell_angle_alpha 90.000000
_cell_angle_beta 55.595765
_cell_angle_gamma 90.000000
_cell_volume 3223.012610
_symmetry_space_group_name_H-M "C 2/M"
_symmetry_group_IT_number 12
_symmetry_cell_setting 'monoclinic'
loop_
_space_group_symop_operation_xyz
x,y,z
-x,y,-z
-x,-y,-z
x,-y,z
1/2+x,1/2+y,z
1/2-x,1/2+y,-z
1/2-x,1/2-y,-z
1/2+x,1/2-y,z
loop_
_atom_site_type_symbol
_atom_site_label
_atom_site_fract_x
_atom_site_fract_y
_atom_site_fract_z
Si Si1 0.972310 0.677798 0.698542
Si Si2 0.731240 0.822907 0.314021
Si Si3 0.561392 0.323560 0.413613
Si Si4 0.585156 0.322981 0.738617
Si Si5 0.866311 0.676853 0.052876
Si Si6 0.012704 0.678305 0.894844
Si Si7 0.711694 0.823634 0.181944
O O1 0.977229 0.500000 0.693573
O O2 0.967739 0.743162 0.633224
O O3 0.884581 0.716932 0.774913
O O4 0.045851 0.746895 0.699871
O O5 0.653202 0.737040 0.379944
O O6 0.818223 0.787695 0.300829
O O7 0.735364 0.786342 0.239963
O O8 0.716813 0.000000 0.325243
O O9 0.500000 0.291960 0.500000
O O10 0.563837 0.500000 0.402576
O O11 0.576847 0.500000 0.739604
O O12 0.537725 0.260849 0.821427
O O13 0.858175 0.500000 0.054977
O O14 0.920544 0.711675 0.085829
O O15 0.777092 0.748312 0.104861
O O16 0.923558 0.721062 0.967191
O O17 0.013341 0.500000 0.885188
O O18 0.718392 0.000000 0.171905
#
# Coordination Sequence:
#
# PCOD9209142 Si02
#       7
#     8   8   8   8   8   8   8
#     4  10  22  38  56  79 110 145 177 215 268 321
#     4   9  19  34  54  81 110 141 177 218 263 314
#     4  10  21  38  61  88 112 136 173 216 255 308
#     4  11  21  35  54  80 110 141 182 225 266 315
#     4   9  17  29  48  74 103 137 181 226 268 316
#     4   9  18  31  47  73 107 141 177 222 274 320
#     4   9  17  32  51  74 103 135 178 225 268 315
#
# _framework density 17.375049000000001
#
# number of rings (size 3 to 8) (size 9 to 14) (size 15 to 20)
#    0.000    2.429    1.429    3.000    0.000    5.714 
#    0.000    2.857    0.000    0.000    0.000    0.000 
#    0.000    0.000    0.000    0.000    0.000    0.000 
#
# Total GULP energy -156199.583255 kJ/mol
# GULP energy per Si atom -5578.556545 kJ/mol
# Density = 1.733550 g / cm^3
# Si number density = 17.375049 Si / 1000 Ang^3
#
#
#
# Elastic Constant Matrix: (Units=GPa)
#
#
# Indices 1 2 3 4 5 6 
#
# 1 109.9601 49.7759 50.8977 0.0000 -8.8373 0.0002
# 2 49.7759 48.1972 52.3361 0.0000 -7.7437 0.0004
# 3 50.8977 52.3361 108.8016 0.0000 -19.3536 0.0000
# 4 0.0000 0.0000 0.0000 25.6938 0.0000 -6.6867
# 5 -8.8373 -7.7437 -19.3536 0.0000 19.1382 0.0000
# 6 0.0002 0.0004 0.0000 -6.6867 0.0000 26.3526
#
#
#
# Elastic Compliance Matrix: (Units=1/GPa)
#
#
# Indices 1 2 3 4 5 6 
#
# 1 0.017177 -0.018984 0.001391 0.000000 0.001657 0.000000
# 2 -0.018984 0.064714 -0.023350 0.000000 -0.006194 -0.000001
# 3 0.001391 -0.023350 0.022199 0.000000 0.013643 0.000000
# 4 0.000000 0.000000 0.000000 0.041672 0.000000 0.010574
# 5 0.001657 -0.006194 0.013643 0.000000 0.064307 0.000000
# 6 0.000000 -0.000001 0.000000 0.010574 0.000000 0.040630
#
#
# Mechanical properties :
#
#
# Convention : Reuss Voigt Hill
#
# Bulk Modulus (GPa) = 45.03662 63.66425 54.35044
# Shear Modulus (GPa) = 14.70652 21.83355 18.27003
#
# Velocity S-wave (km/s) = 2.91248 3.54871 3.24622
# Velocity P-wave (km/s) = 6.10628 7.31518 6.73789
#
# Compressibility (1/GPa) = 0.02220415
#
# Stress axis : x y z
#
# Youngs Moduli (GPa) = 58.21731 15.45269 45.04691
#
# Poissons Ratio (x) = 0.29335 -0.06266
# Poissons Ratio (y) = 1.10519 1.05184
# Poissons Ratio (z) = -0.08098 0.36082
#
# Static dielectric constant tensor:
#      x y z
#    x 1.591960 0.000000 -0.008370 
#    y 0.000000 1.575970 0.000000 
#    z -0.008370 0.000000 1.574010 
# 
# From -- ./inp_files/313721.got.cif
#   From: 2010.05.17/outbox.cif.g08.bks.cpg/sg12_157_cif.got.tgz:313721.got - 2010.06.03 13:09:07.
