data_PCOD9209622
_publ_section_title
;
Structure prediction by ZEFSAII (Michael W. Deem and Ramdas Pophale) SiO2 
 PCOD9209622
Probable space group: C 2/M
;
_chemical_formula_sum "Si O2"
_cell_formula_units_Z 52
_cell_length_a 18.430079
_cell_length_b 19.159646
_cell_length_c 7.358830
_cell_angle_alpha 90.000000
_cell_angle_beta 102.443919
_cell_angle_gamma 90.000000
_cell_volume 2537.458698
_symmetry_space_group_name_H-M "C 2/M"
_symmetry_group_IT_number 12
_symmetry_cell_setting 'monoclinic'
loop_
_space_group_symop_operation_xyz
x,y,z
-x,y,-z
-x,-y,-z
x,-y,z
1/2+x,1/2+y,z
1/2-x,1/2+y,-z
1/2-x,1/2-y,-z
1/2+x,1/2-y,z
loop_
_atom_site_type_symbol
_atom_site_label
_atom_site_fract_x
_atom_site_fract_y
_atom_site_fract_z
Si Si1 0.302045 0.500000 0.236342
Si Si2 0.343763 0.000000 0.589959
Si Si3 0.264109 0.500000 0.778699
Si Si4 0.572096 0.862059 0.428397
Si Si5 0.475274 0.719126 0.775617
Si Si6 0.118175 0.858802 0.760378
Si Si7 0.162238 0.140774 0.189375
Si Si8 0.294800 0.770694 0.342449
O O1 0.228890 0.500000 0.321735
O O2 0.353055 0.432037 0.301644
O O3 0.272932 0.500000 0.005613
O O4 0.315946 0.000000 0.362795
O O5 0.390143 0.928959 0.644626
O O6 0.305402 0.568262 0.727051
O O7 0.500000 0.887066 0.500000
O O8 0.539913 0.798319 0.291153
O O9 0.637430 0.823504 0.578763
O O10 0.537900 0.677537 0.697552
O O11 0.397669 0.677922 0.716320
O O12 0.500000 0.720827 0.000000
O O13 0.174912 0.798733 0.732216
O O14 0.122629 0.872583 0.978114
O O15 0.232667 0.190041 0.192383
O O16 0.250000 0.750000 0.500000
#
# Coordination Sequence:
#
# PCOD9209622 Si02
#       8
#     4   4   4   8   8   8   8   8
#     4  10  24  42  67  99 130 171 214 263 326 387
#     4  12  25  46  67  93 131 172 216 274 321 381
#     4  10  22  42  63 100 130 163 222 263 322 382
#     4  12  24  43  64  91 130 168 216 266 324 384
#     4  10  22  41  64  94 131 167 211 261 325 385
#     4  10  22  40  61  92 130 164 209 262 317 386
#     4  10  21  38  63  92 125 168 210 261 318 383
#     4  12  21  35  64  90 120 166 213 265 311 372
#
# _framework density 20.492944000000001
#
# number of rings (size 3 to 8) (size 9 to 14) (size 15 to 20)
#    0.000    1.231    4.615    1.615    0.000    0.615 
#    5.538    3.462    0.000    1.846    0.000    0.000 
#    0.000    0.000    0.000    0.000    0.000    0.000 
#
# Total GULP energy -145085.595140 kJ/mol
# GULP energy per Si atom -5580.215198 kJ/mol
# Density = 2.044630 g / cm^3
# Si number density = 20.492944 Si / 1000 Ang^3
#
#
#
# Elastic Constant Matrix: (Units=GPa)
#
#
# Indices 1 2 3 4 5 6 
#
# 1 154.5044 89.7096 18.9850 0.0000 -6.1613 0.0000
# 2 89.7096 186.2873 7.3051 0.0000 -9.7489 0.0000
# 3 18.9850 7.3051 42.8954 0.0000 0.2336 0.0000
# 4 0.0000 0.0000 0.0000 12.2511 0.0000 19.1581
# 5 -6.1613 -9.7489 0.2336 0.0000 28.7936 0.0000
# 6 0.0000 0.0000 0.0000 19.1581 0.0000 25.8246
#
#
#
# Elastic Compliance Matrix: (Units=1/GPa)
#
#
# Indices 1 2 3 4 5 6 
#
# 1 0.009471 -0.004396 -0.003446 0.000000 0.000566 0.000000
# 2 -0.004396 0.007544 0.000652 0.000000 0.001608 0.000000
# 3 -0.003446 0.000652 0.024731 0.000000 -0.000717 0.000000
# 4 0.000000 0.000000 0.000000 -0.509828 0.000000 0.378219
# 5 0.000566 0.001608 -0.000717 0.000000 0.035401 0.000000
# 6 0.000000 0.000000 0.000000 0.378219 0.000000 -0.241861
#
#
# Mechanical properties :
#
#
# Convention : Reuss Voigt Hill
#
# Bulk Modulus (GPa) = 36.54295 68.40961 52.47628
# Shear Modulus (GPa) = -7.68001 31.21968 11.76984
#
# Velocity S-wave (km/s) = -1.93798 3.90736 2.39913
# Velocity P-wave (km/s) = 3.58650 7.33560 5.77382
#
# Compressibility (1/GPa) = 0.02736506
#
# Stress axis : x y z
#
# Youngs Moduli (GPa) = 105.58770 132.56233 40.43585
#
# Poissons Ratio (x) = 0.58275 0.13935
# Poissons Ratio (y) = 0.46417 -0.02637
# Poissons Ratio (z) = 0.36386 -0.08646
#
# Static dielectric constant tensor:
#      x y z
#    x 1.735510 0.000000 0.024230 
#    y 0.000000 1.711190 0.000000 
#    z 0.024230 0.000000 1.792180 
# 
# From -- ./inp_files/75350.got.cif
#   From: 2010.05.17/outbox.cif.g08.bks.cpg/sg12_38_cif.got.tgz:75350.got - 2010.06.03 13:09:07.
