data_PCOD9209849
_publ_section_title
;
Structure prediction by ZEFSAII (Michael W. Deem and Ramdas Pophale) SiO2 
 PCOD9209849
Probable space group: C 2/M
;
_chemical_formula_sum "Si O2"
_cell_formula_units_Z 30
_cell_length_a 4.724184
_cell_length_b 23.449934
_cell_length_c 10.617620
_cell_angle_alpha 90.000000
_cell_angle_beta 103.841579
_cell_angle_gamma 90.000000
_cell_volume 1142.082190
_symmetry_space_group_name_H-M "C 2/M"
_symmetry_group_IT_number 12
_symmetry_cell_setting 'monoclinic'
loop_
_space_group_symop_operation_xyz
x,y,z
-x,y,-z
-x,-y,-z
x,-y,z
1/2+x,1/2+y,z
1/2-x,1/2+y,-z
1/2-x,1/2-y,-z
1/2+x,1/2-y,z
loop_
_atom_site_type_symbol
_atom_site_label
_atom_site_fract_x
_atom_site_fract_y
_atom_site_fract_z
Si Si1 0.106567 0.287394 0.251255
Si Si2 0.500000 0.000000 0.500000
Si Si3 0.819180 0.064952 0.662374
Si Si4 0.790453 0.889934 0.088377
Si Si5 0.000000 0.836673 0.500000
O O1 0.272486 0.230000 0.225506
O O2 0.167544 0.339059 0.162987
O O3 0.250948 0.301873 0.401066
O O4 0.474546 0.947215 0.613035
O O5 0.999897 0.069407 0.807182
O O6 0.878656 0.121813 0.594669
O O7 0.859393 0.000000 0.602697
O O8 0.500000 0.918159 0.000000
O O9 0.000000 0.868165 0.000000
#
# Coordination Sequence:
#
# PCOD9209849 Si02
#       5
#     8   2   8   8   4
#     4  11  24  42  67  98 131 175 221 279 338 388
#     4   8  20  38  62  96 128 172 212 266 332 398
#     4   9  21  41  64  99 134 178 215 275 337 393
#     4  11  25  44  67  98 135 180 230 272 321 399
#     4  10  21  38  65  96 134 169 221 278 334 406
#
# _framework density 26.267810999999998
#
# number of rings (size 3 to 8) (size 9 to 14) (size 15 to 20)
#    0.800    1.067    0.000    2.800    0.000   12.800 
#    0.000    0.000    0.000    0.000    0.000    0.000 
#    0.000    0.000    0.000    0.000    0.000    0.000 
#
# Total GULP energy -83621.345853 kJ/mol
# GULP energy per Si atom -5574.756390 kJ/mol
# Density = 2.620802 g / cm^3
# Si number density = 26.267811 Si / 1000 Ang^3
#
#
#
# Elastic Constant Matrix: (Units=GPa)
#
#
# Indices 1 2 3 4 5 6 
#
# 1 76.8431 25.0842 46.6453 0.0000 21.6382 0.0000
# 2 25.0842 92.6977 47.7773 0.0000 5.8677 0.0000
# 3 46.6453 47.7773 177.5421 0.0000 42.8018 0.0000
# 4 0.0000 0.0000 0.0000 33.8557 0.0000 18.3794
# 5 21.6382 5.8677 42.8018 0.0000 50.6805 0.0000
# 6 0.0000 0.0000 0.0000 18.3794 0.0000 32.0956
#
#
#
# Elastic Compliance Matrix: (Units=1/GPa)
#
#
# Indices 1 2 3 4 5 6 
#
# 1 0.016824 -0.002977 -0.002474 0.000000 -0.004749 0.000000
# 2 -0.002977 0.013177 -0.003393 0.000000 0.002611 0.000000
# 3 -0.002474 -0.003393 0.008597 0.000000 -0.005811 0.000000
# 4 0.000000 0.000000 0.000000 0.042862 0.000000 -0.024545
# 5 -0.004749 0.002611 -0.005811 0.000000 0.026364 0.000000
# 6 0.000000 0.000000 0.000000 -0.024545 0.000000 0.045212
#
#
# Mechanical properties :
#
#
# Convention : Reuss Voigt Hill
#
# Bulk Modulus (GPa) = 47.82634 65.12183 56.47408
# Shear Modulus (GPa) = 28.13806 38.49811 33.31808
#
# Velocity S-wave (km/s) = 3.27647 3.83247 3.56532
# Velocity P-wave (km/s) = 5.70617 6.66551 6.20441
#
# Compressibility (1/GPa) = 0.02090898
#
# Stress axis : x y z
#
# Youngs Moduli (GPa) = 59.43715 75.88978 116.32509
#
# Poissons Ratio (x) = 0.22591 0.28782
# Poissons Ratio (y) = 0.17694 0.39474
# Poissons Ratio (z) = 0.14706 0.25752
#
# Static dielectric constant tensor:
#      x y z
#    x 2.023630 0.000000 -0.088010 
#    y 0.000000 2.034420 0.000000 
#    z -0.088010 0.000000 2.163410 
# 
# From -- ./inp_files/114895.got.cif
#   From: 2010.05.17/outbox.cif.g08.bks.cpg/sg12_58_cif.got.tgz:114895.got - 2010.06.03 13:09:07.
