data_PCOD9209279
_publ_section_title
;
Structure prediction by ZEFSAII (Michael W. Deem and Ramdas Pophale) SiO2 
 PCOD9209279
Probable space group: C 2/M
;
_chemical_formula_sum "Si O2"
_cell_formula_units_Z 64
_cell_length_a 23.689167
_cell_length_b 15.215854
_cell_length_c 9.088694
_cell_angle_alpha 90.000000
_cell_angle_beta 93.026707
_cell_angle_gamma 90.000000
_cell_volume 3271.458034
_symmetry_space_group_name_H-M "C 2/M"
_symmetry_group_IT_number 12
_symmetry_cell_setting 'monoclinic'
loop_
_space_group_symop_operation_xyz
x,y,z
-x,y,-z
-x,-y,-z
x,-y,z
1/2+x,1/2+y,z
1/2-x,1/2+y,-z
1/2-x,1/2-y,-z
1/2+x,1/2-y,z
loop_
_atom_site_type_symbol
_atom_site_label
_atom_site_fract_x
_atom_site_fract_y
_atom_site_fract_z
Si Si1 0.940527 0.897976 0.944751
Si Si2 0.723741 0.593263 0.740583
Si Si3 0.855181 0.606309 0.250819
Si Si4 0.252124 0.349667 0.561798
Si Si5 0.696921 0.810499 0.044006
Si Si6 0.602559 0.396684 0.736035
Si Si7 0.634057 0.297898 0.289330
Si Si8 0.063943 0.266482 0.558127
O O1 0.912121 0.854215 0.802156
O O2 0.950094 0.000000 0.909765
O O3 0.904289 0.893187 0.088987
O O4 0.000000 0.856818 0.000000
O O5 0.699026 0.500000 0.778418
O O6 0.751621 0.594456 0.586013
O O7 0.769041 0.614612 0.867148
O O8 0.665263 0.645293 0.716757
O O9 0.863285 0.500000 0.242081
O O10 0.798239 0.626230 0.337014
O O11 0.906518 0.658345 0.337318
O O12 0.841071 0.651392 0.091589
O O13 0.250000 0.250000 0.500000
O O14 0.313539 0.356581 0.645134
O O15 0.661209 0.762779 0.166044
O O16 0.750000 0.750000 0.000000
O O17 0.592226 0.500000 0.688270
O O18 0.563242 0.326985 0.646077
O O19 0.604372 0.248416 0.420880
O O20 0.000000 0.288139 0.500000
#
# Coordination Sequence:
#
# PCOD9209279 Si02
#       8
#     8   8   8   8   8   8   8   8
#     4  10  22  39  56  83 126 168 209 257 311 383
#     4  11  21  35  56  86 124 158 191 240 313 389
#     4  12  26  43  66  97 132 175 224 272 328 393
#     4  12  20  40  63  93 130 162 201 261 334 389
#     4  12  22  39  63  90 126 164 205 265 323 396
#     4  10  21  38  61  91 129 168 213 267 324 392
#     4  12  23  37  67  93 126 167 216 266 331 396
#     4  12  25  44  68  92 128 177 227 281 331 384
#
# _framework density 19.563141999999999
#
# number of rings (size 3 to 8) (size 9 to 14) (size 15 to 20)
#    0.000    0.625    5.000    3.750    0.000    2.000 
#    0.000    0.625    0.000    0.750    0.000    0.000 
#    0.000    0.000    0.000    0.000    0.000    0.000 
#
# Total GULP energy -178493.124770 kJ/mol
# GULP energy per Si atom -5577.910149 kJ/mol
# Density = 1.951862 g / cm^3
# Si number density = 19.563142 Si / 1000 Ang^3
#
#
#
# Elastic Constant Matrix: (Units=GPa)
#
#
# Indices 1 2 3 4 5 6 
#
# 1 84.7829 21.6359 37.5310 0.0000 31.0487 0.0000
# 2 21.6359 99.7083 40.0764 0.0000 19.8948 0.0000
# 3 37.5310 40.0764 114.4447 0.0000 22.4737 0.0000
# 4 0.0000 0.0000 0.0000 3.7242 0.0000 6.9443
# 5 31.0487 19.8948 22.4737 0.0000 43.3214 0.0000
# 6 0.0000 0.0000 0.0000 6.9443 0.0000 22.7862
#
#
#
# Elastic Compliance Matrix: (Units=1/GPa)
#
#
# Indices 1 2 3 4 5 6 
#
# 1 0.017227 -0.000247 -0.003519 0.000000 -0.010408 0.000000
# 2 -0.000247 0.012205 -0.003482 0.000000 -0.003622 0.000000
# 3 -0.003519 -0.003482 0.011470 0.000000 -0.001829 0.000000
# 4 0.000000 0.000000 0.000000 0.621920 0.000000 -0.189535
# 5 -0.010408 -0.003622 -0.001829 0.000000 0.033155 0.000000
# 6 0.000000 0.000000 0.000000 -0.189535 0.000000 0.101648
#
#
# Mechanical properties :
#
#
# Convention : Reuss Voigt Hill
#
# Bulk Modulus (GPa) = 37.86931 55.26917 46.56924
# Shear Modulus (GPa) = 6.09070 27.27921 16.68495
#
# Velocity S-wave (km/s) = 1.76638 3.73824 2.92357
# Velocity P-wave (km/s) = 4.85383 6.85169 5.93739
#
# Compressibility (1/GPa) = 0.02640661
#
# Stress axis : x y z
#
# Youngs Moduli (GPa) = 58.04786 81.93412 87.18098
#
# Poissons Ratio (x) = 0.02024 0.30681
# Poissons Ratio (y) = 0.01434 0.30354
# Poissons Ratio (z) = 0.20428 0.28527
#
# Static dielectric constant tensor:
#      x y z
#    x 1.805570 0.000000 -0.000660 
#    y 0.000000 1.772950 0.000000 
#    z -0.000660 0.000000 1.741780 
# 
# From -- ./inp_files/96918.got.cif
#   From: 2010.05.17/outbox.cif.g08.bks.cpg/sg12_49_cif.got.tgz:96918.got - 2010.06.03 13:09:07.
