data_PCOD9209174
_publ_section_title
;
Structure prediction by ZEFSAII (Michael W. Deem and Ramdas Pophale) SiO2 
 PCOD9209174
Probable space group: C 2/M
;
_chemical_formula_sum "Si O2"
_cell_formula_units_Z 56
_cell_length_a 11.065976
_cell_length_b 20.684231
_cell_length_c 12.233211
_cell_angle_alpha 90.000000
_cell_angle_beta 106.261042
_cell_angle_gamma 90.000000
_cell_volume 2688.059959
_symmetry_space_group_name_H-M "C 2/M"
_symmetry_group_IT_number 12
_symmetry_cell_setting 'monoclinic'
loop_
_space_group_symop_operation_xyz
x,y,z
-x,y,-z
-x,-y,-z
x,-y,z
1/2+x,1/2+y,z
1/2-x,1/2+y,-z
1/2-x,1/2-y,-z
1/2+x,1/2-y,z
loop_
_atom_site_type_symbol
_atom_site_label
_atom_site_fract_x
_atom_site_fract_y
_atom_site_fract_z
Si Si1 0.289153 0.500000 0.452974
Si Si2 0.679708 0.866096 0.362673
Si Si3 0.629749 0.159110 0.579535
Si Si4 0.989264 0.124316 0.178846
Si Si5 0.508463 0.500000 0.330379
Si Si6 0.817523 0.078443 0.956139
Si Si7 0.429079 0.697355 0.366470
Si Si8 0.083821 0.577145 0.757470
O O1 0.211006 0.437073 0.412585
O O2 0.403853 0.500000 0.397060
O O3 0.353099 0.500000 0.585661
O O4 0.694368 0.825998 0.480277
O O5 0.795726 0.839806 0.321935
O O6 0.542566 0.878045 0.274070
O O7 0.500000 0.129744 0.500000
O O8 0.599891 0.227026 0.628576
O O9 0.667452 0.106597 0.678395
O O10 0.990703 0.062725 0.256142
O O11 0.001324 0.181946 0.270978
O O12 0.098704 0.111740 0.117994
O O13 0.861515 0.116305 0.075531
O O14 0.671957 0.083905 0.885874
O O15 0.845703 0.000000 0.970189
O O16 0.500000 0.677698 0.500000
O O17 0.058726 0.500000 0.736385
#
# Coordination Sequence:
#
# PCOD9209174 Si02
#       8
#     4   8   8   8   4   8   8   8
#     4  11  22  30  53  96 125 155 187 246 312 365
#     4  11  21  36  57  86 127 156 196 240 305 363
#     4   9  22  38  57  87 120 159 201 244 297 366
#     4  11  20  37  60  87 122 157 201 254 299 351
#     4  11  20  33  52  91 130 150 190 252 304 350
#     4  10  21  38  61  88 120 158 205 251 301 350
#     4  11  23  39  60  90 122 161 199 247 306 362
#     4  10  22  39  59  86 119 161 203 248 296 358
#
# _framework density 20.832868999999999
#
# number of rings (size 3 to 8) (size 9 to 14) (size 15 to 20)
#    0.000    1.571    3.571    1.714    5.000    0.857 
#    0.000    1.429    0.000    2.571    0.000    0.000 
#    0.000    0.000    0.000    0.000    0.000    0.000 
#
# Total GULP energy -155921.134222 kJ/mol
# GULP energy per Si atom -5568.611937 kJ/mol
# Density = 2.078545 g / cm^3
# Si number density = 20.832869 Si / 1000 Ang^3
#
#
#
# Elastic Constant Matrix: (Units=GPa)
#
#
# Indices 1 2 3 4 5 6 
#
# 1 55.0743 -10.3204 6.8554 0.0000 19.7448 0.0000
# 2 -10.3204 -5.8027 -56.6054 0.0000 16.6430 0.0000
# 3 6.8554 -56.6054 28.2514 0.0000 32.0463 0.0000
# 4 0.0000 0.0000 0.0000 26.0026 0.0000 -18.5515
# 5 19.7448 16.6430 32.0463 0.0000 37.1877 0.0000
# 6 0.0000 0.0000 0.0000 -18.5515 0.0000 38.2544
#
#
#
# Elastic Compliance Matrix: (Units=1/GPa)
#
#
# Indices 1 2 3 4 5 6 
#
# 1 0.020063 -0.002917 -0.004873 0.000000 -0.005148 0.000000
# 2 -0.002917 0.000298 -0.013363 0.000000 0.012931 0.000000
# 3 -0.004873 -0.013363 0.003812 0.000000 0.005283 0.000000
# 4 0.000000 0.000000 0.000000 0.058803 0.000000 0.028516
# 5 -0.005148 0.012931 0.005283 0.000000 0.019284 0.000000
# 6 0.000000 0.000000 0.000000 0.028516 0.000000 0.039970
#
#
# Mechanical properties :
#
#
# Convention : Reuss Voigt Hill
#
# Bulk Modulus (GPa) = -55.15068 -4.73532 -29.94300
# Shear Modulus (GPa) = 28.01278 29.46183 28.73731
#
# Velocity S-wave (km/s) = 3.67092 3.76466 3.71809
# Velocity P-wave (km/s) = 2.92624 4.07664 2.00700
#
# Compressibility (1/GPa) = -0.01813214
#
# Stress axis : x y z
#
# Youngs Moduli (GPa) = 49.84314 3356.43444 262.36057
#
# Poissons Ratio (x) = 9.78953 1.27838
# Poissons Ratio (y) = 0.14537 3.50594
# Poissons Ratio (z) = 0.24287 44.85220
#
# Static dielectric constant tensor:
#      x y z
#    x 1.888240 0.000000 -0.042560 
#    y 0.000000 1.860830 0.000000 
#    z -0.042560 0.000000 1.819710 
# 
# From -- ./inp_files/134027.got.cif
#   From: 2010.05.17/outbox.cif.g08.bks.cpg/sg12_68_cif.got.tgz:134027.got - 2010.06.03 13:09:07.
