data_PCOD9209190
_publ_section_title
;
Structure prediction by ZEFSAII (Michael W. Deem and Ramdas Pophale) SiO2 
 PCOD9209190
Probable space group: C 2/M
;
_chemical_formula_sum "Si O2"
_cell_formula_units_Z 42
_cell_length_a 17.838961
_cell_length_b 21.147999
_cell_length_c 5.072200
_cell_angle_alpha 90.000000
_cell_angle_beta 82.100679
_cell_angle_gamma 90.000000
_cell_volume 1895.372391
_symmetry_space_group_name_H-M "C 2/M"
_symmetry_group_IT_number 12
_symmetry_cell_setting 'monoclinic'
loop_
_space_group_symop_operation_xyz
x,y,z
-x,y,-z
-x,-y,-z
x,-y,z
1/2+x,1/2+y,z
1/2-x,1/2+y,-z
1/2-x,1/2-y,-z
1/2+x,1/2-y,z
loop_
_atom_site_type_symbol
_atom_site_label
_atom_site_fract_x
_atom_site_fract_y
_atom_site_fract_z
Si Si1 0.591258 0.811286 0.450270
Si Si2 0.306818 0.072607 0.689514
Si Si3 0.704971 0.572004 0.221687
Si Si4 0.000000 0.000000 0.000000
Si Si5 0.070133 0.881113 0.632887
Si Si6 0.409166 0.261704 0.049010
O O1 0.500000 0.814390 0.500000
O O2 0.625005 0.878499 0.353678
O O3 0.619663 0.788164 0.720428
O O4 0.617562 0.759053 0.224355
O O5 0.266660 0.071396 0.425050
O O6 0.328267 0.000000 0.746155
O O7 0.245806 0.094287 0.937597
O O8 0.678883 0.500000 0.175441
O O9 0.633158 0.604720 0.384840
O O10 0.040393 0.056161 0.795275
O O11 0.101139 0.831397 0.830186
O O12 0.000000 0.852820 0.500000
O O13 0.500000 0.254466 0.000000
#
# Coordination Sequence:
#
# PCOD9209190 Si02
#       6
#     8   8   8   2   8   8
#     4  10  21  40  65  91 119 161 206 253 308 372
#     4  10  22  41  63  90 124 162 203 256 317 371
#     4  10  23  39  60  87 129 165 200 253 319 365
#     4  12  26  36  68  94 128 152 226 266 286 352
#     4  12  25  40  62  95 125 165 214 257 300 355
#     4  10  21  38  61  88 125 161 200 252 310 363
#
# _framework density 22.159231999999999
#
# number of rings (size 3 to 8) (size 9 to 14) (size 15 to 20)
#    0.000    1.524    1.905    3.143    2.667    0.381 
#    0.000    5.714    0.000    6.857    0.000    0.000 
#    0.000    0.000    0.000    0.000    0.000    0.000 
#
# Total GULP energy -117207.205702 kJ/mol
# GULP energy per Si atom -5581.295510 kJ/mol
# Density = 2.210880 g / cm^3
# Si number density = 22.159232 Si / 1000 Ang^3
#
#
#
# Elastic Constant Matrix: (Units=GPa)
#
#
# Indices 1 2 3 4 5 6 
#
# 1 35.8676 41.0031 25.3508 0.0000 -5.7270 0.0000
# 2 41.0031 125.3411 59.3091 0.0000 -26.8975 0.0000
# 3 25.3508 59.3091 137.2315 0.0000 -13.1221 0.0000
# 4 0.0000 0.0000 0.0000 20.4810 0.0000 -4.7536
# 5 -5.7270 -26.8975 -13.1221 0.0000 23.5766 0.0000
# 6 0.0000 0.0000 0.0000 -4.7536 0.0000 15.8384
#
#
#
# Elastic Compliance Matrix: (Units=1/GPa)
#
#
# Indices 1 2 3 4 5 6 
#
# 1 0.046313 -0.015669 -0.002553 0.000000 -0.008048 0.000000
# 2 -0.015669 0.017876 -0.003427 0.000000 0.014681 0.000000
# 3 -0.002553 -0.003427 0.009302 0.000000 0.000647 0.000000
# 4 0.000000 0.000000 0.000000 0.052482 0.000000 0.015751
# 5 -0.008048 0.014681 0.000647 0.000000 0.057569 0.000000
# 6 0.000000 0.000000 0.000000 0.015751 0.000000 0.067865
#
#
# Mechanical properties :
#
#
# Convention : Reuss Voigt Hill
#
# Bulk Modulus (GPa) = 33.12214 61.08513 47.10364
# Shear Modulus (GPa) = 16.40587 23.49768 19.95177
#
# Velocity S-wave (km/s) = 2.72391 3.25991 3.00389
# Velocity P-wave (km/s) = 4.98726 6.46496 5.77358
#
# Compressibility (1/GPa) = 0.03019128
#
# Stress axis : x y z
#
# Youngs Moduli (GPa) = 21.59240 55.93975 107.50746
#
# Poissons Ratio (x) = 0.87654 0.27445
# Poissons Ratio (y) = 0.33834 0.36848
# Poissons Ratio (z) = 0.05512 0.19173
#
# Static dielectric constant tensor:
#      x y z
#    x 1.934160 0.000000 -0.028080 
#    y 0.000000 1.820870 0.000000 
#    z -0.028080 0.000000 1.854350 
# 
# From -- ./inp_files/16018.got.cif
#   From: 2010.05.17/outbox.cif.g08.bks.cpg/sg12_9_cif.got.tgz:16018.got - 2010.06.03 13:09:07.
