data_PCOD9209717
_publ_section_title
;
Structure prediction by ZEFSAII (Michael W. Deem and Ramdas Pophale) SiO2 
 PCOD9209717
Probable space group: C 2/M
;
_chemical_formula_sum "Si O2"
_cell_formula_units_Z 56
_cell_length_a 8.740144
_cell_length_b 22.884582
_cell_length_c 14.405007
_cell_angle_alpha 90.000000
_cell_angle_beta 100.708757
_cell_angle_gamma 90.000000
_cell_volume 2831.032886
_symmetry_space_group_name_H-M "C 2/M"
_symmetry_group_IT_number 12
_symmetry_cell_setting 'monoclinic'
loop_
_space_group_symop_operation_xyz
x,y,z
-x,y,-z
-x,-y,-z
x,-y,z
1/2+x,1/2+y,z
1/2-x,1/2+y,-z
1/2-x,1/2-y,-z
1/2+x,1/2-y,z
loop_
_atom_site_type_symbol
_atom_site_label
_atom_site_fract_x
_atom_site_fract_y
_atom_site_fract_z
Si Si1 0.889212 0.848323 0.398404
Si Si2 0.039596 0.669391 0.901113
Si Si3 0.382845 0.284909 0.899545
Si Si4 0.892662 0.563757 0.226335
Si Si5 0.617127 0.065169 0.427169
Si Si6 0.869100 0.864195 0.720663
Si Si7 0.154084 0.278274 0.573050
O O1 0.740606 0.884111 0.417910
O O2 0.871851 0.779938 0.367441
O O3 0.000000 0.845807 0.500000
O O4 0.983099 0.878630 0.325950
O O5 0.207519 0.701490 0.912821
O O6 0.051461 0.615395 0.833915
O O7 0.911032 0.718959 0.867137
O O8 0.000000 0.648838 0.000000
O O9 0.415386 0.326518 0.815840
O O10 0.500000 0.293383 0.000000
O O11 0.886967 0.500000 0.180637
O O12 0.726659 0.581332 0.251020
O O13 0.010392 0.562170 0.324831
O O14 0.500000 0.074704 0.500000
O O15 0.689995 0.000000 0.449788
O O16 0.747977 0.826022 0.642797
O O17 0.250000 0.250000 0.500000
O O18 0.000000 0.298448 0.500000
#
# Coordination Sequence:
#
# PCOD9209717 Si02
#       7
#     8   8   8   8   8   8   8
#     4  11  23  36  57  88 119 157 204 248 303 361
#     4  10  21  38  64  89 120 158 190 251 306 359
#     4  10  22  38  59  93 127 154 197 243 306 372
#     4  10  24  42  61  87 117 159 211 249 297 361
#     4  10  23  40  60  82 114 162 206 252 296 351
#     4  11  24  38  62  89 122 171 189 254 313 354
#     4  11  23  37  55  89 128 156 199 248 302 367
#
# _framework density 19.780767000000001
#
# number of rings (size 3 to 8) (size 9 to 14) (size 15 to 20)
#    0.000    1.571    2.857    2.571    8.000    2.286 
#    0.000    0.000    0.000    6.857    0.000    0.000 
#    0.000    0.571    0.000    0.000    0.000    0.000 
#
# Total GULP energy -156276.578823 kJ/mol
# GULP energy per Si atom -5581.306387 kJ/mol
# Density = 1.973574 g / cm^3
# Si number density = 19.780767 Si / 1000 Ang^3
#
#
#
# Elastic Constant Matrix: (Units=GPa)
#
#
# Indices 1 2 3 4 5 6 
#
# 1 83.4983 49.1719 44.7009 0.0000 -23.1070 0.0000
# 2 49.1719 122.4709 37.7984 0.0000 1.9475 0.0000
# 3 44.7009 37.7984 76.5102 0.0000 -14.8803 0.0000
# 4 0.0000 0.0000 0.0000 21.6928 0.0000 -7.3560
# 5 -23.1070 1.9475 -14.8803 0.0000 31.4495 0.0000
# 6 0.0000 0.0000 0.0000 -7.3560 0.0000 34.2598
#
#
#
# Elastic Compliance Matrix: (Units=1/GPa)
#
#
# Indices 1 2 3 4 5 6 
#
# 1 0.024948 -0.007868 -0.007741 0.000000 0.015155 0.000000
# 2 -0.007868 0.012405 -0.003090 0.000000 -0.008011 0.000000
# 3 -0.007741 -0.003090 0.019880 0.000000 0.003910 0.000000
# 4 0.000000 0.000000 0.000000 0.049718 0.000000 0.010675
# 5 0.015155 -0.008011 0.003910 0.000000 0.045278 0.000000
# 6 0.000000 0.000000 0.000000 0.010675 0.000000 0.031481
#
#
# Mechanical properties :
#
#
# Convention : Reuss Voigt Hill
#
# Bulk Modulus (GPa) = 50.41685 60.64684 55.53184
# Shear Modulus (GPa) = 21.95683 27.53430 24.74557
#
# Velocity S-wave (km/s) = 3.33529 3.73496 3.54077
# Velocity P-wave (km/s) = 6.35416 7.02325 6.69707
#
# Compressibility (1/GPa) = 0.01983464
#
# Stress axis : x y z
#
# Youngs Moduli (GPa) = 40.08314 80.61068 50.30267
#
# Poissons Ratio (x) = 0.63428 0.38940
# Poissons Ratio (y) = 0.31539 0.15541
# Poissons Ratio (z) = 0.31029 0.24905
#
# Static dielectric constant tensor:
#      x y z
#    x 1.757050 0.000000 -0.012790 
#    y 0.000000 1.804240 0.000000 
#    z -0.012790 0.000000 1.700630 
# 
# From -- ./inp_files/197545.got.cif
#   From: 2010.05.17/outbox.cif.g08.bks.cpg/sg12_99_cif.got.tgz:197545.got - 2010.06.03 13:09:07.
