data_PCOD9209580
_publ_section_title
;
Structure prediction by ZEFSAII (Michael W. Deem and Ramdas Pophale) SiO2 
 PCOD9209580
Probable space group: C 2/M
;
_chemical_formula_sum "Si O2"
_cell_formula_units_Z 36
_cell_length_a 14.892747
_cell_length_b 9.831712
_cell_length_c 12.474100
_cell_angle_alpha 90.000000
_cell_angle_beta 114.666794
_cell_angle_gamma 90.000000
_cell_volume 1659.807419
_symmetry_space_group_name_H-M "C 2/M"
_symmetry_group_IT_number 12
_symmetry_cell_setting 'monoclinic'
loop_
_space_group_symop_operation_xyz
x,y,z
-x,y,-z
-x,-y,-z
x,-y,z
1/2+x,1/2+y,z
1/2-x,1/2+y,-z
1/2-x,1/2-y,-z
1/2+x,1/2-y,z
loop_
_atom_site_type_symbol
_atom_site_label
_atom_site_fract_x
_atom_site_fract_y
_atom_site_fract_z
Si Si1 0.771743 0.656794 0.310873
Si Si2 0.774639 0.341871 0.908181
Si Si3 0.960815 0.147097 0.756966
Si Si4 0.000000 0.265703 0.000000
Si Si5 0.577176 0.150370 0.442552
O O1 0.805751 0.500000 0.301870
O O2 0.778143 0.763050 0.216760
O O3 0.656426 0.645326 0.279557
O O4 0.827616 0.704364 0.445973
O O5 0.745002 0.500000 0.905959
O O6 0.893718 0.340567 0.944104
O O7 0.750000 0.250000 0.000000
O O8 0.971686 0.261598 0.673926
O O9 0.007320 0.179140 0.894836
O O10 0.993252 0.000000 0.733226
O O11 0.500000 0.140147 0.500000
O O12 0.601140 0.000000 0.411714
#
# Coordination Sequence:
#
# PCOD9209580 Si02
#       5
#     8   8   8   4   8
#     4   9  20  40  60  85 121 161 203 251 311 370
#     4  11  24  41  65  94 126 167 212 261 313 375
#     4  10  21  38  63  89 120 160 205 260 309 363
#     4  10  24  44  64  94 130 170 212 256 316 382
#     4  10  22  38  58  87 123 162 202 251 308 370
#
# _framework density 21.689264000000001
#
# number of rings (size 3 to 8) (size 9 to 14) (size 15 to 20)
#    0.000    2.000    0.000    2.000    3.111    8.444 
#    0.000    0.000    0.000    0.000    0.000    0.000 
#    0.000    0.000    0.000    0.000    0.000    0.000 
#
# Total GULP energy -100438.682724 kJ/mol
# GULP energy per Si atom -5579.926818 kJ/mol
# Density = 2.163990 g / cm^3
# Si number density = 21.689264 Si / 1000 Ang^3
#
#
#
# Elastic Constant Matrix: (Units=GPa)
#
#
# Indices 1 2 3 4 5 6 
#
# 1 44.5517 21.8474 19.3564 0.0000 8.9522 0.0000
# 2 21.8474 129.5778 68.4894 0.0000 -19.8843 0.0000
# 3 19.3564 68.4894 132.7905 0.0000 -1.3788 0.0000
# 4 0.0000 0.0000 0.0000 23.7802 0.0000 -3.3823
# 5 8.9522 -19.8843 -1.3788 0.0000 37.5855 0.0000
# 6 0.0000 0.0000 0.0000 -3.3823 0.0000 9.9489
#
#
#
# Elastic Compliance Matrix: (Units=1/GPa)
#
#
# Indices 1 2 3 4 5 6 
#
# 1 0.027576 -0.005398 -0.001334 0.000000 -0.009473 0.000000
# 2 -0.005398 0.012895 -0.005782 0.000000 0.007896 0.000000
# 3 -0.001334 -0.005782 0.010683 0.000000 -0.002349 0.000000
# 4 0.000000 0.000000 0.000000 0.044189 0.000000 0.015023
# 5 -0.009473 0.007896 -0.002349 0.000000 0.032953 0.000000
# 6 0.000000 0.000000 0.000000 0.015023 0.000000 0.105621
#
#
# Mechanical properties :
#
#
# Convention : Reuss Voigt Hill
#
# Bulk Modulus (GPa) = 38.27596 58.47848 48.37722
# Shear Modulus (GPa) = 18.68080 27.41136 23.04608
#
# Velocity S-wave (km/s) = 2.93796 3.55888 3.26323
# Velocity P-wave (km/s) = 5.40320 6.62631 6.04577
#
# Compressibility (1/GPa) = 0.02612606
#
# Stress axis : x y z
#
# Youngs Moduli (GPa) = 36.26355 77.54705 93.60671
#
# Poissons Ratio (x) = 0.41860 0.12486
# Poissons Ratio (y) = 0.19575 0.54126
# Poissons Ratio (z) = 0.04837 0.44839
#
# Static dielectric constant tensor:
#      x y z
#    x 1.862350 0.000000 0.052300 
#    y 0.000000 1.818980 0.000000 
#    z 0.052300 0.000000 1.779350 
# 
# From -- ./inp_files/152083.got.cif
#   From: 2010.05.17/outbox.cif.g08.bks.cpg/sg12_77_cif.got.tgz:152083.got - 2010.06.03 13:09:07.
