data_PCOD9209408
_publ_section_title
;
Structure prediction by ZEFSAII (Michael W. Deem and Ramdas Pophale) SiO2 
 PCOD9209408
Probable space group: C 2/M
;
_chemical_formula_sum "Si O2"
_cell_formula_units_Z 64
_cell_length_a 24.851243
_cell_length_b 19.853985
_cell_length_c 10.660291
_cell_angle_alpha 90.000000
_cell_angle_beta 144.386799
_cell_angle_gamma 90.000000
_cell_volume 3062.804898
_symmetry_space_group_name_H-M "C 2/M"
_symmetry_group_IT_number 12
_symmetry_cell_setting 'monoclinic'
loop_
_space_group_symop_operation_xyz
x,y,z
-x,y,-z
-x,-y,-z
x,-y,z
1/2+x,1/2+y,z
1/2-x,1/2+y,-z
1/2-x,1/2-y,-z
1/2+x,1/2-y,z
loop_
_atom_site_type_symbol
_atom_site_label
_atom_site_fract_x
_atom_site_fract_y
_atom_site_fract_z
Si Si1 0.152179 0.383983 0.035884
Si Si2 0.599395 0.075162 0.672359
Si Si3 0.119052 0.076472 0.143526
Si Si4 0.989179 0.175530 0.246655
Si Si5 0.313396 0.736012 0.999783
Si Si6 0.795400 0.634535 0.361523
Si Si7 0.019737 0.319405 0.178520
Si Si8 0.853761 0.078785 0.507935
O O1 0.160789 0.308845 0.999798
O O2 0.245484 0.404614 0.282904
O O3 0.141959 0.427072 0.890620
O O4 0.056455 0.376335 0.930003
O O5 0.500000 0.110804 0.500000
O O6 0.663323 0.109418 0.691954
O O7 0.581714 0.000000 0.590214
O O8 0.221892 0.084523 0.282758
O O9 0.123683 0.087573 0.301337
O O10 0.085203 0.000000 0.055886
O O11 0.060180 0.132205 0.957788
O O12 0.016535 0.250474 0.253443
O O13 0.080052 0.130107 0.444170
O O14 0.906624 0.190439 0.190998
O O15 0.257629 0.701676 0.780644
O O16 0.250000 0.750000 0.000000
O O17 0.879628 0.649488 0.612309
O O18 0.000000 0.298458 0.000000
O O19 0.869621 0.000000 0.505520
#
# Coordination Sequence:
#
# PCOD9209408 Si02
#       8
#     8   8   8   8   8   8   8   8
#     4  11  22  39  59  89 120 160 201 248 310 364
#     4  11  22  38  60  82 113 156 206 255 299 363
#     4  10  21  38  62  89 122 164 209 249 296 365
#     4  10  22  38  62  92 120 159 205 244 297 366
#     4  10  21  38  64  90 119 153 200 252 305 356
#     4  11  21  38  61  90 117 156 202 257 309 362
#     4  11  22  37  59  90 124 154 196 255 313 365
#     4  11  22  39  61  89 128 168 202 246 303 363
#
# _framework density 20.895878
#
# number of rings (size 3 to 8) (size 9 to 14) (size 15 to 20)
#    0.000    1.375    2.500    3.750    0.000    1.000 
#    0.000    6.875    0.000    3.750    0.000    0.000 
#    0.000    0.000    0.000    0.000    0.000    0.000 
#
# Total GULP energy -178549.753606 kJ/mol
# GULP energy per Si atom -5579.679800 kJ/mol
# Density = 2.084832 g / cm^3
# Si number density = 20.895878 Si / 1000 Ang^3
#
#
#
# Elastic Constant Matrix: (Units=GPa)
#
#
# Indices 1 2 3 4 5 6 
#
# 1 68.2043 14.1354 2.1987 0.0000 22.5496 0.0000
# 2 14.1354 77.9213 15.8507 0.0000 10.8895 0.0000
# 3 2.1987 15.8507 73.5914 0.0000 25.9167 0.0000
# 4 0.0000 0.0000 0.0000 26.0687 0.0000 3.6256
# 5 22.5496 10.8895 25.9167 0.0000 30.5161 0.0000
# 6 0.0000 0.0000 0.0000 3.6256 0.0000 14.7878
#
#
#
# Elastic Compliance Matrix: (Units=1/GPa)
#
#
# Indices 1 2 3 4 5 6 
#
# 1 0.022203 -0.002505 0.007618 0.000000 -0.021983 0.000000
# 2 -0.002505 0.013946 -0.002609 0.000000 -0.000910 0.000000
# 3 0.007618 -0.002609 0.022225 0.000000 -0.023573 0.000000
# 4 0.000000 0.000000 0.000000 0.039714 0.000000 -0.009737
# 5 -0.021983 -0.000910 -0.023573 0.000000 0.069359 0.000000
# 6 0.000000 0.000000 0.000000 -0.009737 0.000000 0.070011
#
#
# Mechanical properties :
#
#
# Convention : Reuss Voigt Hill
#
# Bulk Modulus (GPa) = 15.77737 31.56517 23.67127
# Shear Modulus (GPa) = 19.71789 26.77665 23.24727
#
# Velocity S-wave (km/s) = 3.07518 3.58359 3.33908
# Velocity P-wave (km/s) = 4.49175 5.67993 5.12042
#
# Compressibility (1/GPa) = 0.06338191
#
# Stress axis : x y z
#
# Youngs Moduli (GPa) = 45.03808 71.70661 44.99511
#
# Poissons Ratio (x) = 0.17965 -0.34277
# Poissons Ratio (y) = 0.11284 0.11737
# Poissons Ratio (z) = -0.34310 0.18705
#
# Static dielectric constant tensor:
#      x y z
#    x 1.800700 0.000000 0.009910 
#    y 0.000000 1.715230 0.000000 
#    z 0.009910 0.000000 1.655420 
# 
# From -- ./inp_files/184742.got.cif
#   From: 2010.05.17/outbox.cif.g08.bks.cpg/sg12_93_cif.got.tgz:184742.got - 2010.06.03 13:09:07.
