data_PCOD9209677
_publ_section_title
;
Structure prediction by ZEFSAII (Michael W. Deem and Ramdas Pophale) SiO2 
 PCOD9209677
Probable space group: C 2/M
;
_chemical_formula_sum "Si O2"
_cell_formula_units_Z 64
_cell_length_a 18.827786
_cell_length_b 14.503294
_cell_length_c 25.654262
_cell_angle_alpha 90.000000
_cell_angle_beta 154.734281
_cell_angle_gamma 90.000000
_cell_volume 2989.971137
_symmetry_space_group_name_H-M "C 2/M"
_symmetry_group_IT_number 12
_symmetry_cell_setting 'monoclinic'
loop_
_space_group_symop_operation_xyz
x,y,z
-x,y,-z
-x,-y,-z
x,-y,z
1/2+x,1/2+y,z
1/2-x,1/2+y,-z
1/2-x,1/2-y,-z
1/2+x,1/2-y,z
loop_
_atom_site_type_symbol
_atom_site_label
_atom_site_fract_x
_atom_site_fract_y
_atom_site_fract_z
Si Si1 0.811888 0.391785 0.393887
Si Si2 0.668713 0.895489 0.078642
Si Si3 0.593072 0.392605 0.145469
Si Si4 0.181151 0.252700 0.512821
Si Si5 0.168162 0.725182 0.764542
Si Si6 0.697037 0.890921 0.883442
Si Si7 0.980461 0.387868 0.127817
Si Si8 0.817325 0.889651 0.399141
O O1 0.815919 0.500000 0.410073
O O2 0.685163 0.379455 0.261780
O O3 0.756831 0.332357 0.407016
O O4 0.000000 0.366979 0.500000
O O5 0.790588 0.827298 0.188806
O O6 0.733950 0.000000 0.116582
O O7 0.500000 0.900123 0.000000
O O8 0.614107 0.855787 0.986343
O O9 0.622694 0.500000 0.149115
O O10 0.675773 0.323954 0.159240
O O11 0.396034 0.379092 0.018430
O O12 0.250000 0.250000 0.500000
O O13 0.211553 0.159147 0.564954
O O14 0.985224 0.271475 0.376093
O O15 0.127919 0.665150 0.788882
O O16 0.614131 0.861227 0.882497
O O17 0.663430 0.000000 0.854483
O O18 0.979212 0.500000 0.122975
O O19 0.172706 0.360273 0.262737
O O20 0.000000 0.864874 0.500000
O O21 0.808332 0.000000 0.398454
#
# Coordination Sequence:
#
# PCOD9209677 Si02
#       8
#     8   8   8   8   8   8   8   8
#     4  10  21  42  69  92 121 170 217 260 315 373
#     4  10  23  40  60  86 118 159 208 256 305 361
#     4  10  21  39  66  96 124 157 206 256 309 379
#     4  12  27  41  60  95 133 167 208 262 316 375
#     4  12  24  38  60  91 125 167 203 251 309 373
#     4  10  21  38  63  95 128 156 193 254 321 381
#     4   9  20  41  65  89 120 159 205 258 314 369
#     4  10  23  43  69  92 119 168 220 263 306 363
#
# _framework density 21.404889000000001
#
# number of rings (size 3 to 8) (size 9 to 14) (size 15 to 20)
#    0.000    1.625    1.250    2.625    1.750    5.000 
#    0.000    1.250    0.000    0.000    0.000    0.000 
#    0.000    0.000    0.000    0.000    0.000    0.000 
#
# Total GULP energy -179035.750420 kJ/mol
# GULP energy per Si atom -5594.867201 kJ/mol
# Density = 2.135617 g / cm^3
# Si number density = 21.404889 Si / 1000 Ang^3
#
#
#
# Elastic Constant Matrix: (Units=GPa)
#
#
# Indices 1 2 3 4 5 6 
#
# 1 83.0571 36.6198 -2.2006 0.0008 -14.6124 -0.0013
# 2 36.6198 93.2592 21.4263 -0.0006 -12.7645 -0.0005
# 3 -2.2006 21.4263 68.2233 0.0094 -11.8245 -0.0001
# 4 0.0008 -0.0006 0.0094 16.3728 0.0027 -17.9804
# 5 -14.6124 -12.7645 -11.8245 0.0027 32.0760 0.0000
# 6 -0.0013 -0.0005 -0.0001 -17.9804 0.0000 23.4436
#
#
#
# Elastic Compliance Matrix: (Units=1/GPa)
#
#
# Indices 1 2 3 4 5 6 
#
# 1 0.015957 -0.006244 0.003531 -0.000020 0.006086 -0.000015
# 2 -0.006244 0.014376 -0.004506 0.000020 0.001215 0.000015
# 3 0.003531 -0.004506 0.017257 -0.000070 0.006177 -0.000053
# 4 -0.000020 0.000020 -0.000070 0.387230 -0.000060 0.296992
# 5 0.006086 0.001215 0.006177 -0.000060 0.036709 -0.000045
# 6 -0.000015 0.000015 -0.000053 0.296992 -0.000045 0.270439
#
#
# Mechanical properties :
#
#
# Convention : Reuss Voigt Hill
#
# Bulk Modulus (GPa) = 30.16382 39.58119 34.87250
# Shear Modulus (GPa) = 6.51501 26.95808 16.73655
#
# Velocity S-wave (km/s) = 1.74651 3.55270 2.79929
# Velocity P-wave (km/s) = 4.26494 5.94649 5.17448
#
# Compressibility (1/GPa) = 0.03315230
#
# Stress axis : x y z
#
# Youngs Moduli (GPa) = 62.66772 69.55956 57.94636
#
# Poissons Ratio (x) = 0.43433 -0.20458
# Poissons Ratio (y) = 0.39130 0.26109
# Poissons Ratio (z) = -0.22125 0.31342
#
# Static dielectric constant tensor:
#      x y z
#    x 1.754680 0.000000 0.019010 
#    y 0.000000 1.781850 0.000000 
#    z 0.019010 0.000000 1.750210 
# 
# From -- ./inp_files/344078.got.cif
#   From: 2010.05.17/outbox.cif.g08.bks.cpg/sg12_173_cif.got.tgz:344078.got - 2010.06.03 13:09:07.
