data_PCOD9209071
_publ_section_title
;
Structure prediction by ZEFSAII (Michael W. Deem and Ramdas Pophale) SiO2 
 PCOD9209071
Probable space group: C 2/M
;
_chemical_formula_sum "Si O2"
_cell_formula_units_Z 56
_cell_length_a 12.679348
_cell_length_b 14.017911
_cell_length_c 16.728206
_cell_angle_alpha 90.000000
_cell_angle_beta 62.028077
_cell_angle_gamma 90.000000
_cell_volume 2625.896513
_symmetry_space_group_name_H-M "C 2/M"
_symmetry_group_IT_number 12
_symmetry_cell_setting 'monoclinic'
loop_
_space_group_symop_operation_xyz
x,y,z
-x,y,-z
-x,-y,-z
x,-y,z
1/2+x,1/2+y,z
1/2-x,1/2+y,-z
1/2-x,1/2-y,-z
1/2+x,1/2-y,z
loop_
_atom_site_type_symbol
_atom_site_label
_atom_site_fract_x
_atom_site_fract_y
_atom_site_fract_z
Si Si1 0.997691 0.107822 0.298552
Si Si2 0.945087 0.889511 0.907369
Si Si3 0.637176 0.208158 0.680555
Si Si4 0.877360 0.888259 0.582747
Si Si5 0.176861 0.613083 0.993889
Si Si6 0.897614 0.612477 0.807664
Si Si7 0.667208 0.740432 0.854222
O O1 0.899459 0.189547 0.341825
O O2 0.051143 0.119484 0.190812
O O3 0.097066 0.117607 0.331318
O O4 0.949165 0.000000 0.321835
O O5 0.810573 0.863284 0.978358
O O6 0.053383 0.828900 0.901694
O O7 0.963795 0.000000 0.920346
O O8 0.756919 0.164557 0.602138
O O9 0.518829 0.142511 0.720275
O O10 0.662237 0.221260 0.765879
O O11 0.000000 0.851766 0.500000
O O12 0.865952 0.000000 0.565882
O O13 0.174835 0.500000 0.974720
O O14 0.156968 0.677028 0.923830
O O15 0.091331 0.629164 0.100143
O O16 0.871277 0.500000 0.806480
O O17 0.788460 0.678920 0.819368
#
# Coordination Sequence:
#
# PCOD9209071 Si02
#       7
#     8   8   8   8   8   8   8
#     4   9  19  37  58  83 113 143 180 222 264 318
#     4   9  18  34  56  78 104 145 188 225 266 315
#     4  11  22  37  59  84 109 144 180 222 278 325
#     4  10  21  38  61  86 111 143 181 218 263 327
#     4  10  22  37  52  75 109 147 187 230 274 318
#     4  11  24  38  52  78 113 143 180 234 282 319
#     4  11  21  36  56  79 107 144 189 226 268 322
#
# _framework density 21.326049000000001
#
# number of rings (size 3 to 8) (size 9 to 14) (size 15 to 20)
#    0.000    1.857    0.000    4.714    0.000    5.714 
#    0.000    3.571    0.000    1.286    0.000    0.000 
#    0.000    0.000    0.000    0.000    0.000    0.000 
#
# Total GULP energy -156693.385276 kJ/mol
# GULP energy per Si atom -5596.192331 kJ/mol
# Density = 2.127751 g / cm^3
# Si number density = 21.326049 Si / 1000 Ang^3
#
#
#
# Elastic Constant Matrix: (Units=GPa)
#
#
# Indices 1 2 3 4 5 6 
#
# 1 78.3393 45.9648 23.7957 0.0000 -23.6899 0.0000
# 2 45.9648 97.8250 17.5574 0.0000 -23.0362 0.0000
# 3 23.7957 17.5574 42.6256 0.0000 -28.7465 0.0000
# 4 0.0000 0.0000 0.0000 14.8058 0.0000 -2.7423
# 5 -23.6899 -23.0362 -28.7465 0.0000 42.5743 0.0000
# 6 0.0000 0.0000 0.0000 -2.7423 0.0000 36.8025
#
#
#
# Elastic Compliance Matrix: (Units=1/GPa)
#
#
# Indices 1 2 3 4 5 6 
#
# 1 0.019937 -0.007600 -0.006043 0.000000 0.002901 0.000000
# 2 -0.007600 0.014636 0.001291 0.000000 0.004562 0.000000
# 3 -0.006043 0.001291 0.044993 0.000000 0.027716 0.000000
# 4 0.000000 0.000000 0.000000 0.068486 0.000000 0.005103
# 5 0.002901 0.004562 0.027716 0.000000 0.046285 0.000000
# 6 0.000000 0.000000 0.000000 0.005103 0.000000 0.027552
#
#
# Mechanical properties :
#
#
# Convention : Reuss Voigt Hill
#
# Bulk Modulus (GPa) = 18.22760 43.71395 30.97078
# Shear Modulus (GPa) = 18.87639 27.60133 23.23886
#
# Velocity S-wave (km/s) = 2.97835 3.60148 3.30463
# Velocity P-wave (km/s) = 4.51587 6.15115 5.39582
#
# Compressibility (1/GPa) = 0.05486186
#
# Stress axis : x y z
#
# Youngs Moduli (GPa) = 50.15781 68.32512 22.22562
#
# Poissons Ratio (x) = 0.51927 0.13430
# Poissons Ratio (y) = 0.38120 -0.02868
# Poissons Ratio (z) = 0.30309 -0.08818
#
# Static dielectric constant tensor:
#      x y z
#    x 1.769620 0.000000 0.000170 
#    y 0.000000 1.785600 0.000000 
#    z 0.000170 0.000000 1.797800 
# 
# From -- ./inp_files/205042.got.cif
#   From: 2010.05.17/outbox.cif.g08.bks.cpg/sg12_103_cif.got.tgz:205042.got - 2010.06.03 13:09:07.
