data_PCOD9209260
_publ_section_title
;
Structure prediction by ZEFSAII (Michael W. Deem and Ramdas Pophale) SiO2 
 PCOD9209260
Probable space group: C 2/M
;
_chemical_formula_sum "Si O2"
_cell_formula_units_Z 64
_cell_length_a 21.278981
_cell_length_b 24.264536
_cell_length_c 17.628814
_cell_angle_alpha 90.000000
_cell_angle_beta 161.074277
_cell_angle_gamma 90.000000
_cell_volume 2952.223819
_symmetry_space_group_name_H-M "C 2/M"
_symmetry_group_IT_number 12
_symmetry_cell_setting 'monoclinic'
loop_
_space_group_symop_operation_xyz
x,y,z
-x,y,-z
-x,-y,-z
x,-y,z
1/2+x,1/2+y,z
1/2-x,1/2+y,-z
1/2-x,1/2-y,-z
1/2+x,1/2-y,z
loop_
_atom_site_type_symbol
_atom_site_label
_atom_site_fract_x
_atom_site_fract_y
_atom_site_fract_z
Si Si1 0.689533 0.258109 0.669793
Si Si2 0.160608 0.146411 0.514568
Si Si3 0.713175 0.562618 0.707342
Si Si4 0.603836 0.628110 0.933671
Si Si5 0.364677 0.194295 0.139472
Si Si6 0.748839 0.659519 0.362330
Si Si7 0.903905 0.343166 0.022191
Si Si8 0.028448 0.562469 0.622589
O O1 0.500000 0.242833 0.500000
O O2 0.622585 0.302583 0.528722
O O3 0.779934 0.202847 0.738517
O O4 0.828076 0.292851 0.883769
O O5 0.191311 0.093156 0.602456
O O6 0.014369 0.133120 0.279937
O O7 0.366727 0.160166 0.713517
O O8 0.500000 0.562376 0.500000
O O9 0.782326 0.500000 0.780853
O O10 0.841637 0.601494 0.907705
O O11 0.447946 0.641431 0.820555
O O12 0.775445 0.672142 0.116227
O O13 0.743088 0.575257 0.101340
O O14 0.596403 0.194328 0.410355
O O15 0.250000 0.250000 0.000000
O O16 0.325090 0.159586 0.017579
O O17 0.875907 0.605410 0.485560
O O18 0.985053 0.500000 0.597677
O O19 0.000000 0.566921 0.500000
#
# Coordination Sequence:
#
# PCOD9209260 Si02
#       8
#     8   8   8   8   8   8   8   8
#     4  11  22  39  62  96 140 184 225 274 334 404
#     4  11  22  39  64  96 140 179 221 273 335 408
#     4  10  21  38  61  90 128 179 234 277 326 397
#     4  11  24  43  70  99 133 175 221 279 345 417
#     4  11  23  40  65  93 140 185 224 279 342 408
#     4  11  24  43  67 105 133 170 234 283 342 420
#     4  11  22  40  61  95 136 183 229 279 336 400
#     4  10  25  51  74  97 130 170 224 292 358 417
#
# _framework density 21.678573
#
# number of rings (size 3 to 8) (size 9 to 14) (size 15 to 20)
#    0.000    1.250    1.250    6.375    1.750    4.500 
#    6.750    5.000    0.000    0.000    0.000    0.000 
#    0.000    0.000    0.000    0.000    0.000    0.000 
#
# Total GULP energy -178741.637136 kJ/mol
# GULP energy per Si atom -5585.676160 kJ/mol
# Density = 2.162923 g / cm^3
# Si number density = 21.678573 Si / 1000 Ang^3
#
#
#
# Elastic Constant Matrix: (Units=GPa)
#
#
# Indices 1 2 3 4 5 6 
#
# 1 123.5654 57.8459 60.9367 0.0001 27.8269 0.0001
# 2 57.8459 119.4636 31.5386 0.0000 8.3820 0.0000
# 3 60.9367 31.5386 123.1907 0.0004 2.7473 0.0005
# 4 0.0001 0.0000 0.0004 -3.6387 0.0002 -10.2181
# 5 27.8269 8.3820 2.7473 0.0002 38.6666 0.0002
# 6 0.0001 0.0000 0.0005 -10.2181 0.0002 5.4063
#
#
#
# Elastic Compliance Matrix: (Units=1/GPa)
#
#
# Indices 1 2 3 4 5 6 
#
# 1 0.015916 -0.005358 -0.006282 0.000000 -0.009847 0.000000
# 2 -0.005358 0.010906 -0.000175 0.000000 0.001504 0.000000
# 3 -0.006282 -0.000175 0.011186 0.000001 0.003764 0.000000
# 4 0.000000 0.000000 0.000001 -0.043571 0.000001 -0.082350
# 5 -0.009847 0.001504 0.003764 0.000001 0.032355 0.000000
# 6 0.000000 0.000000 0.000000 -0.082350 0.000000 0.029326
#
#
# Mechanical properties :
#
#
# Convention : Reuss Voigt Hill
#
# Bulk Modulus (GPa) = 69.54998 74.09578 71.82288
# Shear Modulus (GPa) = 59.14336 22.48007 40.81171
#
# Velocity S-wave (km/s) = 5.22888 3.22370 4.34358
# Velocity P-wave (km/s) = 8.28293 6.93612 7.63926
#
# Compressibility (1/GPa) = 0.01437815
#
# Stress axis : x y z
#
# Youngs Moduli (GPa) = 62.82829 91.69462 89.39898
#
# Poissons Ratio (x) = 0.49127 0.56159
# Poissons Ratio (y) = 0.33661 0.01568
# Poissons Ratio (z) = 0.39468 0.01608
#
# Static dielectric constant tensor:
#      x y z
#    x 1.822270 0.000000 -0.013600 
#    y 0.000000 1.835440 0.000000 
#    z -0.013600 0.000000 1.867430 
# 
# From -- ./inp_files/286440.got.cif
#   From: 2010.05.17/outbox.cif.g08.bks.cpg/sg12_144_cif.got.tgz:286440.got - 2010.06.03 13:09:07.
