data_PCOD9209864
_publ_section_title
;
Structure prediction by ZEFSAII (Michael W. Deem and Ramdas Pophale) SiO2 
 PCOD9209864
Probable space group: C 2/M
;
_chemical_formula_sum "Si O2"
_cell_formula_units_Z 42
_cell_length_a 18.303710
_cell_length_b 19.141291
_cell_length_c 5.012847
_cell_angle_alpha 90.000000
_cell_angle_beta 104.594170
_cell_angle_gamma 90.000000
_cell_volume 1699.617392
_symmetry_space_group_name_H-M "C 2/M"
_symmetry_group_IT_number 12
_symmetry_cell_setting 'monoclinic'
loop_
_space_group_symop_operation_xyz
x,y,z
-x,y,-z
-x,-y,-z
x,-y,z
1/2+x,1/2+y,z
1/2-x,1/2+y,-z
1/2-x,1/2-y,-z
1/2+x,1/2-y,z
loop_
_atom_site_type_symbol
_atom_site_label
_atom_site_fract_x
_atom_site_fract_y
_atom_site_fract_z
Si Si1 0.432999 0.639309 0.145121
Si Si2 0.271151 0.652656 0.714054
Si Si3 0.918035 0.361626 0.840436
Si Si4 0.729582 0.074859 0.176304
Si Si5 0.500000 0.500000 0.500000
Si Si6 0.124085 0.726760 0.692465
O O1 0.452918 0.563589 0.291637
O O2 0.416058 0.698413 0.351602
O O3 0.500000 0.655708 0.000000
O O4 0.355431 0.648125 0.903700
O O5 0.269438 0.629891 0.406635
O O6 0.213860 0.717827 0.709676
O O7 0.232034 0.594806 0.869718
O O8 0.856267 0.421427 0.806441
O O9 0.914801 0.325009 0.552649
O O10 0.889950 0.303100 0.025488
O O11 0.000000 0.384689 0.000000
O O12 0.765099 0.000000 0.252305
#
# Coordination Sequence:
#
# PCOD9209864 Si02
#       6
#     8   8   8   8   2   8
#     4  12  29  48  70 100 143 186 240 292 356 425
#     4  10  24  44  73 100 136 180 246 292 341 419
#     4  10  21  38  66 104 137 172 230 286 360 422
#     4  10  22  40  66 100 136 187 229 284 358 421
#     4  12  34  48  64 110 144 196 238 278 378 424
#     4  10  23  44  72 103 129 182 233 297 349 405
#
# _framework density 24.711445999999999
#
# number of rings (size 3 to 8) (size 9 to 14) (size 15 to 20)
#    0.000    1.524    0.000    2.571   10.667    0.381 
#    0.000    5.714    0.000    6.857    0.000    0.000 
#    0.000    0.000    0.000    0.000    0.000    0.000 
#
# Total GULP energy -117155.766933 kJ/mol
# GULP energy per Si atom -5578.846044 kJ/mol
# Density = 2.465520 g / cm^3
# Si number density = 24.711446 Si / 1000 Ang^3
#
#
#
# Elastic Constant Matrix: (Units=GPa)
#
#
# Indices 1 2 3 4 5 6 
#
# 1 151.5326 38.1107 23.2017 0.0000 31.2641 0.0000
# 2 38.1107 139.5750 24.3202 0.0000 -18.4880 0.0000
# 3 23.2017 24.3202 99.1321 0.0000 18.0485 0.0000
# 4 0.0000 0.0000 0.0000 10.4237 0.0000 6.2025
# 5 31.2641 -18.4880 18.0485 0.0000 50.1962 0.0000
# 6 0.0000 0.0000 0.0000 6.2025 0.0000 10.4254
#
#
#
# Elastic Compliance Matrix: (Units=1/GPa)
#
#
# Indices 1 2 3 4 5 6 
#
# 1 0.008810 -0.003284 -0.000040 0.000000 -0.006682 0.000000
# 2 -0.003284 0.009393 -0.002716 0.000000 0.006481 0.000000
# 3 -0.000040 -0.002716 0.011707 0.000000 -0.005185 0.000000
# 4 0.000000 0.000000 0.000000 0.148508 0.000000 -0.088353
# 5 -0.006682 0.006481 -0.005185 0.000000 0.028335 0.000000
# 6 0.000000 0.000000 0.000000 -0.088353 0.000000 0.148484
#
#
# Mechanical properties :
#
#
# Convention : Reuss Voigt Hill
#
# Bulk Modulus (GPa) = 56.08104 62.38945 59.23524
# Shear Modulus (GPa) = 13.39548 34.51620 23.95584
#
# Velocity S-wave (km/s) = 2.33078 3.74139 3.11693
# Velocity P-wave (km/s) = 5.47604 6.63069 6.08083
#
# Compressibility (1/GPa) = 0.01783134
#
# Stress axis : x y z
#
# Youngs Moduli (GPa) = 113.50903 106.46278 85.41805
#
# Poissons Ratio (x) = 0.34959 0.00339
# Poissons Ratio (y) = 0.37273 0.23198
# Poissons Ratio (z) = 0.00451 0.28914
#
# Static dielectric constant tensor:
#      x y z
#    x 1.990120 0.000000 0.045480 
#    y 0.000000 1.932670 0.000000 
#    z 0.045480 0.000000 1.937080 
# 
# From -- ./inp_files/16208.got.cif
#   From: 2010.05.17/outbox.cif.g08.bks.cpg/sg12_9_cif.got.tgz:16208.got - 2010.06.03 13:09:07.
