data_PCOD9209332
_publ_section_title
;
Structure prediction by ZEFSAII (Michael W. Deem and Ramdas Pophale) SiO2 
 PCOD9209332
Probable space group: C 2/M
;
_chemical_formula_sum "Si O2"
_cell_formula_units_Z 58
_cell_length_a 13.991893
_cell_length_b 21.797083
_cell_length_c 23.233821
_cell_angle_alpha 90.000000
_cell_angle_beta 158.285573
_cell_angle_gamma 90.000000
_cell_volume 2621.649098
_symmetry_space_group_name_H-M "C 2/M"
_symmetry_group_IT_number 12
_symmetry_cell_setting 'monoclinic'
loop_
_space_group_symop_operation_xyz
x,y,z
-x,y,-z
-x,-y,-z
x,-y,z
1/2+x,1/2+y,z
1/2-x,1/2+y,-z
1/2-x,1/2-y,-z
1/2+x,1/2-y,z
loop_
_atom_site_type_symbol
_atom_site_label
_atom_site_fract_x
_atom_site_fract_y
_atom_site_fract_z
Si Si1 0.495935 0.428408 0.695850
Si Si2 0.062578 0.119757 0.616416
Si Si3 0.186314 0.240462 0.548722
Si Si4 0.266020 0.240654 0.913395
Si Si5 0.381467 0.156139 0.089297
Si Si6 0.974789 0.929178 0.154073
Si Si7 0.520009 0.137255 0.581237
Si Si8 0.000000 0.000000 0.500000
O O1 0.540703 0.500000 0.713322
O O2 0.637480 0.392318 0.724797
O O3 0.560893 0.413956 0.798276
O O4 0.195668 0.410745 0.519580
O O5 0.315480 0.151285 0.730732
O O6 0.840707 0.171516 0.489464
O O7 0.999922 0.055806 0.549873
O O8 0.475805 0.264199 0.724484
O O9 0.000000 0.240743 0.500000
O O10 0.049473 0.294878 0.435526
O O11 0.255920 0.308250 0.936085
O O12 0.500000 0.233684 0.000000
O O13 0.312744 0.194734 0.993245
O O14 0.282631 0.087502 0.023596
O O15 0.194216 0.886700 0.248991
O O16 0.050333 0.000000 0.193373
O O17 0.500000 0.136588 0.500000
#
# Coordination Sequence:
#
# PCOD9209332 Si02
#       8
#     8   8   8   8   8   8   8   2
#     4  10  21  38  61  98 130 174 231 281 341 414
#     4  12  25  41  70  94 129 184 233 277 344 415
#     4  11  21  43  66  99 134 178 230 282 338 409
#     4  11  25  44  70 101 143 181 228 286 353 413
#     4  11  25  43  67 101 137 183 227 285 351 413
#     4  10  22  40  64  96 139 178 223 290 353 411
#     4   9  19  35  63  88 132 168 212 275 335 396
#     4  12  24  48  64  90 136 172 228 292 328 400
#
# _framework density 22.123480000000001
#
# number of rings (size 3 to 8) (size 9 to 14) (size 15 to 20)
#    0.000    1.379    2.759    2.897    6.759    3.310 
#    0.000    1.379    0.000    0.414    0.000    0.000 
#    0.000    0.000    0.000    0.000    0.000    0.000 
#
# Total GULP energy -161642.774333 kJ/mol
# GULP energy per Si atom -5573.888770 kJ/mol
# Density = 2.207313 g / cm^3
# Si number density = 22.123480 Si / 1000 Ang^3
#
#
#
# Elastic Constant Matrix: (Units=GPa)
#
#
# Indices 1 2 3 4 5 6 
#
# 1 55.3937 24.9308 15.4281 0.0151 11.1508 0.0011
# 2 24.9308 103.2465 26.2423 0.0165 -9.6554 -0.0068
# 3 15.4281 26.2423 76.7210 -0.0134 6.9286 -0.0222
# 4 0.0151 0.0165 -0.0134 23.7845 -0.0047 -0.9291
# 5 11.1508 -9.6554 6.9286 -0.0047 19.2354 -0.0025
# 6 0.0011 -0.0068 -0.0222 -0.9291 -0.0025 23.7945
#
#
#
# Elastic Compliance Matrix: (Units=1/GPa)
#
#
# Indices 1 2 3 4 5 6 
#
# 1 0.025390 -0.007620 -0.000853 -0.000015 -0.018237 -0.000007
# 2 -0.007620 0.013847 -0.004373 -0.000005 0.012943 0.000001
# 3 -0.000853 -0.004373 0.015355 0.000011 -0.007232 0.000013
# 4 -0.000015 -0.000005 0.000011 0.042108 0.000013 0.001644
# 5 -0.018237 0.012943 -0.007232 0.000013 0.071661 0.000006
# 6 -0.000007 0.000001 0.000013 0.001644 0.000006 0.042091
#
#
# Mechanical properties :
#
#
# Convention : Reuss Voigt Hill
#
# Bulk Modulus (GPa) = 34.60019 40.95152 37.77585
# Shear Modulus (GPa) = 20.34362 24.61355 22.47859
#
# Velocity S-wave (km/s) = 3.03570 3.33911 3.19101
# Velocity P-wave (km/s) = 5.28780 5.78073 5.53975
#
# Compressibility (1/GPa) = 0.02890157
#
# Stress axis : x y z
#
# Youngs Moduli (GPa) = 39.38488 72.21561 65.12709
#
# Poissons Ratio (x) = 0.55026 0.05553
# Poissons Ratio (y) = 0.30010 0.28481
# Poissons Ratio (z) = 0.03358 0.31581
#
# Static dielectric constant tensor:
#      x y z
#    x 1.873620 0.000000 0.008710 
#    y 0.000000 1.809710 -0.000020 
#    z 0.008710 -0.000020 1.826900 
# 
# From -- ./inp_files/362114.got.cif
#   From: 2010.05.17/outbox.cif.g08.bks.cpg/sg12_182_cif.got.tgz:362114.got - 2010.06.03 13:09:07.
