data_PCOD9209799
_publ_section_title
;
Structure prediction by ZEFSAII (Michael W. Deem and Ramdas Pophale) SiO2 
 PCOD9209799
Probable space group: C 2/M
;
_chemical_formula_sum "Si O2"
_cell_formula_units_Z 36
_cell_length_a 16.332242
_cell_length_b 16.757987
_cell_length_c 5.347228
_cell_angle_alpha 90.000000
_cell_angle_beta 72.386889
_cell_angle_gamma 90.000000
_cell_volume 1394.904907
_symmetry_space_group_name_H-M "C 2/M"
_symmetry_group_IT_number 12
_symmetry_cell_setting 'monoclinic'
loop_
_space_group_symop_operation_xyz
x,y,z
-x,y,-z
-x,-y,-z
x,-y,z
1/2+x,1/2+y,z
1/2-x,1/2+y,-z
1/2-x,1/2-y,-z
1/2+x,1/2-y,z
loop_
_atom_site_type_symbol
_atom_site_label
_atom_site_fract_x
_atom_site_fract_y
_atom_site_fract_z
Si Si1 0.091288 0.588577 0.783508
Si Si2 0.000000 0.709646 0.500000
Si Si3 0.807712 0.095278 0.291432
Si Si4 0.173056 0.309527 0.135120
Si Si5 0.592832 0.597540 0.308587
O O1 0.119640 0.500000 0.672073
O O2 0.058968 0.653264 0.616423
O O3 0.153266 0.628058 0.931086
O O4 0.000000 0.575671 0.000000
O O5 0.917467 0.738381 0.740130
O O6 0.718674 0.137967 0.309861
O O7 0.842488 0.121768 0.528495
O O8 0.798989 0.000000 0.299832
O O9 0.874963 0.113391 0.003482
O O10 0.250000 0.250000 0.000000
O O11 0.500000 0.625252 0.500000
O O12 0.589384 0.500000 0.319684
#
# Coordination Sequence:
#
# PCOD9209799 Si02
#       5
#     8   4   8   8   8
#     4   9  19  39  68 102 134 172 227 286 348 417
#     4  10  23  44  70  96 135 182 228 292 359 424
#     4  10  21  38  64  99 133 177 234 293 352 418
#     4  11  25  44  65  97 139 179 228 287 355 434
#     4   9  18  36  61  93 134 175 223 281 340 406
#
# _framework density 25.808212999999999
#
# number of rings (size 3 to 8) (size 9 to 14) (size 15 to 20)
#    0.000    2.222    0.000    1.667    3.111    6.222 
#    2.000    4.444    0.000    0.000    0.000    0.000 
#    0.000    0.000    0.000    0.000    0.000    0.000 
#
# Total GULP energy -100502.006395 kJ/mol
# GULP energy per Si atom -5583.444800 kJ/mol
# Density = 2.574947 g / cm^3
# Si number density = 25.808213 Si / 1000 Ang^3
#
#
#
# Elastic Constant Matrix: (Units=GPa)
#
#
# Indices 1 2 3 4 5 6 
#
# 1 171.8903 25.6528 29.9113 0.0000 -37.3054 0.0000
# 2 25.6528 33.7810 -13.4461 0.0000 -18.9525 0.0000
# 3 29.9113 -13.4461 75.8924 0.0000 -27.9047 0.0000
# 4 0.0000 0.0000 0.0000 33.7830 0.0000 13.8817
# 5 -37.3054 -18.9525 -27.9047 0.0000 63.0903 0.0000
# 6 0.0000 0.0000 0.0000 13.8817 0.0000 111.8786
#
#
#
# Elastic Compliance Matrix: (Units=1/GPa)
#
#
# Indices 1 2 3 4 5 6 
#
# 1 0.007730 -0.007153 -0.004088 0.000000 0.000614 0.000000
# 2 -0.007153 0.055187 0.020465 0.000000 0.021401 0.000000
# 3 -0.004088 0.020465 0.023628 0.000000 0.014181 0.000000
# 4 0.000000 0.000000 0.000000 0.031191 0.000000 -0.003870
# 5 0.000614 0.021401 0.014181 0.000000 0.028914 0.000000
# 6 0.000000 0.000000 0.000000 -0.003870 0.000000 0.009418
#
#
# Mechanical properties :
#
#
# Convention : Reuss Voigt Hill
#
# Bulk Modulus (GPa) = 9.52441 40.64440 25.08441
# Shear Modulus (GPa) = 28.96595 57.71345 43.33970
#
# Velocity S-wave (km/s) = 3.35379 4.73402 4.10237
# Velocity P-wave (km/s) = 4.32385 6.75752 5.67273
#
# Compressibility (1/GPa) = 0.10499341
#
# Stress axis : x y z
#
# Youngs Moduli (GPa) = 129.37093 18.12034 42.32284
#
# Poissons Ratio (x) = 0.12961 0.17302
# Poissons Ratio (y) = 0.92535 -0.86615
# Poissons Ratio (z) = 0.52888 -0.37084
#
# Static dielectric constant tensor:
#      x y z
#    x 1.948860 0.000000 -0.144530 
#    y 0.000000 2.513460 0.000000 
#    z -0.144530 0.000000 2.629950 
# 
# From -- ./inp_files/10744.got.cif
#   From: 2010.05.17/outbox.cif.g08.bks.cpg/sg12_6_cif.got.tgz:10744.got - 2010.06.03 13:09:07.
