data_PCOD9209250
_publ_section_title
;
Structure prediction by ZEFSAII (Michael W. Deem and Ramdas Pophale) SiO2 
 PCOD9209250
Probable space group: C 2/M
;
_chemical_formula_sum "Si O2"
_cell_formula_units_Z 48
_cell_length_a 14.753526
_cell_length_b 8.672099
_cell_length_c 18.538254
_cell_angle_alpha 90.000000
_cell_angle_beta 84.058359
_cell_angle_gamma 90.000000
_cell_volume 2359.117087
_symmetry_space_group_name_H-M "C 2/M"
_symmetry_group_IT_number 12
_symmetry_cell_setting 'monoclinic'
loop_
_space_group_symop_operation_xyz
x,y,z
-x,y,-z
-x,-y,-z
x,-y,z
1/2+x,1/2+y,z
1/2-x,1/2+y,-z
1/2-x,1/2-y,-z
1/2+x,1/2-y,z
loop_
_atom_site_type_symbol
_atom_site_label
_atom_site_fract_x
_atom_site_fract_y
_atom_site_fract_z
Si Si1 0.394075 0.814211 0.501028
Si Si2 0.554206 0.319452 0.169552
Si Si3 0.625572 0.179042 0.861151
Si Si4 0.761606 0.316842 0.383830
Si Si5 0.149444 0.683060 0.021380
Si Si6 0.784550 0.320491 0.763412
O O1 0.500000 0.770724 0.500000
O O2 0.328159 0.732945 0.564041
O O3 0.348688 0.779084 0.427020
O O4 0.387514 0.000000 0.511887
O O5 0.534242 0.500000 0.171945
O O6 0.461118 0.224005 0.178995
O O7 0.624456 0.274077 0.226229
O O8 0.602930 0.272314 0.090518
O O9 0.601815 0.201312 0.947328
O O10 0.710843 0.281332 0.830912
O O11 0.650708 0.000000 0.849533
O O12 0.761027 0.500000 0.371714
O O13 0.758749 0.230409 0.308428
O O14 0.151871 0.500000 0.037866
O O15 0.250000 0.750000 0.000000
O O16 0.806368 0.500000 0.761790
#
# Coordination Sequence:
#
# PCOD9209250 Si02
#       6
#     8   8   8   8   8   8
#     4   9  19  38  64  92 122 159 199 240 292 355
#     4  12  25  41  62  89 121 159 206 258 311 369
#     4  11  24  42  63  89 121 159 205 255 310 371
#     4  10  21  38  61  90 125 159 198 248 298 355
#     4  11  22  38  63  89 119 158 204 256 310 366
#     4  12  25  42  63  87 123 165 207 254 307 365
#
# _framework density 20.346596000000002
#
# number of rings (size 3 to 8) (size 9 to 14) (size 15 to 20)
#    0.000    1.167    1.667    5.000    0.000    6.333 
#    0.000    5.000    0.000    0.000    0.000    0.000 
#    0.000    0.000    0.000    0.000    0.000    0.000 
#
# Total GULP energy -134232.715820 kJ/mol
# GULP energy per Si atom -5593.029826 kJ/mol
# Density = 2.030029 g / cm^3
# Si number density = 20.346596 Si / 1000 Ang^3
#
#
#
# Elastic Constant Matrix: (Units=GPa)
#
#
# Indices 1 2 3 4 5 6 
#
# 1 85.0644 -9.9818 -2.4993 0.0000 19.1877 0.0000
# 2 -9.9818 49.9367 20.2586 0.0000 5.7526 0.0000
# 3 -2.4993 20.2586 64.1214 0.0000 15.0853 0.0000
# 4 0.0000 0.0000 0.0000 35.1881 0.0000 -1.1295
# 5 19.1877 5.7526 15.0853 0.0000 17.1267 0.0000
# 6 0.0000 0.0000 0.0000 -1.1295 0.0000 28.9508
#
#
#
# Elastic Compliance Matrix: (Units=1/GPa)
#
#
# Indices 1 2 3 4 5 6 
#
# 1 0.018669 0.004565 0.005760 0.000000 -0.027523 0.000000
# 2 0.004565 0.024124 -0.005467 0.000000 -0.008402 0.000000
# 3 0.005760 -0.005467 0.023504 0.000000 -0.025320 0.000000
# 4 0.000000 0.000000 0.000000 0.028454 0.000000 0.001110
# 5 -0.027523 -0.008402 -0.025320 0.000000 0.114347 0.000000
# 6 0.000000 0.000000 0.000000 0.001110 0.000000 0.034585
#
#
# Mechanical properties :
#
#
# Convention : Reuss Voigt Hill
#
# Bulk Modulus (GPa) = 13.15545 23.85306 18.50425
# Shear Modulus (GPa) = 19.28242 29.00944 24.14593
#
# Velocity S-wave (km/s) = 3.08181 3.78003 3.44863
# Velocity P-wave (km/s) = 4.37528 5.54980 4.99717
#
# Compressibility (1/GPa) = 0.07601415
#
# Stress axis : x y z
#
# Youngs Moduli (GPa) = 53.56463 41.45295 42.54609
#
# Poissons Ratio (x) = -0.18925 -0.24508
# Poissons Ratio (y) = -0.24454 0.23260
# Poissons Ratio (z) = -0.30855 0.22662
#
# Static dielectric constant tensor:
#      x y z
#    x 1.719390 0.000000 0.024170 
#    y 0.000000 1.676680 0.000000 
#    z 0.024170 0.000000 1.738880 
# 
# From -- ./inp_files/267713.got.cif
#   From: 2010.05.17/outbox.cif.g08.bks.cpg/sg12_134_cif.got.tgz:267713.got - 2010.06.03 13:09:07.
