data_PCOD9209030
_publ_section_title
;
Structure prediction by ZEFSAII (Michael W. Deem and Ramdas Pophale) SiO2 
 PCOD9209030
Probable space group: C 2/M
;
_chemical_formula_sum "Si O2"
_cell_formula_units_Z 40
_cell_length_a 9.089408
_cell_length_b 10.616715
_cell_length_c 23.533221
_cell_angle_alpha 90.000000
_cell_angle_beta 118.005757
_cell_angle_gamma 90.000000
_cell_volume 2005.020661
_symmetry_space_group_name_H-M "C 2/M"
_symmetry_group_IT_number 12
_symmetry_cell_setting 'monoclinic'
loop_
_space_group_symop_operation_xyz
x,y,z
-x,y,-z
-x,-y,-z
x,-y,z
1/2+x,1/2+y,z
1/2-x,1/2+y,-z
1/2-x,1/2-y,-z
1/2+x,1/2-y,z
loop_
_atom_site_type_symbol
_atom_site_label
_atom_site_fract_x
_atom_site_fract_y
_atom_site_fract_z
Si Si1 0.640187 0.241237 0.647436
Si Si2 0.975813 0.652009 0.729014
Si Si3 0.993051 0.000000 0.431063
Si Si4 0.433365 0.194089 0.047081
Si Si5 0.659937 0.000000 0.569369
Si Si6 0.261106 0.858938 0.131126
O O1 0.806579 0.276060 0.712349
O O2 0.510268 0.192716 0.670575
O O3 0.590788 0.371218 0.607175
O O4 0.662676 0.125697 0.608286
O O5 0.959609 0.500000 0.730295
O O6 0.125069 0.693021 0.797503
O O7 0.000000 0.000000 0.500000
O O8 0.178182 0.000000 0.440145
O O9 0.383611 0.133708 0.098371
O O10 0.589227 0.286300 0.088084
O O11 0.500000 0.132384 0.000000
O O12 0.250000 0.250000 0.000000
O O13 0.500000 0.000000 0.500000
O O14 0.210977 0.000000 0.137655
#
# Coordination Sequence:
#
# PCOD9209030 Si02
#       6
#     8   8   4   8   4   8
#     4  12  24  44  67  95 130 168 217 263 327 379
#     4  11  23  40  66  93 127 169 216 267 319 384
#     4  12  28  44  68  98 130 168 212 269 320 388
#     4   9  19  36  59  88 124 161 209 255 302 370
#     4  12  28  44  68  98 128 168 216 264 320 386
#     4  10  21  38  60  91 123 166 209 257 316 371
#
# _framework density 19.949918
#
# number of rings (size 3 to 8) (size 9 to 14) (size 15 to 20)
#    0.000    1.200    4.000    1.800    2.800    5.600 
#    0.000    3.000    0.000    0.000    0.000    0.000 
#    0.000    0.000    0.000    0.000    0.000    0.000 
#
# Total GULP energy -111424.480829 kJ/mol
# GULP energy per Si atom -5571.224041 kJ/mol
# Density = 1.990451 g / cm^3
# Si number density = 19.949918 Si / 1000 Ang^3
#
#
#
# Elastic Constant Matrix: (Units=GPa)
#
#
# Indices 1 2 3 4 5 6 
#
# 1 110.9503 35.3411 30.8208 0.0000 4.2997 0.0000
# 2 35.3411 111.0288 53.1973 0.0000 18.5196 0.0000
# 3 30.8208 53.1973 115.8775 0.0000 12.9049 0.0000
# 4 0.0000 0.0000 0.0000 57.7997 0.0000 12.6152
# 5 4.2997 18.5196 12.9049 0.0000 49.4844 0.0000
# 6 0.0000 0.0000 0.0000 12.6152 0.0000 23.8176
#
#
#
# Elastic Compliance Matrix: (Units=1/GPa)
#
#
# Indices 1 2 3 4 5 6 
#
# 1 0.010261 -0.002582 -0.001598 0.000000 0.000492 0.000000
# 2 -0.002582 0.012654 -0.004758 0.000000 -0.003271 0.000000
# 3 -0.001598 -0.004758 0.011355 0.000000 -0.001042 0.000000
# 4 0.000000 0.000000 0.000000 0.019563 0.000000 -0.010361
# 5 0.000492 -0.003271 -0.001042 0.000000 0.021661 0.000000
# 6 0.000000 0.000000 0.000000 -0.010361 0.000000 0.047474
#
#
# Mechanical properties :
#
#
# Convention : Reuss Voigt Hill
#
# Bulk Modulus (GPa) = 61.00421 64.06390 62.53405
# Shear Modulus (GPa) = 34.17430 40.78686 37.48058
#
# Velocity S-wave (km/s) = 4.14334 4.52648 4.33914
# Velocity P-wave (km/s) = 7.31674 7.71367 7.51783
#
# Compressibility (1/GPa) = 0.01639231
#
# Stress axis : x y z
#
# Youngs Moduli (GPa) = 97.46113 79.02719 88.06440
#
# Poissons Ratio (x) = 0.20406 0.14076
# Poissons Ratio (y) = 0.25166 0.41902
# Poissons Ratio (z) = 0.15578 0.37602
#
# Static dielectric constant tensor:
#      x y z
#    x 1.752640 0.000000 -0.023420 
#    y 0.000000 1.692800 0.000000 
#    z -0.023420 0.000000 1.733960 
# 
# From -- ./inp_files/299052.got.cif
#   From: 2010.05.17/outbox.cif.g08.bks.cpg/sg12_150_cif.got.tgz:299052.got - 2010.06.03 13:09:07.
