data_PCOD9209096
_publ_section_title
;
Structure prediction by ZEFSAII (Michael W. Deem and Ramdas Pophale) SiO2 
 PCOD9209096
Probable space group: C 2/M
;
_chemical_formula_sum "Si O2"
_cell_formula_units_Z 56
_cell_length_a 8.973831
_cell_length_b 18.592341
_cell_length_c 19.106632
_cell_angle_alpha 90.000000
_cell_angle_beta 76.418076
_cell_angle_gamma 90.000000
_cell_volume 3098.689534
_symmetry_space_group_name_H-M "C 2/M"
_symmetry_group_IT_number 12
_symmetry_cell_setting 'monoclinic'
loop_
_space_group_symop_operation_xyz
x,y,z
-x,y,-z
-x,-y,-z
x,-y,z
1/2+x,1/2+y,z
1/2-x,1/2+y,-z
1/2-x,1/2-y,-z
1/2+x,1/2-y,z
loop_
_atom_site_type_symbol
_atom_site_label
_atom_site_fract_x
_atom_site_fract_y
_atom_site_fract_z
Si Si1 0.533616 0.171237 0.291603
Si Si2 0.825218 0.828763 0.708397
Si Si3 0.464623 0.585989 0.423439
Si Si4 0.672304 0.412543 1.000000
Si Si5 0.888063 0.414011 0.576561
Si Si6 0.252872 0.583794 0.851764
Si Si7 0.895364 0.583794 0.851764
O O1 0.351998 0.174849 0.296004
O O2 0.604354 0.250000 0.291291
O O3 0.563920 0.127319 0.359071
O O4 0.611305 0.129892 0.217830
O O5 0.922990 0.872681 0.640929
O O6 0.829135 0.870108 0.782170
O O7 0.500000 0.605032 0.500000
O O8 0.487967 0.500000 0.413526
O O9 0.287794 0.601810 0.424411
O O10 0.682149 0.500000 1.000000
O O11 0.713078 0.389138 0.073885
O O12 0.500000 0.392028 0.000000
O O13 0.786964 0.389138 0.926115
O O14 0.901493 0.500000 0.586474
O O15 0.000000 0.394968 0.500000
O O16 0.302099 0.500000 0.840924
O O17 0.070400 0.585474 0.859201
O O18 0.856976 0.500000 0.840924
#
# Coordination Sequence:
#
# PCOD9209096 Si02
#       7
#     8   8   8   8   8   8   8
#     4  11  23  38  56  80 112 148 186 226 272 326
#     4  11  23  38  56  80 112 148 186 226 272 326
#     4  10  21  38  61  87 113 142 179 224 272 323
#     4   9  17  29  50  81 110 135 171 223 274 319
#     4  10  21  38  61  87 113 142 179 224 272 323
#     4   9  18  34  56  79 105 140 180 222 270 325
#     4   9  18  34  56  79 105 140 180 222 270 325
#
# _framework density 18.072154999999999
#
# number of rings (size 3 to 8) (size 9 to 14) (size 15 to 20)
#    0.000    2.143    0.000    3.000    0.000    7.429 
#    0.000    6.429    0.000    0.000    0.000    0.000 
#    0.000    0.000    0.000    0.000    0.000    0.000 
#
# Total GULP energy -156350.086038 kJ/mol
# GULP energy per Si atom -5583.931644 kJ/mol
# Density = 1.803102 g / cm^3
# Si number density = 18.072155 Si / 1000 Ang^3
#
#
#
# Elastic Constant Matrix: (Units=GPa)
#
#
# Indices 1 2 3 4 5 6 
#
# 1 82.1996 55.5865 93.1701 0.0000 3.2926 0.0000
# 2 55.5865 63.7421 89.7405 0.0000 1.5952 0.0000
# 3 93.1701 89.7405 224.2869 0.0000 3.3437 0.0000
# 4 0.0000 0.0000 0.0000 -10.3192 0.0000 -1.5394
# 5 3.2926 1.5952 3.3437 0.0000 29.7655 0.0000
# 6 0.0000 0.0000 0.0000 -1.5394 0.0000 22.6399
#
#
#
# Elastic Compliance Matrix: (Units=1/GPa)
#
#
# Indices 1 2 3 4 5 6 
#
# 1 0.031894 -0.020960 -0.004835 0.000000 -0.001862 0.000000
# 2 -0.020960 0.049702 -0.011193 0.000000 0.000912 0.000000
# 3 -0.004835 -0.011193 0.010947 0.000000 -0.000095 0.000000
# 4 0.000000 0.000000 0.000000 -0.095933 0.000000 -0.006523
# 5 -0.001862 0.000912 -0.000095 0.000000 0.033764 0.000000
# 6 0.000000 0.000000 0.000000 -0.006523 0.000000 0.043726
#
#
# Mechanical properties :
#
#
# Convention : Reuss Voigt Hill
#
# Bulk Modulus (GPa) = 53.85840 94.13586 73.99713
# Shear Modulus (GPa) = 32.41156 17.19932 24.80544
#
# Velocity S-wave (km/s) = 4.23951 3.08831 3.70885
# Velocity P-wave (km/s) = 7.33697 8.05723 7.70552
#
# Compressibility (1/GPa) = 0.01856721
#
# Stress axis : x y z
#
# Youngs Moduli (GPa) = 31.35364 20.11974 91.34870
#
# Poissons Ratio (x) = 0.42171 0.44166
# Poissons Ratio (y) = 0.65717 1.02250
# Poissons Ratio (z) = 0.15159 0.22521
#
# Static dielectric constant tensor:
#      x y z
#    x 1.601020 0.000000 -0.000440 
#    y 0.000000 1.600560 0.000000 
#    z -0.000440 0.000000 1.591630 
# 
# From -- ./inp_files/257068.got.cif
#   From: 2010.05.17/outbox.cif.g08.bks.cpg/sg12_129_cif.got.tgz:257068.got - 2010.06.03 13:09:07.
