data_PCOD9209140
_publ_section_title
;
Structure prediction by ZEFSAII (Michael W. Deem and Ramdas Pophale) SiO2 
 PCOD9209140
Probable space group: C 2/M
;
_chemical_formula_sum "Si O2"
_cell_formula_units_Z 56
_cell_length_a 23.947042
_cell_length_b 17.686268
_cell_length_c 15.910320
_cell_angle_alpha 90.000000
_cell_angle_beta 155.556886
_cell_angle_gamma 90.000000
_cell_volume 2788.345256
_symmetry_space_group_name_H-M "C 2/M"
_symmetry_group_IT_number 12
_symmetry_cell_setting 'monoclinic'
loop_
_space_group_symop_operation_xyz
x,y,z
-x,y,-z
-x,-y,-z
x,-y,z
1/2+x,1/2+y,z
1/2-x,1/2+y,-z
1/2-x,1/2-y,-z
1/2+x,1/2-y,z
loop_
_atom_site_type_symbol
_atom_site_label
_atom_site_fract_x
_atom_site_fract_y
_atom_site_fract_z
Si Si1 0.161688 0.371714 0.906081
Si Si2 0.280876 0.411092 0.889873
Si Si3 0.109014 0.662692 0.087966
Si Si4 0.349930 0.586320 0.313670
Si Si5 0.558185 0.737416 0.858530
Si Si6 0.230009 0.734653 0.569460
Si Si7 0.351592 0.084516 0.471877
O O1 0.201797 0.389965 0.866262
O O2 0.155389 0.284801 0.929674
O O3 0.009555 0.402896 0.706217
O O4 0.267957 0.410529 0.113869
O O5 0.324671 0.500000 0.953316
O O6 0.186357 0.403703 0.678118
O O7 0.392154 0.344018 0.041451
O O8 0.241991 0.621235 0.232207
O O9 0.164989 0.726634 0.226224
O O10 0.044476 0.704909 0.918847
O O11 0.000000 0.620800 0.000000
O O12 0.500000 0.620452 0.500000
O O13 0.373666 0.500000 0.372979
O O14 0.418877 0.732063 0.617437
O O15 0.250000 0.750000 0.500000
O O16 0.227540 0.646264 0.584001
O O17 0.313188 0.000000 0.442026
#
# Coordination Sequence:
#
# PCOD9209140 Si02
#       7
#     8   8   8   8   8   8   8
#     4  10  21  38  61  87 125 170 212 258 320 394
#     4  11  21  36  60  91 128 163 207 264 326 390
#     4  11  22  42  65  90 124 167 221 267 311 389
#     4  10  23  42  63  92 131 169 210 272 331 376
#     4  10  22  39  59  89 122 163 214 261 322 382
#     4  11  22  40  64  85 120 167 211 263 323 382
#     4  10  21  38  62  94 124 157 210 273 329 382
#
# _framework density 20.083594999999999
#
# number of rings (size 3 to 8) (size 9 to 14) (size 15 to 20)
#    0.000    1.571    2.857    2.143    2.000    1.429 
#    2.571    1.429    0.000    2.571    0.000    0.000 
#    0.000    0.000    0.000    0.000    0.000    0.000 
#
# Total GULP energy -156005.587648 kJ/mol
# GULP energy per Si atom -5571.628130 kJ/mol
# Density = 2.003788 g / cm^3
# Si number density = 20.083595 Si / 1000 Ang^3
#
#
#
# Elastic Constant Matrix: (Units=GPa)
#
#
# Indices 1 2 3 4 5 6 
#
# 1 125.4193 45.8903 15.7231 0.0000 0.3195 0.0000
# 2 45.8903 96.5895 36.7291 0.0000 -2.0749 0.0000
# 3 15.7231 36.7291 72.0652 0.0000 -4.4105 0.0000
# 4 0.0000 0.0000 0.0000 16.1806 0.0000 -6.0768
# 5 0.3195 -2.0749 -4.4105 0.0000 35.4360 0.0000
# 6 0.0000 0.0000 0.0000 -6.0768 0.0000 21.9861
#
#
#
# Elastic Compliance Matrix: (Units=1/GPa)
#
#
# Indices 1 2 3 4 5 6 
#
# 1 0.009660 -0.004698 0.000267 0.000000 -0.000329 0.000000
# 2 -0.004698 0.015127 -0.006679 0.000000 0.000097 0.000000
# 3 0.000267 -0.006679 0.017330 0.000000 0.001763 0.000000
# 4 0.000000 0.000000 0.000000 0.068961 0.000000 0.019060
# 5 -0.000329 0.000097 0.001763 0.000000 0.028448 0.000000
# 6 0.000000 0.000000 0.000000 0.019060 0.000000 0.050751
#
#
# Mechanical properties :
#
#
# Convention : Reuss Voigt Hill
#
# Bulk Modulus (GPa) = 50.25975 54.52876 52.39426
# Shear Modulus (GPa) = 22.81765 27.76929 25.29347
#
# Velocity S-wave (km/s) = 3.37431 3.72248 3.55267
# Velocity P-wave (km/s) = 6.34515 6.75912 6.55540
#
# Compressibility (1/GPa) = 0.01989664
#
# Stress axis : x y z
#
# Youngs Moduli (GPa) = 103.52442 66.10796 57.70347
#
# Poissons Ratio (x) = 0.31056 -0.01539
# Poissons Ratio (y) = 0.48634 0.38538
# Poissons Ratio (z) = -0.02761 0.44152
#
# Static dielectric constant tensor:
#      x y z
#    x 1.773910 0.000000 0.092310 
#    y 0.000000 1.734030 0.000000 
#    z 0.092310 0.000000 1.762610 
# 
# From -- ./inp_files/234696.got.cif
#   From: 2010.05.17/outbox.cif.g08.bks.cpg/sg12_118_cif.got.tgz:234696.got - 2010.06.03 13:09:07.
