data_PCOD9209329
_publ_section_title
;
Structure prediction by ZEFSAII (Michael W. Deem and Ramdas Pophale) SiO2 
 PCOD9209329
Probable space group: C 2/M
;
_chemical_formula_sum "Si O2"
_cell_formula_units_Z 56
_cell_length_a 11.549638
_cell_length_b 15.249912
_cell_length_c 28.049996
_cell_angle_alpha 90.000000
_cell_angle_beta 30.320130
_cell_angle_gamma 90.000000
_cell_volume 2494.103502
_symmetry_space_group_name_H-M "C 2/M"
_symmetry_group_IT_number 12
_symmetry_cell_setting 'monoclinic'
loop_
_space_group_symop_operation_xyz
x,y,z
-x,y,-z
-x,-y,-z
x,-y,z
1/2+x,1/2+y,z
1/2-x,1/2+y,-z
1/2-x,1/2-y,-z
1/2+x,1/2-y,z
loop_
_atom_site_type_symbol
_atom_site_label
_atom_site_fract_x
_atom_site_fract_y
_atom_site_fract_z
Si Si1 0.996140 0.396442 0.568435
Si Si2 0.789405 0.901390 0.046890
Si Si3 0.174383 0.794016 0.619754
Si Si4 0.066987 0.402184 0.656504
Si Si5 0.441442 0.358189 0.138225
Si Si6 0.743871 0.898460 0.892914
Si Si7 0.325669 0.169741 0.183572
O O1 0.007999 0.500000 0.550653
O O2 0.181872 0.335569 0.474941
O O3 0.030032 0.394507 0.612708
O O4 0.761589 0.351781 0.633558
O O5 0.538608 0.861883 0.138675
O O6 0.768982 0.000000 0.072796
O O7 0.000000 0.858003 0.000000
O O8 0.874464 0.902081 0.961938
O O9 0.197700 0.689401 0.621883
O O10 0.906566 0.810628 0.705921
O O11 0.166461 0.500000 0.631427
O O12 0.811415 0.399164 0.770095
O O13 0.550124 0.352283 0.152257
O O14 0.406381 0.260571 0.131880
O O15 0.732740 0.891432 0.840154
O O16 0.771980 0.000000 0.896115
O O17 0.500000 0.867603 0.000000
#
# Coordination Sequence:
#
# PCOD9209329 Si02
#       7
#     8   8   8   8   8   8   8
#     4  10  21  40  67  94 125 161 196 254 321 373
#     4  11  24  40  58  82 123 170 205 245 304 371
#     4  10  21  38  61  97 123 158 203 257 311 375
#     4  10  21  39  63  88 121 164 207 251 305 368
#     4  11  23  38  61  86 120 162 205 256 308 366
#     4  11  22  36  59  87 116 154 206 261 306 354
#     4  11  24  37  60  92 122 157 206 260 304 359
#
# _framework density 22.452957999999999
#
# number of rings (size 3 to 8) (size 9 to 14) (size 15 to 20)
#    0.000    1.429    1.429    4.286    2.000    3.429 
#    2.571    1.429    0.000    1.714    0.000    0.000 
#    0.000    0.000    0.000    0.000    0.000    0.000 
#
# Total GULP energy -156304.531851 kJ/mol
# GULP energy per Si atom -5582.304709 kJ/mol
# Density = 2.240185 g / cm^3
# Si number density = 22.452958 Si / 1000 Ang^3
#
#
#
# Elastic Constant Matrix: (Units=GPa)
#
#
# Indices 1 2 3 4 5 6 
#
# 1 56.2277 12.4694 6.1266 0.0020 -15.8312 -0.0011
# 2 12.4694 144.2623 36.1108 -0.0061 -17.6483 -0.0019
# 3 6.1266 36.1108 74.0652 -0.0016 -28.6208 0.0017
# 4 0.0020 -0.0061 -0.0016 17.4580 0.0050 -5.1761
# 5 -15.8312 -17.6483 -28.6208 0.0050 23.8029 0.0020
# 6 -0.0011 -0.0019 0.0017 -5.1761 0.0020 25.9103
#
#
#
# Elastic Compliance Matrix: (Units=1/GPa)
#
#
# Indices 1 2 3 4 5 6 
#
# 1 0.024244 -0.001077 0.008297 -0.000011 0.025303 -0.000004
# 2 -0.001077 0.008011 -0.003359 0.000003 0.001184 0.000001
# 3 0.008297 -0.003359 0.029183 -0.000013 0.038118 -0.000007
# 4 -0.000011 0.000003 -0.000013 0.060887 -0.000034 0.012163
# 5 0.025303 0.001184 0.038118 -0.000034 0.105551 -0.000016
# 6 -0.000004 0.000001 -0.000007 0.012163 -0.000016 0.041024
#
#
# Mechanical properties :
#
#
# Convention : Reuss Voigt Hill
#
# Bulk Modulus (GPa) = 14.45932 42.66322 28.56127
# Shear Modulus (GPa) = 17.59140 28.09078 22.84109
#
# Velocity S-wave (km/s) = 2.80210 3.54092 3.19295
# Velocity P-wave (km/s) = 4.11374 5.97996 5.13238
#
# Compressibility (1/GPa) = 0.06915953
#
# Stress axis : x y z
#
# Youngs Moduli (GPa) = 41.24792 124.83519 34.26699
#
# Poissons Ratio (x) = 0.13446 -0.28432
# Poissons Ratio (y) = 0.04443 0.11510
# Poissons Ratio (z) = -0.34225 0.41931
#
# Static dielectric constant tensor:
#      x y z
#    x 1.853100 0.000000 -0.004120 
#    y 0.000000 1.833190 0.000000 
#    z -0.004120 0.000000 1.826450 
# 
# From -- ./inp_files/374208.got.cif
#   From: 2010.05.17/outbox.cif.g08.bks.cpg/sg12_188_cif.got.tgz:374208.got - 2010.06.03 13:09:07.
