data_PCOD9209261
_publ_section_title
;
Structure prediction by ZEFSAII (Michael W. Deem and Ramdas Pophale) SiO2 
 PCOD9209261
Probable space group: C 2/M
;
_chemical_formula_sum "Si O2"
_cell_formula_units_Z 38
_cell_length_a 22.353670
_cell_length_b 15.284025
_cell_length_c 5.538613
_cell_angle_alpha 90.000000
_cell_angle_beta 125.709384
_cell_angle_gamma 90.000000
_cell_volume 1536.516314
_symmetry_space_group_name_H-M "C 2/M"
_symmetry_group_IT_number 12
_symmetry_cell_setting 'monoclinic'
loop_
_space_group_symop_operation_xyz
x,y,z
-x,y,-z
-x,-y,-z
x,-y,z
1/2+x,1/2+y,z
1/2-x,1/2+y,-z
1/2-x,1/2-y,-z
1/2+x,1/2-y,z
loop_
_atom_site_type_symbol
_atom_site_label
_atom_site_fract_x
_atom_site_fract_y
_atom_site_fract_z
Si Si1 0.000000 0.500000 0.500000
Si Si2 0.731752 0.399082 0.546940
Si Si3 0.952827 0.191245 0.136082
Si Si4 0.691336 0.770237 0.651573
Si Si5 0.618066 0.857812 0.867248
Si Si6 0.952789 0.000000 0.140328
O O1 0.947162 0.424437 0.258411
O O2 0.709846 0.500000 0.453183
O O3 0.674959 0.329157 0.528019
O O4 0.765892 0.340285 0.412450
O O5 0.804035 0.401663 0.890212
O O6 0.896762 0.272101 0.008572
O O7 0.000000 0.198790 0.500000
O O8 0.915281 0.095105 0.060991
O O9 0.000000 0.194773 0.000000
O O10 0.623426 0.821253 0.607734
O O11 0.750000 0.750000 0.000000
O O12 0.000000 0.000000 0.500000
O O13 0.000000 0.000000 0.000000
#
# Coordination Sequence:
#
# PCOD9209261 Si02
#       6
#     2   8   8   8   8   4
#     4  12  24  40  62 108 146 194 234 270 358 438
#     4  10  21  41  70  98 128 175 232 295 355 421
#     4  10  21  38  61  90 134 181 227 276 337 415
#     4   9  22  42  65  91 129 173 228 294 357 408
#     4  11  23  40  62  99 143 182 228 280 345 433
#     4   8  16  34  58  79 108 167 220 264 316 373
#
# _framework density 24.731272000000001
#
# number of rings (size 3 to 8) (size 9 to 14) (size 15 to 20)
#    0.000    2.105    2.105    0.000    4.421    0.842 
#    1.895    1.579    9.263    0.000    0.000    0.000 
#    0.000    0.000    0.000    0.000    0.000    0.000 
#
# Total GULP energy -105780.441931 kJ/mol
# GULP energy per Si atom -5567.391681 kJ/mol
# Density = 2.467498 g / cm^3
# Si number density = 24.731272 Si / 1000 Ang^3
#
#
#
# Elastic Constant Matrix: (Units=GPa)
#
#
# Indices 1 2 3 4 5 6 
#
# 1 40.6048 40.2313 1.7569 0.0000 -16.3246 0.0000
# 2 40.2313 268.0849 36.9377 0.0000 -1.9075 0.0000
# 3 1.7569 36.9377 93.4551 0.0000 -3.9598 0.0000
# 4 0.0000 0.0000 0.0000 41.8238 0.0000 18.4680
# 5 -16.3246 -1.9075 -3.9598 0.0000 36.9260 0.0000
# 6 0.0000 0.0000 0.0000 18.4680 0.0000 9.4248
#
#
#
# Elastic Compliance Matrix: (Units=1/GPa)
#
#
# Indices 1 2 3 4 5 6 
#
# 1 0.036673 -0.005698 0.002247 0.000000 0.016159 0.000000
# 2 -0.005698 0.004830 -0.001907 0.000000 -0.002474 0.000000
# 3 0.002247 -0.001907 0.011502 0.000000 0.002128 0.000000
# 4 0.000000 0.000000 0.000000 0.177443 0.000000 -0.347701
# 5 0.016159 -0.002474 0.002128 0.000000 0.034325 0.000000
# 6 0.000000 0.000000 0.000000 -0.347701 0.000000 0.787426
#
#
# Mechanical properties :
#
#
# Convention : Reuss Voigt Hill
#
# Bulk Modulus (GPa) = 23.64634 62.22183 42.93408
# Shear Modulus (GPa) = 4.64247 39.18284 21.91266
#
# Velocity S-wave (km/s) = 1.37158 3.98470 2.97986
# Velocity P-wave (km/s) = 3.47712 6.81060 5.40715
#
# Compressibility (1/GPa) = 0.04228985
#
# Stress axis : x y z
#
# Youngs Moduli (GPa) = 27.26824 207.02176 86.94171
#
# Poissons Ratio (x) = 1.17963 -0.19539
# Poissons Ratio (y) = 0.15538 0.16579
# Poissons Ratio (z) = -0.06128 0.39477
#
# Static dielectric constant tensor:
#      x y z
#    x 2.013740 0.000000 -0.011310 
#    y 0.000000 1.934250 0.000000 
#    z -0.011310 0.000000 2.127030 
# 
# From -- ./inp_files/28064.got.cif
#   From: 2010.05.17/outbox.cif.g08.bks.cpg/sg12_15_cif.got.tgz:28064.got - 2010.06.03 13:09:07.
