data_PCOD9209984
_publ_section_title
;
Structure prediction by ZEFSAII (Michael W. Deem and Ramdas Pophale) SiO2 
 PCOD9209984
Probable space group: C 2/M
;
_chemical_formula_sum "Si O2"
_cell_formula_units_Z 48
_cell_length_a 30.957836
_cell_length_b 14.838991
_cell_length_c 15.098021
_cell_angle_alpha 90.000000
_cell_angle_beta 160.732769
_cell_angle_gamma 90.000000
_cell_volume 2288.629237
_symmetry_space_group_name_H-M "C 2/M"
_symmetry_group_IT_number 12
_symmetry_cell_setting 'monoclinic'
loop_
_space_group_symop_operation_xyz
x,y,z
-x,y,-z
-x,-y,-z
x,-y,z
1/2+x,1/2+y,z
1/2-x,1/2+y,-z
1/2-x,1/2-y,-z
1/2+x,1/2-y,z
loop_
_atom_site_type_symbol
_atom_site_label
_atom_site_fract_x
_atom_site_fract_y
_atom_site_fract_z
Si Si1 0.891904 0.602106 0.053570
Si Si2 0.342597 0.659336 0.273955
Si Si3 0.846198 0.319868 0.391094
Si Si4 0.264346 0.776611 0.667293
Si Si5 0.843243 0.894261 0.702803
Si Si6 0.878080 0.897894 0.143868
O O1 0.859770 0.500000 0.965789
O O2 0.040902 0.609123 0.374227
O O3 0.791395 0.632541 0.936432
O O4 0.871814 0.669957 0.932706
O O5 0.378556 0.761365 0.367584
O O6 0.464918 0.605580 0.553043
O O7 0.340329 0.644998 0.165197
O O8 0.842600 0.251559 0.466624
O O9 0.699648 0.354233 0.087829
O O10 0.213849 0.847010 0.496239
O O11 0.305754 0.680948 0.704144
O O12 0.800019 0.000000 0.631716
O O13 0.000000 0.896368 0.000000
O O14 0.833445 0.000000 0.061231
#
# Coordination Sequence:
#
# PCOD9209984 Si02
#       6
#     8   8   8   8   8   8
#     4  11  22  38  60  88 121 158 199 242 293 351
#     4  10  21  39  58  81 115 159 202 246 295 345
#     4  11  23  38  58  86 120 155 194 241 294 350
#     4  10  22  40  59  86 122 154 187 235 297 353
#     4  10  21  39  64  89 113 148 194 238 283 346
#     4  11  22  38  58  83 115 154 202 249 295 344
#
# _framework density 20.973253
#
# number of rings (size 3 to 8) (size 9 to 14) (size 15 to 20)
#    0.000    1.500    0.000    6.500    0.000    4.667 
#    0.000    5.000    0.000    5.500    0.000    0.000 
#    0.000    0.000    0.000    0.000    0.000    0.000 
#
# Total GULP energy -133864.606282 kJ/mol
# GULP energy per Si atom -5577.691928 kJ/mol
# Density = 2.092552 g / cm^3
# Si number density = 20.973253 Si / 1000 Ang^3
#
#
#
# Elastic Constant Matrix: (Units=GPa)
#
#
# Indices 1 2 3 4 5 6 
#
# 1 36.0873 48.5325 20.5749 0.0000 -19.1367 0.0000
# 2 48.5325 117.8720 30.9221 0.0000 -10.1823 0.0000
# 3 20.5749 30.9221 97.9510 0.0000 -14.8907 0.0000
# 4 0.0000 0.0000 0.0000 22.4453 0.0000 -4.9891
# 5 -19.1367 -10.1823 -14.8907 0.0000 14.8413 0.0000
# 6 0.0000 0.0000 0.0000 -4.9891 0.0000 25.7106
#
#
#
# Elastic Compliance Matrix: (Units=1/GPa)
#
#
# Indices 1 2 3 4 5 6 
#
# 1 -4.206188 1.394897 -0.278287 0.000000 -4.745748 0.000000
# 2 1.394897 -0.453131 0.089929 0.000000 1.577954 0.000000
# 3 -0.278287 0.089929 -0.005777 0.000000 -0.302926 0.000000
# 4 0.000000 0.000000 0.000000 0.046561 0.000000 0.009035
# 5 -4.745748 1.577954 -0.302926 0.000000 -5.273218 0.000000
# 6 0.000000 0.000000 0.000000 0.009035 0.000000 0.040648
#
#
# Mechanical properties :
#
#
# Convention : Reuss Voigt Hill
#
# Bulk Modulus (GPa) = -0.44405 50.21881 24.88738
# Shear Modulus (GPa) = -0.38418 22.72484 11.17033
#
# Velocity S-wave (km/s) = -0.42845 3.29525 2.31031
# Velocity P-wave (km/s) = 0.67598 6.20278 4.35990
#
# Compressibility (1/GPa) = -2.25201721
#
# Stress axis : x y z
#
# Youngs Moduli (GPa) = -0.23774 -2.20687 -173.10930
#
# Poissons Ratio (x) = 3.07836 -48.17406
# Poissons Ratio (y) = 0.33163 15.56752
# Poissons Ratio (z) = -0.06616 0.19846
#
# Static dielectric constant tensor:
#      x y z
#    x 1.762140 0.000000 -0.008630 
#    y 0.000000 1.786160 0.000000 
#    z -0.008630 0.000000 1.780110 
# 
# From -- ./inp_files/251518.got.cif
#   From: 2010.05.17/outbox.cif.g08.bks.cpg/sg12_126_cif.got.tgz:251518.got - 2010.06.03 13:09:07.
