data_PCOD9209952
_publ_section_title
;
Structure prediction by ZEFSAII (Michael W. Deem and Ramdas Pophale) SiO2 
 PCOD9209952
Probable space group: C 2/M
;
_chemical_formula_sum "Si O2"
_cell_formula_units_Z 40
_cell_length_a 13.984289
_cell_length_b 28.672324
_cell_length_c 5.276249
_cell_angle_alpha 90.000000
_cell_angle_beta 116.074856
_cell_angle_gamma 90.000000
_cell_volume 1900.253574
_symmetry_space_group_name_H-M "C 2/M"
_symmetry_group_IT_number 12
_symmetry_cell_setting 'monoclinic'
loop_
_space_group_symop_operation_xyz
x,y,z
-x,y,-z
-x,-y,-z
x,-y,z
1/2+x,1/2+y,z
1/2-x,1/2+y,-z
1/2-x,1/2-y,-z
1/2+x,1/2-y,z
loop_
_atom_site_type_symbol
_atom_site_label
_atom_site_fract_x
_atom_site_fract_y
_atom_site_fract_z
Si Si1 0.579632 0.774081 0.895375
Si Si2 0.792252 0.137052 0.693543
Si Si3 0.316115 0.693418 0.249044
Si Si4 0.429120 0.447291 0.664463
Si Si5 0.541224 0.127451 0.306452
O O1 0.610584 0.737784 0.717113
O O2 0.522677 0.823005 0.768134
O O3 0.500000 0.750849 0.000000
O O4 0.695480 0.787658 0.137513
O O5 0.845553 0.170341 0.546938
O O6 0.837371 0.087287 0.654733
O O7 0.665815 0.136104 0.489915
O O8 0.813904 0.157839 0.001936
O O9 0.500000 0.431876 0.500000
O O10 0.391762 0.500000 0.559339
O O11 0.500000 0.449663 0.000000
O O12 0.500000 0.099838 0.500000
O O13 0.500000 0.105079 0.000000
#
# Coordination Sequence:
#
# PCOD9209952 Si02
#       5
#     8   8   8   8   8
#     4  10  21  39  53  80 121 167 213 246 299 333
#     4  12  22  41  63  90 117 158 211 249 302 369
#     4  11  24  35  59  86 117 166 214 251 285 358
#     4  10  23  44  70  95 123 153 191 252 322 375
#     4  11  20  37  57  81 115 164 202 241 297 349
#
# _framework density 21.049823
#
# number of rings (size 3 to 8) (size 9 to 14) (size 15 to 20)
#    0.000    1.200    6.000    1.200    0.000    8.800 
#    0.000    0.000    0.000    1.200    0.000    0.000 
#    0.000    0.000    0.000    0.000    0.000    0.000 
#
# Total GULP energy -111532.940478 kJ/mol
# GULP energy per Si atom -5576.647024 kJ/mol
# Density = 2.100191 g / cm^3
# Si number density = 21.049823 Si / 1000 Ang^3
#
#
#
# Elastic Constant Matrix: (Units=GPa)
#
#
# Indices 1 2 3 4 5 6 
#
# 1 125.4474 49.1088 31.6680 0.0000 -7.5449 0.0000
# 2 49.1088 51.6550 -2.2883 0.0000 12.1134 0.0000
# 3 31.6680 -2.2883 89.6822 0.0000 -25.1204 0.0000
# 4 0.0000 0.0000 0.0000 1.4669 0.0000 0.6826
# 5 -7.5449 12.1134 -25.1204 0.0000 47.2297 0.0000
# 6 0.0000 0.0000 0.0000 0.6826 0.0000 1.3343
#
#
#
# Elastic Compliance Matrix: (Units=1/GPa)
#
#
# Indices 1 2 3 4 5 6 
#
# 1 0.015764 -0.016161 -0.004832 0.000000 0.004093 0.000000
# 2 -0.016161 0.037262 0.003827 0.000000 -0.010103 0.000000
# 3 -0.004832 0.003827 0.014645 0.000000 0.006036 0.000000
# 4 0.000000 0.000000 0.000000 0.894628 0.000000 -0.457642
# 5 0.004093 -0.010103 0.006036 0.000000 0.027628 0.000000
# 6 0.000000 0.000000 0.000000 -0.457642 0.000000 0.983565
#
#
# Mechanical properties :
#
#
# Convention : Reuss Voigt Hill
#
# Bulk Modulus (GPa) = 29.99408 47.08463 38.53936
# Shear Modulus (GPa) = 2.47655 22.55926 12.51791
#
# Velocity S-wave (km/s) = 1.08585 3.27725 2.44125
# Velocity P-wave (km/s) = 3.98147 6.06112 5.12783
#
# Compressibility (1/GPa) = 0.03333991
#
# Stress axis : x y z
#
# Youngs Moduli (GPa) = 63.43582 26.83692 68.28191
#
# Poissons Ratio (x) = 0.43371 0.32996
# Poissons Ratio (y) = 1.02517 -0.26135
# Poissons Ratio (z) = 0.30654 -0.10272
#
# Static dielectric constant tensor:
#      x y z
#    x 1.812620 0.000000 -0.073220 
#    y 0.000000 1.798390 0.000000 
#    z -0.073220 0.000000 1.903800 
# 
# From -- ./inp_files/12235.got.cif
#   From: 2010.05.17/outbox.cif.g08.bks.cpg/sg12_7_cif.got.tgz:12235.got - 2010.06.03 13:09:07.
