data_PCOD9209853
_publ_section_title
;
Structure prediction by ZEFSAII (Michael W. Deem and Ramdas Pophale) SiO2 
 PCOD9209853
Probable space group: C 2/M
;
_chemical_formula_sum "Si O2"
_cell_formula_units_Z 56
_cell_length_a 25.853075
_cell_length_b 13.714033
_cell_length_c 8.901900
_cell_angle_alpha 90.000000
_cell_angle_beta 64.382127
_cell_angle_gamma 90.000000
_cell_volume 2845.909385
_symmetry_space_group_name_H-M "C 2/M"
_symmetry_group_IT_number 12
_symmetry_cell_setting 'monoclinic'
loop_
_space_group_symop_operation_xyz
x,y,z
-x,y,-z
-x,-y,-z
x,-y,z
1/2+x,1/2+y,z
1/2-x,1/2+y,-z
1/2-x,1/2-y,-z
1/2+x,1/2-y,z
loop_
_atom_site_type_symbol
_atom_site_label
_atom_site_fract_x
_atom_site_fract_y
_atom_site_fract_z
Si Si1 0.986930 0.264480 0.356700
Si Si2 0.192832 0.275962 0.484555
Si Si3 0.893152 0.281326 0.939389
Si Si4 0.674127 0.389529 0.061872
Si Si5 0.196828 0.614972 0.162693
Si Si6 0.406241 0.885072 0.236348
Si Si7 0.612644 0.614091 0.463590
O O1 0.951282 0.332875 0.290068
O O2 0.947857 0.170283 0.444212
O O3 0.000000 0.314491 0.500000
O O4 0.047886 0.243275 0.205977
O O5 0.250000 0.250000 0.500000
O O6 0.201111 0.322847 0.309560
O O7 0.155724 0.354443 0.622633
O O8 0.155598 0.177555 0.511368
O O9 0.852140 0.188735 0.018733
O O10 0.856081 0.346311 0.869766
O O11 0.908958 0.341245 0.066622
O O12 0.667266 0.500000 0.015915
O O13 0.639596 0.379550 0.261798
O O14 0.742068 0.372982 0.998680
O O15 0.189471 0.500000 0.203852
O O16 0.414721 0.000000 0.224490
O O17 0.608519 0.500000 0.507227
#
# Coordination Sequence:
#
# PCOD9209853 Si02
#       7
#     8   8   8   8   8   8   8
#     4  11  23  43  65  93 124 168 214 267 320 373
#     4  11  23  41  63  94 132 171 209 264 316 382
#     4  12  22  41  66  92 130 166 216 265 319 377
#     4  10  21  38  65  97 129 166 212 262 317 380
#     4  11  23  39  63  95 130 169 213 262 320 383
#     4  11  26  43  63  93 128 169 214 264 320 381
#     4  10  22  41  65  96 127 166 217 263 318 380
#
# _framework density 19.677365000000002
#
# number of rings (size 3 to 8) (size 9 to 14) (size 15 to 20)
#    0.000    1.143    2.857    3.429    2.000    4.000 
#    0.000    4.286    0.000    4.286    0.000    0.000 
#    0.000    0.000    0.000    0.000    0.000    0.000 
#
# Total GULP energy -156454.002005 kJ/mol
# GULP energy per Si atom -5587.642929 kJ/mol
# Density = 1.963258 g / cm^3
# Si number density = 19.677365 Si / 1000 Ang^3
#
#
#
# Elastic Constant Matrix: (Units=GPa)
#
#
# Indices 1 2 3 4 5 6 
#
# 1 155.4589 63.6047 49.4384 0.0000 1.1244 0.0000
# 2 63.6047 146.6403 37.5157 0.0000 3.0863 0.0000
# 3 49.4384 37.5157 92.1464 0.0000 -4.9987 0.0000
# 4 0.0000 0.0000 0.0000 21.0265 0.0000 -2.1749
# 5 1.1244 3.0863 -4.9987 0.0000 41.3474 0.0000
# 6 0.0000 0.0000 0.0000 -2.1749 0.0000 8.1632
#
#
#
# Elastic Compliance Matrix: (Units=1/GPa)
#
#
# Indices 1 2 3 4 5 6 
#
# 1 0.008738 -0.002874 -0.003543 0.000000 -0.000451 0.000000
# 2 -0.002874 0.008595 -0.002001 0.000000 -0.000805 0.000000
# 3 -0.003543 -0.002001 0.013671 0.000000 0.001898 0.000000
# 4 0.000000 0.000000 0.000000 0.048907 0.000000 0.013030
# 5 -0.000451 -0.000805 0.001898 0.000000 0.024487 0.000000
# 6 0.000000 0.000000 0.000000 0.013030 0.000000 0.125972
#
#
# Mechanical properties :
#
#
# Convention : Reuss Voigt Hill
#
# Bulk Modulus (GPa) = 70.57967 77.26258 73.92112
# Shear Modulus (GPa) = 19.84689 30.35321 25.10005
#
# Velocity S-wave (km/s) = 3.17932 3.93178 3.57540
# Velocity P-wave (km/s) = 7.03020 7.74350 7.39546
#
# Compressibility (1/GPa) = 0.01416839
#
# Stress axis : x y z
#
# Youngs Moduli (GPa) = 114.43617 116.34645 73.15004
#
# Poissons Ratio (x) = 0.33443 0.25914
# Poissons Ratio (y) = 0.32894 0.14636
# Poissons Ratio (z) = 0.40540 0.23278
#
# Static dielectric constant tensor:
#      x y z
#    x 1.686810 0.000000 -0.008490 
#    y 0.000000 1.678620 0.000000 
#    z -0.008490 0.000000 1.722250 
# 
# From -- ./inp_files/96771.got.cif
#   From: 2010.05.17/outbox.cif.g08.bks.cpg/sg12_49_cif.got.tgz:96771.got - 2010.06.03 13:09:07.
