data_PCOD9209558
_publ_section_title
;
Structure prediction by ZEFSAII (Michael W. Deem and Ramdas Pophale) SiO2 
 PCOD9209558
Probable space group: C 2/M
;
_chemical_formula_sum "Si O2"
_cell_formula_units_Z 56
_cell_length_a 17.957458
_cell_length_b 13.809235
_cell_length_c 20.723543
_cell_angle_alpha 90.000000
_cell_angle_beta 152.403510
_cell_angle_gamma 90.000000
_cell_volume 2380.598604
_symmetry_space_group_name_H-M "C 2/M"
_symmetry_group_IT_number 12
_symmetry_cell_setting 'monoclinic'
loop_
_space_group_symop_operation_xyz
x,y,z
-x,y,-z
-x,-y,-z
x,-y,z
1/2+x,1/2+y,z
1/2-x,1/2+y,-z
1/2-x,1/2-y,-z
1/2+x,1/2-y,z
loop_
_atom_site_type_symbol
_atom_site_label
_atom_site_fract_x
_atom_site_fract_y
_atom_site_fract_z
Si Si1 0.629183 0.706288 0.764490
Si Si2 0.017407 0.110707 0.086283
Si Si3 0.581051 0.792147 0.920419
Si Si4 0.540533 0.111880 0.752889
Si Si5 0.652433 0.888881 0.166457
Si Si6 0.159382 0.387421 0.591159
Si Si7 0.193638 0.887448 0.429983
O O1 0.617250 0.822898 0.755354
O O2 0.697689 0.663773 0.751170
O O3 0.457150 0.667335 0.655547
O O4 0.762958 0.673561 0.919945
O O5 0.202237 0.110155 0.249234
O O6 0.931583 0.178481 0.072814
O O7 0.959263 0.000000 0.042312
O O8 0.000000 0.150208 0.000000
O O9 0.585724 0.830200 0.852049
O O10 0.419111 0.835914 0.826784
O O11 0.348657 0.114159 0.595092
O O12 0.589348 0.000000 0.791364
O O13 0.691252 0.000000 0.209796
O O14 0.500000 0.887232 0.000000
O O15 0.117869 0.500000 0.541323
O O16 0.240592 0.346952 0.588125
O O17 0.000000 0.342857 0.500000
O O18 0.145607 0.000000 0.382616
#
# Coordination Sequence:
#
# PCOD9209558 Si02
#       7
#     8   8   8   8   8   8   8
#     4  11  22  40  65  92 126 171 223 274 331 400
#     4  10  21  38  62  96 136 170 213 278 339 393
#     4  11  23  42  65  95 133 175 225 274 331 400
#     4  11  25  43  64  94 135 178 222 279 338 393
#     4   9  19  37  63  92 122 163 216 271 323 382
#     4   9  19  37  61  89 124 170 218 263 321 394
#     4  10  22  41  65  95 132 174 221 273 334 401
#
# _framework density 23.523495
#
# number of rings (size 3 to 8) (size 9 to 14) (size 15 to 20)
#    0.000    1.857    0.000    3.857    0.000    4.571 
#    0.000    7.857    0.000    3.000    0.000    0.000 
#    0.000    0.000    0.000    0.000    0.000    0.000 
#
# Total GULP energy -156672.603718 kJ/mol
# GULP energy per Si atom -5595.450133 kJ/mol
# Density = 2.346995 g / cm^3
# Si number density = 23.523495 Si / 1000 Ang^3
#
#
#
# Elastic Constant Matrix: (Units=GPa)
#
#
# Indices 1 2 3 4 5 6 
#
# 1 152.6825 64.1520 36.3934 0.0000 35.5449 -0.0007
# 2 64.1520 146.9648 6.6073 0.0048 11.1553 0.0018
# 3 36.3934 6.6073 86.1116 0.0069 14.5715 0.0029
# 4 0.0000 0.0048 0.0069 21.9020 0.0022 0.8914
# 5 35.5449 11.1553 14.5715 0.0022 41.3727 0.0007
# 6 -0.0007 0.0018 0.0029 0.8914 0.0007 25.6682
#
#
#
# Elastic Compliance Matrix: (Units=1/GPa)
#
#
# Indices 1 2 3 4 5 6 
#
# 1 0.010526 -0.003935 -0.002973 0.000002 -0.006935 0.000001
# 2 -0.003935 0.008422 0.000881 -0.000002 0.000799 -0.000001
# 3 -0.002973 0.000881 0.013196 -0.000004 -0.002331 -0.000001
# 4 0.000002 -0.000002 -0.000004 0.045723 -0.000002 -0.001588
# 5 -0.006935 0.000799 -0.002331 -0.000002 0.030734 -0.000001
# 6 0.000001 -0.000001 -0.000001 -0.001588 -0.000001 0.039014
#
#
# Mechanical properties :
#
#
# Convention : Reuss Voigt Hill
#
# Bulk Modulus (GPa) = 49.77323 66.67382 58.22352
# Shear Modulus (GPa) = 30.05456 36.36233 33.20845
#
# Velocity S-wave (km/s) = 3.57829 3.93592 3.76135
# Velocity P-wave (km/s) = 6.18685 7.00430 6.60823
#
# Compressibility (1/GPa) = 0.02009112
#
# Stress axis : x y z
#
# Youngs Moduli (GPa) = 95.00333 118.74267 75.77943
#
# Poissons Ratio (x) = 0.46721 0.22530
# Poissons Ratio (y) = 0.37380 -0.06680
# Poissons Ratio (z) = 0.28246 -0.10467
#
# Static dielectric constant tensor:
#      x y z
#    x 1.915510 0.000000 -0.012230 
#    y 0.000000 1.914220 0.000000 
#    z -0.012230 0.000000 1.899290 
# 
# From -- ./inp_files/316752.got.cif
#   From: 2010.05.17/outbox.cif.g08.bks.cpg/sg12_159_cif.got.tgz:316752.got - 2010.06.03 13:09:07.
