data_PCOD9209876
_publ_section_title
;
Structure prediction by ZEFSAII (Michael W. Deem and Ramdas Pophale) SiO2 
 PCOD9209876
Probable space group: C 2/M
;
_chemical_formula_sum "Si O2"
_cell_formula_units_Z 42
_cell_length_a 18.465921
_cell_length_b 19.367552
_cell_length_c 5.402909
_cell_angle_alpha 90.000000
_cell_angle_beta 107.139852
_cell_angle_gamma 90.000000
_cell_volume 1846.478113
_symmetry_space_group_name_H-M "C 2/M"
_symmetry_group_IT_number 12
_symmetry_cell_setting 'monoclinic'
loop_
_space_group_symop_operation_xyz
x,y,z
-x,y,-z
-x,-y,-z
x,-y,z
1/2+x,1/2+y,z
1/2-x,1/2+y,-z
1/2-x,1/2-y,-z
1/2+x,1/2-y,z
loop_
_atom_site_type_symbol
_atom_site_label
_atom_site_fract_x
_atom_site_fract_y
_atom_site_fract_z
Si Si1 0.686279 0.579955 0.441183
Si Si2 0.409464 0.607493 0.151935
Si Si3 0.483874 0.889873 0.733744
Si Si4 0.891401 0.264723 0.140017
Si Si5 0.326477 0.183377 0.574644
Si Si6 0.500000 0.500000 0.500000
O O1 0.713747 0.500000 0.463642
O O2 0.641972 0.588915 0.657003
O O3 0.751526 0.637658 0.498434
O O4 0.635057 0.590415 0.145045
O O5 0.426270 0.688728 0.172385
O O6 0.481209 0.560162 0.274618
O O7 0.500000 0.927485 0.500000
O O8 0.541116 0.822321 0.791576
O O9 0.397523 0.867953 0.646473
O O10 0.500000 0.927477 0.000000
O O11 0.840904 0.274097 0.336714
O O12 0.840330 0.274685 0.842609
#
# Coordination Sequence:
#
# PCOD9209876 Si02
#       6
#     8   8   8   8   8   2
#     4  12  25  47  62  94 132 178 218 263 326 401
#     4  12  27  44  70  91 130 173 226 263 325 385
#     4   8  16  32  54  89 120 153 197 253 316 363
#     4  10  21  39  65 100 125 167 215 278 323 377
#     4  10  21  38  66  92 133 166 211 272 332 378
#     4  12  28  50  68  98 132 186 214 274 308 402
#
# _framework density 22.746006000000001
#
# number of rings (size 3 to 8) (size 9 to 14) (size 15 to 20)
#    0.000    1.524    1.905    2.286    4.000    6.095 
#    3.429    0.000    0.000   10.286    0.000    0.000 
#    0.000    0.000    0.000    0.000    0.000    0.000 
#
# Total GULP energy -117100.117227 kJ/mol
# GULP energy per Si atom -5576.196058 kJ/mol
# Density = 2.269423 g / cm^3
# Si number density = 22.746006 Si / 1000 Ang^3
#
#
#
# Elastic Constant Matrix: (Units=GPa)
#
#
# Indices 1 2 3 4 5 6 
#
# 1 82.1620 22.6861 53.2734 0.0000 1.3397 0.0000
# 2 22.6861 170.1731 42.5782 0.0000 9.6521 0.0000
# 3 53.2734 42.5782 214.7614 0.0000 -25.0646 0.0000
# 4 0.0000 0.0000 0.0000 34.1802 0.0000 0.4749
# 5 1.3397 9.6521 -25.0646 0.0000 37.5669 0.0000
# 6 0.0000 0.0000 0.0000 0.4749 0.0000 13.2380
#
#
#
# Elastic Compliance Matrix: (Units=1/GPa)
#
#
# Indices 1 2 3 4 5 6 
#
# 1 0.014973 -0.000860 -0.003883 0.000000 -0.002904 0.000000
# 2 -0.000860 0.006478 -0.001368 0.000000 -0.002546 0.000000
# 3 -0.003883 -0.001368 0.006450 0.000000 0.004794 0.000000
# 4 0.000000 0.000000 0.000000 0.029271 0.000000 -0.001050
# 5 -0.002904 -0.002546 0.004794 0.000000 0.030575 0.000000
# 6 0.000000 0.000000 0.000000 -0.001050 0.000000 0.075578
#
#
# Mechanical properties :
#
#
# Convention : Reuss Voigt Hill
#
# Bulk Modulus (GPa) = 63.77657 78.24133 71.00895
# Shear Modulus (GPa) = 27.65886 40.23426 33.94656
#
# Velocity S-wave (km/s) = 3.49088 4.21033 3.86737
# Velocity P-wave (km/s) = 6.65942 7.62288 7.15738
#
# Compressibility (1/GPa) = 0.01567974
#
# Stress axis : x y z
#
# Youngs Moduli (GPa) = 66.78525 154.37420 155.03527
#
# Poissons Ratio (x) = 0.13276 0.60195
# Poissons Ratio (y) = 0.05743 0.21211
# Poissons Ratio (z) = 0.25930 0.21121
#
# Static dielectric constant tensor:
#      x y z
#    x 1.877200 0.000000 -0.032480 
#    y 0.000000 1.835680 0.000000 
#    z -0.032480 0.000000 1.878900 
# 
# From -- ./inp_files/16206.got.cif
#   From: 2010.05.17/outbox.cif.g08.bks.cpg/sg12_9_cif.got.tgz:16206.got - 2010.06.03 13:09:07.
