data_PCOD9209004
_publ_section_title
;
Structure prediction by ZEFSAII (Michael W. Deem and Ramdas Pophale) SiO2 
 PCOD9209004
Probable space group: C 2/M
;
_chemical_formula_sum "Si O2"
_cell_formula_units_Z 48
_cell_length_a 12.443479
_cell_length_b 13.221900
_cell_length_c 21.603894
_cell_angle_alpha 90.000000
_cell_angle_beta 145.475011
_cell_angle_gamma 90.000000
_cell_volume 2014.518321
_symmetry_space_group_name_H-M "C 2/M"
_symmetry_group_IT_number 12
_symmetry_cell_setting 'monoclinic'
loop_
_space_group_symop_operation_xyz
x,y,z
-x,y,-z
-x,-y,-z
x,-y,z
1/2+x,1/2+y,z
1/2-x,1/2+y,-z
1/2-x,1/2-y,-z
1/2+x,1/2-y,z
loop_
_atom_site_type_symbol
_atom_site_label
_atom_site_fract_x
_atom_site_fract_y
_atom_site_fract_z
Si Si1 0.947797 0.826930 0.807150
Si Si2 0.770929 0.611553 0.748433
Si Si3 0.789254 0.674120 0.424690
Si Si4 0.340179 0.612052 0.502670
Si Si5 0.197115 0.106716 0.131403
Si Si6 0.225979 0.673164 0.113525
O O1 0.902890 0.708136 0.798077
O O2 0.848425 0.856251 0.695848
O O3 0.858441 0.881980 0.823256
O O4 0.707599 0.788795 0.842485
O O5 0.846135 0.500000 0.768874
O O6 0.567010 0.625567 0.618771
O O7 0.728668 0.614671 0.802152
O O8 0.748325 0.621424 0.470620
O O9 0.765920 0.793937 0.428157
O O10 0.000000 0.655984 0.500000
O O11 0.303363 0.500000 0.460079
O O12 0.333737 0.354578 0.101835
O O13 0.297648 0.000000 0.168744
O O14 0.000000 0.105136 0.000000
O O15 0.000000 0.669582 0.000000
#
# Coordination Sequence:
#
# PCOD9209004 Si02
#       6
#     8   8   8   8   8   8
#     4  11  22  39  63  91 122 165 209 251 305 371
#     4  10  21  38  60  89 123 161 207 257 309 365
#     4  11  22  39  64  90 124 168 206 252 305 368
#     4  10  22  39  61  90 128 164 204 260 308 360
#     4   9  21  40  62  88 121 159 202 255 310 361
#     4  10  22  40  61  88 124 163 205 257 312 366
#
# _framework density 23.827034000000001
#
# number of rings (size 3 to 8) (size 9 to 14) (size 15 to 20)
#    0.000    1.833    3.333    0.000    0.000    9.667 
#    0.000    5.000    0.000    0.000    0.000    0.000 
#    0.000    0.000    0.000    0.000    0.000    0.000 
#
# Total GULP energy -134228.422055 kJ/mol
# GULP energy per Si atom -5592.850919 kJ/mol
# Density = 2.377280 g / cm^3
# Si number density = 23.827034 Si / 1000 Ang^3
#
#
#
# Elastic Constant Matrix: (Units=GPa)
#
#
# Indices 1 2 3 4 5 6 
#
# 1 101.1734 -11.9997 7.0776 -0.0002 -0.2138 0.0000
# 2 -11.9997 89.4913 9.5708 0.0000 1.8379 0.0000
# 3 7.0776 9.5708 55.6130 -0.0006 -8.4428 0.0001
# 4 -0.0002 0.0000 -0.0006 193.7961 -0.0003 1.0150
# 5 -0.2138 1.8379 -8.4428 -0.0003 37.6128 0.0000
# 6 0.0000 0.0000 0.0001 1.0150 0.0000 -13.7814
#
#
#
# Elastic Compliance Matrix: (Units=1/GPa)
#
#
# Indices 1 2 3 4 5 6 
#
# 1 0.010180 0.001546 -0.001619 0.000000 -0.000381 0.000000
# 2 0.001546 0.011657 -0.002369 0.000000 -0.001093 0.000000
# 3 -0.001619 -0.002369 0.019268 0.000000 0.004432 0.000000
# 4 0.000000 0.000000 0.000000 0.005158 0.000000 0.000380
# 5 -0.000381 -0.001093 0.004432 0.000000 0.027633 0.000000
# 6 0.000000 0.000000 0.000000 0.000380 0.000000 -0.072534
#
#
# Mechanical properties :
#
#
# Convention : Reuss Voigt Hill
#
# Bulk Modulus (GPa) = 27.60857 28.39723 28.00290
# Shear Modulus (GPa) = 272.92017 59.63410 166.27714
#
# Velocity S-wave (km/s) = 10.71405 5.00822 8.36281
# Velocity P-wave (km/s) = 12.83225 6.73698 10.24826
#
# Compressibility (1/GPa) = 0.03622064
#
# Stress axis : x y z
#
# Youngs Moduli (GPa) = 98.23302 85.78282 51.89963
#
# Poissons Ratio (x) = -0.13262 0.08405
# Poissons Ratio (y) = -0.15187 0.12294
# Poissons Ratio (z) = 0.15909 0.20320
#
# Static dielectric constant tensor:
#      x y z
#    x 1.904930 0.000000 0.033260 
#    y 0.000000 1.916170 0.000000 
#    z 0.033260 0.000000 1.922140 
# 
# From -- ./inp_files/305699.got.cif
#   From: 2010.05.17/outbox.cif.g08.bks.cpg/sg12_153_cif.got.tgz:305699.got - 2010.06.03 13:09:07.
