data_PCOD9209689
_publ_section_title
;
Structure prediction by ZEFSAII (Michael W. Deem and Ramdas Pophale) SiO2 
 PCOD9209689
Probable space group: C 2/M
;
_chemical_formula_sum "Si O2"
_cell_formula_units_Z 60
_cell_length_a 15.982855
_cell_length_b 15.488779
_cell_length_c 12.029603
_cell_angle_alpha 90.000000
_cell_angle_beta 74.258841
_cell_angle_gamma 90.000000
_cell_volume 2866.304144
_symmetry_space_group_name_H-M "C 2/M"
_symmetry_group_IT_number 12
_symmetry_cell_setting 'monoclinic'
loop_
_space_group_symop_operation_xyz
x,y,z
-x,y,-z
-x,-y,-z
x,-y,z
1/2+x,1/2+y,z
1/2-x,1/2+y,-z
1/2-x,1/2-y,-z
1/2+x,1/2-y,z
loop_
_atom_site_type_symbol
_atom_site_label
_atom_site_fract_x
_atom_site_fract_y
_atom_site_fract_z
Si Si1 0.102514 0.317963 0.839953
Si Si2 0.729835 0.897335 0.965696
Si Si3 0.082635 0.902402 0.180577
Si Si4 0.518084 0.903555 0.289072
Si Si5 0.227764 0.402418 0.209492
Si Si6 0.500000 0.331161 0.000000
Si Si7 0.752282 0.745164 0.632907
Si Si8 0.047286 0.225507 0.378367
O O1 0.148353 0.360175 0.930169
O O2 0.030099 0.378147 0.807755
O O3 0.176585 0.300440 0.719773
O O4 0.059120 0.231284 0.902846
O O5 0.814374 0.885060 0.859548
O O6 0.717593 0.000000 0.986317
O O7 0.748287 0.860028 0.082154
O O8 0.053131 0.889770 0.065185
O O9 0.036894 0.832506 0.273874
O O10 0.066880 0.000000 0.223695
O O11 0.622586 0.906005 0.242484
O O12 0.505190 0.819979 0.371961
O O13 0.489707 0.000000 0.335861
O O14 0.262115 0.500000 0.202932
O O15 0.257919 0.348529 0.304814
O O16 0.750000 0.750000 0.500000
O O17 0.850306 0.769521 0.633372
O O18 0.000000 0.184972 0.500000
#
# Coordination Sequence:
#
# PCOD9209689 Si02
#       8
#     8   8   8   8   8   4   8   8
#     4  12  22  37  64 100 136 166 209 253 324 382
#     4  10  21  38  63  96 131 166 206 261 319 382
#     4  11  24  44  65  92 125 170 223 266 316 373
#     4  10  21  39  64  97 130 165 205 252 315 389
#     4   9  20  40  63  91 127 166 208 254 315 378
#     4  12  25  38  67  98 132 174 207 264 319 382
#     4  11  24  40  63  92 125 168 211 265 315 373
#     4  11  23  45  68  90 126 167 219 269 319 376
#
# _framework density 20.932879
#
# number of rings (size 3 to 8) (size 9 to 14) (size 15 to 20)
#    0.000    1.333    2.667    3.000    1.867    1.600 
#    0.000    8.000    0.000    0.000    0.000    0.000 
#    0.000    0.000    0.000    0.000    0.000    0.000 
#
# Total GULP energy -167518.851764 kJ/mol
# GULP energy per Si atom -5583.961725 kJ/mol
# Density = 2.088524 g / cm^3
# Si number density = 20.932879 Si / 1000 Ang^3
#
#
#
# Elastic Constant Matrix: (Units=GPa)
#
#
# Indices 1 2 3 4 5 6 
#
# 1 58.4874 26.9000 15.7775 0.0000 19.1444 0.0000
# 2 26.9000 73.3716 41.4248 0.0000 16.1771 0.0000
# 3 15.7775 41.4248 120.8142 0.0000 22.7663 0.0000
# 4 0.0000 0.0000 0.0000 -29.0496 0.0000 4.1944
# 5 19.1444 16.1771 22.7663 0.0000 34.6774 0.0000
# 6 0.0000 0.0000 0.0000 4.1944 0.0000 16.1695
#
#
#
# Elastic Compliance Matrix: (Units=1/GPa)
#
#
# Indices 1 2 3 4 5 6 
#
# 1 0.023410 -0.007013 0.001331 0.000000 -0.010526 0.000000
# 2 -0.007013 0.019688 -0.005516 0.000000 -0.001691 0.000000
# 3 0.001331 -0.005516 0.011010 0.000000 -0.005390 0.000000
# 4 0.000000 0.000000 0.000000 -0.033181 0.000000 0.008607
# 5 -0.010526 -0.001691 -0.005390 0.000000 0.038976 0.000000
# 6 0.000000 0.000000 0.000000 0.008607 0.000000 0.059612
#
#
# Mechanical properties :
#
#
# Convention : Reuss Voigt Hill
#
# Bulk Modulus (GPa) = 31.53448 46.76420 39.14934
# Shear Modulus (GPa) = 32.79090 15.59753 24.19422
#
# Velocity S-wave (km/s) = 3.96217 2.73265 3.40339
# Velocity P-wave (km/s) = 6.00242 5.68727 5.84697
#
# Compressibility (1/GPa) = 0.03171132
#
# Stress axis : x y z
#
# Youngs Moduli (GPa) = 42.71739 50.79324 90.82343
#
# Poissons Ratio (x) = 0.35623 -0.12090
# Poissons Ratio (y) = 0.29959 0.50098
# Poissons Ratio (z) = -0.05686 0.28017
#
# Static dielectric constant tensor:
#      x y z
#    x 1.759200 0.000000 -0.011430 
#    y 0.000000 1.761440 0.000000 
#    z -0.011430 0.000000 1.741850 
# 
# From -- ./inp_files/156584.got.cif
#   From: 2010.05.17/outbox.cif.g08.bks.cpg/sg12_79_cif.got.tgz:156584.got - 2010.06.03 13:09:07.
