data_PCOD9209116
_publ_section_title
;
Structure prediction by ZEFSAII (Michael W. Deem and Ramdas Pophale) SiO2 
 PCOD9209116
Probable space group: C 2/M
;
_chemical_formula_sum "Si O2"
_cell_formula_units_Z 48
_cell_length_a 20.414971
_cell_length_b 13.104003
_cell_length_c 11.279346
_cell_angle_alpha 90.000000
_cell_angle_beta 47.153635
_cell_angle_gamma 90.000000
_cell_volume 2212.316022
_symmetry_space_group_name_H-M "C 2/M"
_symmetry_group_IT_number 12
_symmetry_cell_setting 'monoclinic'
loop_
_space_group_symop_operation_xyz
x,y,z
-x,y,-z
-x,-y,-z
x,-y,z
1/2+x,1/2+y,z
1/2-x,1/2+y,-z
1/2-x,1/2-y,-z
1/2+x,1/2-y,z
loop_
_atom_site_type_symbol
_atom_site_label
_atom_site_fract_x
_atom_site_fract_y
_atom_site_fract_z
Si Si1 0.035922 0.673101 0.089087
Si Si2 0.909404 0.167605 0.551192
Si Si3 0.404054 0.887999 0.456488
Si Si4 0.232255 0.704016 0.891885
Si Si5 0.456584 0.613757 0.232449
Si Si6 0.709204 0.386010 0.736039
O O1 0.969203 0.622503 0.265204
O O2 0.025518 0.794627 0.129890
O O3 0.138392 0.645002 0.991259
O O4 0.000000 0.654336 0.000000
O O5 0.917442 0.290861 0.524514
O O6 0.820637 0.146636 0.735633
O O7 0.910289 0.124626 0.417412
O O8 0.000000 0.130574 0.500000
O O9 0.299929 0.880857 0.546364
O O10 0.415956 0.000000 0.497585
O O11 0.220345 0.800042 0.819126
O O12 0.250000 0.750000 0.000000
O O13 0.494343 0.500000 0.172243
O O14 0.378546 0.629222 0.233099
O O15 0.706333 0.500000 0.791171
#
# Coordination Sequence:
#
# PCOD9209116 Si02
#       6
#     8   8   8   8   8   8
#     4  11  22  35  58  89 123 156 187 237 302 355
#     4  10  22  40  63  85 115 157 203 244 291 348
#     4   9  20  37  59  83 112 151 200 243 283 340
#     4  11  22  38  58  86 122 155 192 242 301 354
#     4  10  21  38  61  87 118 156 201 243 290 349
#     4   9  19  37  62  87 110 153 206 246 281 345
#
# _framework density 21.696719999999999
#
# number of rings (size 3 to 8) (size 9 to 14) (size 15 to 20)
#    0.000    2.000    1.667    2.000    2.333    4.000 
#    0.000    5.833    0.000    0.000    0.000    0.000 
#    0.000    0.000    0.000    0.000    0.000    0.000 
#
# Total GULP energy -134040.540664 kJ/mol
# GULP energy per Si atom -5585.022528 kJ/mol
# Density = 2.164734 g / cm^3
# Si number density = 21.696720 Si / 1000 Ang^3
#
#
#
# Elastic Constant Matrix: (Units=GPa)
#
#
# Indices 1 2 3 4 5 6 
#
# 1 45.2158 3.1096 26.4733 0.0000 -4.7035 0.0000
# 2 3.1096 61.8918 -7.4426 0.0000 -10.6916 0.0000
# 3 26.4733 -7.4426 133.7529 0.0000 -22.3225 0.0000
# 4 0.0000 0.0000 0.0000 4.4882 0.0000 -9.4440
# 5 -4.7035 -10.6916 -22.3225 0.0000 36.9637 0.0000
# 6 0.0000 0.0000 0.0000 -9.4440 0.0000 -2.3576
#
#
#
# Elastic Compliance Matrix: (Units=1/GPa)
#
#
# Indices 1 2 3 4 5 6 
#
# 1 0.025238 -0.001977 -0.005188 0.000000 -0.000493 0.000000
# 2 -0.001977 0.017640 0.002427 0.000000 0.006316 0.000000
# 3 -0.005188 0.002427 0.009614 0.000000 0.005848 0.000000
# 4 0.000000 0.000000 0.000000 0.023630 0.000000 -0.094657
# 5 -0.000493 0.006316 0.005848 0.000000 0.032349 0.000000
# 6 0.000000 0.000000 0.000000 -0.094657 0.000000 -0.044985
#
#
# Mechanical properties :
#
#
# Convention : Reuss Voigt Hill
#
# Bulk Modulus (GPa) = 23.24686 31.68233 27.46460
# Shear Modulus (GPa) = 57.27390 22.40022 39.83706
#
# Velocity S-wave (km/s) = 5.14342 3.21662 4.28961
# Velocity P-wave (km/s) = 6.78313 5.33194 6.10084
#
# Compressibility (1/GPa) = 0.04301655
#
# Stress axis : x y z
#
# Youngs Moduli (GPa) = 39.62256 56.69084 104.01184
#
# Poissons Ratio (x) = 0.11208 0.53958
# Poissons Ratio (y) = 0.07834 -0.25244
# Poissons Ratio (z) = 0.20555 -0.13759
#
# Static dielectric constant tensor:
#      x y z
#    x 1.766930 0.000000 -0.040890 
#    y 0.000000 1.810230 0.000000 
#    z -0.040890 0.000000 1.820250 
# 
# From -- ./inp_files/167525.got.cif
#   From: 2010.05.17/outbox.cif.g08.bks.cpg/sg12_84_cif.got.tgz:167525.got - 2010.06.03 13:09:07.
