data_PCOD9209119
_publ_section_title
;
Structure prediction by ZEFSAII (Michael W. Deem and Ramdas Pophale) SiO2 
 PCOD9209119
Probable space group: C 2/M
;
_chemical_formula_sum "Si O2"
_cell_formula_units_Z 48
_cell_length_a 27.813156
_cell_length_b 7.934296
_cell_length_c 11.711396
_cell_angle_alpha 90.000000
_cell_angle_beta 121.477892
_cell_angle_gamma 90.000000
_cell_volume 2204.122708
_symmetry_space_group_name_H-M "C 2/M"
_symmetry_group_IT_number 12
_symmetry_cell_setting 'monoclinic'
loop_
_space_group_symop_operation_xyz
x,y,z
-x,y,-z
-x,-y,-z
x,-y,z
1/2+x,1/2+y,z
1/2-x,1/2+y,-z
1/2-x,1/2-y,-z
1/2+x,1/2-y,z
loop_
_atom_site_type_symbol
_atom_site_label
_atom_site_fract_x
_atom_site_fract_y
_atom_site_fract_z
Si Si1 0.405119 0.198102 0.133334
Si Si2 0.766967 0.694800 0.346888
Si Si3 0.874260 0.704574 0.604693
Si Si4 0.299588 0.306292 0.146574
Si Si5 0.482783 0.205511 0.605110
Si Si6 0.359584 0.299462 0.835249
O O1 0.357887 0.285951 0.152047
O O2 0.467358 0.254567 0.246592
O O3 0.400862 0.000000 0.154272
O O4 0.390473 0.224961 0.983122
O O5 0.758671 0.500000 0.369659
O O6 0.812414 0.769582 0.490703
O O7 0.795790 0.702277 0.258190
O O8 0.704627 0.769703 0.255614
O O9 0.872736 0.500000 0.599731
O O10 0.922258 0.762417 0.576143
O O11 0.887908 0.760493 0.749553
O O12 0.290544 0.500000 0.166631
O O13 0.250000 0.250000 0.000000
O O14 0.500000 0.262577 0.500000
O O15 0.480506 0.000000 0.599323
O O16 0.356590 0.500000 0.850471
#
# Coordination Sequence:
#
# PCOD9209119 Si02
#       6
#     8   8   8   8   8   8
#     4  11  22  38  62  89 119 157 200 248 298 350
#     4  10  21  38  61  87 119 159 201 247 296 350
#     4  10  21  39  63  88 116 156 205 251 294 348
#     4  12  23  36  58  88 121 155 194 241 295 352
#     4   9  19  38  64  90 115 149 199 251 296 348
#     4  11  23  38  57  86 124 160 198 246 301 360
#
# _framework density 21.777370999999999
#
# number of rings (size 3 to 8) (size 9 to 14) (size 15 to 20)
#    0.000    1.500    1.667    4.000    0.000    4.667 
#    0.000    5.000    0.000    3.500    0.000    0.000 
#    0.000    0.000    0.000    0.000    0.000    0.000 
#
# Total GULP energy -134191.549716 kJ/mol
# GULP energy per Si atom -5591.314571 kJ/mol
# Density = 2.172780 g / cm^3
# Si number density = 21.777371 Si / 1000 Ang^3
#
#
#
# Elastic Constant Matrix: (Units=GPa)
#
#
# Indices 1 2 3 4 5 6 
#
# 1 79.0062 1.8611 42.3970 0.0000 -0.6766 0.0000
# 2 1.8611 40.5517 -7.2544 0.0000 12.6461 0.0000
# 3 42.3970 -7.2544 119.1013 0.0000 2.6496 0.0000
# 4 0.0000 0.0000 0.0000 16.4609 0.0000 -3.3412
# 5 -0.6766 12.6461 2.6496 0.0000 41.0281 0.0000
# 6 0.0000 0.0000 0.0000 -3.3412 0.0000 21.3049
#
#
#
# Elastic Compliance Matrix: (Units=1/GPa)
#
#
# Indices 1 2 3 4 5 6 
#
# 1 0.015830 -0.002170 -0.005796 0.000000 0.001304 0.000000
# 2 -0.002170 0.027994 0.002674 0.000000 -0.008837 0.000000
# 3 -0.005796 0.002674 0.010658 0.000000 -0.001608 0.000000
# 4 0.000000 0.000000 0.000000 0.062747 0.000000 0.009840
# 5 0.001304 -0.008837 -0.001608 0.000000 0.027223 0.000000
# 6 0.000000 0.000000 0.000000 0.009840 0.000000 0.048481
#
#
# Mechanical properties :
#
#
# Convention : Reuss Voigt Hill
#
# Bulk Modulus (GPa) = 22.78040 34.74073 28.76056
# Shear Modulus (GPa) = 22.92004 29.20248 26.06126
#
# Velocity S-wave (km/s) = 3.24770 3.66588 3.46311
# Velocity P-wave (km/s) = 4.95446 5.82284 5.40612
#
# Compressibility (1/GPa) = 0.04389739
#
# Stress axis : x y z
#
# Youngs Moduli (GPa) = 63.17134 35.72237 93.82461
#
# Poissons Ratio (x) = 0.07752 0.54383
# Poissons Ratio (y) = 0.13709 -0.25090
# Poissons Ratio (z) = 0.36616 -0.09553
#
# Static dielectric constant tensor:
#      x y z
#    x 1.849480 0.000000 -0.047270 
#    y 0.000000 1.797250 0.000000 
#    z -0.047270 0.000000 1.839780 
# 
# From -- ./inp_files/179723.got.cif
#   From: 2010.05.17/outbox.cif.g08.bks.cpg/sg12_90_cif.got.tgz:179723.got - 2010.06.03 13:09:07.
