data_PCOD9209148
_publ_section_title
;
Structure prediction by ZEFSAII (Michael W. Deem and Ramdas Pophale) SiO2 
 PCOD9209148
Probable space group: C 2/M
;
_chemical_formula_sum "Si O2"
_cell_formula_units_Z 48
_cell_length_a 7.964443
_cell_length_b 13.280440
_cell_length_c 21.472043
_cell_angle_alpha 90.000000
_cell_angle_beta 66.214516
_cell_angle_gamma 90.000000
_cell_volume 2078.220877
_symmetry_space_group_name_H-M "C 2/M"
_symmetry_group_IT_number 12
_symmetry_cell_setting 'monoclinic'
loop_
_space_group_symop_operation_xyz
x,y,z
-x,y,-z
-x,-y,-z
x,-y,z
1/2+x,1/2+y,z
1/2-x,1/2+y,-z
1/2-x,1/2-y,-z
1/2+x,1/2-y,z
loop_
_atom_site_type_symbol
_atom_site_label
_atom_site_fract_x
_atom_site_fract_y
_atom_site_fract_z
Si Si1 0.077944 0.315971 0.548974
Si Si2 0.030069 0.113462 0.281876
Si Si3 0.299945 0.115946 0.013038
Si Si4 0.007907 0.178346 0.847300
Si Si5 0.732207 0.805089 0.648783
Si Si6 0.369366 0.111883 0.859069
O O1 0.250000 0.250000 0.500000
O O2 0.133742 0.364325 0.606824
O O3 0.000000 0.373746 0.500000
O O4 0.919547 0.238263 0.592012
O O5 0.888308 0.206061 0.315929
O O6 0.067569 0.124347 0.202839
O O7 0.202566 0.132696 0.301352
O O8 0.958454 0.000000 0.304671
O O9 0.134744 0.164523 0.075014
O O10 0.302535 0.000000 0.034129
O O11 0.500000 0.159619 0.000000
O O12 0.281742 0.115169 0.941549
O O13 0.011768 0.297560 0.834961
O O14 0.205348 0.135415 0.835915
O O15 0.443915 0.000000 0.838539
#
# Coordination Sequence:
#
# PCOD9209148 Si02
#       6
#     8   8   8   8   8   8
#     4   8  14  30  62  92 120 163 199 238 297 343
#     4  11  23  40  61  86 122 164 205 250 297 360
#     4  10  21  38  61  88 117 153 200 259 323 379
#     4  12  23  40  62  85 118 161 205 250 310 376
#     4   9  19  36  59  89 124 160 201 244 294 348
#     4  11  24  41  62  88 117 149 197 261 320 375
#
# _framework density 23.096678000000001
#
# number of rings (size 3 to 8) (size 9 to 14) (size 15 to 20)
#    0.000    1.833    0.000    4.500    0.000    1.333 
#    0.000    9.167    0.000   63.000    0.000    0.000 
#    0.000    0.000    0.000    0.000    0.000    0.000 
#
# Total GULP energy -134037.274951 kJ/mol
# GULP energy per Si atom -5584.886456 kJ/mol
# Density = 2.304411 g / cm^3
# Si number density = 23.096678 Si / 1000 Ang^3
#
#
#
# Elastic Constant Matrix: (Units=GPa)
#
#
# Indices 1 2 3 4 5 6 
#
# 1 80.6386 16.0684 36.1335 0.0001 41.9651 0.0000
# 2 16.0684 124.8360 19.7017 0.0000 8.4371 0.0000
# 3 36.1335 19.7017 89.1414 0.0000 33.0300 0.0000
# 4 0.0001 0.0000 0.0000 -9.0728 0.0000 1.3823
# 5 41.9651 8.4371 33.0300 0.0000 56.5324 0.0000
# 6 0.0000 0.0000 0.0000 1.3823 0.0000 22.4589
#
#
#
# Elastic Compliance Matrix: (Units=1/GPa)
#
#
# Indices 1 2 3 4 5 6 
#
# 1 0.021228 -0.001295 -0.003256 0.000000 -0.013662 0.000000
# 2 -0.001295 0.008381 -0.001557 0.000000 0.000620 0.000000
# 3 -0.003256 -0.001557 0.015189 0.000000 -0.006225 0.000000
# 4 0.000000 0.000000 0.000000 -0.109195 0.000000 0.006721
# 5 -0.013662 0.000620 -0.006225 0.000000 0.031375 0.000000
# 6 0.000000 0.000000 0.000000 0.006721 0.000000 0.044112
#
#
# Mechanical properties :
#
#
# Convention : Reuss Voigt Hill
#
# Bulk Modulus (GPa) = 30.69310 48.71369 39.70340
# Shear Modulus (GPa) = 146.33796 28.83117 87.58457
#
# Velocity S-wave (km/s) = 7.96846 3.53694 6.16467
# Velocity P-wave (km/s) = 9.89847 6.14954 8.24004
#
# Compressibility (1/GPa) = 0.03258061
#
# Stress axis : x y z
#
# Youngs Moduli (GPa) = 47.10729 119.31683 65.83845
#
# Poissons Ratio (x) = 0.15453 0.21439
# Poissons Ratio (y) = 0.06101 0.10253
# Poissons Ratio (z) = 0.15339 0.18581
#
# Static dielectric constant tensor:
#      x y z
#    x 1.884880 0.000000 0.045980 
#    y 0.000000 1.837620 0.000000 
#    z 0.045980 0.000000 1.902570 
# 
# From -- ./inp_files/299787.got.cif
#   From: 2010.05.17/outbox.cif.g08.bks.cpg/sg12_150_cif.got.tgz:299787.got - 2010.06.03 13:09:07.
