data_PCOD9209447
_publ_section_title
;
Structure prediction by ZEFSAII (Michael W. Deem and Ramdas Pophale) SiO2 
 PCOD9209447
Probable space group: C 2/M
;
_chemical_formula_sum "Si O2"
_cell_formula_units_Z 32
_cell_length_a 31.631443
_cell_length_b 8.315400
_cell_length_c 5.111335
_cell_angle_alpha 90.000000
_cell_angle_beta 65.255189
_cell_angle_gamma 90.000000
_cell_volume 1220.981120
_symmetry_space_group_name_H-M "C 2/M"
_symmetry_group_IT_number 12
_symmetry_cell_setting 'monoclinic'
loop_
_space_group_symop_operation_xyz
x,y,z
-x,y,-z
-x,-y,-z
x,-y,z
1/2+x,1/2+y,z
1/2-x,1/2+y,-z
1/2-x,1/2-y,-z
1/2+x,1/2-y,z
loop_
_atom_site_type_symbol
_atom_site_label
_atom_site_fract_x
_atom_site_fract_y
_atom_site_fract_z
Si Si1 0.070579 0.000000 0.239087
Si Si2 0.850038 0.675496 0.339729
Si Si3 0.220245 0.806225 0.830656
Si Si4 0.366794 0.500000 0.433386
Si Si5 0.543088 0.825687 0.087011
O O1 0.091887 0.000000 0.468795
O O2 0.044091 0.834338 0.255723
O O3 0.111349 0.000000 0.913708
O O4 0.833831 0.500000 0.471548
O O5 0.828086 0.712859 0.111390
O O6 0.838735 0.835493 0.533282
O O7 0.906266 0.673465 0.184708
O O8 0.250000 0.750000 0.500000
O O9 0.214047 0.000000 0.845128
O O10 0.250000 0.750000 0.000000
O O11 0.541559 0.000000 0.229256
O O12 0.500000 0.817246 0.000000
#
# Coordination Sequence:
#
# PCOD9209447 Si02
#       5
#     4   8   8   4   8
#     4  10  21  38  62  90 130 172 222 270 328 386
#     4  10  21  42  67  98 137 178 227 281 345 408
#     4  12  26  47  73 105 142 183 237 294 358 429
#     4  10  22  40  63  94 128 172 218 274 327 400
#     4   9  19  38  66  99 137 180 228 279 337 407
#
# _framework density 26.20843
#
# number of rings (size 3 to 8) (size 9 to 14) (size 15 to 20)
#    0.000    1.750    1.250    2.625    0.000    5.000 
#    0.000   15.000    0.000   13.500    0.000    0.000 
#    0.000    0.000    0.000    0.000    0.000    0.000 
#
# Total GULP energy -89558.914815 kJ/mol
# GULP energy per Si atom -5597.432176 kJ/mol
# Density = 2.614878 g / cm^3
# Si number density = 26.208430 Si / 1000 Ang^3
#
#
#
# Elastic Constant Matrix: (Units=GPa)
#
#
# Indices 1 2 3 4 5 6 
#
# 1 187.8622 57.3124 36.1078 0.0000 22.8478 0.0000
# 2 57.3124 334.3592 26.3030 0.0000 36.5671 0.0000
# 3 36.1078 26.3030 71.0749 0.0000 12.1775 0.0000
# 4 0.0000 0.0000 0.0000 146.8255 0.0000 -17.9116
# 5 22.8478 36.5671 12.1775 0.0000 49.5343 0.0000
# 6 0.0000 0.0000 0.0000 -17.9116 0.0000 55.9975
#
#
#
# Elastic Compliance Matrix: (Units=1/GPa)
#
#
# Indices 1 2 3 4 5 6 
#
# 1 0.006245 -0.000674 -0.002625 0.000000 -0.001737 0.000000
# 2 -0.000674 0.003373 -0.000556 0.000000 -0.002043 0.000000
# 3 -0.002625 -0.000556 0.016006 0.000000 -0.002313 0.000000
# 4 0.000000 0.000000 0.000000 0.007087 0.000000 0.002267
# 5 -0.001737 -0.002043 -0.002313 0.000000 0.023066 0.000000
# 6 0.000000 0.000000 0.000000 0.002267 0.000000 0.018583
#
#
# Mechanical properties :
#
#
# Convention : Reuss Voigt Hill
#
# Bulk Modulus (GPa) = 55.82532 92.52695 74.17614
# Shear Modulus (GPa) = 56.79129 82.04300 69.41715
#
# Velocity S-wave (km/s) = 4.66006 5.60107 5.15209
# Velocity P-wave (km/s) = 7.09236 8.78694 7.98473
#
# Compressibility (1/GPa) = 0.01791302
#
# Stress axis : x y z
#
# Youngs Moduli (GPa) = 160.14021 296.43181 62.47836
#
# Poissons Ratio (x) = 0.19974 0.16403
# Poissons Ratio (y) = 0.10791 0.03474
# Poissons Ratio (z) = 0.42042 0.16485
#
# Static dielectric constant tensor:
#      x y z
#    x 2.080030 0.000000 -0.079300 
#    y 0.000000 2.096410 0.000000 
#    z -0.079300 0.000000 2.082510 
# 
# From -- ./inp_files/30249.got.cif
#   From: 2010.05.17/outbox.cif.g08.bks.cpg/sg12_16_cif.got.tgz:30249.got - 2010.06.03 13:09:07.
