data_PCOD9209396
_publ_section_title
;
Structure prediction by ZEFSAII (Michael W. Deem and Ramdas Pophale) SiO2 
 PCOD9209396
Probable space group: C 2/M
;
_chemical_formula_sum "Si O2"
_cell_formula_units_Z 40
_cell_length_a 15.430101
_cell_length_b 22.617073
_cell_length_c 4.879993
_cell_angle_alpha 90.000000
_cell_angle_beta 93.374275
_cell_angle_gamma 90.000000
_cell_volume 1700.085651
_symmetry_space_group_name_H-M "C 2/M"
_symmetry_group_IT_number 12
_symmetry_cell_setting 'monoclinic'
loop_
_space_group_symop_operation_xyz
x,y,z
-x,y,-z
-x,-y,-z
x,-y,z
1/2+x,1/2+y,z
1/2-x,1/2+y,-z
1/2-x,1/2-y,-z
1/2+x,1/2-y,z
loop_
_atom_site_type_symbol
_atom_site_label
_atom_site_fract_x
_atom_site_fract_y
_atom_site_fract_z
Si Si1 0.903040 0.565931 0.102520
Si Si2 0.155067 0.310476 0.819814
Si Si3 0.272766 0.432845 0.279716
Si Si4 0.916106 0.752154 0.669098
Si Si5 0.668926 0.363000 0.180733
O O1 0.893221 0.500000 0.231720
O O2 0.825199 0.569952 0.863205
O O3 0.886283 0.625578 0.270331
O O4 0.000000 0.568144 0.000000
O O5 0.155502 0.266389 0.565935
O O6 0.254210 0.321459 0.923874
O O7 0.099681 0.286343 0.063992
O O8 0.287753 0.500000 0.366635
O O9 0.292138 0.391208 0.537896
O O10 0.337616 0.413291 0.047852
O O11 0.909307 0.820042 0.760663
O O12 0.000000 0.740740 0.500000
#
# Coordination Sequence:
#
# PCOD9209396 Si02
#       5
#     8   8   8   8   8
#     4   9  18  34  55  82 116 151 189 233 282 338
#     4  11  22  38  58  85 118 157 198 240 291 350
#     4  10  21  38  62  89 118 155 196 242 294 352
#     4  12  24  39  60  86 119 156 199 249 298 347
#     4  11  22  39  62  87 119 156 198 243 292 355
#
# _framework density 23.528227000000001
#
# number of rings (size 3 to 8) (size 9 to 14) (size 15 to 20)
#    0.000    1.400    0.000    7.200    0.000    0.800 
#    0.000    4.000    0.000   32.400    0.000    0.000 
#    0.000    0.000    0.000    0.000    0.000    0.000 
#
# Total GULP energy -111804.682348 kJ/mol
# GULP energy per Si atom -5590.234117 kJ/mol
# Density = 2.347468 g / cm^3
# Si number density = 23.528227 Si / 1000 Ang^3
#
#
#
# Elastic Constant Matrix: (Units=GPa)
#
#
# Indices 1 2 3 4 5 6 
#
# 1 18.9341 17.0566 19.0853 0.0000 -6.3243 0.0000
# 2 17.0566 90.2179 33.6820 0.0000 2.7529 0.0000
# 3 19.0853 33.6820 119.2897 0.0000 -7.4965 0.0000
# 4 0.0000 0.0000 0.0000 16.7630 0.0000 5.6404
# 5 -6.3243 2.7529 -7.4965 0.0000 18.5485 0.0000
# 6 0.0000 0.0000 0.0000 5.6404 0.0000 15.6030
#
#
#
# Elastic Compliance Matrix: (Units=1/GPa)
#
#
# Indices 1 2 3 4 5 6 
#
# 1 0.081411 -0.013380 -0.007570 0.000000 0.026684 0.000000
# 2 -0.013380 0.014794 -0.002525 0.000000 -0.007778 0.000000
# 3 -0.007570 -0.002525 0.010434 0.000000 0.002010 0.000000
# 4 0.000000 0.000000 0.000000 0.067917 0.000000 -0.024552
# 5 0.026684 -0.007778 0.002010 0.000000 0.064978 0.000000
# 6 0.000000 0.000000 0.000000 -0.024552 0.000000 0.072966
#
#
# Mechanical properties :
#
#
# Convention : Reuss Voigt Hill
#
# Bulk Modulus (GPa) = 16.75371 40.89884 28.82628
# Shear Modulus (GPa) = 13.18059 20.75741 16.96900
#
# Velocity S-wave (km/s) = 2.36943 2.97347 2.68847
# Velocity P-wave (km/s) = 3.82384 5.40456 4.68140
#
# Compressibility (1/GPa) = 0.05968827
#
# Stress axis : x y z
#
# Youngs Moduli (GPa) = 12.28329 67.59510 95.84476
#
# Poissons Ratio (x) = 0.90439 0.72559
# Poissons Ratio (y) = 0.16435 0.24204
# Poissons Ratio (z) = 0.09299 0.17070
#
# Static dielectric constant tensor:
#      x y z
#    x 1.961700 0.000000 0.011440 
#    y 0.000000 1.931630 0.000000 
#    z 0.011440 0.000000 1.862080 
# 
# From -- ./inp_files/15736.got.cif
#   From: 2010.05.17/outbox.cif.g08.bks.cpg/sg12_8_cif.got.tgz:15736.got - 2010.06.03 13:09:07.
