data_PCOD9209016
_publ_section_title
;
Structure prediction by ZEFSAII (Michael W. Deem and Ramdas Pophale) SiO2 
 PCOD9209016
Probable space group: C 2/M
;
_chemical_formula_sum "Si O2"
_cell_formula_units_Z 64
_cell_length_a 30.139500
_cell_length_b 9.030060
_cell_length_c 15.916556
_cell_angle_alpha 90.000000
_cell_angle_beta 48.609732
_cell_angle_gamma 90.000000
_cell_volume 3249.872919
_symmetry_space_group_name_H-M "C 2/M"
_symmetry_group_IT_number 12
_symmetry_cell_setting 'monoclinic'
loop_
_space_group_symop_operation_xyz
x,y,z
-x,y,-z
-x,-y,-z
x,-y,z
1/2+x,1/2+y,z
1/2-x,1/2+y,-z
1/2-x,1/2-y,-z
1/2+x,1/2-y,z
loop_
_atom_site_type_symbol
_atom_site_label
_atom_site_fract_x
_atom_site_fract_y
_atom_site_fract_z
Si Si1 0.136762 0.171261 0.969699
Si Si2 0.656626 0.331434 0.269187
Si Si3 0.000519 0.827627 0.903215
Si Si4 0.314158 0.174720 0.927780
Si Si5 0.291729 0.822770 0.517442
Si Si6 0.569171 0.177399 0.664988
Si Si7 0.956746 0.824328 0.477732
Si Si8 0.733933 0.171945 0.748986
O O1 0.067250 0.175476 0.041488
O O2 0.152904 0.254569 0.034781
O O3 0.156184 0.000000 0.950098
O O4 0.172770 0.252865 0.851176
O O5 0.647139 0.500000 0.249537
O O6 0.651421 0.217374 0.200250
O O7 0.609043 0.306050 0.401836
O O8 0.721976 0.323225 0.226461
O O9 0.039006 0.740817 0.786716
O O10 0.020652 0.000000 0.880310
O O11 0.000000 0.771207 0.000000
O O12 0.307852 0.000000 0.945604
O O13 0.250000 0.250000 0.000000
O O14 0.250000 0.750000 0.500000
O O15 0.360956 0.782798 0.421749
O O16 0.266670 0.761905 0.636018
O O17 0.287346 0.000000 0.518961
O O18 0.540467 0.243258 0.615298
O O19 0.564083 0.000000 0.669456
O O20 0.000000 0.776222 0.500000
O O21 0.967528 0.000000 0.450508
O O22 0.726318 0.000000 0.734685
#
# Coordination Sequence:
#
# PCOD9209016 Si02
#       8
#     8   8   8   8   8   8   8   8
#     4  11  24  42  65  93 127 169 219 268 318 383
#     4  10  21  38  60  89 126 165 210 260 315 380
#     4  10  25  48  71  94 123 170 223 270 322 385
#     4  12  24  38  59  89 127 168 209 257 315 378
#     4  11  25  43  66  97 130 166 210 261 324 386
#     4  11  25  44  67  99 134 168 212 269 326 382
#     4  10  22  41  66  93 125 172 218 260 314 381
#     4  11  22  39  65  95 129 166 208 263 327 383
#
# _framework density 19.693076999999999
#
# number of rings (size 3 to 8) (size 9 to 14) (size 15 to 20)
#    0.000    1.250    2.500    2.625    3.500    4.000 
#    0.000    0.000    0.000    0.000    0.000    0.000 
#    0.000    0.000    0.000    0.000    0.000    0.000 
#
# Total GULP energy -178878.149912 kJ/mol
# GULP energy per Si atom -5589.942185 kJ/mol
# Density = 1.964825 g / cm^3
# Si number density = 19.693077 Si / 1000 Ang^3
#
#
#
# Elastic Constant Matrix: (Units=GPa)
#
#
# Indices 1 2 3 4 5 6 
#
# 1 87.1769 47.7198 42.4517 0.0000 23.2479 0.0000
# 2 47.7198 94.3721 55.3465 0.0000 7.6986 0.0001
# 3 42.4517 55.3465 127.0156 0.0000 15.3969 0.0000
# 4 0.0000 0.0000 0.0000 36.4956 0.0000 3.2504
# 5 23.2479 7.6986 15.3969 0.0000 27.0511 0.0000
# 6 0.0000 0.0001 0.0000 3.2504 0.0000 25.7280
#
#
#
# Elastic Compliance Matrix: (Units=1/GPa)
#
#
# Indices 1 2 3 4 5 6 
#
# 1 0.020661 -0.008389 -0.001490 0.000000 -0.014521 0.000000
# 2 -0.008389 0.017648 -0.005533 0.000000 0.005336 0.000000
# 3 -0.001490 -0.005533 0.011209 0.000000 -0.003525 0.000000
# 4 0.000000 0.000000 0.000000 0.027712 0.000000 -0.003501
# 5 -0.014521 0.005336 -0.003525 0.000000 0.049934 0.000000
# 6 0.000000 0.000000 0.000000 -0.003501 0.000000 0.039310
#
#
# Mechanical properties :
#
#
# Convention : Reuss Voigt Hill
#
# Bulk Modulus (GPa) = 53.49186 66.62228 60.05707
# Shear Modulus (GPa) = 24.56647 28.72473 26.64560
#
# Velocity S-wave (km/s) = 3.53578 3.82333 3.68237
# Velocity P-wave (km/s) = 6.62501 7.30714 6.97442
#
# Compressibility (1/GPa) = 0.01869443
#
# Stress axis : x y z
#
# Youngs Moduli (GPa) = 48.40119 56.66376 89.21195
#
# Poissons Ratio (x) = 0.47535 0.13289
# Poissons Ratio (y) = 0.40604 0.49362
# Poissons Ratio (z) = 0.07210 0.31353
#
# Static dielectric constant tensor:
#      x y z
#    x 1.662220 0.000000 -0.018330 
#    y 0.000000 1.671260 0.000000 
#    z -0.018330 0.000000 1.671010 
# 
# From -- ./inp_files/249781.got.cif
#   From: 2010.05.17/outbox.cif.g08.bks.cpg/sg12_125_cif.got.tgz:249781.got - 2010.06.03 13:09:07.
