data_PCOD9209385
_publ_section_title
;
Structure prediction by ZEFSAII (Michael W. Deem and Ramdas Pophale) SiO2 
 PCOD9209385
Probable space group: C 2/M
;
_chemical_formula_sum "Si O2"
_cell_formula_units_Z 56
_cell_length_a 19.380061
_cell_length_b 14.197768
_cell_length_c 18.071477
_cell_angle_alpha 90.000000
_cell_angle_beta 32.243233
_cell_angle_gamma 90.000000
_cell_volume 2652.865271
_symmetry_space_group_name_H-M "C 2/M"
_symmetry_group_IT_number 12
_symmetry_cell_setting 'monoclinic'
loop_
_space_group_symop_operation_xyz
x,y,z
-x,y,-z
-x,-y,-z
x,-y,z
1/2+x,1/2+y,z
1/2-x,1/2+y,-z
1/2-x,1/2-y,-z
1/2+x,1/2-y,z
loop_
_atom_site_type_symbol
_atom_site_label
_atom_site_fract_x
_atom_site_fract_y
_atom_site_fract_z
Si Si1 0.303436 0.891534 0.408676
Si Si2 0.131296 0.811425 0.846160
Si Si3 0.826993 0.397841 0.225579
Si Si4 0.921574 0.897444 0.645379
Si Si5 0.786824 0.253208 0.843063
Si Si6 0.099981 0.888280 0.717123
Si Si7 0.073929 0.286524 0.141191
O O1 0.249394 0.889145 0.373744
O O2 0.202728 0.857067 0.561051
O O3 0.441288 0.842271 0.273235
O O4 0.327473 0.000000 0.406547
O O5 0.104869 0.701958 0.847275
O O6 0.239289 0.807096 0.812646
O O7 0.159007 0.865039 0.744748
O O8 0.000000 0.851057 0.000000
O O9 0.896945 0.500000 0.166166
O O10 0.725118 0.403517 0.252012
O O11 0.909294 0.812845 0.712691
O O12 0.000000 0.876863 0.500000
O O13 0.960950 0.000000 0.639253
O O14 0.836685 0.309026 0.869204
O O15 0.663293 0.196502 0.988224
O O16 0.973789 0.822309 0.823529
O O17 0.074581 0.000000 0.733185
#
# Coordination Sequence:
#
# PCOD9209385 Si02
#       7
#     8   8   8   8   8   8   8
#     4  10  21  38  62  89 115 152 201 251 305 355
#     4  11  20  39  59  85 119 159 198 247 293 355
#     4   9  18  32  56  87 114 144 190 240 296 356
#     4   9  19  33  52  83 120 154 187 233 293 359
#     4  10  23  37  59  89 120 158 199 240 305 366
#     4  11  24  39  63  90 117 163 213 253 294 349
#     4  11  22  41  60  87 122 155 198 254 304 359
#
# _framework density 21.109252000000001
#
# number of rings (size 3 to 8) (size 9 to 14) (size 15 to 20)
#    0.000    1.857    2.857    0.429    2.000    2.857 
#    0.000    5.714    0.000    1.714    0.000    0.000 
#    0.000    0.000    0.000    0.000    0.000    0.000 
#
# Total GULP energy -156005.922636 kJ/mol
# GULP energy per Si atom -5571.640094 kJ/mol
# Density = 2.106121 g / cm^3
# Si number density = 21.109252 Si / 1000 Ang^3
#
#
#
# Elastic Constant Matrix: (Units=GPa)
#
#
# Indices 1 2 3 4 5 6 
#
# 1 98.6702 -3.9261 0.9847 0.0000 16.4493 0.0000
# 2 -3.9261 51.8721 20.3791 0.0000 0.0622 0.0000
# 3 0.9847 20.3791 83.7508 0.0000 15.6441 0.0000
# 4 0.0000 0.0000 0.0000 11.4795 0.0000 -11.7846
# 5 16.4493 0.0622 15.6441 0.0000 32.0829 0.0000
# 6 0.0000 0.0000 0.0000 -11.7846 0.0000 -0.9052
#
#
#
# Elastic Compliance Matrix: (Units=1/GPa)
#
#
# Indices 1 2 3 4 5 6 
#
# 1 0.011174 0.000500 0.000899 0.000000 -0.006168 0.000000
# 2 0.000500 0.021559 -0.005717 0.000000 0.002490 0.000000
# 3 0.000899 -0.005717 0.014748 0.000000 -0.007641 0.000000
# 4 0.000000 0.000000 0.000000 0.006065 0.000000 -0.078949
# 5 -0.006168 0.002490 -0.007641 0.000000 0.038053 0.000000
# 6 0.000000 0.000000 0.000000 -0.078949 0.000000 -0.076905
#
#
# Mechanical properties :
#
#
# Convention : Reuss Voigt Hill
#
# Bulk Modulus (GPa) = 25.74300 29.90762 27.82531
# Shear Modulus (GPa) = 137.82438 22.98847 80.40643
#
# Velocity S-wave (km/s) = 8.08905 3.30362 6.17845
# Velocity P-wave (km/s) = 9.97323 5.36196 8.00674
#
# Compressibility (1/GPa) = 0.03884551
#
# Stress axis : x y z
#
# Youngs Moduli (GPa) = 89.49324 46.38430 67.80564
#
# Poissons Ratio (x) = -0.02319 -0.06097
# Poissons Ratio (y) = -0.04473 0.38764
# Poissons Ratio (z) = -0.08047 0.26517
#
# Static dielectric constant tensor:
#      x y z
#    x 1.821400 0.000000 -0.005970 
#    y 0.000000 1.837590 0.000000 
#    z -0.005970 0.000000 1.798170 
# 
# From -- ./inp_files/284513.got.cif
#   From: 2010.05.17/outbox.cif.g08.bks.cpg/sg12_143_cif.got.tgz:284513.got - 2010.06.03 13:09:07.
