data_PCOD9209889
_publ_section_title
;
Structure prediction by ZEFSAII (Michael W. Deem and Ramdas Pophale) SiO2 
 PCOD9209889
Probable space group: C 2/M
;
_chemical_formula_sum "Si O2"
_cell_formula_units_Z 32
_cell_length_a 10.918006
_cell_length_b 21.951903
_cell_length_c 5.861760
_cell_angle_alpha 90.000000
_cell_angle_beta 110.938351
_cell_angle_gamma 90.000000
_cell_volume 1312.122438
_symmetry_space_group_name_H-M "C 2/M"
_symmetry_group_IT_number 12
_symmetry_cell_setting 'monoclinic'
loop_
_space_group_symop_operation_xyz
x,y,z
-x,y,-z
-x,-y,-z
x,-y,z
1/2+x,1/2+y,z
1/2-x,1/2+y,-z
1/2-x,1/2-y,-z
1/2+x,1/2-y,z
loop_
_atom_site_type_symbol
_atom_site_label
_atom_site_fract_x
_atom_site_fract_y
_atom_site_fract_z
Si Si1 0.634288 0.184758 0.490811
Si Si2 0.117408 0.000000 0.394853
Si Si3 0.158598 0.500000 0.082006
Si Si4 0.297987 0.299607 0.212812
Si Si5 0.316834 0.399224 0.909527
O O1 0.500000 0.160147 0.500000
O O2 0.636129 0.257065 0.551440
O O3 0.667366 0.175302 0.249508
O O4 0.744063 0.148591 0.699764
O O5 0.109255 0.057436 0.219666
O O6 0.000000 0.000000 0.500000
O O7 0.256422 0.000000 0.624466
O O8 0.214738 0.442663 0.975512
O O9 0.000000 0.500000 0.000000
O O10 0.250000 0.250000 0.000000
O O11 0.375718 0.354202 0.143963
#
# Coordination Sequence:
#
# PCOD9209889 Si02
#       5
#     8   4   4   8   8
#     4  10  21  38  66  96 138 179 229 285 352 418
#     4  11  26  49  68 100 141 189 237 293 355 424
#     4  11  26  43  70 104 136 176 233 288 350 411
#     4   9  20  40  58  94 131 176 225 278 341 409
#     4  10  23  40  68  98 138 180 235 287 348 416
#
# _framework density 24.387971
#
# number of rings (size 3 to 8) (size 9 to 14) (size 15 to 20)
#    0.000    2.000    0.000    1.500    7.000    6.000 
#    0.000   30.000    0.000    0.000    0.000    0.000 
#    0.000    0.000    0.000    0.000    0.000    0.000 
#
# Total GULP energy -89288.719735 kJ/mol
# GULP energy per Si atom -5580.544983 kJ/mol
# Density = 2.433246 g / cm^3
# Si number density = 24.387971 Si / 1000 Ang^3
#
#
#
# Elastic Constant Matrix: (Units=GPa)
#
#
# Indices 1 2 3 4 5 6 
#
# 1 99.1996 37.9153 56.6092 0.0000 -13.9828 0.0000
# 2 37.9153 171.4224 61.7583 0.0000 -23.6044 0.0000
# 3 56.6092 61.7583 126.3897 0.0000 -33.5557 0.0000
# 4 0.0000 0.0000 0.0000 49.5706 0.0000 -16.0628
# 5 -13.9828 -23.6044 -33.5557 0.0000 37.5246 0.0000
# 6 0.0000 0.0000 0.0000 -16.0628 0.0000 24.1128
#
#
#
# Elastic Compliance Matrix: (Units=1/GPa)
#
#
# Indices 1 2 3 4 5 6 
#
# 1 0.013696 -0.001033 -0.005832 0.000000 -0.000761 0.000000
# 2 -0.001033 0.007250 -0.002585 0.000000 0.001864 0.000000
# 3 -0.005832 -0.002585 0.014134 0.000000 0.008840 0.000000
# 4 0.000000 0.000000 0.000000 0.025727 0.000000 0.017138
# 5 -0.000761 0.001864 0.008840 0.000000 0.035443 0.000000
# 6 0.000000 0.000000 0.000000 0.017138 0.000000 0.052888
#
#
# Mechanical properties :
#
#
# Convention : Reuss Voigt Hill
#
# Bulk Modulus (GPa) = 61.80224 78.84193 70.32209
# Shear Modulus (GPa) = 28.82984 38.29018 33.56001
#
# Velocity S-wave (km/s) = 3.44195 3.96668 3.71359
# Velocity P-wave (km/s) = 6.41812 7.30601 6.87641
#
# Compressibility (1/GPa) = 0.01618064
#
# Stress axis : x y z
#
# Youngs Moduli (GPa) = 73.01293 137.93078 70.75071
#
# Poissons Ratio (x) = 0.14250 0.41260
# Poissons Ratio (y) = 0.07543 0.18289
# Poissons Ratio (z) = 0.42579 0.35655
#
# Static dielectric constant tensor:
#      x y z
#    x 2.083640 0.000000 -0.011600 
#    y 0.000000 1.949460 0.000000 
#    z -0.011600 0.000000 1.994680 
# 
# From -- ./inp_files/6106.got.cif
#   From: 2010.05.17/outbox.cif.g08.bks.cpg/sg12_4_cif.got.tgz:6106.got - 2010.06.03 13:09:07.
