data_PCOD9209757
_publ_section_title
;
Structure prediction by ZEFSAII (Michael W. Deem and Ramdas Pophale) SiO2 
 PCOD9209757
Probable space group: C 2/M
;
_chemical_formula_sum "Si O2"
_cell_formula_units_Z 48
_cell_length_a 18.361051
_cell_length_b 14.204946
_cell_length_c 13.154182
_cell_angle_alpha 90.000000
_cell_angle_beta 136.268688
_cell_angle_gamma 90.000000
_cell_volume 2371.664942
_symmetry_space_group_name_H-M "C 2/M"
_symmetry_group_IT_number 12
_symmetry_cell_setting 'monoclinic'
loop_
_space_group_symop_operation_xyz
x,y,z
-x,y,-z
-x,-y,-z
x,-y,z
1/2+x,1/2+y,z
1/2-x,1/2+y,-z
1/2-x,1/2-y,-z
1/2+x,1/2-y,z
loop_
_atom_site_type_symbol
_atom_site_label
_atom_site_fract_x
_atom_site_fract_y
_atom_site_fract_z
Si Si1 0.551871 0.295412 0.942401
Si Si2 0.124577 0.112001 0.375897
Si Si3 0.552827 0.893154 0.823656
Si Si4 0.155756 0.393746 0.511424
Si Si5 0.615578 0.292623 0.582283
Si Si6 0.221249 0.295390 0.863932
O O1 0.475961 0.340833 0.780287
O O2 0.564517 0.186070 0.921821
O O3 0.500000 0.304214 0.000000
O O4 0.669167 0.339760 0.063510
O O5 0.229619 0.131748 0.416534
O O6 0.142669 0.151374 0.507628
O O7 0.110075 0.000000 0.365054
O O8 0.431465 0.890984 0.665170
O O9 0.624447 0.862453 0.798570
O O10 0.579684 0.000000 0.880886
O O11 0.159081 0.500000 0.555201
O O12 0.119664 0.317017 0.555113
O O13 0.500000 0.322054 0.500000
O O14 0.688947 0.288424 0.754776
O O15 0.250000 0.250000 0.000000
#
# Coordination Sequence:
#
# PCOD9209757 Si02
#       6
#     8   8   8   8   8   8
#     4  11  23  41  66  94 129 173 206 256 322 382
#     4  11  25  43  64  92 127 170 218 262 311 376
#     4  10  21  40  63  93 127 162 206 260 315 370
#     4  10  21  38  64  94 121 156 207 263 314 365
#     4  12  21  39  67  92 122 162 209 267 313 367
#     4  10  22  40  59  89 127 165 204 249 317 379
#
# _framework density 20.238945000000001
#
# number of rings (size 3 to 8) (size 9 to 14) (size 15 to 20)
#    0.000    1.333    3.333    2.500    2.333    2.667 
#    0.000    3.333    0.000    0.000    0.000    0.000 
#    0.000    0.000    0.000    0.000    0.000    0.000 
#
# Total GULP energy -133915.772166 kJ/mol
# GULP energy per Si atom -5579.823840 kJ/mol
# Density = 2.019288 g / cm^3
# Si number density = 20.238945 Si / 1000 Ang^3
#
#
#
# Elastic Constant Matrix: (Units=GPa)
#
#
# Indices 1 2 3 4 5 6 
#
# 1 63.1662 4.9942 14.6969 0.0000 -0.3506 0.0000
# 2 4.9942 59.1909 8.9486 0.0000 -4.7740 0.0000
# 3 14.6969 8.9486 101.3581 0.0000 1.1820 0.0000
# 4 0.0000 0.0000 0.0000 9.7343 0.0000 5.0936
# 5 -0.3506 -4.7740 1.1820 0.0000 47.1679 0.0000
# 6 0.0000 0.0000 0.0000 5.0936 0.0000 16.3658
#
#
#
# Elastic Compliance Matrix: (Units=1/GPa)
#
#
# Indices 1 2 3 4 5 6 
#
# 1 0.016447 -0.001035 -0.002294 0.000000 0.000075 0.000000
# 2 -0.001035 0.017337 -0.001401 0.000000 0.001782 0.000000
# 3 -0.002294 -0.001401 0.010327 0.000000 -0.000418 0.000000
# 4 0.000000 0.000000 0.000000 0.122715 0.000000 -0.038193
# 5 0.000075 0.001782 -0.000418 0.000000 0.021392 0.000000
# 6 0.000000 0.000000 0.000000 -0.038193 0.000000 0.072990
#
#
# Mechanical properties :
#
#
# Convention : Reuss Voigt Hill
#
# Bulk Modulus (GPa) = 28.85932 31.22160 30.04046
# Shear Modulus (GPa) = 17.71664 27.65864 22.68764
#
# Velocity S-wave (km/s) = 2.96188 3.70077 3.35175
# Velocity P-wave (km/s) = 5.09777 5.80697 5.46389
#
# Compressibility (1/GPa) = 0.03465086
#
# Stress axis : x y z
#
# Youngs Moduli (GPa) = 60.80017 57.67879 96.83080
#
# Poissons Ratio (x) = 0.05969 0.22217
# Poissons Ratio (y) = 0.06292 0.13570
# Poissons Ratio (z) = 0.13950 0.08083
#
# Static dielectric constant tensor:
#      x y z
#    x 1.765750 0.000000 0.043850 
#    y 0.000000 1.713920 0.000000 
#    z 0.043850 0.000000 1.821930 
# 
# From -- ./inp_files/225460.got.cif
#   From: 2010.05.17/outbox.cif.g08.bks.cpg/sg12_113_cif.got.tgz:225460.got - 2010.06.03 13:09:07.
