data_PCOD9209628
_publ_section_title
;
Structure prediction by ZEFSAII (Michael W. Deem and Ramdas Pophale) SiO2 
 PCOD9209628
Probable space group: C 2/M
;
_chemical_formula_sum "Si O2"
_cell_formula_units_Z 56
_cell_length_a 8.935424
_cell_length_b 18.548894
_cell_length_c 18.886782
_cell_angle_alpha 90.000000
_cell_angle_beta 112.346118
_cell_angle_gamma 90.000000
_cell_volume 2895.261567
_symmetry_space_group_name_H-M "C 2/M"
_symmetry_group_IT_number 12
_symmetry_cell_setting 'monoclinic'
loop_
_space_group_symop_operation_xyz
x,y,z
-x,y,-z
-x,-y,-z
x,-y,z
1/2+x,1/2+y,z
1/2-x,1/2+y,-z
1/2-x,1/2-y,-z
1/2+x,1/2-y,z
loop_
_atom_site_type_symbol
_atom_site_label
_atom_site_fract_x
_atom_site_fract_y
_atom_site_fract_z
Si Si1 0.137635 0.819805 0.469397
Si Si2 0.587557 0.915205 0.441949
Si Si3 0.959813 0.912913 0.166957
Si Si4 0.792445 0.413222 0.149487
Si Si5 0.678102 0.087752 0.006915
Si Si6 0.911325 0.818624 0.295840
Si Si7 0.546013 0.165140 0.287789
O O1 0.250000 0.750000 0.500000
O O2 0.230306 0.891530 0.509359
O O3 0.000000 0.805850 0.500000
O O4 0.054894 0.828402 0.378703
O O5 0.500000 0.895962 0.500000
O O6 0.533665 0.870362 0.363661
O O7 0.567144 0.000000 0.425205
O O8 0.818201 0.891265 0.086795
O O9 0.927556 0.876282 0.236254
O O10 0.133647 0.891319 0.165470
O O11 0.957870 0.000000 0.173229
O O12 0.793884 0.500000 0.149206
O O13 0.954878 0.385479 0.215607
O O14 0.785259 0.388553 0.066632
O O15 0.676902 0.000000 0.006026
O O16 0.500000 0.111359 0.000000
O O17 0.734364 0.823596 0.300651
O O18 0.947774 0.739679 0.271366
#
# Coordination Sequence:
#
# PCOD9209628 Si02
#       7
#     8   8   8   8   8   8   8
#     4  12  23  43  66  91 121 167 211 257 311 373
#     4  11  26  43  65  92 125 162 206 259 314 370
#     4  10  22  39  63  96 129 164 210 259 310 370
#     4  10  21  38  63  92 129 169 208 257 310 370
#     4   9  17  34  61  92 127 168 209 252 308 370
#     4  12  25  41  65  90 122 166 209 258 314 376
#     4  12  25  43  62  92 125 163 212 258 314 375
#
# _framework density 19.341949
#
# number of rings (size 3 to 8) (size 9 to 14) (size 15 to 20)
#    0.000    1.143    2.857    3.000    4.000    4.857 
#    0.000    0.714    0.000    0.000    0.000    0.000 
#    0.000    0.000    0.000    0.000    0.000    0.000 
#
# Total GULP energy -156402.020391 kJ/mol
# GULP energy per Si atom -5585.786443 kJ/mol
# Density = 1.929793 g / cm^3
# Si number density = 19.341949 Si / 1000 Ang^3
#
#
#
# Elastic Constant Matrix: (Units=GPa)
#
#
# Indices 1 2 3 4 5 6 
#
# 1 115.3212 32.7081 50.9547 0.0000 -4.8181 0.0000
# 2 32.7081 40.8404 32.0997 0.0000 -9.4814 0.0000
# 3 50.9547 32.0997 147.6462 0.0000 -1.9386 0.0000
# 4 0.0000 0.0000 0.0000 -14.5265 0.0000 22.7669
# 5 -4.8181 -9.4814 -1.9386 0.0000 37.1259 0.0000
# 6 0.0000 0.0000 0.0000 22.7669 0.0000 18.0882
#
#
#
# Elastic Compliance Matrix: (Units=1/GPa)
#
#
# Indices 1 2 3 4 5 6 
#
# 1 0.011927 -0.007770 -0.002434 0.000000 -0.000563 0.000000
# 2 -0.007770 0.036658 -0.005182 0.000000 0.008083 0.000000
# 3 -0.002434 -0.005182 0.008724 0.000000 -0.001184 0.000000
# 4 0.000000 0.000000 0.000000 -0.023158 0.000000 0.029148
# 5 -0.000563 0.008083 -0.001184 0.000000 0.028865 0.000000
# 6 0.000000 0.000000 0.000000 0.029148 0.000000 0.018598
#
#
# Mechanical properties :
#
#
# Convention : Reuss Voigt Hill
#
# Bulk Modulus (GPa) = 37.68385 59.48142 48.58263
# Shear Modulus (GPa) = 41.24326 20.67386 30.95856
#
# Velocity S-wave (km/s) = 4.62272 3.27289 4.00508
# Velocity P-wave (km/s) = 6.92950 6.71578 6.82348
#
# Compressibility (1/GPa) = 0.02653656
#
# Stress axis : x y z
#
# Youngs Moduli (GPa) = 83.84181 27.27946 114.62336
#
# Poissons Ratio (x) = 0.21195 0.27905
# Poissons Ratio (y) = 0.65142 0.59400
# Poissons Ratio (z) = 0.20411 0.14137
#
# Static dielectric constant tensor:
#      x y z
#    x 1.665010 0.000000 0.005210 
#    y 0.000000 1.671560 0.000000 
#    z 0.005210 0.000000 1.642140 
# 
# From -- ./inp_files/257135.got.cif
#   From: 2010.05.17/outbox.cif.g08.bks.cpg/sg12_129_cif.got.tgz:257135.got - 2010.06.03 13:09:07.
