data_PCOD9209293
_publ_section_title
;
Structure prediction by ZEFSAII (Michael W. Deem and Ramdas Pophale) SiO2 
 PCOD9209293
Probable space group: C 2/M
;
_chemical_formula_sum "Si O2"
_cell_formula_units_Z 56
_cell_length_a 14.770507
_cell_length_b 9.859406
_cell_length_c 18.283533
_cell_angle_alpha 90.000000
_cell_angle_beta 88.363031
_cell_angle_gamma 90.000000
_cell_volume 2661.515489
_symmetry_space_group_name_H-M "C 2/M"
_symmetry_group_IT_number 12
_symmetry_cell_setting 'monoclinic'
loop_
_space_group_symop_operation_xyz
x,y,z
-x,y,-z
-x,-y,-z
x,-y,z
1/2+x,1/2+y,z
1/2-x,1/2+y,-z
1/2-x,1/2-y,-z
1/2+x,1/2-y,z
loop_
_atom_site_type_symbol
_atom_site_label
_atom_site_fract_x
_atom_site_fract_y
_atom_site_fract_z
Si Si1 0.564072 0.159975 0.068638
Si Si2 0.404464 0.749688 0.473093
Si Si3 0.349988 0.341415 0.706371
Si Si4 0.270750 0.852911 0.596336
Si Si5 0.024843 0.655547 0.679453
Si Si6 0.285176 0.340729 0.876627
Si Si7 0.401737 0.162903 0.172944
O O1 0.652124 0.251880 0.072647
O O2 0.498349 0.199137 0.137282
O O3 0.587031 0.000000 0.072400
O O4 0.500000 0.178440 0.000000
O O5 0.500000 0.689799 0.500000
O O6 0.354159 0.833565 0.537856
O O7 0.323442 0.654891 0.445768
O O8 0.433440 0.835163 0.401659
O O9 0.358812 0.500000 0.687578
O O10 0.279656 0.267821 0.653982
O O11 0.442158 0.259085 0.689853
O O12 0.321537 0.332491 0.791898
O O13 0.278216 0.000000 0.632229
O O14 0.995973 0.500000 0.694628
O O15 0.095862 0.694351 0.741541
O O16 0.286210 0.500000 0.897751
O O17 0.182846 0.285570 0.871528
O O18 0.393524 0.000000 0.166986
#
# Coordination Sequence:
#
# PCOD9209293 Si02
#       7
#     8   8   8   8   8   8   8
#     4  10  21  38  61  92 127 158 196 246 294 349
#     4  11  24  41  61  92 119 156 200 259 304 361
#     4  11  23  39  61  90 122 155 202 262 308 349
#     4  11  25  43  63  89 120 160 205 250 308 372
#     4  11  21  39  66  88 115 161 208 246 303 372
#     4  10  21  39  62  87 120 161 203 244 292 355
#     4   9  19  37  62  87 117 159 198 238 297 357
#
# _framework density 21.040645000000001
#
# number of rings (size 3 to 8) (size 9 to 14) (size 15 to 20)
#    0.000    1.571    2.857    1.714    0.000    6.857 
#    0.000    1.429    0.000    0.000    0.000    0.000 
#    0.000    0.000    0.000    0.000    0.000    0.000 
#
# Total GULP energy -156322.240164 kJ/mol
# GULP energy per Si atom -5582.937149 kJ/mol
# Density = 2.099276 g / cm^3
# Si number density = 21.040645 Si / 1000 Ang^3
#
#
#
# Elastic Constant Matrix: (Units=GPa)
#
#
# Indices 1 2 3 4 5 6 
#
# 1 128.2916 33.5163 5.3476 0.0000 33.8650 0.0000
# 2 33.5163 95.2357 14.9350 0.0000 19.7895 0.0000
# 3 5.3476 14.9350 45.9724 0.0000 15.5906 0.0000
# 4 0.0000 0.0000 0.0000 20.4574 0.0000 11.2857
# 5 33.8650 19.7895 15.5906 0.0000 29.7204 0.0000
# 6 0.0000 0.0000 0.0000 11.2857 0.0000 16.8004
#
#
#
# Elastic Compliance Matrix: (Units=1/GPa)
#
#
# Indices 1 2 3 4 5 6 
#
# 1 0.011945 -0.001826 0.004145 0.000000 -0.014569 0.000000
# 2 -0.001826 0.012548 -0.002112 0.000000 -0.005166 0.000000
# 3 0.004145 -0.002112 0.028075 0.000000 -0.018044 0.000000
# 4 0.000000 0.000000 0.000000 0.077663 0.000000 -0.052170
# 5 -0.014569 -0.005166 -0.018044 0.000000 0.063152 0.000000
# 6 0.000000 0.000000 0.000000 -0.052170 0.000000 0.094568
#
#
# Mechanical properties :
#
#
# Convention : Reuss Voigt Hill
#
# Bulk Modulus (GPa) = 18.87498 41.89973 30.38736
# Shear Modulus (GPa) = 16.38275 27.77569 22.07922
#
# Velocity S-wave (km/s) = 2.79341 3.63726 3.24290
# Velocity P-wave (km/s) = 4.40391 6.13159 5.33811
#
# Compressibility (1/GPa) = 0.05298017
#
# Stress axis : x y z
#
# Youngs Moduli (GPa) = 83.71850 79.69584 35.61835
#
# Poissons Ratio (x) = 0.14556 -0.14762
# Poissons Ratio (y) = 0.15290 0.07523
# Poissons Ratio (z) = -0.34697 0.16832
#
# Static dielectric constant tensor:
#      x y z
#    x 1.799770 0.000000 0.002120 
#    y 0.000000 1.711960 0.000000 
#    z 0.002120 0.000000 1.788950 
# 
# From -- ./inp_files/308972.got.cif
#   From: 2010.05.17/outbox.cif.g08.bks.cpg/sg12_155_cif.got.tgz:308972.got - 2010.06.03 13:09:07.
