data_PCOD9209403
_publ_section_title
;
Structure prediction by ZEFSAII (Michael W. Deem and Ramdas Pophale) SiO2 
 PCOD9209403
Probable space group: C 2/M
;
_chemical_formula_sum "Si O2"
_cell_formula_units_Z 48
_cell_length_a 15.683140
_cell_length_b 28.453756
_cell_length_c 4.827429
_cell_angle_alpha 90.000000
_cell_angle_beta 119.339424
_cell_angle_gamma 90.000000
_cell_volume 1877.896582
_symmetry_space_group_name_H-M "C 2/M"
_symmetry_group_IT_number 12
_symmetry_cell_setting 'monoclinic'
loop_
_space_group_symop_operation_xyz
x,y,z
-x,y,-z
-x,-y,-z
x,-y,z
1/2+x,1/2+y,z
1/2-x,1/2+y,-z
1/2-x,1/2-y,-z
1/2+x,1/2-y,z
loop_
_atom_site_type_symbol
_atom_site_label
_atom_site_fract_x
_atom_site_fract_y
_atom_site_fract_z
Si Si1 0.058706 0.613346 0.820147
Si Si2 0.112520 0.291424 0.679182
Si Si3 0.764764 0.448504 0.799869
Si Si4 0.131627 0.052684 0.088216
Si Si5 0.097948 0.157862 0.002679
Si Si6 0.203614 0.204210 0.644980
O O1 0.097530 0.652756 0.665096
O O2 0.152243 0.589050 0.101673
O O3 0.000000 0.581806 0.500000
O O4 0.000000 0.630626 0.000000
O O5 0.162696 0.256962 0.540494
O O6 0.000000 0.274481 0.500000
O O7 0.189196 0.289484 0.054969
O O8 0.803988 0.500000 0.794619
O O9 0.728953 0.446969 0.057794
O O10 0.667557 0.442870 0.460646
O O11 0.081534 0.101969 0.932202
O O12 0.087870 0.000000 0.972472
O O13 0.185290 0.170393 0.356552
O O14 0.133877 0.181909 0.777418
O O15 0.000000 0.176349 0.000000
#
# Coordination Sequence:
#
# PCOD9209403 Si02
#       6
#     8   8   8   8   8   8
#     4  11  23  36  58  89 122 162 207 260 315 372
#     4  10  23  43  66  94 129 167 213 262 318 379
#     4  10  21  39  61  86 122 165 209 259 314 375
#     4  10  21  38  62  89 120 162 208 257 314 376
#     4  12  24  42  66  94 129 168 213 265 321 381
#     4  11  26  43  66  94 127 169 212 263 318 381
#
# _framework density 25.560510000000001
#
# number of rings (size 3 to 8) (size 9 to 14) (size 15 to 20)
#    0.000    1.333    0.000    5.500    0.000   11.000 
#    0.000    0.000    0.000    5.000    0.000    0.000 
#    0.000    0.000    0.000    0.000    0.000    0.000 
#
# Total GULP energy -133877.950926 kJ/mol
# GULP energy per Si atom -5578.247955 kJ/mol
# Density = 2.550233 g / cm^3
# Si number density = 25.560510 Si / 1000 Ang^3
#
#
#
# Elastic Constant Matrix: (Units=GPa)
#
#
# Indices 1 2 3 4 5 6 
#
# 1 80.1223 31.1381 38.1186 0.0000 0.4209 0.0000
# 2 31.1381 102.9811 12.3063 0.0000 -9.0081 0.0000
# 3 38.1186 12.3063 71.4653 0.0000 -17.5863 0.0000
# 4 0.0000 0.0000 0.0000 10.3857 0.0000 -10.0190
# 5 0.4209 -9.0081 -17.5863 0.0000 45.9512 0.0000
# 6 0.0000 0.0000 0.0000 -10.0190 0.0000 18.5902
#
#
#
# Elastic Compliance Matrix: (Units=1/GPa)
#
#
# Indices 1 2 3 4 5 6 
#
# 1 0.019711 -0.005121 -0.010955 0.000000 -0.005377 0.000000
# 2 -0.005121 0.011330 0.001478 0.000000 0.002834 0.000000
# 3 -0.010955 0.001478 0.021724 0.000000 0.008704 0.000000
# 4 0.000000 0.000000 0.000000 0.200563 0.000000 0.108092
# 5 -0.005377 0.002834 0.008704 0.000000 0.025698 0.000000
# 6 0.000000 0.000000 0.000000 0.108092 0.000000 0.112047
#
#
# Mechanical properties :
#
#
# Convention : Reuss Voigt Hill
#
# Bulk Modulus (GPa) = 42.43026 46.41053 44.42040
# Shear Modulus (GPa) = 11.67876 26.51912 19.09894
#
# Velocity S-wave (km/s) = 2.13986 3.22452 2.73647
# Velocity P-wave (km/s) = 4.76878 5.66215 5.23456
#
# Compressibility (1/GPa) = 0.02356808
#
# Stress axis : x y z
#
# Youngs Moduli (GPa) = 50.73189 88.25888 46.03302
#
# Poissons Ratio (x) = 0.45200 0.50430
# Poissons Ratio (y) = 0.25981 -0.06803
# Poissons Ratio (z) = 0.55578 -0.13044
#
# Static dielectric constant tensor:
#      x y z
#    x 2.076160 0.000000 0.065840 
#    y 0.000000 2.061020 0.000000 
#    z 0.065840 0.000000 2.064400 
# 
# From -- ./inp_files/13244.got.cif
#   From: 2010.05.17/outbox.cif.g08.bks.cpg/sg12_7_cif.got.tgz:13244.got - 2010.06.03 13:09:07.
