data_PCOD9209969
_publ_section_title
;
Structure prediction by ZEFSAII (Michael W. Deem and Ramdas Pophale) SiO2 
 PCOD9209969
Probable space group: C 2/M
;
_chemical_formula_sum "Si O2"
_cell_formula_units_Z 32
_cell_length_a 13.868481
_cell_length_b 20.065238
_cell_length_c 5.018032
_cell_angle_alpha 90.000000
_cell_angle_beta 66.778108
_cell_angle_gamma 90.000000
_cell_volume 1283.260845
_symmetry_space_group_name_H-M "C 2/M"
_symmetry_group_IT_number 12
_symmetry_cell_setting 'monoclinic'
loop_
_space_group_symop_operation_xyz
x,y,z
-x,y,-z
-x,-y,-z
x,-y,z
1/2+x,1/2+y,z
1/2-x,1/2+y,-z
1/2-x,1/2-y,-z
1/2+x,1/2-y,z
loop_
_atom_site_type_symbol
_atom_site_label
_atom_site_fract_x
_atom_site_fract_y
_atom_site_fract_z
Si Si1 0.069913 0.100436 0.182597
Si Si2 0.764829 0.150031 0.673081
Si Si3 0.887571 0.237418 0.092740
Si Si4 0.570486 0.077023 0.657613
O O1 0.187446 0.093825 0.177865
O O2 0.000000 0.077279 0.500000
O O3 0.081574 0.180546 0.150249
O O4 0.000000 0.080365 0.000000
O O5 0.842986 0.191378 0.387105
O O6 0.696234 0.207080 0.888559
O O7 0.679797 0.114181 0.579140
O O8 0.000000 0.272525 0.000000
O O9 0.500000 0.107111 0.500000
O O10 0.593822 0.000000 0.562931
O O11 0.500000 0.076801 0.000000
#
# Coordination Sequence:
#
# PCOD9209969 Si02
#       4
#     8   8   8   8
#     4  11  21  39  57  86 130 168 201 253 300 368
#     4  11  22  39  66  88 125 172 206 248 321 370
#     4  10  21  39  57  93 130 161 208 251 307 373
#     4  10  24  46  68  95 124 157 210 266 310 366
#
# _framework density 24.936472999999999
#
# number of rings (size 3 to 8) (size 9 to 14) (size 15 to 20)
#    0.000    1.500    5.000    1.500    3.500    0.000 
#   18.000    0.000    0.000    2.250    0.000    0.000 
#    0.000    0.000    0.000    0.000    0.000    0.000 
#
# Total GULP energy -89074.122294 kJ/mol
# GULP energy per Si atom -5567.132643 kJ/mol
# Density = 2.487972 g / cm^3
# Si number density = 24.936473 Si / 1000 Ang^3
#
#
#
# Elastic Constant Matrix: (Units=GPa)
#
#
# Indices 1 2 3 4 5 6 
#
# 1 203.9015 29.8203 62.5830 0.0000 20.1871 0.0000
# 2 29.8203 77.0308 8.5074 0.0000 -2.4644 0.0000
# 3 62.5830 8.5074 106.6266 0.0000 23.6618 0.0000
# 4 0.0000 0.0000 0.0000 -14.8440 0.0000 17.2481
# 5 20.1871 -2.4644 23.6618 0.0000 57.8423 0.0000
# 6 0.0000 0.0000 0.0000 17.2481 0.0000 2.3063
#
#
#
# Elastic Compliance Matrix: (Units=1/GPa)
#
#
# Indices 1 2 3 4 5 6 
#
# 1 0.006331 -0.002112 -0.003340 0.000000 -0.000933 0.000000
# 2 -0.002112 0.013864 -0.000177 0.000000 0.001400 0.000000
# 3 -0.003340 -0.000177 0.012204 0.000000 -0.003834 0.000000
# 4 0.000000 0.000000 0.000000 -0.006952 0.000000 0.051994
# 5 -0.000933 0.001400 -0.003834 0.000000 0.019242 0.000000
# 6 0.000000 0.000000 0.000000 0.051994 0.000000 0.044747
#
#
# Mechanical properties :
#
#
# Convention : Reuss Voigt Hill
#
# Bulk Modulus (GPa) = 47.30422 65.48669 56.39546
# Shear Modulus (GPa) = 46.40786 28.17080 37.28933
#
# Velocity S-wave (km/s) = 4.31866 3.36475 3.87120
# Velocity P-wave (km/s) = 6.62411 6.43536 6.53042
#
# Compressibility (1/GPa) = 0.02113976
#
# Stress axis : x y z
#
# Youngs Moduli (GPa) = 157.95954 72.13080 81.94020
#
# Poissons Ratio (x) = 0.15232 0.27370
# Poissons Ratio (y) = 0.33357 0.01454
# Poissons Ratio (z) = 0.52762 0.01280
#
# Static dielectric constant tensor:
#      x y z
#    x 2.372030 0.000000 0.203310 
#    y 0.000000 1.963150 0.000000 
#    z 0.203310 0.000000 2.143280 
# 
# From -- ./inp_files/6607.got.cif
#   From: 2010.05.17/outbox.cif.g08.bks.cpg/sg12_4_cif.got.tgz:6607.got - 2010.06.03 13:09:07.
