data_PCOD9209061
_publ_section_title
;
Structure prediction by ZEFSAII (Michael W. Deem and Ramdas Pophale) SiO2 
 PCOD9209061
Probable space group: C 2/M
;
_chemical_formula_sum "Si O2"
_cell_formula_units_Z 56
_cell_length_a 29.874875
_cell_length_b 7.698679
_cell_length_c 18.399776
_cell_angle_alpha 90.000000
_cell_angle_beta 146.390630
_cell_angle_gamma 90.000000
_cell_volume 2342.471131
_symmetry_space_group_name_H-M "C 2/M"
_symmetry_group_IT_number 12
_symmetry_cell_setting 'monoclinic'
loop_
_space_group_symop_operation_xyz
x,y,z
-x,y,-z
-x,-y,-z
x,-y,z
1/2+x,1/2+y,z
1/2-x,1/2+y,-z
1/2-x,1/2-y,-z
1/2+x,1/2-y,z
loop_
_atom_site_type_symbol
_atom_site_label
_atom_site_fract_x
_atom_site_fract_y
_atom_site_fract_z
Si Si1 0.124002 0.211914 0.688596
Si Si2 0.854644 0.702585 0.534858
Si Si3 0.480951 0.290356 0.592369
Si Si4 0.910922 0.206751 0.032913
Si Si5 0.088088 0.797776 0.236212
Si Si6 0.215035 0.705785 0.031390
Si Si7 0.692770 0.286920 0.242174
O O1 0.078714 0.264919 0.554213
O O2 0.214737 0.275971 0.819903
O O3 0.069071 0.265576 0.683432
O O4 0.124158 0.000000 0.688534
O O5 0.839539 0.500000 0.526611
O O6 0.940324 0.725265 0.610539
O O7 0.858562 0.787236 0.619004
O O8 0.783238 0.770436 0.385904
O O9 0.481607 0.500000 0.596859
O O10 0.000117 0.278540 0.136939
O O11 0.916460 0.000000 0.031397
O O12 0.871942 0.232231 0.059424
O O13 0.847238 0.274199 0.886817
O O14 0.134731 0.727278 0.229593
O O15 0.075516 0.000000 0.201567
O O16 0.212860 0.500000 0.034062
O O17 0.250000 0.750000 0.000000
O O18 0.694447 0.500000 0.242041
#
# Coordination Sequence:
#
# PCOD9209061 Si02
#       7
#     8   8   8   8   8   8   8
#     4   8  17  34  56  78 103 139 189 234 269 322
#     4  11  22  34  53  85 122 149 179 231 293 343
#     4   9  17  34  58  80 103 141 188 231 273 329
#     4  10  21  39  63  87 111 147 196 243 286 333
#     4  10  21  38  61  85 112 152 197 236 279 340
#     4  11  23  38  56  82 116 152 189 229 280 338
#     4   9  19  38  62  86 113 148 193 241 285 337
#
# _framework density 23.906379000000001
#
# number of rings (size 3 to 8) (size 9 to 14) (size 15 to 20)
#    0.000    2.286    0.000    3.429    2.000    2.286 
#    0.000    5.000    0.000    1.714    0.000    0.000 
#    0.000    0.000    0.000    0.000    0.000    0.000 
#
# Total GULP energy -156473.627044 kJ/mol
# GULP energy per Si atom -5588.343823 kJ/mol
# Density = 2.385197 g / cm^3
# Si number density = 23.906379 Si / 1000 Ang^3
#
#
#
# Elastic Constant Matrix: (Units=GPa)
#
#
# Indices 1 2 3 4 5 6 
#
# 1 129.6279 -5.2880 17.9004 0.0000 10.8211 0.0000
# 2 -5.2880 38.7482 -2.3419 0.0000 5.7799 0.0000
# 3 17.9004 -2.3419 71.3456 0.0000 16.6222 0.0000
# 4 0.0000 0.0000 0.0000 13.2433 0.0000 -2.6855
# 5 10.8211 5.7799 16.6222 0.0000 38.2230 0.0000
# 6 0.0000 0.0000 0.0000 -2.6855 0.0000 14.0322
#
#
#
# Elastic Compliance Matrix: (Units=1/GPa)
#
#
# Indices 1 2 3 4 5 6 
#
# 1 0.008136 0.001285 -0.001577 0.000000 -0.001812 0.000000
# 2 0.001285 0.026865 0.001770 0.000000 -0.005196 0.000000
# 3 -0.001577 0.001770 0.016055 0.000000 -0.006803 0.000000
# 4 0.000000 0.000000 0.000000 0.078559 0.000000 0.015035
# 5 -0.001812 -0.005196 -0.006803 0.000000 0.030419 0.000000
# 6 0.000000 0.000000 0.000000 0.015035 0.000000 0.074142
#
#
# Mechanical properties :
#
#
# Convention : Reuss Voigt Hill
#
# Bulk Modulus (GPa) = 18.51426 28.91809 23.71618
# Shear Modulus (GPa) = 20.06228 28.39644 24.22936
#
# Velocity S-wave (km/s) = 2.90004 3.45021 3.18702
# Velocity P-wave (km/s) = 4.35602 5.29099 4.84611
#
# Compressibility (1/GPa) = 0.05401241
#
# Stress axis : x y z
#
# Youngs Moduli (GPa) = 122.91308 37.22308 62.28581
#
# Poissons Ratio (x) = -0.04784 0.09822
# Poissons Ratio (y) = -0.15797 -0.11024
# Poissons Ratio (z) = 0.19383 -0.06588
#
# Static dielectric constant tensor:
#      x y z
#    x 1.840570 0.000000 -0.005770 
#    y 0.000000 1.891720 0.000000 
#    z -0.005770 0.000000 1.929980 
# 
# From -- ./inp_files/292562.got.cif
#   From: 2010.05.17/outbox.cif.g08.bks.cpg/sg12_147_cif.got.tgz:292562.got - 2010.06.03 13:09:07.
