data_PCOD9209230
_publ_section_title
;
Structure prediction by ZEFSAII (Michael W. Deem and Ramdas Pophale) SiO2 
 PCOD9209230
Probable space group: C 2/M
;
_chemical_formula_sum "Si O2"
_cell_formula_units_Z 48
_cell_length_a 9.245515
_cell_length_b 15.416842
_cell_length_c 15.682895
_cell_angle_alpha 90.000000
_cell_angle_beta 84.153651
_cell_angle_gamma 90.000000
_cell_volume 2223.760155
_symmetry_space_group_name_H-M "C 2/M"
_symmetry_group_IT_number 12
_symmetry_cell_setting 'monoclinic'
loop_
_space_group_symop_operation_xyz
x,y,z
-x,y,-z
-x,-y,-z
x,-y,z
1/2+x,1/2+y,z
1/2-x,1/2+y,-z
1/2-x,1/2-y,-z
1/2+x,1/2-y,z
loop_
_atom_site_type_symbol
_atom_site_label
_atom_site_fract_x
_atom_site_fract_y
_atom_site_fract_z
Si Si1 0.715068 0.144055 0.728335
Si Si2 0.296314 0.667410 0.188637
Si Si3 0.106636 0.096903 0.122317
Si Si4 0.085759 0.596172 0.336041
Si Si5 0.657238 0.894651 0.030423
Si Si6 0.369750 0.727718 0.562298
O O1 0.693791 0.237783 0.772538
O O2 0.805110 0.094322 0.794439
O O3 0.560924 0.103970 0.711661
O O4 0.808653 0.164150 0.638192
O O5 0.456395 0.644654 0.147014
O O6 0.227070 0.608149 0.267341
O O7 0.187820 0.654963 0.115954
O O8 0.066253 0.000000 0.098180
O O9 0.216715 0.130617 0.043924
O O10 0.088585 0.500000 0.375861
O O11 0.083388 0.680707 0.397013
O O12 0.664150 0.000000 0.043983
O O13 0.500000 0.875864 0.000000
O O14 0.500000 0.688448 0.500000
O O15 0.250000 0.750000 0.500000
#
# Coordination Sequence:
#
# PCOD9209230 Si02
#       6
#     8   8   8   8   8   8
#     4  11  24  42  65  90 126 165 204 253 315 375
#     4  11  22  39  63  92 125 164 209 257 313 365
#     4  11  23  39  62  92 125 162 208 262 311 360
#     4  11  23  41  67  95 125 165 210 252 306 377
#     4  10  21  38  61  89 127 170 211 258 310 366
#     4  11  23  44  67  93 126 166 202 255 315 373
#
# _framework density 21.585063000000002
#
# number of rings (size 3 to 8) (size 9 to 14) (size 15 to 20)
#    0.000    1.167    1.667    5.500    2.333    3.667 
#    0.000    1.667    0.000    2.500    0.000    0.000 
#    0.000    0.000    0.000    0.000    0.000    0.000 
#
# Total GULP energy -134234.615754 kJ/mol
# GULP energy per Si atom -5593.108990 kJ/mol
# Density = 2.153593 g / cm^3
# Si number density = 21.585063 Si / 1000 Ang^3
#
#
#
# Elastic Constant Matrix: (Units=GPa)
#
#
# Indices 1 2 3 4 5 6 
#
# 1 98.8406 6.2304 10.9281 0.0000 -16.6870 0.0000
# 2 6.2304 58.8931 -3.4897 0.0000 -12.1866 0.0000
# 3 10.9281 -3.4897 83.7582 0.0000 -15.0002 0.0000
# 4 0.0000 0.0000 0.0000 21.1217 0.0000 19.7306
# 5 -16.6870 -12.1866 -15.0002 0.0000 54.3331 0.0000
# 6 0.0000 0.0000 0.0000 19.7306 0.0000 37.8184
#
#
#
# Elastic Compliance Matrix: (Units=1/GPa)
#
#
# Indices 1 2 3 4 5 6 
#
# 1 0.010747 -0.000586 -0.000904 0.000000 0.002920 0.000000
# 2 -0.000586 0.018027 0.001599 0.000000 0.004305 0.000000
# 3 -0.000904 0.001599 0.012769 0.000000 0.003606 0.000000
# 4 0.000000 0.000000 0.000000 0.092355 0.000000 -0.048183
# 5 0.002920 0.004305 0.003606 0.000000 0.021263 0.000000
# 6 0.000000 0.000000 0.000000 -0.048183 0.000000 0.051580
#
#
# Mechanical properties :
#
#
# Convention : Reuss Voigt Hill
#
# Bulk Modulus (GPa) = 23.94587 29.86997 26.90792
# Shear Modulus (GPa) = 22.68132 37.84284 30.26208
#
# Velocity S-wave (km/s) = 3.24510 4.19166 3.74838
# Velocity P-wave (km/s) = 5.01585 6.10696 5.58810
#
# Compressibility (1/GPa) = 0.04176085
#
# Stress axis : x y z
#
# Youngs Moduli (GPa) = 93.04835 55.47102 78.31163
#
# Poissons Ratio (x) = 0.03253 0.07077
# Poissons Ratio (y) = 0.05456 -0.12518
# Poissons Ratio (z) = 0.08409 -0.08867
#
# Static dielectric constant tensor:
#      x y z
#    x 1.747120 0.000000 -0.006640 
#    y 0.000000 1.809820 0.000000 
#    z -0.006640 0.000000 1.762220 
# 
# From -- ./inp_files/195948.got.cif
#   From: 2010.05.17/outbox.cif.g08.bks.cpg/sg12_98_cif.got.tgz:195948.got - 2010.06.03 13:09:07.
