data_PCOD9209676
_publ_section_title
;
Structure prediction by ZEFSAII (Michael W. Deem and Ramdas Pophale) SiO2 
 PCOD9209676
Probable space group: C 2/M
;
_chemical_formula_sum "Si O2"
_cell_formula_units_Z 56
_cell_length_a 29.710707
_cell_length_b 7.768665
_cell_length_c 18.204745
_cell_angle_alpha 90.000000
_cell_angle_beta 140.014116
_cell_angle_gamma 90.000000
_cell_volume 2700.125380
_symmetry_space_group_name_H-M "C 2/M"
_symmetry_group_IT_number 12
_symmetry_cell_setting 'monoclinic'
loop_
_space_group_symop_operation_xyz
x,y,z
-x,y,-z
-x,-y,-z
x,-y,z
1/2+x,1/2+y,z
1/2-x,1/2+y,-z
1/2-x,1/2-y,-z
1/2+x,1/2-y,z
loop_
_atom_site_type_symbol
_atom_site_label
_atom_site_fract_x
_atom_site_fract_y
_atom_site_fract_z
Si Si1 0.002123 0.790248 0.917887
Si Si2 0.224344 0.292969 0.885268
Si Si3 0.263291 0.196556 0.675082
Si Si4 0.545799 0.500000 0.452058
Si Si5 0.845057 0.792847 0.919064
Si Si6 0.859902 0.205696 0.662527
Si Si7 0.879985 0.315415 0.524533
Si Si8 0.614463 0.500000 0.699269
O O1 0.932552 0.734413 0.789811
O O2 0.000212 0.000000 0.916223
O O3 0.074563 0.737614 0.970141
O O4 0.000000 0.734157 0.000000
O O5 0.209310 0.500000 0.861003
O O6 0.289822 0.251364 0.913306
O O7 0.160572 0.167392 0.780616
O O8 0.250000 0.250000 0.000000
O O9 0.318624 0.217530 0.809147
O O10 0.299144 0.251703 0.644078
O O11 0.194073 0.300760 0.609781
O O12 0.240421 0.000000 0.639122
O O13 0.568817 0.666184 0.435511
O O14 0.592232 0.500000 0.585266
O O15 0.462644 0.500000 0.360655
O O16 0.845424 0.000000 0.911613
O O17 0.856623 0.291146 0.579398
O O18 0.861154 0.000000 0.654102
O O19 0.912730 0.500000 0.553292
#
# Coordination Sequence:
#
# PCOD9209676 Si02
#       8
#     8   8   8   4   8   8   8   4
#     4   9  17  34  59  87 127 173 220 271 326 396
#     4  11  24  44  73 107 143 182 233 294 360 422
#     4  12  23  37  60  93 133 177 229 282 332 392
#     4  11  26  50  72 108 135 187 225 293 362 428
#     4  10  21  38  63  95 127 177 228 273 337 403
#     4  11  21  38  62  91 135 183 231 280 332 392
#     4  12  25  44  67  97 135 176 232 281 344 411
#     4  11  26  48  80 102 145 174 235 289 360 438
#
# _framework density 20.739778000000001
#
# number of rings (size 3 to 8) (size 9 to 14) (size 15 to 20)
#    0.000    1.143    3.571    3.000    1.000    3.429 
#    0.000    3.571    0.000    0.000    0.000    0.000 
#    0.000    0.000    0.000    0.000    0.000    0.000 
#
# Total GULP energy -156525.638419 kJ/mol
# GULP energy per Si atom -5590.201372 kJ/mol
# Density = 2.069257 g / cm^3
# Si number density = 20.739778 Si / 1000 Ang^3
#
#
#
# Elastic Constant Matrix: (Units=GPa)
#
#
# Indices 1 2 3 4 5 6 
#
# 1 120.4950 47.0789 40.5557 0.0000 18.8043 0.0000
# 2 47.0789 121.3573 26.3265 0.0000 14.0242 0.0000
# 3 40.5557 26.3265 94.0943 0.0000 18.9973 0.0000
# 4 0.0000 0.0000 0.0000 11.4586 0.0000 -2.1437
# 5 18.8043 14.0242 18.9973 0.0000 30.7395 0.0000
# 6 0.0000 0.0000 0.0000 -2.1437 0.0000 15.2666
#
#
#
# Elastic Compliance Matrix: (Units=1/GPa)
#
#
# Indices 1 2 3 4 5 6 
#
# 1 0.011180 -0.003248 -0.003232 0.000000 -0.003360 0.000000
# 2 -0.003248 0.009939 -0.000990 0.000000 -0.001936 0.000000
# 3 -0.003232 -0.000990 0.013490 0.000000 -0.005909 0.000000
# 4 0.000000 0.000000 0.000000 0.089625 0.000000 0.012585
# 5 -0.003360 -0.001936 -0.005909 0.000000 0.039122 0.000000
# 6 0.000000 0.000000 0.000000 0.012585 0.000000 0.067270
#
#
# Mechanical properties :
#
#
# Convention : Reuss Voigt Hill
#
# Bulk Modulus (GPa) = 50.83848 62.65208 56.74528
# Shear Modulus (GPa) = 19.83171 26.29197 23.06184
#
# Velocity S-wave (km/s) = 3.09563 3.56435 3.33823
# Velocity P-wave (km/s) = 6.11089 6.87122 6.50218
#
# Compressibility (1/GPa) = 0.01967014
#
# Stress axis : x y z
#
# Youngs Moduli (GPa) = 89.44413 100.61851 74.12649
#
# Poissons Ratio (x) = 0.32679 0.23955
# Poissons Ratio (y) = 0.29050 0.07339
# Poissons Ratio (z) = 0.28905 0.09962
#
# Static dielectric constant tensor:
#      x y z
#    x 1.712060 0.000000 -0.002880 
#    y 0.000000 1.811890 0.000000 
#    z -0.002880 0.000000 1.738860 
# 
# From -- ./inp_files/292615.got.cif
#   From: 2010.05.17/outbox.cif.g08.bks.cpg/sg12_147_cif.got.tgz:292615.got - 2010.06.03 13:09:07.
