data_PCOD9209381
_publ_section_title
;
Structure prediction by ZEFSAII (Michael W. Deem and Ramdas Pophale) SiO2 
 PCOD9209381
Probable space group: C 2/M
;
_chemical_formula_sum "Si O2"
_cell_formula_units_Z 64
_cell_length_a 8.782543
_cell_length_b 25.826071
_cell_length_c 14.562771
_cell_angle_alpha 90.000000
_cell_angle_beta 111.748534
_cell_angle_gamma 90.000000
_cell_volume 3067.988676
_symmetry_space_group_name_H-M "C 2/M"
_symmetry_group_IT_number 12
_symmetry_cell_setting 'monoclinic'
loop_
_space_group_symop_operation_xyz
x,y,z
-x,y,-z
-x,-y,-z
x,-y,z
1/2+x,1/2+y,z
1/2-x,1/2+y,-z
1/2-x,1/2-y,-z
1/2+x,1/2-y,z
loop_
_atom_site_type_symbol
_atom_site_label
_atom_site_fract_x
_atom_site_fract_y
_atom_site_fract_z
Si Si1 0.672550 0.079391 0.213879
Si Si2 0.387191 0.884360 0.053678
Si Si3 0.769017 0.886108 0.794345
Si Si4 0.535565 0.059164 0.376051
Si Si5 0.403765 0.558006 0.110303
Si Si6 0.667423 0.157936 0.491708
Si Si7 0.916901 0.198870 0.699102
Si Si8 0.779487 0.307667 0.705663
O O1 0.511827 0.069811 0.115204
O O2 0.645132 0.057265 0.308142
O O3 0.836614 0.061997 0.200121
O O4 0.669228 0.141608 0.226270
O O5 0.321870 0.862750 0.136608
O O6 0.500000 0.857092 0.000000
O O7 0.221021 0.903851 0.968968
O O8 0.629615 0.910741 0.696084
O O9 0.876434 0.843528 0.766669
O O10 0.905645 0.927846 0.854243
O O11 0.634451 0.096188 0.468879
O O12 0.502422 0.000000 0.396837
O O13 0.376943 0.500000 0.071082
O O14 0.500000 0.178396 0.500000
O O15 0.805424 0.179215 0.589473
O O16 0.702461 0.177830 0.397503
O O17 0.875099 0.254198 0.733356
O O18 0.096584 0.201654 0.698343
#
# Coordination Sequence:
#
# PCOD9209381 Si02
#       8
#     8   8   8   8   8   8   8   8
#     4   9  20  39  62  92 124 161 204 259 306 368
#     4   9  21  37  61  88 123 163 200 248 305 360
#     4  11  22  39  61  92 132 160 207 264 305 365
#     4  10  21  38  62  88 127 175 212 246 303 369
#     4  11  21  37  62  93 126 162 205 254 309 366
#     4  11  22  41  62  94 130 160 211 257 301 362
#     4  12  24  41  65  96 121 165 205 259 321 370
#     4  11  24  41  69  91 126 161 205 259 318 371
#
# _framework density 20.860572000000001
#
# number of rings (size 3 to 8) (size 9 to 14) (size 15 to 20)
#    0.000    1.500    2.500    2.625    3.500    5.500 
#    0.000    0.000    0.000    9.750    0.000    0.000 
#    0.000    0.000    0.000    0.000    0.000    0.000 
#
# Total GULP energy -178411.392373 kJ/mol
# GULP energy per Si atom -5575.356012 kJ/mol
# Density = 2.081309 g / cm^3
# Si number density = 20.860572 Si / 1000 Ang^3
#
#
#
# Elastic Constant Matrix: (Units=GPa)
#
#
# Indices 1 2 3 4 5 6 
#
# 1 149.0511 20.3505 17.6956 0.0000 -18.4364 0.0000
# 2 20.3505 97.8015 3.1564 0.0000 4.9415 0.0000
# 3 17.6956 3.1564 52.9957 0.0000 -12.3586 0.0000
# 4 0.0000 0.0000 0.0000 4.1565 0.0000 -0.9222
# 5 -18.4364 4.9415 -12.3586 0.0000 44.2521 0.0000
# 6 0.0000 0.0000 0.0000 -0.9222 0.0000 18.7684
#
#
#
# Elastic Compliance Matrix: (Units=1/GPa)
#
#
# Indices 1 2 3 4 5 6 
#
# 1 0.007489 -0.001644 -0.001746 0.000000 0.002816 0.000000
# 2 -0.001644 0.010688 -0.000562 0.000000 -0.002036 0.000000
# 3 -0.001746 -0.000562 0.020678 0.000000 0.005110 0.000000
# 4 0.000000 0.000000 0.000000 0.243239 0.000000 0.011951
# 5 0.002816 -0.002036 0.005110 0.000000 0.025426 0.000000
# 6 0.000000 0.000000 0.000000 0.011951 0.000000 0.053868
#
#
# Mechanical properties :
#
#
# Convention : Reuss Voigt Hill
#
# Bulk Modulus (GPa) = 32.31048 42.47259 37.39153
# Shear Modulus (GPa) = 13.17145 30.67846 21.92496
#
# Velocity S-wave (km/s) = 2.51550 3.83906 3.24547
# Velocity P-wave (km/s) = 4.89483 6.32895 5.65752
#
# Compressibility (1/GPa) = 0.03094971
#
# Stress axis : x y z
#
# Youngs Moduli (GPa) = 133.52495 93.56351 48.36145
#
# Poissons Ratio (x) = 0.15385 0.08444
# Poissons Ratio (y) = 0.21955 0.02719
# Poissons Ratio (z) = 0.23314 0.05260
#
# Static dielectric constant tensor:
#      x y z
#    x 1.766440 0.000000 -0.012880 
#    y 0.000000 1.770880 0.000000 
#    z -0.012880 0.000000 1.812920 
# 
# From -- ./inp_files/199887.got.cif
#   From: 2010.05.17/outbox.cif.g08.bks.cpg/sg12_100_cif.got.tgz:199887.got - 2010.06.03 13:09:07.
