data_PCOD9209232
_publ_section_title
;
Structure prediction by ZEFSAII (Michael W. Deem and Ramdas Pophale) SiO2 
 PCOD9209232
Probable space group: C 2/M
;
_chemical_formula_sum "Si O2"
_cell_formula_units_Z 58
_cell_length_a 13.740541
_cell_length_b 19.433294
_cell_length_c 19.435292
_cell_angle_alpha 90.000000
_cell_angle_beta 144.241292
_cell_angle_gamma 90.000000
_cell_volume 3032.714087
_symmetry_space_group_name_H-M "C 2/M"
_symmetry_group_IT_number 12
_symmetry_cell_setting 'monoclinic'
loop_
_space_group_symop_operation_xyz
x,y,z
-x,y,-z
-x,-y,-z
x,-y,z
1/2+x,1/2+y,z
1/2-x,1/2+y,-z
1/2-x,1/2-y,-z
1/2+x,1/2-y,z
loop_
_atom_site_type_symbol
_atom_site_label
_atom_site_fract_x
_atom_site_fract_y
_atom_site_fract_z
Si Si1 0.749604 0.581428 0.177272
Si Si2 0.977693 0.273596 0.816087
Si Si3 0.562145 0.576269 0.214329
Si Si4 0.469188 0.132449 0.583929
Si Si5 0.105246 0.184370 0.359427
Si Si6 0.500000 0.000000 0.500000
Si Si7 0.899689 0.778042 0.373920
Si Si8 0.687811 0.352110 0.002090
O O1 0.736024 0.500000 0.154960
O O2 0.667037 0.592391 0.205148
O O3 0.671430 0.625077 0.071319
O O4 0.938533 0.606855 0.294722
O O5 0.935854 0.248199 0.714508
O O6 0.796662 0.293465 0.740109
O O7 0.122813 0.329712 0.900899
O O8 0.064557 0.209947 0.907671
O O9 0.617942 0.500000 0.264403
O O10 0.580664 0.622266 0.291584
O O11 0.373847 0.584905 0.080188
O O12 0.294050 0.171612 0.491833
O O13 0.461267 0.062894 0.534189
O O14 0.581799 0.194536 0.617351
O O15 0.987239 0.190433 0.357168
O O16 0.000000 0.800289 0.500000
#
# Coordination Sequence:
#
# PCOD9209232 Si02
#       8
#     8   8   8   8   8   2   8   8
#     4  11  22  34  58  94 128 161 197 251 325 379
#     4  10  22  41  61  89 124 165 208 255 306 376
#     4  10  22  39  61  89 124 163 206 259 316 383
#     4  12  22  36  59  93 134 160 199 252 315 392
#     4  11  24  39  61  92 124 172 208 254 317 375
#     4  12  20  36  60  96 128 168 204 254 334 384
#     4  12  24  40  64  91 128 165 209 262 311 377
#     4  10  21  38  61  89 128 163 202 256 319 373
#
# _framework density 19.124783000000001
#
# number of rings (size 3 to 8) (size 9 to 14) (size 15 to 20)
#    0.000    1.103    2.759    4.552    4.828    2.207 
#    0.000    6.897    0.000    2.897    0.000    0.000 
#    0.000    0.000    0.000    0.000    0.000    0.000 
#
# Total GULP energy -161515.202945 kJ/mol
# GULP energy per Si atom -5569.489757 kJ/mol
# Density = 1.908125 g / cm^3
# Si number density = 19.124783 Si / 1000 Ang^3
#
#
#
# Elastic Constant Matrix: (Units=GPa)
#
#
# Indices 1 2 3 4 5 6 
#
# 1 101.2984 31.2156 63.7561 0.0001 -0.6607 0.0000
# 2 31.2156 48.8128 25.0142 0.0003 -3.2562 0.0001
# 3 63.7561 25.0142 135.5592 0.0007 10.7744 0.0002
# 4 0.0001 0.0003 0.0007 22.8995 0.0003 -2.7890
# 5 -0.6607 -3.2562 10.7744 0.0003 38.7385 0.0001
# 6 0.0000 0.0001 0.0002 -2.7890 0.0001 21.1354
#
#
#
# Elastic Compliance Matrix: (Units=1/GPa)
#
#
# Indices 1 2 3 4 5 6 
#
# 1 0.016016 -0.006874 -0.006381 0.000000 0.001470 0.000000
# 2 -0.006874 0.025954 -0.001759 0.000000 0.002554 0.000000
# 3 -0.006381 -0.001759 0.010965 0.000000 -0.003307 0.000000
# 4 0.000000 0.000000 0.000000 0.044382 0.000000 0.005857
# 5 0.001470 0.002554 -0.003307 0.000000 0.026973 0.000000
# 6 0.000000 0.000000 0.000000 0.005857 0.000000 0.048087
#
#
# Mechanical properties :
#
#
# Convention : Reuss Voigt Hill
#
# Bulk Modulus (GPa) = 43.65480 58.40470 51.02975
# Shear Modulus (GPa) = 23.80475 27.60030 25.70253
#
# Velocity S-wave (km/s) = 3.53187 3.80303 3.66995
# Velocity P-wave (km/s) = 6.28554 7.06322 6.68570
#
# Compressibility (1/GPa) = 0.02290699
#
# Stress axis : x y z
#
# Youngs Moduli (GPa) = 62.43838 38.52935 91.19629
#
# Poissons Ratio (x) = 0.26485 0.58192
# Poissons Ratio (y) = 0.42921 0.16043
# Poissons Ratio (z) = 0.39842 0.06778
#
# Static dielectric constant tensor:
#      x y z
#    x 1.673400 0.000000 0.022520 
#    y 0.000000 1.692510 0.000000 
#    z 0.022520 0.000000 1.798040 
# 
# From -- ./inp_files/265270.got.cif
#   From: 2010.05.17/outbox.cif.g08.bks.cpg/sg12_133_cif.got.tgz:265270.got - 2010.06.03 13:09:07.
