data_PCOD9209907
_publ_section_title
;
Structure prediction by ZEFSAII (Michael W. Deem and Ramdas Pophale) SiO2 
 PCOD9209907
Probable space group: C 2/M
;
_chemical_formula_sum "Si O2"
_cell_formula_units_Z 36
_cell_length_a 18.049212
_cell_length_b 15.339130
_cell_length_c 5.253997
_cell_angle_alpha 90.000000
_cell_angle_beta 97.158293
_cell_angle_gamma 90.000000
_cell_volume 1443.279689
_symmetry_space_group_name_H-M "C 2/M"
_symmetry_group_IT_number 12
_symmetry_cell_setting 'monoclinic'
loop_
_space_group_symop_operation_xyz
x,y,z
-x,y,-z
-x,-y,-z
x,-y,z
1/2+x,1/2+y,z
1/2-x,1/2+y,-z
1/2-x,1/2-y,-z
1/2+x,1/2-y,z
loop_
_atom_site_type_symbol
_atom_site_label
_atom_site_fract_x
_atom_site_fract_y
_atom_site_fract_z
Si Si1 0.817717 0.000000 0.212108
Si Si2 0.705064 0.837295 0.107035
Si Si3 0.419977 0.500000 0.758553
Si Si4 0.634937 0.772606 0.582325
Si Si5 0.500000 0.358009 0.500000
Si Si6 0.942762 0.403547 0.160796
O O1 0.770913 0.908594 0.171049
O O2 0.875722 0.000000 0.002255
O O3 0.859053 0.000000 0.501901
O O4 0.678884 0.781897 0.340634
O O5 0.693046 0.778403 0.843839
O O6 0.634351 0.902154 0.026895
O O7 0.472921 0.418097 0.720342
O O8 0.574612 0.696824 0.589165
O O9 0.581919 0.856860 0.593355
O O10 0.970113 0.500000 0.219273
O O11 0.000000 0.353864 0.000000
#
# Coordination Sequence:
#
# PCOD9209907 Si02
#       6
#     4   8   4   8   4   8
#     4  12  24  51  71 110 147 190 250 267 373 440
#     4  10  21  38  67 102 143 183 216 291 350 443
#     4  11  30  48  82  94 133 211 238 323 324 420
#     4  10  22  37  69 100 141 179 216 313 344 414
#     4  11  26  54  71 108 140 176 275 290 368 395
#     4   9  18  32  56 100 138 183 220 265 359 415
#
# _framework density 24.943190000000001
#
# number of rings (size 3 to 8) (size 9 to 14) (size 15 to 20)
#    1.333    0.444    1.111    2.667    1.556    5.333 
#    0.000    9.444    0.000    0.000    0.000    0.000 
#    0.000    0.000    0.000    0.000    0.000    0.000 
#
# Total GULP energy -100477.860445 kJ/mol
# GULP energy per Si atom -5582.103358 kJ/mol
# Density = 2.488642 g / cm^3
# Si number density = 24.943190 Si / 1000 Ang^3
#
#
#
# Elastic Constant Matrix: (Units=GPa)
#
#
# Indices 1 2 3 4 5 6 
#
# 1 175.3481 45.1867 79.5692 0.0000 -13.2766 0.0000
# 2 45.1867 74.3753 18.0801 0.0000 8.8423 0.0000
# 3 79.5692 18.0801 162.9561 0.0000 1.7031 0.0000
# 4 0.0000 0.0000 0.0000 43.8728 0.0000 61.8984
# 5 -13.2766 8.8423 1.7031 0.0000 51.4628 0.0000
# 6 0.0000 0.0000 0.0000 61.8984 0.0000 100.4338
#
#
#
# Elastic Compliance Matrix: (Units=1/GPa)
#
#
# Indices 1 2 3 4 5 6 
#
# 1 0.008971 -0.004900 -0.003871 0.000000 0.003284 0.000000
# 2 -0.004900 0.016778 0.000574 0.000000 -0.004166 0.000000
# 3 -0.003871 0.000574 0.007977 0.000000 -0.001361 0.000000
# 4 0.000000 0.000000 0.000000 0.174698 0.000000 -0.107668
# 5 0.003284 -0.004166 -0.001361 0.000000 0.021040 0.000000
# 6 0.000000 0.000000 0.000000 -0.107668 0.000000 0.076314
#
#
# Mechanical properties :
#
#
# Convention : Reuss Voigt Hill
#
# Bulk Modulus (GPa) = 57.69216 77.59462 67.64339
# Shear Modulus (GPa) = 15.24634 57.14346 36.19490
#
# Velocity S-wave (km/s) = 2.47501 4.79157 3.81345
# Velocity P-wave (km/s) = 5.59886 7.86055 6.82406
#
# Compressibility (1/GPa) = 0.01733338
#
# Stress axis : x y z
#
# Youngs Moduli (GPa) = 111.47234 59.60288 125.35590
#
# Poissons Ratio (x) = 0.29203 0.48526
# Poissons Ratio (y) = 0.54618 -0.07201
# Poissons Ratio (z) = 0.43151 -0.03424
#
# Static dielectric constant tensor:
#      x y z
#    x 2.059400 0.000000 0.057370 
#    y 0.000000 2.053940 0.000000 
#    z 0.057370 0.000000 2.007820 
# 
# From -- ./inp_files/59843.got.cif
#   From: 2010.05.17/outbox.cif.g08.bks.cpg/sg12_30_cif.got.tgz:59843.got - 2010.06.03 13:09:07.
