data_PCOD9209062
_publ_section_title
;
Structure prediction by ZEFSAII (Michael W. Deem and Ramdas Pophale) SiO2 
 PCOD9209062
Probable space group: C 2/M
;
_chemical_formula_sum "Si O2"
_cell_formula_units_Z 64
_cell_length_a 30.289568
_cell_length_b 8.522600
_cell_length_c 19.344731
_cell_angle_alpha 90.000000
_cell_angle_beta 138.876225
_cell_angle_gamma 90.000000
_cell_volume 3284.337053
_symmetry_space_group_name_H-M "C 2/M"
_symmetry_group_IT_number 12
_symmetry_cell_setting 'monoclinic'
loop_
_space_group_symop_operation_xyz
x,y,z
-x,y,-z
-x,-y,-z
x,-y,z
1/2+x,1/2+y,z
1/2-x,1/2+y,-z
1/2-x,1/2-y,-z
1/2+x,1/2-y,z
loop_
_atom_site_type_symbol
_atom_site_label
_atom_site_fract_x
_atom_site_fract_y
_atom_site_fract_z
Si Si1 0.436568 0.189970 0.132608
Si Si2 0.409370 0.810050 0.476765
Si Si3 0.688861 0.189028 0.515627
Si Si4 0.541880 0.685653 0.696011
Si Si5 0.665650 0.810567 0.331139
Si Si6 0.023835 0.308302 0.103676
Si Si7 0.839182 0.313072 0.251324
Si Si8 0.717265 0.813083 0.032048
O O1 0.472349 0.254154 0.243422
O O2 0.473677 0.239034 0.106227
O O3 0.438490 0.000000 0.137757
O O4 0.358854 0.242140 0.045034
O O5 0.361924 0.762133 0.484505
O O6 0.481970 0.737349 0.575090
O O7 0.374113 0.763176 0.363862
O O8 0.416297 0.000000 0.484828
O O9 0.665042 0.240076 0.411085
O O10 0.764032 0.250592 0.615802
O O11 0.690768 0.000000 0.517852
O O12 0.550091 0.500000 0.705398
O O13 0.610057 0.765281 0.749752
O O14 0.599134 0.757841 0.212701
O O15 0.666301 0.000000 0.331134
O O16 0.023972 0.500000 0.102959
O O17 0.000000 0.255500 0.000000
O O18 0.831692 0.500000 0.243106
O O19 0.767456 0.237318 0.152028
O O20 0.715337 0.000000 0.024828
O O21 0.750000 0.750000 0.000000
#
# Coordination Sequence:
#
# PCOD9209062 Si02
#       8
#     8   8   8   8   8   8   8   8
#     4  10  21  38  61  85 113 154 196 235 287 347
#     4  10  22  39  58  81 113 153 191 229 286 352
#     4   9  18  34  55  79 108 145 185 224 273 338
#     4  12  24  37  58  85 114 147 189 242 290 340
#     4   9  17  31  55  82 109 141 180 230 278 325
#     4   9  18  34  57  85 114 146 188 234 281 336
#     4  11  23  39  59  82 113 153 191 234 288 346
#     4  11  22  37  60  86 115 151 194 242 285 335
#
# _framework density 19.486429999999999
#
# number of rings (size 3 to 8) (size 9 to 14) (size 15 to 20)
#    0.000    1.875    1.250    3.000    0.000    6.500 
#    0.000    4.375    0.000    1.500    0.000    0.000 
#    0.000    0.000    0.000    0.000    0.000    0.000 
#
# Total GULP energy -178776.975180 kJ/mol
# GULP energy per Si atom -5586.780474 kJ/mol
# Density = 1.944208 g / cm^3
# Si number density = 19.486430 Si / 1000 Ang^3
#
#
#
# Elastic Constant Matrix: (Units=GPa)
#
#
# Indices 1 2 3 4 5 6 
#
# 1 34.6685 -0.0079 20.3535 0.0000 4.4047 0.0000
# 2 -0.0079 10.5508 11.2469 0.0000 1.1097 0.0000
# 3 20.3535 11.2469 135.5587 0.0000 9.3777 0.0000
# 4 0.0000 0.0000 0.0000 30.3458 0.0000 4.9140
# 5 4.4047 1.1097 9.3777 0.0000 27.7797 0.0000
# 6 0.0000 0.0000 0.0000 4.9140 0.0000 13.3338
#
#
#
# Elastic Compliance Matrix: (Units=1/GPa)
#
#
# Indices 1 2 3 4 5 6 
#
# 1 0.032290 0.005822 -0.005080 0.000000 -0.003638 0.000000
# 2 0.005822 0.105069 -0.009458 0.000000 -0.001927 0.000000
# 3 -0.005080 -0.009458 0.009054 0.000000 -0.001873 0.000000
# 4 0.000000 0.000000 0.000000 0.035045 0.000000 -0.012915
# 5 -0.003638 -0.001927 -0.001873 0.000000 0.037284 0.000000
# 6 0.000000 0.000000 0.000000 -0.012915 0.000000 0.079757
#
#
# Mechanical properties :
#
#
# Convention : Reuss Voigt Hill
#
# Bulk Modulus (GPa) = 7.75307 27.10699 17.43003
# Shear Modulus (GPa) = 13.93049 24.23756 19.08402
#
# Velocity S-wave (km/s) = 2.67663 3.53061 3.13285
# Velocity P-wave (km/s) = 3.67964 5.52821 4.69579
#
# Compressibility (1/GPa) = 0.12898114
#
# Stress axis : x y z
#
# Youngs Moduli (GPa) = 30.96906 9.51755 110.45041
#
# Poissons Ratio (x) = -0.05541 0.56104
# Poissons Ratio (y) = -0.18029 1.04465
# Poissons Ratio (z) = 0.15731 0.09002
#
# Static dielectric constant tensor:
#      x y z
#    x 1.673440 0.000000 -0.002570 
#    y 0.000000 1.661110 0.000000 
#    z -0.002570 0.000000 1.683600 
# 
# From -- ./inp_files/295863.got.cif
#   From: 2010.05.17/outbox.cif.g08.bks.cpg/sg12_148_cif.got.tgz:295863.got - 2010.06.03 13:09:07.
