data_PCOD9209319
_publ_section_title
;
Structure prediction by ZEFSAII (Michael W. Deem and Ramdas Pophale) SiO2 
 PCOD9209319
Probable space group: C 2/M
;
_chemical_formula_sum "Si O2"
_cell_formula_units_Z 64
_cell_length_a 18.081586
_cell_length_b 13.557732
_cell_length_c 25.281895
_cell_angle_alpha 90.000000
_cell_angle_beta 26.461489
_cell_angle_gamma 90.000000
_cell_volume 2761.688275
_symmetry_space_group_name_H-M "C 2/M"
_symmetry_group_IT_number 12
_symmetry_cell_setting 'monoclinic'
loop_
_space_group_symop_operation_xyz
x,y,z
-x,y,-z
-x,-y,-z
x,-y,z
1/2+x,1/2+y,z
1/2-x,1/2+y,-z
1/2-x,1/2-y,-z
1/2+x,1/2-y,z
loop_
_atom_site_type_symbol
_atom_site_label
_atom_site_fract_x
_atom_site_fract_y
_atom_site_fract_z
Si Si1 0.634674 0.382744 0.070767
Si Si2 0.481985 0.184042 0.687410
Si Si3 0.984792 0.614732 0.173875
Si Si4 0.266365 0.385096 0.577065
Si Si5 0.071733 0.117861 0.690641
Si Si6 0.576877 0.104944 0.007386
Si Si7 0.858755 0.180533 0.046463
Si Si8 0.442101 0.807887 0.476831
O O1 0.640585 0.500000 0.064551
O O2 0.529243 0.359889 0.190209
O O3 0.827133 0.346508 0.946805
O O4 0.568067 0.350969 0.056555
O O5 0.649974 0.130920 0.600342
O O6 0.516215 0.299357 0.682691
O O7 0.321628 0.140793 0.821232
O O8 0.454195 0.166857 0.642726
O O9 0.995666 0.500000 0.181817
O O10 0.852743 0.653567 0.298924
O O11 0.940522 0.620115 0.140412
O O12 0.309377 0.500000 0.555126
O O13 0.416769 0.309966 0.485089
O O14 0.264266 0.139858 0.580688
O O15 0.050843 0.000000 0.690360
O O16 0.677823 0.203448 0.937080
O O17 0.661788 0.000000 0.966056
O O18 0.500000 0.094731 0.000000
O O19 0.000000 0.165983 0.000000
O O20 0.500000 0.828349 0.500000
#
# Coordination Sequence:
#
# PCOD9209319 Si02
#       8
#     8   8   8   8   8   8   8   8
#     4  10  21  38  61  94 127 159 207 261 315 377
#     4  11  24  42  65  97 127 169 218 267 315 378
#     4   9  17  32  58  88 117 153 200 251 304 364
#     4  10  21  41  67  93 123 166 215 263 319 379
#     4  10  23  44  70  95 126 171 219 268 318 378
#     4   9  19  33  49  80 122 161 201 242 299 376
#     4  11  24  36  61  93 130 171 205 253 331 384
#     4  11  27  44  64  94 132 167 216 272 321 381
#
# _framework density 23.174230999999999
#
# number of rings (size 3 to 8) (size 9 to 14) (size 15 to 20)
#    0.000    1.875    1.250    2.250    5.250    6.250 
#    0.000    0.000    0.000    0.000    0.000    0.000 
#    0.000    0.000    0.000    0.000    0.000    0.000 
#
# Total GULP energy -178462.980749 kJ/mol
# GULP energy per Si atom -5576.968148 kJ/mol
# Density = 2.312149 g / cm^3
# Si number density = 23.174231 Si / 1000 Ang^3
#
#
#
# Elastic Constant Matrix: (Units=GPa)
#
#
# Indices 1 2 3 4 5 6 
#
# 1 134.8352 -1.4282 19.5275 0.0004 35.2657 -0.0009
# 2 -1.4282 53.9683 -1.4842 0.0016 5.9778 -0.0007
# 3 19.5275 -1.4842 67.1369 -0.0079 21.9795 0.0014
# 4 0.0004 0.0016 -0.0079 21.8314 0.0007 9.1133
# 5 35.2657 5.9778 21.9795 0.0007 36.7977 0.0006
# 6 -0.0009 -0.0007 0.0014 9.1133 0.0006 16.7437
#
#
#
# Elastic Compliance Matrix: (Units=1/GPa)
#
#
# Indices 1 2 3 4 5 6 
#
# 1 0.010002 0.001390 0.000415 0.000000 -0.010059 0.000001
# 2 0.001390 0.019232 0.001840 -0.000001 -0.005555 0.000002
# 3 0.000415 0.001840 0.018700 0.000010 -0.011866 -0.000006
# 4 0.000000 -0.000001 0.000010 0.059273 -0.000006 -0.032261
# 5 -0.010059 -0.005555 -0.011866 -0.000006 0.044806 0.000002
# 6 0.000001 0.000002 -0.000006 -0.032261 0.000002 0.077283
#
#
# Mechanical properties :
#
#
# Convention : Reuss Voigt Hill
#
# Bulk Modulus (GPa) = 18.10837 32.13006 25.11922
# Shear Modulus (GPa) = 20.79749 31.02959 25.91354
#
# Velocity S-wave (km/s) = 2.99898 3.66316 3.34758
# Velocity P-wave (km/s) = 4.45228 5.63794 5.07982
#
# Compressibility (1/GPa) = 0.05522307
#
# Stress axis : x y z
#
# Youngs Moduli (GPa) = 99.97925 51.99634 53.47700
#
# Poissons Ratio (x) = -0.07229 -0.02218
# Poissons Ratio (y) = -0.13900 -0.09837
# Poissons Ratio (z) = -0.04147 -0.09565
#
# Static dielectric constant tensor:
#      x y z
#    x 1.917090 0.000000 0.017730 
#    y 0.000000 1.932450 0.000000 
#    z 0.017730 0.000000 1.899820 
# 
# From -- ./inp_files/344048.got.cif
#   From: 2010.05.17/outbox.cif.g08.bks.cpg/sg12_173_cif.got.tgz:344048.got - 2010.06.03 13:09:07.
