data_PCOD9209418
_publ_section_title
;
Structure prediction by ZEFSAII (Michael W. Deem and Ramdas Pophale) SiO2 
 PCOD9209418
Probable space group: C 2/M
;
_chemical_formula_sum "Si O2"
_cell_formula_units_Z 44
_cell_length_a 17.930822
_cell_length_b 20.264237
_cell_length_c 5.251966
_cell_angle_alpha 90.000000
_cell_angle_beta 115.289971
_cell_angle_gamma 90.000000
_cell_volume 1725.426142
_symmetry_space_group_name_H-M "C 2/M"
_symmetry_group_IT_number 12
_symmetry_cell_setting 'monoclinic'
loop_
_space_group_symop_operation_xyz
x,y,z
-x,y,-z
-x,-y,-z
x,-y,z
1/2+x,1/2+y,z
1/2-x,1/2+y,-z
1/2-x,1/2-y,-z
1/2+x,1/2-y,z
loop_
_atom_site_type_symbol
_atom_site_label
_atom_site_fract_x
_atom_site_fract_y
_atom_site_fract_z
Si Si1 0.312927 0.697902 0.794612
Si Si2 0.443633 0.642628 0.665154
Si Si3 0.248250 0.924231 0.022096
Si Si4 0.556560 0.500000 0.334400
Si Si5 0.167646 0.334421 0.242057
Si Si6 0.924051 0.574285 0.580765
O O1 0.373159 0.692474 0.639456
O O2 0.316346 0.630624 0.965947
O O3 0.220888 0.692783 0.554693
O O4 0.334937 0.769551 0.941875
O O5 0.500000 0.654435 0.500000
O O6 0.400855 0.570412 0.591098
O O7 0.500000 0.642733 0.000000
O O8 0.335024 0.925776 0.306961
O O9 0.217408 0.000000 0.973053
O O10 0.280158 0.893486 0.805648
O O11 0.500000 0.500000 0.500000
O O12 0.500000 0.500000 0.000000
O O13 0.086010 0.368680 0.225351
O O14 0.933167 0.500000 0.700481
O O15 0.000000 0.585540 0.500000
#
# Coordination Sequence:
#
# PCOD9209418 Si02
#       6
#     8   8   8   4   8   8
#     4  10  23  39  59  84 122 162 202 255 309 377
#     4  10  22  40  60  90 122 161 209 260 311 372
#     4  10  21  38  62  90 117 155 208 255 309 374
#     4   8  16  34  56  78 116 150 191 246 305 352
#     4  10  21  40  59  85 119 162 199 248 314 378
#     4   9  19  37  60  89 123 154 196 254 309 373
#
# _framework density 25.500948000000001
#
# number of rings (size 3 to 8) (size 9 to 14) (size 15 to 20)
#    0.000    2.364    0.000    1.091    3.818    2.182 
#    3.273    2.727    0.000    0.000    0.000    0.000 
#    0.000    0.000    0.000    0.000    0.000    0.000 
#
# Total GULP energy -122835.177794 kJ/mol
# GULP energy per Si atom -5583.417172 kJ/mol
# Density = 2.544291 g / cm^3
# Si number density = 25.500948 Si / 1000 Ang^3
#
#
#
# Elastic Constant Matrix: (Units=GPa)
#
#
# Indices 1 2 3 4 5 6 
#
# 1 136.5201 80.8303 38.7065 0.0000 -15.5692 0.0000
# 2 80.8303 199.6183 37.7797 0.0000 -18.2964 0.0000
# 3 38.7065 37.7797 86.8723 0.0000 -11.6956 0.0000
# 4 0.0000 0.0000 0.0000 21.1547 0.0000 -10.5955
# 5 -15.5692 -18.2964 -11.6956 0.0000 36.3169 0.0000
# 6 0.0000 0.0000 0.0000 -10.5955 0.0000 43.4350
#
#
#
# Elastic Compliance Matrix: (Units=1/GPa)
#
#
# Indices 1 2 3 4 5 6 
#
# 1 0.010423 -0.003514 -0.002878 0.000000 0.001772 0.000000
# 2 -0.003514 0.006797 -0.001184 0.000000 0.001537 0.000000
# 3 -0.002878 -0.001184 0.013654 0.000000 0.002567 0.000000
# 4 0.000000 0.000000 0.000000 0.053850 0.000000 0.013136
# 5 0.001772 0.001537 0.002567 0.000000 0.029896 0.000000
# 6 0.000000 0.000000 0.000000 0.013136 0.000000 0.026227
#
#
# Mechanical properties :
#
#
# Convention : Reuss Voigt Hill
#
# Bulk Modulus (GPa) = 63.59534 81.96041 72.77787
# Shear Modulus (GPa) = 31.01002 37.89429 34.45215
#
# Velocity S-wave (km/s) = 3.49095 3.85904 3.67960
# Velocity P-wave (km/s) = 6.42196 7.21569 6.83036
#
# Compressibility (1/GPa) = 0.01572442
#
# Stress axis : x y z
#
# Youngs Moduli (GPa) = 95.94045 147.11986 73.24077
#
# Poissons Ratio (x) = 0.51692 0.21076
# Poissons Ratio (y) = 0.33710 0.08669
# Poissons Ratio (z) = 0.27608 0.17413
#
# Static dielectric constant tensor:
#      x y z
#    x 1.938220 0.000000 0.013210 
#    y 0.000000 2.133700 0.000000 
#    z 0.013210 0.000000 2.113190 
# 
# From -- ./inp_files/16072.got.cif
#   From: 2010.05.17/outbox.cif.g08.bks.cpg/sg12_9_cif.got.tgz:16072.got - 2010.06.03 13:09:07.
