data_PCOD9209255
_publ_section_title
;
Structure prediction by ZEFSAII (Michael W. Deem and Ramdas Pophale) SiO2 
 PCOD9209255
Probable space group: C 2/M
;
_chemical_formula_sum "Si O2"
_cell_formula_units_Z 56
_cell_length_a 13.173867
_cell_length_b 25.993819
_cell_length_c 8.549326
_cell_angle_alpha 90.000000
_cell_angle_beta 114.679461
_cell_angle_gamma 90.000000
_cell_volume 2660.208373
_symmetry_space_group_name_H-M "C 2/M"
_symmetry_group_IT_number 12
_symmetry_cell_setting 'monoclinic'
loop_
_space_group_symop_operation_xyz
x,y,z
-x,y,-z
-x,-y,-z
x,-y,z
1/2+x,1/2+y,z
1/2-x,1/2+y,-z
1/2-x,1/2-y,-z
1/2+x,1/2-y,z
loop_
_atom_site_type_symbol
_atom_site_label
_atom_site_fract_x
_atom_site_fract_y
_atom_site_fract_z
Si Si1 0.560373 0.943008 0.873001
Si Si2 0.263244 0.696903 0.918526
Si Si3 0.012167 0.666396 0.815610
Si Si4 0.523767 0.559040 0.189813
Si Si5 0.114293 0.870805 0.488238
Si Si6 0.296458 0.398991 0.143092
Si Si7 0.362251 0.265766 0.657605
O O1 0.498168 0.893515 0.756464
O O2 0.560402 0.000000 0.797354
O O3 0.500000 0.948546 0.000000
O O4 0.686140 0.924795 0.000051
O O5 0.134827 0.678721 0.825104
O O6 0.330581 0.710245 0.805680
O O7 0.250000 0.750000 0.000000
O O8 0.320562 0.653151 0.061069
O O9 0.935870 0.714348 0.716522
O O10 0.000000 0.666224 0.000000
O O11 0.559525 0.500000 0.208064
O O12 0.615586 0.592764 0.338179
O O13 0.401880 0.563805 0.190994
O O14 0.500000 0.577827 0.000000
O O15 0.209798 0.881048 0.678949
O O16 0.095075 0.812965 0.418664
O O17 0.000000 0.885445 0.500000
O O18 0.250000 0.250000 0.500000
#
# Coordination Sequence:
#
# PCOD9209255 Si02
#       7
#     8   8   8   8   8   8   8
#     4   9  19  36  61  89 116 153 204 258 305 353
#     4  11  22  38  60  86 117 163 202 248 314 371
#     4  10  22  38  62  89 123 157 205 257 310 375
#     4  10  21  38  61  90 126 165 206 252 313 377
#     4  10  24  38  58  90 130 160 207 257 311 373
#     4  10  21  38  62  88 124 156 210 255 310 373
#     4  12  26  38  61  88 127 163 204 255 313 380
#
# _framework density 21.050982999999999
#
# number of rings (size 3 to 8) (size 9 to 14) (size 15 to 20)
#    0.000    1.714    1.429    2.143   10.000    3.714 
#    0.000    0.000    0.000    0.000    0.000    4.000 
#    0.000    0.000    0.000    0.000    0.000    0.000 
#
# Total GULP energy -156021.110423 kJ/mol
# GULP energy per Si atom -5572.182515 kJ/mol
# Density = 2.100307 g / cm^3
# Si number density = 21.050983 Si / 1000 Ang^3
#
#
#
# Elastic Constant Matrix: (Units=GPa)
#
#
# Indices 1 2 3 4 5 6 
#
# 1 40.4012 12.7428 3.2291 0.0000 1.8234 0.0000
# 2 12.7428 147.5086 49.2111 0.0000 5.1543 0.0000
# 3 3.2291 49.2111 84.4815 0.0000 -1.5633 0.0000
# 4 0.0000 0.0000 0.0000 10.0710 0.0000 -3.4610
# 5 1.8234 5.1543 -1.5633 0.0000 20.3604 0.0000
# 6 0.0000 0.0000 0.0000 -3.4610 0.0000 27.9465
#
#
#
# Elastic Compliance Matrix: (Units=1/GPa)
#
#
# Indices 1 2 3 4 5 6 
#
# 1 0.025512 -0.002245 0.000301 0.000000 -0.001693 0.000000
# 2 -0.002245 0.008742 -0.005051 0.000000 -0.002400 0.000000
# 3 0.000301 -0.005051 0.014812 0.000000 0.002389 0.000000
# 4 0.000000 0.000000 0.000000 0.103709 0.000000 0.012844
# 5 -0.001693 -0.002400 0.002389 0.000000 0.050058 0.000000
# 6 0.000000 0.000000 0.000000 0.012844 0.000000 0.037373
#
#
# Mechanical properties :
#
#
# Convention : Reuss Voigt Hill
#
# Bulk Modulus (GPa) = 28.50907 44.75081 36.62994
# Shear Modulus (GPa) = 18.80488 25.48945 22.14717
#
# Velocity S-wave (km/s) = 2.99206 3.48349 3.24709
# Velocity P-wave (km/s) = 5.05063 6.12242 5.61217
#
# Compressibility (1/GPa) = 0.03507655
#
# Stress axis : x y z
#
# Youngs Moduli (GPa) = 39.19686 114.38817 67.51368
#
# Poissons Ratio (x) = 0.25684 -0.02035
# Poissons Ratio (y) = 0.08801 0.34101
# Poissons Ratio (z) = -0.01182 0.57777
#
# Static dielectric constant tensor:
#      x y z
#    x 1.700590 0.000000 -0.063070 
#    y 0.000000 1.864170 0.000000 
#    z -0.063070 0.000000 1.753000 
# 
# From -- ./inp_files/65448.got.cif
#   From: 2010.05.17/outbox.cif.g08.bks.cpg/sg12_33_cif.got.tgz:65448.got - 2010.06.03 13:09:07.
