data_PCOD9209415
_publ_section_title
;
Structure prediction by ZEFSAII (Michael W. Deem and Ramdas Pophale) SiO2 
 PCOD9209415
Probable space group: C 2/M
;
_chemical_formula_sum "Si O2"
_cell_formula_units_Z 52
_cell_length_a 26.610214
_cell_length_b 16.111142
_cell_length_c 5.291414
_cell_angle_alpha 90.000000
_cell_angle_beta 71.589596
_cell_angle_gamma 90.000000
_cell_volume 2152.433093
_symmetry_space_group_name_H-M "C 2/M"
_symmetry_group_IT_number 12
_symmetry_cell_setting 'monoclinic'
loop_
_space_group_symop_operation_xyz
x,y,z
-x,y,-z
-x,-y,-z
x,-y,z
1/2+x,1/2+y,z
1/2-x,1/2+y,-z
1/2-x,1/2-y,-z
1/2+x,1/2-y,z
loop_
_atom_site_type_symbol
_atom_site_label
_atom_site_fract_x
_atom_site_fract_y
_atom_site_fract_z
Si Si1 0.105033 0.404894 0.758411
Si Si2 0.436731 0.317709 0.765870
Si Si3 0.660917 0.776431 0.041388
Si Si4 0.785057 0.833595 0.406195
Si Si5 0.604791 0.598896 0.642357
Si Si6 0.000000 0.698336 0.000000
Si Si7 0.798548 0.413652 0.737282
O O1 0.100699 0.500000 0.864153
O O2 0.140185 0.340855 0.864150
O O3 0.140574 0.412567 0.450635
O O4 0.048402 0.360709 0.839823
O O5 0.434028 0.380373 0.533591
O O6 0.483476 0.258977 0.795963
O O7 0.392738 0.251088 0.740284
O O8 0.418714 0.363100 0.057867
O O9 0.684427 0.692337 0.896417
O O10 0.705332 0.828774 0.108094
O O11 0.750000 0.750000 0.500000
O O12 0.835500 0.862208 0.492046
O O13 0.742728 0.905240 0.425310
O O14 0.610062 0.500000 0.659564
O O15 0.788464 0.500000 0.891017
#
# Coordination Sequence:
#
# PCOD9209415 Si02
#       7
#     8   8   8   8   8   4   8
#     4  10  21  40  63  95 135 173 220 282 338 397
#     4  10  24  43  72  99 131 175 226 277 337 408
#     4  10  21  38  62  89 135 178 222 272 325 398
#     4  11  21  39  64  96 132 180 225 264 328 402
#     4  11  24  46  69 101 139 175 218 280 339 398
#     4  10  23  44  69 100 126 176 228 280 345 410
#     4  11  22  37  60  96 136 176 224 277 330 394
#
# _framework density 24.158708000000001
#
# number of rings (size 3 to 8) (size 9 to 14) (size 15 to 20)
#    0.000    1.538    1.538    3.000    4.308    1.846 
#    2.769    5.385    0.000    4.615    0.000    0.000 
#    0.000    0.000    0.000    0.000    0.000    0.000 
#
# Total GULP energy -144889.555076 kJ/mol
# GULP energy per Si atom -5572.675195 kJ/mol
# Density = 2.410372 g / cm^3
# Si number density = 24.158708 Si / 1000 Ang^3
#
#
#
# Elastic Constant Matrix: (Units=GPa)
#
#
# Indices 1 2 3 4 5 6 
#
# 1 136.5920 40.8292 24.4363 0.0000 4.3949 0.0000
# 2 40.8292 122.3179 22.7373 0.0000 6.3392 0.0000
# 3 24.4363 22.7373 62.3054 0.0000 10.4036 0.0000
# 4 0.0000 0.0000 0.0000 27.9413 0.0000 -1.1026
# 5 4.3949 6.3392 10.4036 0.0000 29.1882 0.0000
# 6 0.0000 0.0000 0.0000 -1.1026 0.0000 -5.5614
#
#
#
# Elastic Compliance Matrix: (Units=1/GPa)
#
#
# Indices 1 2 3 4 5 6 
#
# 1 0.008469 -0.002373 -0.002476 0.000000 0.000123 0.000000
# 2 -0.002373 0.009453 -0.002377 0.000000 -0.000848 0.000000
# 3 -0.002476 -0.002377 0.018863 0.000000 -0.005834 0.000000
# 4 0.000000 0.000000 0.000000 0.035511 0.000000 -0.007041
# 5 0.000123 -0.000848 -0.005834 0.000000 0.036506 0.000000
# 6 0.000000 0.000000 0.000000 -0.007041 0.000000 -0.178414
#
#
# Mechanical properties :
#
#
# Convention : Reuss Voigt Hill
#
# Bulk Modulus (GPa) = 44.77827 55.24678 50.01252
# Shear Modulus (GPa) = -104.79257 25.86112 -39.46572
#
# Velocity S-wave (km/s) = -6.59325 3.27535 -4.04617
# Velocity P-wave (km/s) = 6.27582 6.10097 1.04022
#
# Compressibility (1/GPa) = 0.02233226
#
# Stress axis : x y z
#
# Youngs Moduli (GPa) = 118.07102 105.78124 53.01401
#
# Poissons Ratio (x) = 0.25103 0.13127
# Poissons Ratio (y) = 0.28020 0.12604
# Poissons Ratio (z) = 0.29237 0.25149
#
# Static dielectric constant tensor:
#      x y z
#    x 1.985540 0.000000 -0.008500 
#    y 0.000000 1.939510 0.000000 
#    z -0.008500 0.000000 2.092240 
# 
# From -- ./inp_files/28509.got.cif
#   From: 2010.05.17/outbox.cif.g08.bks.cpg/sg12_15_cif.got.tgz:28509.got - 2010.06.03 13:09:07.
