data_PCOD9209571
_publ_section_title
;
Structure prediction by ZEFSAII (Michael W. Deem and Ramdas Pophale) SiO2 
 PCOD9209571
Probable space group: C 2/M
;
_chemical_formula_sum "Si O2"
_cell_formula_units_Z 28
_cell_length_a 9.225207
_cell_length_b 27.811201
_cell_length_c 9.263742
_cell_angle_alpha 90.000000
_cell_angle_beta 32.386102
_cell_angle_gamma 90.000000
_cell_volume 1273.036046
_symmetry_space_group_name_H-M "C 2/M"
_symmetry_group_IT_number 12
_symmetry_cell_setting 'monoclinic'
loop_
_space_group_symop_operation_xyz
x,y,z
-x,y,-z
-x,-y,-z
x,-y,z
1/2+x,1/2+y,z
1/2-x,1/2+y,-z
1/2-x,1/2-y,-z
1/2+x,1/2-y,z
loop_
_atom_site_type_symbol
_atom_site_label
_atom_site_fract_x
_atom_site_fract_y
_atom_site_fract_z
Si Si1 0.107789 0.358553 0.074234
Si Si2 0.606030 0.298814 0.573572
Si Si3 0.100012 0.445638 0.255821
Si Si4 0.794245 0.500000 0.306072
O O1 0.238892 0.402948 0.052645
O O2 0.840590 0.339153 0.378782
O O3 0.337328 0.317403 0.879304
O O4 0.000000 0.369262 0.000000
O O5 0.500000 0.292690 0.500000
O O6 0.750000 0.250000 0.500000
O O7 0.227478 0.500000 0.147066
O O8 0.000000 0.435021 0.500000
O O9 0.843995 0.454799 0.366997
O O10 0.500000 0.500000 0.500000
O O11 0.000000 0.500000 0.000000
#
# Coordination Sequence:
#
# PCOD9209571 Si02
#       4
#     8   8   8   4
#     4  10  21  39  65  95 127 169 217 264 317 393
#     4  10  22  41  65  94 126 161 212 269 327 390
#     4   9  21  42  63  96 136 173 223 270 321 375
#     4  10  21  38  63  88 122 176 220 258 315 376
#
# _framework density 21.994665000000001
#
# number of rings (size 3 to 8) (size 9 to 14) (size 15 to 20)
#    0.857    1.429    0.000    1.714    0.000    6.857 
#    0.000   10.000    0.000    0.000    0.000    0.000 
#    0.000    0.000    0.000    0.000    0.000    0.000 
#
# Total GULP energy -78007.237763 kJ/mol
# GULP energy per Si atom -5571.945555 kJ/mol
# Density = 2.194460 g / cm^3
# Si number density = 21.994665 Si / 1000 Ang^3
#
#
#
# Elastic Constant Matrix: (Units=GPa)
#
#
# Indices 1 2 3 4 5 6 
#
# 1 90.0082 32.1722 57.4592 0.0000 -1.7971 0.0000
# 2 32.1722 120.1510 24.9130 0.0000 9.1691 0.0000
# 3 57.4592 24.9130 82.6658 0.0000 -12.8377 0.0000
# 4 0.0000 0.0000 0.0000 19.5727 0.0000 5.6434
# 5 -1.7971 9.1691 -12.8377 0.0000 29.9266 0.0000
# 6 0.0000 0.0000 0.0000 5.6434 0.0000 17.0925
#
#
#
# Elastic Compliance Matrix: (Units=1/GPa)
#
#
# Indices 1 2 3 4 5 6 
#
# 1 0.021275 -0.002302 -0.014770 0.000000 -0.004353 0.000000
# 2 -0.002302 0.009634 -0.001910 0.000000 -0.003909 0.000000
# 3 -0.014770 -0.001910 0.024526 0.000000 0.010219 0.000000
# 4 0.000000 0.000000 0.000000 0.056467 0.000000 -0.018644
# 5 -0.004353 -0.003909 0.010219 0.000000 0.038735 0.000000
# 6 0.000000 0.000000 0.000000 -0.018644 0.000000 0.064661
#
#
# Mechanical properties :
#
#
# Convention : Reuss Voigt Hill
#
# Bulk Modulus (GPa) = 57.24135 57.99044 57.61590
# Shear Modulus (GPa) = 19.29866 25.20374 22.25120
#
# Velocity S-wave (km/s) = 2.96535 3.38879 3.18412
# Velocity P-wave (km/s) = 6.14866 6.46025 6.30638
#
# Compressibility (1/GPa) = 0.01746989
#
# Stress axis : x y z
#
# Youngs Moduli (GPa) = 47.00406 103.80244 40.77316
#
# Poissons Ratio (x) = 0.23895 0.60222
# Poissons Ratio (y) = 0.10820 0.07789
# Poissons Ratio (z) = 0.69425 0.19830
#
# Static dielectric constant tensor:
#      x y z
#    x 1.891370 0.000000 -0.103030 
#    y 0.000000 2.007590 0.000000 
#    z -0.103030 0.000000 1.904210 
# 
# From -- ./inp_files/40795.got.cif
#   From: 2010.05.17/outbox.cif.g08.bks.cpg/sg12_21_cif.got.tgz:40795.got - 2010.06.03 13:09:07.
