data_PCOD9209209
_publ_section_title
;
Structure prediction by ZEFSAII (Michael W. Deem and Ramdas Pophale) SiO2 
 PCOD9209209
Probable space group: C 2/M
;
_chemical_formula_sum "Si O2"
_cell_formula_units_Z 56
_cell_length_a 27.811646
_cell_length_b 8.714652
_cell_length_c 13.948636
_cell_angle_alpha 90.000000
_cell_angle_beta 120.011444
_cell_angle_gamma 90.000000
_cell_volume 2927.446869
_symmetry_space_group_name_H-M "C 2/M"
_symmetry_group_IT_number 12
_symmetry_cell_setting 'monoclinic'
loop_
_space_group_symop_operation_xyz
x,y,z
-x,y,-z
-x,-y,-z
x,-y,z
1/2+x,1/2+y,z
1/2-x,1/2+y,-z
1/2-x,1/2-y,-z
1/2+x,1/2-y,z
loop_
_atom_site_type_symbol
_atom_site_label
_atom_site_fract_x
_atom_site_fract_y
_atom_site_fract_z
Si Si1 0.979392 0.184580 0.690316
Si Si2 0.191582 0.315073 0.977106
Si Si3 0.167801 0.684093 0.172285
Si Si4 0.404787 0.816019 0.267381
Si Si5 0.622680 0.683834 0.551735
Si Si6 0.550401 0.315206 0.121121
Si Si7 0.761183 0.316914 0.405888
O O1 0.927844 0.223232 0.570065
O O2 0.965084 0.226375 0.785383
O O3 0.035240 0.264195 0.710213
O O4 0.987300 0.000000 0.694199
O O5 0.194427 0.500000 0.978509
O O6 0.142195 0.268482 0.856214
O O7 0.250000 0.250000 0.000000
O O8 0.178561 0.267647 0.073040
O O9 0.171908 0.500000 0.181739
O O10 0.107103 0.736990 0.144829
O O11 0.213847 0.757283 0.286864
O O12 0.391954 0.740457 0.356696
O O13 0.403149 0.000000 0.275392
O O14 0.629326 0.500000 0.557923
O O15 0.679340 0.759785 0.572289
O O16 0.557803 0.500000 0.124908
O O17 0.500000 0.274491 0.000000
O O18 0.759951 0.500000 0.408470
O O19 0.750000 0.250000 0.500000
#
# Coordination Sequence:
#
# PCOD9209209 Si02
#       7
#     8   8   8   8   8   8   8
#     4  10  22  39  59  85 118 155 195 242 297 356
#     4  10  23  40  59  86 118 154 196 244 297 353
#     4  11  23  40  62  89 121 158 200 247 303 361
#     4  11  23  39  60  88 120 155 200 249 297 353
#     4  11  23  40  61  87 121 159 200 246 298 356
#     4  10  21  38  61  89 120 157 202 250 303 363
#     4  12  25  42  64  91 122 157 199 245 297 356
#
# _framework density 19.129297000000001
#
# number of rings (size 3 to 8) (size 9 to 14) (size 15 to 20)
#    0.000    1.286    0.000    5.571    0.000    9.429 
#    0.000    0.000    0.000    0.000    0.000    0.000 
#    0.000    0.000    0.000    0.000    0.000    0.000 
#
# Total GULP energy -156671.239426 kJ/mol
# GULP energy per Si atom -5595.401408 kJ/mol
# Density = 1.908576 g / cm^3
# Si number density = 19.129297 Si / 1000 Ang^3
#
#
#
# Elastic Constant Matrix: (Units=GPa)
#
#
# Indices 1 2 3 4 5 6 
#
# 1 201.0603 75.1291 123.5956 0.0000 0.2293 0.0000
# 2 75.1291 70.5647 77.0944 0.0000 4.3836 0.0000
# 3 123.5956 77.0944 227.2630 0.0000 -1.5612 0.0000
# 4 0.0000 0.0000 0.0000 29.7170 0.0000 1.0659
# 5 0.2293 4.3836 -1.5612 0.0000 42.5912 0.0000
# 6 0.0000 0.0000 0.0000 1.0659 0.0000 44.6192
#
#
#
# Elastic Compliance Matrix: (Units=1/GPa)
#
#
# Indices 1 2 3 4 5 6 
#
# 1 0.009186 -0.006930 -0.002641 0.000000 0.000567 0.000000
# 2 -0.006930 0.028036 -0.005763 0.000000 -0.003059 0.000000
# 3 -0.002641 -0.005763 0.007797 0.000000 0.000893 0.000000
# 4 0.000000 0.000000 0.000000 0.033680 0.000000 -0.000805
# 5 0.000567 -0.003059 0.000893 0.000000 0.023824 0.000000
# 6 0.000000 0.000000 0.000000 -0.000805 0.000000 0.022431
#
#
# Mechanical properties :
#
#
# Convention : Reuss Voigt Hill
#
# Bulk Modulus (GPa) = 69.67797 116.72513 93.20155
# Shear Modulus (GPa) = 31.17118 38.25676 34.71397
#
# Velocity S-wave (km/s) = 4.04109 4.47688 4.26455
# Velocity P-wave (km/s) = 7.63398 9.37415 8.54846
#
# Compressibility (1/GPa) = 0.01435174
#
# Stress axis : x y z
#
# Youngs Moduli (GPa) = 108.86232 35.66885 128.24668
#
# Poissons Ratio (x) = 0.24718 0.33869
# Poissons Ratio (y) = 0.75441 0.73905
# Poissons Ratio (z) = 0.28750 0.20555
#
# Static dielectric constant tensor:
#      x y z
#    x 1.610500 0.000000 -0.000630 
#    y 0.000000 1.648430 0.000000 
#    z -0.000630 0.000000 1.643870 
# 
# From -- ./inp_files/181042.got.cif
#   From: 2010.05.17/outbox.cif.g08.bks.cpg/sg12_91_cif.got.tgz:181042.got - 2010.06.03 13:09:07.
