data_PCOD9209624
_publ_section_title
;
Structure prediction by ZEFSAII (Michael W. Deem and Ramdas Pophale) SiO2 
 PCOD9209624
Probable space group: C 2/M
;
_chemical_formula_sum "Si O2"
_cell_formula_units_Z 56
_cell_length_a 20.837216
_cell_length_b 14.898073
_cell_length_c 18.224571
_cell_angle_alpha 90.000000
_cell_angle_beta 29.868923
_cell_angle_gamma 90.000000
_cell_volume 2817.550307
_symmetry_space_group_name_H-M "C 2/M"
_symmetry_group_IT_number 12
_symmetry_cell_setting 'monoclinic'
loop_
_space_group_symop_operation_xyz
x,y,z
-x,y,-z
-x,-y,-z
x,-y,z
1/2+x,1/2+y,z
1/2-x,1/2+y,-z
1/2-x,1/2-y,-z
1/2+x,1/2-y,z
loop_
_atom_site_type_symbol
_atom_site_label
_atom_site_fract_x
_atom_site_fract_y
_atom_site_fract_z
Si Si1 0.134879 0.751945 0.896082
Si Si2 0.459605 0.401519 0.783400
Si Si3 0.320110 0.892911 0.266603
Si Si4 0.601170 0.839390 0.345132
Si Si5 0.513459 0.225402 0.169490
Si Si6 0.978789 0.144898 0.437864
Si Si7 0.836077 0.597622 0.874765
O O1 0.149999 0.655795 0.840909
O O2 0.263763 0.807850 0.752660
O O3 0.113965 0.742184 0.003363
O O4 0.000000 0.791892 0.000000
O O5 0.512994 0.500000 0.748587
O O6 0.533294 0.319314 0.749267
O O7 0.452039 0.393792 0.702605
O O8 0.314704 0.395137 0.957897
O O9 0.405852 0.838513 0.240295
O O10 0.171016 0.871449 0.429347
O O11 0.342380 0.000000 0.243913
O O12 0.500000 0.884922 0.500000
O O13 0.527468 0.747494 0.394380
O O14 0.637536 0.893873 0.237334
O O15 0.587305 0.174447 0.160126
O O16 0.000000 0.108393 0.500000
O O17 0.879933 0.500000 0.858448
#
# Coordination Sequence:
#
# PCOD9209624 Si02
#       7
#     8   8   8   8   8   8   8
#     4  10  21  38  63  92 126 168 204 258 318 379
#     4  11  23  39  65  94 123 166 214 261 316 378
#     4  11  24  39  60  96 130 165 209 260 321 385
#     4  11  20  40  66  90 124 168 212 255 317 372
#     4  11  22  40  63  85 132 165 207 259 322 372
#     4  11  22  40  62  92 128 164 208 259 318 376
#     4  11  23  39  64  94 123 166 214 259 311 376
#
# _framework density 19.875420999999999
#
# number of rings (size 3 to 8) (size 9 to 14) (size 15 to 20)
#    0.000    1.143    5.714    2.143    0.000    5.143 
#    0.000    0.000    0.000    7.714    0.000    0.000 
#    0.000    0.000    0.000    0.000    0.000    0.000 
#
# Total GULP energy -156227.777893 kJ/mol
# GULP energy per Si atom -5579.563496 kJ/mol
# Density = 1.983018 g / cm^3
# Si number density = 19.875421 Si / 1000 Ang^3
#
#
#
# Elastic Constant Matrix: (Units=GPa)
#
#
# Indices 1 2 3 4 5 6 
#
# 1 71.2770 39.5457 43.1911 0.0000 14.8020 0.0000
# 2 39.5457 104.1603 11.1300 0.0000 4.1939 0.0000
# 3 43.1911 11.1300 127.1580 0.0000 15.9822 0.0000
# 4 0.0000 0.0000 0.0000 1.4250 0.0000 -0.9240
# 5 14.8020 4.1939 15.9822 0.0000 38.3575 0.0000
# 6 0.0000 0.0000 0.0000 -0.9240 0.0000 10.7220
#
#
#
# Elastic Compliance Matrix: (Units=1/GPa)
#
#
# Indices 1 2 3 4 5 6 
#
# 1 0.023662 -0.008053 -0.006643 0.000000 -0.005483 0.000000
# 2 -0.008053 0.012452 0.001505 0.000000 0.001119 0.000000
# 3 -0.006643 0.001505 0.010223 0.000000 -0.001860 0.000000
# 4 0.000000 0.000000 0.000000 0.743266 0.000000 0.064054
# 5 -0.005483 0.001119 -0.001860 0.000000 0.028839 0.000000
# 6 0.000000 0.000000 0.000000 0.064054 0.000000 0.098786
#
#
# Mechanical properties :
#
#
# Convention : Reuss Voigt Hill
#
# Bulk Modulus (GPa) = 50.11512 54.48098 52.29805
# Shear Modulus (GPa) = 5.26171 24.01615 14.63893
#
# Velocity S-wave (km/s) = 1.62883 3.47988 2.71686
# Velocity P-wave (km/s) = 5.36720 6.60430 6.01763
#
# Compressibility (1/GPa) = 0.01995406
#
# Stress axis : x y z
#
# Youngs Moduli (GPa) = 42.26257 80.30781 97.82070
#
# Poissons Ratio (x) = 0.64670 0.64983
# Poissons Ratio (y) = 0.34033 -0.14719
# Poissons Ratio (z) = 0.28075 -0.12084
#
# Static dielectric constant tensor:
#      x y z
#    x 1.698580 0.000000 0.020130 
#    y 0.000000 1.716620 0.000000 
#    z 0.020130 0.000000 1.725220 
# 
# From -- ./inp_files/284505.got.cif
#   From: 2010.05.17/outbox.cif.g08.bks.cpg/sg12_143_cif.got.tgz:284505.got - 2010.06.03 13:09:07.
