data_PCOD9209803
_publ_section_title
;
Structure prediction by ZEFSAII (Michael W. Deem and Ramdas Pophale) SiO2 
 PCOD9209803
Probable space group: C 2/M
;
_chemical_formula_sum "Si O2"
_cell_formula_units_Z 32
_cell_length_a 7.658036
_cell_length_b 21.198118
_cell_length_c 13.857446
_cell_angle_alpha 90.000000
_cell_angle_beta 42.945719
_cell_angle_gamma 90.000000
_cell_volume 1532.638026
_symmetry_space_group_name_H-M "C 2/M"
_symmetry_group_IT_number 12
_symmetry_cell_setting 'monoclinic'
loop_
_space_group_symop_operation_xyz
x,y,z
-x,y,-z
-x,-y,-z
x,-y,z
1/2+x,1/2+y,z
1/2-x,1/2+y,-z
1/2-x,1/2-y,-z
1/2+x,1/2-y,z
loop_
_atom_site_type_symbol
_atom_site_label
_atom_site_fract_x
_atom_site_fract_y
_atom_site_fract_z
Si Si1 0.605634 0.429031 0.592855
Si Si2 0.651972 0.178934 0.037982
Si Si3 0.098059 0.609206 0.698672
Si Si4 0.063179 0.928902 0.837020
O O1 0.707051 0.500000 0.533497
O O2 0.765111 0.381996 0.460314
O O3 0.312840 0.426634 0.674509
O O4 0.615855 0.417676 0.702022
O O5 0.875649 0.126441 0.946928
O O6 0.500000 0.168401 0.000000
O O7 0.750000 0.250000 0.000000
O O8 0.479718 0.167544 0.202519
O O9 0.833190 0.574526 0.782450
O O10 0.954616 0.000000 0.891024
#
# Coordination Sequence:
#
# PCOD9209803 Si02
#       4
#     8   8   8   8
#     4  10  21  38  65 100 138 169 207 267 324 387
#     4  12  26  47  67  91 130 176 224 274 325 385
#     4  11  21  39  65  96 130 173 211 260 324 383
#     4  11  23  40  67 101 133 170 217 267 323 388
#
# _framework density 20.879033
#
# number of rings (size 3 to 8) (size 9 to 14) (size 15 to 20)
#    0.000    1.000    2.500    6.000    0.000    6.500 
#    0.000    1.250    5.500    0.000    0.000    0.000 
#    0.000    0.000    0.000    0.000    0.000    0.000 
#
# Total GULP energy -89367.063056 kJ/mol
# GULP energy per Si atom -5585.441441 kJ/mol
# Density = 2.083151 g / cm^3
# Si number density = 20.879033 Si / 1000 Ang^3
#
#
#
# Elastic Constant Matrix: (Units=GPa)
#
#
# Indices 1 2 3 4 5 6 
#
# 1 122.2616 31.7762 51.9839 0.0000 4.6919 0.0000
# 2 31.7762 121.1417 77.2374 0.0000 -3.3803 0.0000
# 3 51.9839 77.2374 135.6798 0.0000 20.1060 0.0000
# 4 0.0000 0.0000 0.0000 23.7521 0.0000 -8.1872
# 5 4.6919 -3.3803 20.1060 0.0000 42.3600 0.0000
# 6 0.0000 0.0000 0.0000 -8.1872 0.0000 18.2823
#
#
#
# Elastic Compliance Matrix: (Units=1/GPa)
#
#
# Indices 1 2 3 4 5 6 
#
# 1 0.009794 -0.000144 -0.003774 0.000000 0.000695 0.000000
# 2 -0.000144 0.013970 -0.008675 0.000000 0.005248 0.000000
# 3 -0.003774 -0.008675 0.014839 0.000000 -0.007318 0.000000
# 4 0.000000 0.000000 0.000000 0.049787 0.000000 0.022296
# 5 0.000695 0.005248 -0.007318 0.000000 0.027422 0.000000
# 6 0.000000 0.000000 0.000000 0.022296 0.000000 0.064682
#
#
# Mechanical properties :
#
#
# Convention : Reuss Voigt Hill
#
# Bulk Modulus (GPa) = 74.52669 77.89755 76.21212
# Shear Modulus (GPa) = 23.79217 31.41794 27.60505
#
# Velocity S-wave (km/s) = 3.37935 3.88333 3.64007
# Velocity P-wave (km/s) = 7.14133 7.58268 7.36531
#
# Compressibility (1/GPa) = 0.01341801
#
# Stress axis : x y z
#
# Youngs Moduli (GPa) = 102.09896 71.58093 67.38926
#
# Poissons Ratio (x) = 0.01028 0.25431
# Poissons Ratio (y) = 0.01467 0.58463
# Poissons Ratio (z) = 0.38530 0.62100
#
# Static dielectric constant tensor:
#      x y z
#    x 1.762680 0.000000 0.006330 
#    y 0.000000 1.696070 0.000000 
#    z 0.006330 0.000000 1.794820 
# 
# From -- ./inp_files/196735.got.cif
#   From: 2010.05.17/outbox.cif.g08.bks.cpg/sg12_99_cif.got.tgz:196735.got - 2010.06.03 13:09:07.
