data_PCOD9209609
_publ_section_title
;
Structure prediction by ZEFSAII (Michael W. Deem and Ramdas Pophale) SiO2 
 PCOD9209609
Probable space group: C 2/M
;
_chemical_formula_sum "Si O2"
_cell_formula_units_Z 64
_cell_length_a 17.025883
_cell_length_b 15.537840
_cell_length_c 15.945254
_cell_angle_alpha 90.000000
_cell_angle_beta 45.383591
_cell_angle_gamma 90.000000
_cell_volume 3002.651460
_symmetry_space_group_name_H-M "C 2/M"
_symmetry_group_IT_number 12
_symmetry_cell_setting 'monoclinic'
loop_
_space_group_symop_operation_xyz
x,y,z
-x,y,-z
-x,-y,-z
x,-y,z
1/2+x,1/2+y,z
1/2-x,1/2+y,-z
1/2-x,1/2-y,-z
1/2+x,1/2-y,z
loop_
_atom_site_type_symbol
_atom_site_label
_atom_site_fract_x
_atom_site_fract_y
_atom_site_fract_z
Si Si1 0.533988 0.897810 0.301500
Si Si2 0.310602 0.808542 0.523307
Si Si3 0.140586 0.899662 0.057208
Si Si4 0.909513 0.899854 0.307894
Si Si5 0.125107 0.598163 0.043987
Si Si6 0.664796 0.760183 0.312698
Si Si7 0.117016 0.236171 0.939809
Si Si8 0.968260 0.095456 0.620986
O O1 0.409546 0.862716 0.407814
O O2 0.573246 0.886314 0.175553
O O3 0.609883 0.841867 0.307477
O O4 0.540301 0.000000 0.315059
O O5 0.250000 0.750000 0.500000
O O6 0.206771 0.864063 0.633162
O O7 0.358453 0.763537 0.570613
O O8 0.023776 0.867764 0.181771
O O9 0.131724 0.000000 0.036533
O O10 0.242326 0.897305 0.044721
O O11 0.169531 0.833071 0.963138
O O12 0.929668 0.889525 0.392671
O O13 0.908201 0.000000 0.290357
O O14 0.095725 0.500000 0.040950
O O15 0.094389 0.673840 0.003799
O O16 0.795355 0.753942 0.199602
O O17 0.613349 0.674913 0.310227
O O18 0.000000 0.199663 0.000000
O O19 0.000000 0.091343 0.500000
O O20 0.923621 0.000000 0.678378
#
# Coordination Sequence:
#
# PCOD9209609 Si02
#       8
#     8   8   8   8   8   8   8   8
#     4  11  25  45  70  98 135 180 226 274 329 398
#     4  12  26  41  65  95 137 174 216 267 330 398
#     4  10  21  41  67  95 126 167 219 269 321 388
#     4  10  21  38  63  91 123 165 211 264 326 378
#     4  10  23  44  69  97 130 177 226 270 328 400
#     4  12  25  42  66  98 127 174 224 271 328 393
#     4  12  26  40  65  96 136 170 215 274 340 394
#     4  10  21  40  64  92 125 164 219 272 316 378
#
# _framework density 21.314495999999998
#
# number of rings (size 3 to 8) (size 9 to 14) (size 15 to 20)
#    0.000    1.125    1.250    4.875    5.250    3.500 
#    0.000    0.625    0.000    0.000    0.000    0.000 
#    0.000    0.000    0.000    0.000    0.000    0.000 
#
# Total GULP energy -178773.229409 kJ/mol
# GULP energy per Si atom -5586.663419 kJ/mol
# Density = 2.126598 g / cm^3
# Si number density = 21.314496 Si / 1000 Ang^3
#
#
#
# Elastic Constant Matrix: (Units=GPa)
#
#
# Indices 1 2 3 4 5 6 
#
# 1 56.5777 33.1281 13.0402 0.0000 -2.2513 0.0000
# 2 33.1281 92.9309 37.4969 0.0000 7.0491 0.0000
# 3 13.0402 37.4969 96.7689 0.0000 -7.5001 0.0000
# 4 0.0000 0.0000 0.0000-1068.2110 0.0000-1020.9530
# 5 -2.2513 7.0491 -7.5001 0.0000 36.9964 0.0000
# 6 0.0000 0.0000 0.0000-1020.9530 0.0000 -911.2606
#
#
#
# Elastic Compliance Matrix: (Units=1/GPa)
#
#
# Indices 1 2 3 4 5 6 
#
# 1 0.022671 -0.008512 0.000483 0.000000 0.003099 0.000000
# 2 -0.008512 0.016409 -0.005582 0.000000 -0.004776 0.000000
# 3 0.000483 -0.005582 0.012716 0.000000 0.003671 0.000000
# 4 0.000000 0.000000 0.000000 0.013221 0.000000 -0.014812
# 5 0.003099 -0.004776 0.003671 0.000000 0.028872 0.000000
# 6 0.000000 0.000000 0.000000 -0.014812 0.000000 0.015498
#
#
# Mechanical properties :
#
#
# Convention : Reuss Voigt Hill
#
# Bulk Modulus (GPa) = 40.68985 45.95643 43.32314
# Shear Modulus (GPa) = 34.53058 -377.65421 -171.56182
#
# Velocity S-wave (km/s) = 4.02935 -13.32541 -8.98139
# Velocity P-wave (km/s) = 6.38586 14.66790 9.33724
#
# Compressibility (1/GPa) = 0.02457615
#
# Stress axis : x y z
#
# Youngs Moduli (GPa) = 44.10985 60.94068 78.64068
#
# Poissons Ratio (x) = 0.51872 -0.03802
# Poissons Ratio (y) = 0.37546 0.43894
# Poissons Ratio (z) = -0.02132 0.34015
#
# Static dielectric constant tensor:
#      x y z
#    x 1.750340 0.000000 -0.038960 
#    y 0.000000 1.794190 0.000000 
#    z -0.038960 0.000000 1.870410 
# 
# From -- ./inp_files/278161.got.cif
#   From: 2010.05.17/outbox.cif.g08.bks.cpg/sg12_140_cif.got.tgz:278161.got - 2010.06.03 13:09:07.
