data_PCOD9209682
_publ_section_title
;
Structure prediction by ZEFSAII (Michael W. Deem and Ramdas Pophale) SiO2 
 PCOD9209682
Probable space group: C 2/M
;
_chemical_formula_sum "Si O2"
_cell_formula_units_Z 48
_cell_length_a 8.845105
_cell_length_b 20.168970
_cell_length_c 13.835269
_cell_angle_alpha 90.000000
_cell_angle_beta 81.916737
_cell_angle_gamma 90.000000
_cell_volume 2443.643962
_symmetry_space_group_name_H-M "C 2/M"
_symmetry_group_IT_number 12
_symmetry_cell_setting 'monoclinic'
loop_
_space_group_symop_operation_xyz
x,y,z
-x,y,-z
-x,-y,-z
x,-y,z
1/2+x,1/2+y,z
1/2-x,1/2+y,-z
1/2-x,1/2-y,-z
1/2+x,1/2-y,z
loop_
_atom_site_type_symbol
_atom_site_label
_atom_site_fract_x
_atom_site_fract_y
_atom_site_fract_z
Si Si1 0.717859 0.123319 0.722204
Si Si2 0.136405 0.765484 0.424863
Si Si3 0.121799 0.374289 0.319165
Si Si4 0.818323 0.821243 0.122926
Si Si5 0.736281 0.500000 0.579530
Si Si6 0.682201 0.325033 0.095174
Si Si7 0.868501 0.000000 0.619828
O O1 0.785504 0.188527 0.662419
O O2 0.545943 0.109297 0.705147
O O3 0.734523 0.129951 0.834773
O O4 0.826545 0.065351 0.679709
O O5 0.250000 0.750000 0.500000
O O6 0.098813 0.694461 0.380539
O O7 0.000000 0.798091 0.500000
O O8 0.231024 0.356883 0.218186
O O9 0.192447 0.434143 0.376904
O O10 0.753897 0.747102 0.111723
O O11 0.999531 0.819873 0.127929
O O12 0.795814 0.849465 0.016596
O O13 0.551652 0.500000 0.597495
O O14 0.747086 0.500000 0.462437
#
# Coordination Sequence:
#
# PCOD9209682 Si02
#       7
#     8   8   8   8   4   8   4
#     4  12  25  42  67  94 130 169 217 264 323 382
#     4  12  26  40  61  94 127 167 213 266 315 374
#     4  12  25  43  65  96 129 172 212 268 323 380
#     4  10  21  38  63  95 132 165 212 264 325 379
#     4  11  27  45  68  89 131 175 218 262 320 382
#     4  10  21  38  63  96 129 169 209 266 322 383
#     4  11  27  45  66  93 126 178 217 263 317 387
#
# _framework density 19.642797000000002
#
# number of rings (size 3 to 8) (size 9 to 14) (size 15 to 20)
#    0.000    0.833    3.333    3.500    7.000    2.667 
#    0.000    0.833    0.000    5.000    0.000    0.000 
#    0.000    0.000    0.000    0.000    0.000    0.000 
#
# Total GULP energy -133932.096799 kJ/mol
# GULP energy per Si atom -5580.504033 kJ/mol
# Density = 1.959809 g / cm^3
# Si number density = 19.642797 Si / 1000 Ang^3
#
#
#
# Elastic Constant Matrix: (Units=GPa)
#
#
# Indices 1 2 3 4 5 6 
#
# 1 80.6237 -1.3936 22.2956 0.0000 16.4066 0.0000
# 2 -1.3936 67.1096 17.1423 0.0000 11.4998 0.0000
# 3 22.2956 17.1423 89.0292 0.0000 10.5459 0.0000
# 4 0.0000 0.0000 0.0000 16.6721 0.0000 3.0186
# 5 16.4066 11.4998 10.5459 0.0000 38.2790 0.0000
# 6 0.0000 0.0000 0.0000 3.0186 0.0000 27.7073
#
#
#
# Elastic Compliance Matrix: (Units=1/GPa)
#
#
# Indices 1 2 3 4 5 6 
#
# 1 0.014590 0.002188 -0.003366 0.000000 -0.005983 0.000000
# 2 0.002188 0.016618 -0.003148 0.000000 -0.005063 0.000000
# 3 -0.003366 -0.003148 0.012817 0.000000 -0.001143 0.000000
# 4 0.000000 0.000000 0.000000 0.061187 0.000000 -0.006666
# 5 -0.005983 -0.005063 -0.001143 0.000000 0.030524 0.000000
# 6 0.000000 0.000000 0.000000 -0.006666 0.000000 0.036818
#
#
# Mechanical properties :
#
#
# Convention : Reuss Voigt Hill
#
# Bulk Modulus (GPa) = 28.27084 34.76122 31.51603
# Shear Modulus (GPa) = 25.90715 29.77956 27.84336
#
# Velocity S-wave (km/s) = 3.63562 3.89788 3.76903
# Velocity P-wave (km/s) = 5.66104 6.16385 5.91779
#
# Compressibility (1/GPa) = 0.03537214
#
# Stress axis : x y z
#
# Youngs Moduli (GPa) = 68.54220 60.17524 78.02292
#
# Poissons Ratio (x) = -0.13167 0.26264
# Poissons Ratio (y) = -0.14998 0.24562
# Poissons Ratio (z) = 0.23073 0.18943
#
# Static dielectric constant tensor:
#      x y z
#    x 1.723180 0.000000 -0.033860 
#    y 0.000000 1.676530 0.000000 
#    z -0.033860 0.000000 1.708500 
# 
# From -- ./inp_files/196038.got.cif
#   From: 2010.05.17/outbox.cif.g08.bks.cpg/sg12_99_cif.got.tgz:196038.got - 2010.06.03 13:09:07.
