data_PCOD9209484
_publ_section_title
;
Structure prediction by ZEFSAII (Michael W. Deem and Ramdas Pophale) SiO2 
 PCOD9209484
Probable space group: C 2/M
;
_chemical_formula_sum "Si O2"
_cell_formula_units_Z 48
_cell_length_a 16.372572
_cell_length_b 13.759939
_cell_length_c 10.305767
_cell_angle_alpha 90.000000
_cell_angle_beta 109.300983
_cell_angle_gamma 90.000000
_cell_volume 2191.248029
_symmetry_space_group_name_H-M "C 2/M"
_symmetry_group_IT_number 12
_symmetry_cell_setting 'monoclinic'
loop_
_space_group_symop_operation_xyz
x,y,z
-x,y,-z
-x,-y,-z
x,-y,z
1/2+x,1/2+y,z
1/2-x,1/2+y,-z
1/2-x,1/2-y,-z
1/2+x,1/2-y,z
loop_
_atom_site_type_symbol
_atom_site_label
_atom_site_fract_x
_atom_site_fract_y
_atom_site_fract_z
Si Si1 0.182606 0.252542 0.581504
Si Si2 0.939683 0.613640 0.082024
Si Si3 0.961913 0.739416 0.694114
Si Si4 0.909226 0.111700 0.877697
Si Si5 0.078016 0.105212 0.646814
Si Si6 0.222568 0.384511 0.851270
O O1 0.250000 0.250000 0.500000
O O2 0.091968 0.276978 0.463729
O O3 0.165254 0.144304 0.627788
O O4 0.202967 0.325006 0.709349
O O5 0.931331 0.500000 0.050823
O O6 0.842869 0.647718 0.068318
O O7 0.999990 0.639085 0.235410
O O8 0.000000 0.657722 0.000000
O O9 0.906379 0.804735 0.766241
O O10 0.044033 0.810143 0.720042
O O11 0.825564 0.124672 0.925493
O O12 0.903435 0.000000 0.820238
O O13 0.000000 0.117906 0.000000
O O14 0.000000 0.097662 0.500000
O O15 0.088017 0.000000 0.713759
O O16 0.205413 0.500000 0.821567
#
# Coordination Sequence:
#
# PCOD9209484 Si02
#       6
#     8   8   8   8   8   8
#     4  11  21  36  58  92 131 162 204 249 313 390
#     4  10  22  41  64  90 125 171 215 259 314 373
#     4  11  20  36  62  88 125 161 206 260 308 382
#     4  10  21  38  62  92 123 162 212 263 316 371
#     4   9  19  34  55  85 122 163 199 246 309 365
#     4  10  21  40  64  92 128 166 212 266 313 374
#
# _framework density 21.905324
#
# number of rings (size 3 to 8) (size 9 to 14) (size 15 to 20)
#    0.000    1.833    3.333    1.000    0.000    2.000 
#    0.000    6.667    0.000    2.000    0.000    0.000 
#    0.000    0.000    0.000    0.000    0.000    0.000 
#
# Total GULP energy -133756.705711 kJ/mol
# GULP energy per Si atom -5573.196071 kJ/mol
# Density = 2.185547 g / cm^3
# Si number density = 21.905324 Si / 1000 Ang^3
#
#
#
# Elastic Constant Matrix: (Units=GPa)
#
#
# Indices 1 2 3 4 5 6 
#
# 1 193.3183 28.1300 29.8671 0.0000 -17.6498 0.0000
# 2 28.1300 40.4613 0.9955 0.0000 -1.5125 0.0000
# 3 29.8671 0.9955 42.6189 0.0000 8.6152 0.0000
# 4 0.0000 0.0000 0.0000 19.2365 0.0000 -7.1539
# 5 -17.6498 -1.5125 8.6152 0.0000 32.4314 0.0000
# 6 0.0000 0.0000 0.0000 -7.1539 0.0000 13.4751
#
#
#
# Elastic Compliance Matrix: (Units=1/GPa)
#
#
# Indices 1 2 3 4 5 6 
#
# 1 0.007288 -0.004717 -0.006081 0.000000 0.005362 0.000000
# 2 -0.004717 0.027841 0.003077 0.000000 -0.002086 0.000000
# 3 -0.006081 0.003077 0.029899 0.000000 -0.011109 0.000000
# 4 0.000000 0.000000 0.000000 0.064773 0.000000 0.034388
# 5 0.005362 -0.002086 -0.011109 0.000000 0.036606 0.000000
# 6 0.000000 0.000000 0.000000 0.034388 0.000000 0.092467
#
#
# Mechanical properties :
#
#
# Convention : Reuss Voigt Hill
#
# Bulk Modulus (GPa) = 20.16716 43.82044 31.99380
# Shear Modulus (GPa) = 17.19123 27.52231 22.35677
#
# Velocity S-wave (km/s) = 2.80446 3.54845 3.19816
# Velocity P-wave (km/s) = 4.43995 6.06931 5.31741
#
# Compressibility (1/GPa) = 0.04958557
#
# Stress axis : x y z
#
# Youngs Moduli (GPa) = 137.20681 35.91870 33.44572
#
# Poissons Ratio (x) = 0.16943 0.20339
# Poissons Ratio (y) = 0.64720 -0.10291
# Poissons Ratio (z) = 0.83439 -0.11052
#
# Static dielectric constant tensor:
#      x y z
#    x 1.911110 0.000000 -0.046960 
#    y 0.000000 1.803290 0.000000 
#    z -0.046960 0.000000 1.815190 
# 
# From -- ./inp_files/142764.got.cif
#   From: 2010.05.17/outbox.cif.g08.bks.cpg/sg12_72_cif.got.tgz:142764.got - 2010.06.03 13:09:07.
