data_PCOD9209443
_publ_section_title
;
Structure prediction by ZEFSAII (Michael W. Deem and Ramdas Pophale) SiO2 
 PCOD9209443
Probable space group: C 2/M
;
_chemical_formula_sum "Si O2"
_cell_formula_units_Z 48
_cell_length_a 30.065656
_cell_length_b 8.780788
_cell_length_c 15.371106
_cell_angle_alpha 90.000000
_cell_angle_beta 39.979553
_cell_angle_gamma 90.000000
_cell_volume 2607.306088
_symmetry_space_group_name_H-M "C 2/M"
_symmetry_group_IT_number 12
_symmetry_cell_setting 'monoclinic'
loop_
_space_group_symop_operation_xyz
x,y,z
-x,y,-z
-x,-y,-z
x,-y,z
1/2+x,1/2+y,z
1/2-x,1/2+y,-z
1/2-x,1/2-y,-z
1/2+x,1/2-y,z
loop_
_atom_site_type_symbol
_atom_site_label
_atom_site_fract_x
_atom_site_fract_y
_atom_site_fract_z
Si Si1 0.327971 0.318764 0.102823
Si Si2 0.419704 0.317108 0.628116
Si Si3 0.918441 0.318143 0.121266
Si Si4 0.325009 0.682219 0.411194
Si Si5 0.681682 0.318283 0.378057
Si Si6 0.823648 0.318443 0.919708
O O1 0.332273 0.500000 0.090135
O O2 0.381467 0.256735 0.093783
O O3 0.251319 0.269837 0.248760
O O4 0.340025 0.244783 0.990719
O O5 0.500000 0.274714 0.500000
O O6 0.415835 0.500000 0.648158
O O7 0.377950 0.283449 0.602060
O O8 0.380867 0.234707 0.764943
O O9 0.908442 0.500000 0.132456
O O10 0.881037 0.254122 0.263039
O O11 0.000000 0.285315 0.000000
O O12 0.323477 0.500000 0.401634
O O13 0.250000 0.750000 0.500000
O O14 0.338882 0.715037 0.491906
O O15 0.696544 0.500000 0.350276
O O16 0.818223 0.500000 0.930101
O O17 0.750000 0.250000 0.000000
#
# Coordination Sequence:
#
# PCOD9209443 Si02
#       6
#     8   8   8   8   8   8
#     4  12  24  39  65  95 123 164 213 262 315 377
#     4  10  22  41  64  93 129 167 207 258 317 373
#     4  11  25  44  64  91 130 170 208 261 320 372
#     4  11  22  37  62  93 125 165 211 258 309 372
#     4  10  21  38  62  90 125 164 206 259 311 370
#     4  12  24  40  64  94 128 167 213 262 313 373
#
# _framework density 18.409804999999999
#
# number of rings (size 3 to 8) (size 9 to 14) (size 15 to 20)
#    0.000    1.000    3.333    4.000    0.000    3.667 
#    0.000    1.667    0.000    0.000    0.000    0.000 
#    0.000    0.000    0.000    0.000    0.000    0.000 
#
# Total GULP energy -134247.773224 kJ/mol
# GULP energy per Si atom -5593.657218 kJ/mol
# Density = 1.836790 g / cm^3
# Si number density = 18.409805 Si / 1000 Ang^3
#
#
#
# Elastic Constant Matrix: (Units=GPa)
#
#
# Indices 1 2 3 4 5 6 
#
# 1 170.6637 97.6465 110.1933 0.0000 12.0043 -0.0001
# 2 97.6465 115.4058 99.9672 -0.0001 2.5045 0.0001
# 3 110.1933 99.9672 180.8255 0.0001 9.0684 0.0000
# 4 0.0000 -0.0001 0.0001 33.4623 -0.0001 10.0010
# 5 12.0043 2.5045 9.0684 -0.0001 37.9204 0.0000
# 6 -0.0001 0.0001 0.0000 10.0010 0.0000 16.4406
#
#
#
# Elastic Compliance Matrix: (Units=1/GPa)
#
#
# Indices 1 2 3 4 5 6 
#
# 1 0.012600 -0.007807 -0.003227 0.000000 -0.002701 0.000000
# 2 -0.007807 0.021512 -0.007275 0.000000 0.002790 0.000000
# 3 -0.003227 -0.007275 0.011582 0.000000 -0.001268 0.000000
# 4 0.000000 0.000000 0.000000 0.036525 0.000000 -0.022218
# 5 -0.002701 0.002790 -0.001268 0.000000 0.027345 0.000000
# 6 0.000000 0.000000 0.000000 -0.022218 0.000000 0.074341
#
#
# Mechanical properties :
#
#
# Convention : Reuss Voigt Hill
#
# Bulk Modulus (GPa) = 110.17874 120.27877 115.22875
# Shear Modulus (GPa) = 22.36659 28.17053 25.26856
#
# Velocity S-wave (km/s) = 3.48936 3.91601 3.70883
# Velocity P-wave (km/s) = 8.72995 9.26945 9.00374
#
# Compressibility (1/GPa) = 0.00907616
#
# Stress axis : x y z
#
# Youngs Moduli (GPa) = 79.36617 46.48531 86.34204
#
# Poissons Ratio (x) = 0.36293 0.27858
# Poissons Ratio (y) = 0.61964 0.62813
# Poissons Ratio (z) = 0.25608 0.33818
#
# Static dielectric constant tensor:
#      x y z
#    x 1.613380 0.000000 0.008900 
#    y 0.000000 1.618730 0.000000 
#    z 0.008900 0.000000 1.599300 
# 
# From -- ./inp_files/229968.got.cif
#   From: 2010.05.17/outbox.cif.g08.bks.cpg/sg12_115_cif.got.tgz:229968.got - 2010.06.03 13:09:07.
