data_PCOD9209302
_publ_section_title
;
Structure prediction by ZEFSAII (Michael W. Deem and Ramdas Pophale) SiO2 
 PCOD9209302
Probable space group: C 2/M
;
_chemical_formula_sum "Si O2"
_cell_formula_units_Z 42
_cell_length_a 18.333633
_cell_length_b 14.050737
_cell_length_c 9.690522
_cell_angle_alpha 90.000000
_cell_angle_beta 124.679035
_cell_angle_gamma 90.000000
_cell_volume 2052.828726
_symmetry_space_group_name_H-M "C 2/M"
_symmetry_group_IT_number 12
_symmetry_cell_setting 'monoclinic'
loop_
_space_group_symop_operation_xyz
x,y,z
-x,y,-z
-x,-y,-z
x,-y,z
1/2+x,1/2+y,z
1/2-x,1/2+y,-z
1/2-x,1/2-y,-z
1/2+x,1/2-y,z
loop_
_atom_site_type_symbol
_atom_site_label
_atom_site_fract_x
_atom_site_fract_y
_atom_site_fract_z
Si Si1 0.193910 0.809944 0.333119
Si Si2 0.851187 0.500000 0.107612
Si Si3 0.792473 0.500000 0.337853
Si Si4 0.012340 0.110891 0.176308
Si Si5 0.911170 0.113667 0.325231
Si Si6 0.500000 0.000000 0.500000
Si Si7 0.776708 0.688972 0.894601
O O1 0.250000 0.750000 0.500000
O O2 0.245562 0.906760 0.348487
O O3 0.100726 0.832850 0.303789
O O4 0.178485 0.751080 0.175917
O O5 0.779962 0.500000 0.157772
O O6 0.945148 0.500000 0.290184
O O7 0.831764 0.595810 0.000583
O O8 0.899868 0.500000 0.467917
O O9 0.931095 0.137994 0.186463
O O10 0.029114 0.000000 0.225550
O O11 0.000000 0.118713 0.000000
O O12 0.818744 0.157400 0.269668
O O13 0.000000 0.145501 0.500000
O O14 0.903999 0.000000 0.333000
O O15 0.750000 0.750000 0.000000
#
# Coordination Sequence:
#
# PCOD9209302 Si02
#       7
#     8   4   4   8   8   2   8
#     4  12  25  42  65  99 132 175 211 267 343 399
#     4  10  22  43  69  93 132 167 234 284 314 385
#     4  10  22  47  67  85 135 170 218 276 325 391
#     4  10  21  38  63  87 125 163 201 259 332 384
#     4  10  21  38  61  93 125 158 202 272 327 375
#     4   8  20  44  72  92 118 192 220 276 324 362
#     4  12  22  40  69  96 124 174 226 264 324 397
#
# _framework density 20.459574
#
# number of rings (size 3 to 8) (size 9 to 14) (size 15 to 20)
#    0.571    0.762    3.810    2.286    0.000    0.762 
#   17.143    0.000    0.000    1.143    0.000    0.000 
#    0.000    0.000    0.000    0.000    0.000    0.000 
#
# Total GULP energy -116971.711961 kJ/mol
# GULP energy per Si atom -5570.081522 kJ/mol
# Density = 2.041301 g / cm^3
# Si number density = 20.459574 Si / 1000 Ang^3
#
#
#
# Elastic Constant Matrix: (Units=GPa)
#
#
# Indices 1 2 3 4 5 6 
#
# 1 64.0934 23.1103 -3.2992 0.0000 9.3280 0.0000
# 2 23.1103 97.7399 45.1693 0.0000 2.7804 0.0000
# 3 -3.2992 45.1693 80.4084 0.0000 4.5749 0.0000
# 4 0.0000 0.0000 0.0000 28.9175 0.0000 6.1685
# 5 9.3280 2.7804 4.5749 0.0000 40.4312 0.0000
# 6 0.0000 0.0000 0.0000 6.1685 0.0000 20.9692
#
#
#
# Elastic Compliance Matrix: (Units=1/GPa)
#
#
# Indices 1 2 3 4 5 6 
#
# 1 0.018823 -0.006480 0.004664 0.000000 -0.004425 0.000000
# 2 -0.006480 0.016050 -0.009364 0.000000 0.001451 0.000000
# 3 0.004664 -0.009364 0.018029 0.000000 -0.002472 0.000000
# 4 0.000000 0.000000 0.000000 0.036896 0.000000 -0.010854
# 5 -0.004425 0.001451 -0.002472 0.000000 0.025934 0.000000
# 6 0.000000 0.000000 0.000000 -0.010854 0.000000 0.050882
#
#
# Mechanical properties :
#
#
# Convention : Reuss Voigt Hill
#
# Bulk Modulus (GPa) = 32.74283 41.35582 37.04933
# Shear Modulus (GPa) = 25.10604 29.88099 27.49352
#
# Velocity S-wave (km/s) = 3.50681 3.82578 3.66976
# Velocity P-wave (km/s) = 5.69520 6.30657 6.00867
#
# Compressibility (1/GPa) = 0.03054104
#
# Stress axis : x y z
#
# Youngs Moduli (GPa) = 53.12664 62.30578 55.46617
#
# Poissons Ratio (x) = 0.40376 -0.25872
# Poissons Ratio (y) = 0.34428 0.51941
# Poissons Ratio (z) = -0.24780 0.58346
#
# Static dielectric constant tensor:
#      x y z
#    x 1.708820 0.000000 0.000640 
#    y 0.000000 1.712910 0.000000 
#    z 0.000640 0.000000 1.780420 
# 
# From -- ./inp_files/73769.got.cif
#   From: 2010.05.17/outbox.cif.g08.bks.cpg/sg12_37_cif.got.tgz:73769.got - 2010.06.03 13:09:07.
