data_PCOD9209361
_publ_section_title
;
Structure prediction by ZEFSAII (Michael W. Deem and Ramdas Pophale) SiO2 
 PCOD9209361
Probable space group: C 2/M
;
_chemical_formula_sum "Si O2"
_cell_formula_units_Z 56
_cell_length_a 9.667961
_cell_length_b 22.930050
_cell_length_c 15.354661
_cell_angle_alpha 90.000000
_cell_angle_beta 58.435021
_cell_angle_gamma 90.000000
_cell_volume 2900.305206
_symmetry_space_group_name_H-M "C 2/M"
_symmetry_group_IT_number 12
_symmetry_cell_setting 'monoclinic'
loop_
_space_group_symop_operation_xyz
x,y,z
-x,y,-z
-x,-y,-z
x,-y,z
1/2+x,1/2+y,z
1/2-x,1/2+y,-z
1/2-x,1/2-y,-z
1/2+x,1/2-y,z
loop_
_atom_site_type_symbol
_atom_site_label
_atom_site_fract_x
_atom_site_fract_y
_atom_site_fract_z
Si Si1 0.148603 0.222465 0.388186
Si Si2 0.713420 0.149049 0.318372
Si Si3 0.366858 0.567391 0.407993
Si Si4 0.048699 0.791511 0.887821
Si Si5 0.238265 0.933721 0.244436
Si Si6 0.364048 0.118599 0.368759
Si Si7 0.708148 0.311563 0.178253
O O1 0.187302 0.290695 0.379449
O O2 0.301409 0.183274 0.365074
O O3 0.114279 0.205864 0.298819
O O4 0.000000 0.208568 0.500000
O O5 0.815685 0.104583 0.341486
O O6 0.812053 0.168197 0.200372
O O7 0.539026 0.122810 0.353882
O O8 0.322336 0.500000 0.411475
O O9 0.561400 0.570255 0.349520
O O10 0.267280 0.592100 0.521940
O O11 0.129243 0.727330 0.870069
O O12 0.899308 0.794125 0.869384
O O13 0.000000 0.810762 0.000000
O O14 0.363223 0.918135 0.279995
O O15 0.241398 0.880729 0.174481
O O16 0.256997 0.000000 0.205869
#
# Coordination Sequence:
#
# PCOD9209361 Si02
#       7
#     8   8   8   8   8   8   8
#     4  10  22  34  57  85 129 163 197 235 306 373
#     4  11  25  37  56  88 126 155 202 262 315 362
#     4  11  22  39  59  84 123 172 212 245 293 365
#     4  11  24  43  67  94 118 158 206 266 328 374
#     4  10  21  38  62  87 125 171 209 245 290 361
#     4  11  22  35  57  89 124 166 205 246 295 365
#     4  10  22  40  64  94 124 157 206 258 308 376
#
# _framework density 19.308312000000001
#
# number of rings (size 3 to 8) (size 9 to 14) (size 15 to 20)
#    0.000    1.429    1.429    4.286   12.000    4.000 
#    0.000    0.000    0.000    2.143    0.000    0.000 
#    0.000    0.000    0.000    0.000    0.000    0.000 
#
# Total GULP energy -156513.541518 kJ/mol
# GULP energy per Si atom -5589.769340 kJ/mol
# Density = 1.926437 g / cm^3
# Si number density = 19.308312 Si / 1000 Ang^3
#
#
#
# Elastic Constant Matrix: (Units=GPa)
#
#
# Indices 1 2 3 4 5 6 
#
# 1 51.5738 41.1879 3.0130 0.0000 8.5968 0.0000
# 2 41.1879 124.9908 12.2999 0.0000 7.2805 0.0000
# 3 3.0130 12.2999 60.7177 0.0000 18.3614 0.0000
# 4 0.0000 0.0000 0.0000 11.5049 0.0000 -2.8043
# 5 8.5968 7.2805 18.3614 0.0000 14.8696 0.0000
# 6 0.0000 0.0000 0.0000 -2.8043 0.0000 0.7354
#
#
#
# Elastic Compliance Matrix: (Units=1/GPa)
#
#
# Indices 1 2 3 4 5 6 
#
# 1 0.029950 -0.009306 0.006795 0.000000 -0.021150 0.000000
# 2 -0.009306 0.011147 -0.002829 0.000000 0.003417 0.000000
# 3 0.006795 -0.002829 0.027889 0.000000 -0.036981 0.000000
# 4 0.000000 0.000000 0.000000 1.232116 0.000000 4.698323
# 5 -0.021150 0.003417 -0.036981 0.000000 0.123472 0.000000
# 6 0.000000 0.000000 0.000000 4.698323 0.000000 19.275496
#
#
# Mechanical properties :
#
#
# Convention : Reuss Voigt Hill
#
# Bulk Modulus (GPa) = 17.15138 38.92043 28.03591
# Shear Modulus (GPa) = 0.24119 17.47408 8.85764
#
# Velocity S-wave (km/s) = 0.35382 3.01159 2.14416
# Velocity P-wave (km/s) = 3.01150 5.68278 4.54770
#
# Compressibility (1/GPa) = 0.05830433
#
# Stress axis : x y z
#
# Youngs Moduli (GPa) = 33.38873 89.71317 35.85634
#
# Poissons Ratio (x) = 0.83488 -0.24364
# Poissons Ratio (y) = 0.31072 0.10145
# Poissons Ratio (z) = -0.22687 0.25384
#
# Static dielectric constant tensor:
#      x y z
#    x 1.680560 0.000000 -0.003330 
#    y 0.000000 1.692010 0.000000 
#    z -0.003330 0.000000 1.668740 
# 
# From -- ./inp_files/198393.got.cif
#   From: 2010.05.17/outbox.cif.g08.bks.cpg/sg12_100_cif.got.tgz:198393.got - 2010.06.03 13:09:07.
