data_PCOD9209924
_publ_section_title
;
Structure prediction by ZEFSAII (Michael W. Deem and Ramdas Pophale) SiO2 
 PCOD9209924
Probable space group: C 2/M
;
_chemical_formula_sum "Si O2"
_cell_formula_units_Z 58
_cell_length_a 16.725592
_cell_length_b 12.994625
_cell_length_c 24.591085
_cell_angle_alpha 90.000000
_cell_angle_beta 30.495956
_cell_angle_gamma 90.000000
_cell_volume 2712.312794
_symmetry_space_group_name_H-M "C 2/M"
_symmetry_group_IT_number 12
_symmetry_cell_setting 'monoclinic'
loop_
_space_group_symop_operation_xyz
x,y,z
-x,y,-z
-x,-y,-z
x,-y,z
1/2+x,1/2+y,z
1/2-x,1/2+y,-z
1/2-x,1/2-y,-z
1/2+x,1/2-y,z
loop_
_atom_site_type_symbol
_atom_site_label
_atom_site_fract_x
_atom_site_fract_y
_atom_site_fract_z
Si Si1 0.102976 0.165386 0.625189
Si Si2 0.351142 0.250302 0.206199
Si Si3 0.500000 0.500000 0.000000
Si Si4 0.887137 0.392372 0.392587
Si Si5 0.482457 0.114164 0.804873
Si Si6 0.750845 0.881433 0.835991
Si Si7 0.153991 0.806391 0.963566
Si Si8 0.185466 0.376784 0.393122
O O1 0.059878 0.277187 0.625010
O O2 0.206408 0.110300 0.518329
O O3 0.282463 0.331945 0.388564
O O4 0.937826 0.116996 0.738664
O O5 0.407618 0.169241 0.217387
O O6 0.269062 0.182044 0.208172
O O7 0.253747 0.334363 0.296531
O O8 0.504781 0.304357 0.090463
O O9 0.627717 0.406572 0.940662
O O10 0.955865 0.500000 0.375464
O O11 0.927349 0.393358 0.305383
O O12 0.322246 0.177304 0.892299
O O13 0.440238 0.000000 0.847997
O O14 0.664441 0.805167 0.928878
O O15 0.694925 0.000000 0.866962
O O16 0.202295 0.500000 0.387332
O O17 0.000000 0.351320 0.500000
#
# Coordination Sequence:
#
# PCOD9209924 Si02
#       8
#     8   8   2   8   8   8   8   8
#     4  11  23  45  68  98 133 175 228 272 334 395
#     4  12  26  43  64 102 133 173 222 269 335 399
#     4  12  24  48  70 100 134 160 240 286 324 392
#     4  10  21  38  68 100 128 172 227 273 326 400
#     4  11  23  42  68  95 135 173 216 273 335 393
#     4  12  26  45  70  98 137 178 225 277 332 405
#     4  12  25  46  70  98 132 177 224 283 332 392
#     4  11  26  45  67  97 135 174 219 277 337 398
#
# _framework density 21.383965
#
# number of rings (size 3 to 8) (size 9 to 14) (size 15 to 20)
#    0.000    0.690    4.828    2.069    4.828    1.655 
#    0.000    0.000    0.000    3.724    0.000    0.000 
#    0.000    0.000    0.000    0.000    0.000    0.000 
#
# Total GULP energy -161531.383132 kJ/mol
# GULP energy per Si atom -5570.047694 kJ/mol
# Density = 2.133529 g / cm^3
# Si number density = 21.383965 Si / 1000 Ang^3
#
#
#
# Elastic Constant Matrix: (Units=GPa)
#
#
# Indices 1 2 3 4 5 6 
#
# 1 29.7561 -9.2286 39.0698 -0.0006 -9.6819 0.0003
# 2 -9.2286 127.3378 35.4232 -0.0004 11.0343 0.0002
# 3 39.0698 35.4232 144.3922 -0.0030 11.4661 0.0001
# 4 -0.0006 -0.0004 -0.0030 13.3302 0.0005 7.0569
# 5 -9.6819 11.0343 11.4661 0.0005 21.1576 -0.0001
# 6 0.0003 0.0002 0.0001 7.0569 -0.0001 13.9756
#
#
#
# Elastic Compliance Matrix: (Units=1/GPa)
#
#
# Indices 1 2 3 4 5 6 
#
# 1 0.105231 0.012432 -0.036399 -0.000006 0.061397 0.000002
# 2 0.012432 0.010141 -0.006148 -0.000001 0.003732 0.000000
# 3 -0.036399 -0.006148 0.020221 0.000004 -0.024409 -0.000002
# 4 -0.000006 -0.000001 0.000004 0.102387 -0.000007 -0.051700
# 5 0.061397 0.003732 -0.024409 -0.000007 0.086642 0.000003
# 6 0.000002 0.000000 -0.000002 -0.051700 0.000003 0.097659
#
#
# Mechanical properties :
#
#
# Convention : Reuss Voigt Hill
#
# Bulk Modulus (GPa) = 13.26914 48.00164 30.63539
# Shear Modulus (GPa) = 9.84964 25.44078 17.64521
#
# Velocity S-wave (km/s) = 2.14851 3.45296 2.87568
# Velocity P-wave (km/s) = 3.51759 6.19625 5.03820
#
# Compressibility (1/GPa) = 0.07536282
#
# Stress axis : x y z
#
# Youngs Moduli (GPa) = 9.50288 98.60984 49.45356
#
# Poissons Ratio (x) = -1.22589 1.80006
# Poissons Ratio (y) = -0.11814 0.30404
# Poissons Ratio (z) = 0.34589 0.60625
#
# Static dielectric constant tensor:
#      x y z
#    x 1.804910 0.000000 0.001370 
#    y 0.000000 1.792370 0.000000 
#    z 0.001370 0.000000 1.787770 
# 
# From -- ./inp_files/363765.got.cif
#   From: 2010.05.17/outbox.cif.g08.bks.cpg/sg12_182_cif.got.tgz:363765.got - 2010.06.03 13:09:07.
