data_PCOD9209235
_publ_section_title
;
Structure prediction by ZEFSAII (Michael W. Deem and Ramdas Pophale) SiO2 
 PCOD9209235
Probable space group: C 2/M
;
_chemical_formula_sum "Si O2"
_cell_formula_units_Z 48
_cell_length_a 27.119770
_cell_length_b 8.763916
_cell_length_c 15.158195
_cell_angle_alpha 90.000000
_cell_angle_beta 140.812668
_cell_angle_gamma 90.000000
_cell_volume 2276.413492
_symmetry_space_group_name_H-M "C 2/M"
_symmetry_group_IT_number 12
_symmetry_cell_setting 'monoclinic'
loop_
_space_group_symop_operation_xyz
x,y,z
-x,y,-z
-x,-y,-z
x,-y,z
1/2+x,1/2+y,z
1/2-x,1/2+y,-z
1/2-x,1/2-y,-z
1/2+x,1/2-y,z
loop_
_atom_site_type_symbol
_atom_site_label
_atom_site_fract_x
_atom_site_fract_y
_atom_site_fract_z
Si Si1 0.655823 0.683634 0.455900
Si Si2 0.668848 0.182181 0.279778
Si Si3 0.580755 0.180562 0.658548
Si Si4 0.743105 0.318359 0.891617
Si Si5 0.488954 0.681177 0.271718
Si Si6 0.619026 0.319899 0.035788
O O1 0.653479 0.500000 0.445029
O O2 0.650758 0.752706 0.351045
O O3 0.740045 0.725607 0.611699
O O4 0.579076 0.728938 0.403251
O O5 0.617375 0.248108 0.129966
O O6 0.663557 0.000000 0.274132
O O7 0.500000 0.227859 0.500000
O O8 0.658170 0.269054 0.737844
O O9 0.564701 0.222037 0.738075
O O10 0.591985 0.000000 0.662178
O O11 0.748657 0.500000 0.904070
O O12 0.810517 0.253167 0.922629
O O13 0.750000 0.250000 0.000000
O O14 0.480851 0.500000 0.281581
O O15 0.458459 0.702350 0.130010
O O16 0.632753 0.500000 0.062257
#
# Coordination Sequence:
#
# PCOD9209235 Si02
#       6
#     8   8   8   8   8   8
#     4   9  20  40  62  86 117 155 201 248 300 362
#     4  10  21  38  61  90 119 155 198 247 305 362
#     4  11  25  42  61  91 125 160 203 252 303 357
#     4  12  24  41  64  89 122 163 203 249 301 359
#     4  10  22  40  62  87 117 160 205 249 300 355
#     4  11  23  39  61  89 121 159 201 249 300 357
#
# _framework density 21.085799999999999
#
# number of rings (size 3 to 8) (size 9 to 14) (size 15 to 20)
#    0.000    1.500    1.667    3.000    2.333    4.000 
#    0.000    3.333    0.000    0.000    0.000    0.000 
#    0.000    0.000    0.000    0.000    0.000    0.000 
#
# Total GULP energy -134206.022095 kJ/mol
# GULP energy per Si atom -5591.917587 kJ/mol
# Density = 2.103781 g / cm^3
# Si number density = 21.085800 Si / 1000 Ang^3
#
#
#
# Elastic Constant Matrix: (Units=GPa)
#
#
# Indices 1 2 3 4 5 6 
#
# 1 21.3816 -4.2799 -10.4121 0.0000 13.1374 0.0000
# 2 -4.2799 19.8798 4.7097 0.0000 8.3266 0.0000
# 3 -10.4121 4.7097 53.5338 0.0000 -1.2594 0.0000
# 4 0.0000 0.0000 0.0000 27.2493 0.0000 -3.3434
# 5 13.1374 8.3266 -1.2594 0.0000 38.4706 0.0000
# 6 0.0000 0.0000 0.0000 -3.3434 0.0000 25.3227
#
#
#
# Elastic Compliance Matrix: (Units=1/GPa)
#
#
# Indices 1 2 3 4 5 6 
#
# 1 0.077793 0.027355 0.011969 0.000000 -0.032095 0.000000
# 2 0.027355 0.066394 -0.001079 0.000000 -0.023747 0.000000
# 3 0.011969 -0.001079 0.021028 0.000000 -0.003165 0.000000
# 4 0.000000 0.000000 0.000000 0.037302 0.000000 0.004925
# 5 -0.032095 -0.023747 -0.003165 0.000000 0.041990 0.000000
# 6 0.000000 0.000000 0.000000 0.004925 0.000000 0.040140
#
#
# Mechanical properties :
#
#
# Convention : Reuss Voigt Hill
#
# Bulk Modulus (GPa) = 4.13727 8.31450 6.22589
# Shear Modulus (GPa) = 17.31741 25.19370 21.25556
#
# Velocity S-wave (km/s) = 2.86891 3.46036 3.17843
# Velocity P-wave (km/s) = 3.59730 4.46287 4.05326
#
# Compressibility (1/GPa) = 0.24170505
#
# Stress axis : x y z
#
# Youngs Moduli (GPa) = 12.85459 15.06165 47.55531
#
# Poissons Ratio (x) = -0.41202 -0.56918
# Poissons Ratio (y) = -0.35164 0.05132
# Poissons Ratio (z) = -0.15385 0.01625
#
# Static dielectric constant tensor:
#      x y z
#    x 1.738210 0.000000 0.008500 
#    y 0.000000 1.701300 0.000000 
#    z 0.008500 0.000000 1.799800 
# 
# From -- ./inp_files/244659.got.cif
#   From: 2010.05.17/outbox.cif.g08.bks.cpg/sg12_123_cif.got.tgz:244659.got - 2010.06.03 13:09:07.
