data_PCOD9209699
_publ_section_title
;
Structure prediction by ZEFSAII (Michael W. Deem and Ramdas Pophale) SiO2 
 PCOD9209699
Probable space group: C 2/M
;
_chemical_formula_sum "Si O2"
_cell_formula_units_Z 56
_cell_length_a 21.958669
_cell_length_b 14.447870
_cell_length_c 9.060643
_cell_angle_alpha 90.000000
_cell_angle_beta 64.990989
_cell_angle_gamma 90.000000
_cell_volume 2605.029896
_symmetry_space_group_name_H-M "C 2/M"
_symmetry_group_IT_number 12
_symmetry_cell_setting 'monoclinic'
loop_
_space_group_symop_operation_xyz
x,y,z
-x,y,-z
-x,-y,-z
x,-y,z
1/2+x,1/2+y,z
1/2-x,1/2+y,-z
1/2-x,1/2-y,-z
1/2+x,1/2-y,z
loop_
_atom_site_type_symbol
_atom_site_label
_atom_site_fract_x
_atom_site_fract_y
_atom_site_fract_z
Si Si1 0.280174 0.893471 0.785465
Si Si2 0.631134 0.898439 0.752404
Si Si3 0.934895 0.254325 0.967063
Si Si4 0.344018 0.391254 0.900421
Si Si5 0.365340 0.278681 0.591409
Si Si6 0.977407 0.659228 0.370845
Si Si7 0.280551 0.396143 0.467956
O O1 0.334057 0.814511 0.695627
O O2 0.230162 0.889651 0.695790
O O3 0.305924 0.000000 0.766336
O O4 0.233646 0.873076 0.974139
O O5 0.578673 0.891602 0.670233
O O6 0.706209 0.890153 0.614519
O O7 0.623503 0.000000 0.829576
O O8 0.612088 0.819563 0.886235
O O9 0.893592 0.167398 0.952376
O O10 0.962490 0.312814 0.799180
O O11 0.000000 0.230635 0.000000
O O12 0.354582 0.500000 0.907000
O O13 0.358230 0.357118 0.721151
O O14 0.439222 0.252325 0.463288
O O15 0.324589 0.315381 0.492108
O O16 0.000000 0.612363 0.500000
O O17 0.306966 0.500000 0.474066
#
# Coordination Sequence:
#
# PCOD9209699 Si02
#       7
#     8   8   8   8   8   8   8
#     4  10  22  38  61  92 123 157 206 255 308 376
#     4  10  22  42  67  94 128 164 205 257 310 372
#     4  10  23  41  63  87 124 163 214 254 304 364
#     4  11  24  42  62  90 124 161 209 261 314 371
#     4  12  22  39  66  89 129 166 198 258 326 362
#     4  11  23  40  61  91 125 167 215 252 298 371
#     4  10  21  38  63  98 124 158 211 257 312 377
#
# _framework density 21.496873999999998
#
# number of rings (size 3 to 8) (size 9 to 14) (size 15 to 20)
#    0.000    1.429    2.857    2.143    4.000    3.143 
#    0.000    4.286    0.000    0.000    0.000    0.000 
#    0.000    0.000    0.000    0.000    0.000    0.000 
#
# Total GULP energy -156605.084746 kJ/mol
# GULP energy per Si atom -5593.038741 kJ/mol
# Density = 2.144795 g / cm^3
# Si number density = 21.496874 Si / 1000 Ang^3
#
#
#
# Elastic Constant Matrix: (Units=GPa)
#
#
# Indices 1 2 3 4 5 6 
#
# 1 36.8010 8.7462 -10.9847 0.0000 6.2107 0.0000
# 2 8.7462 68.5261 0.9005 0.0000 3.1348 0.0000
# 3 -10.9847 0.9005 75.3373 0.0000 4.1601 0.0000
# 4 0.0000 0.0000 0.0000 21.2136 0.0000 12.0415
# 5 6.2107 3.1348 4.1601 0.0000 23.8656 0.0000
# 6 0.0000 0.0000 0.0000 12.0415 0.0000 -3.8457
#
#
#
# Elastic Compliance Matrix: (Units=1/GPa)
#
#
# Indices 1 2 3 4 5 6 
#
# 1 0.030963 -0.003631 0.005025 0.000000 -0.008457 0.000000
# 2 -0.003631 0.015107 -0.000659 0.000000 -0.000925 0.000000
# 3 0.005025 -0.000659 0.014218 0.000000 -0.003700 0.000000
# 4 0.000000 0.000000 0.000000 0.016973 0.000000 0.053145
# 5 -0.008457 -0.000925 -0.003700 0.000000 0.044868 0.000000
# 6 0.000000 0.000000 0.000000 0.053145 0.000000 -0.093625
#
#
# Mechanical properties :
#
#
# Convention : Reuss Voigt Hill
#
# Bulk Modulus (GPa) = 16.19195 19.77649 17.98422
# Shear Modulus (GPa) = 104.99491 20.38019 62.68755
#
# Velocity S-wave (km/s) = 6.99628 3.08239 5.40597
# Velocity P-wave (km/s) = 8.53303 4.67844 6.88115
#
# Compressibility (1/GPa) = 0.06175907
#
# Stress axis : x y z
#
# Youngs Moduli (GPa) = 32.29632 66.19284 70.33097
#
# Poissons Ratio (x) = 0.24035 -0.35342
# Poissons Ratio (y) = 0.11727 0.04635
# Poissons Ratio (z) = -0.16229 0.04362
#
# Static dielectric constant tensor:
#      x y z
#    x 1.783820 0.000000 0.031410 
#    y 0.000000 1.764160 0.000000 
#    z 0.031410 0.000000 1.776360 
# 
# From -- ./inp_files/96751.got.cif
#   From: 2010.05.17/outbox.cif.g08.bks.cpg/sg12_49_cif.got.tgz:96751.got - 2010.06.03 13:09:07.
