data_PCOD9209691
_publ_section_title
;
Structure prediction by ZEFSAII (Michael W. Deem and Ramdas Pophale) SiO2 
 PCOD9209691
Probable space group: C 2/M
;
_chemical_formula_sum "Si O2"
_cell_formula_units_Z 42
_cell_length_a 18.549414
_cell_length_b 8.685600
_cell_length_c 12.481068
_cell_angle_alpha 90.000000
_cell_angle_beta 77.356997
_cell_angle_gamma 90.000000
_cell_volume 1962.101895
_symmetry_space_group_name_H-M "C 2/M"
_symmetry_group_IT_number 12
_symmetry_cell_setting 'monoclinic'
loop_
_space_group_symop_operation_xyz
x,y,z
-x,y,-z
-x,-y,-z
x,-y,z
1/2+x,1/2+y,z
1/2-x,1/2+y,-z
1/2-x,1/2-y,-z
1/2+x,1/2-y,z
loop_
_atom_site_type_symbol
_atom_site_label
_atom_site_fract_x
_atom_site_fract_y
_atom_site_fract_z
Si Si1 0.444284 0.181410 0.370705
Si Si2 0.598220 0.328072 0.829552
Si Si3 0.183811 0.181743 0.449088
Si Si4 0.886800 0.685293 0.728766
Si Si5 0.331609 0.815381 0.981896
Si Si6 0.500000 0.500000 0.000000
O O1 0.407296 0.216247 0.267807
O O2 0.393657 0.272622 0.469856
O O3 0.529918 0.230399 0.333728
O O4 0.441757 0.000000 0.397076
O O5 0.629350 0.500000 0.790985
O O6 0.637622 0.260479 0.920336
O O7 0.518138 0.369142 0.903319
O O8 0.250000 0.250000 0.500000
O O9 0.174447 0.247166 0.331997
O O10 0.193313 0.000000 0.441850
O O11 0.883542 0.500000 0.722355
O O12 0.871359 0.727186 0.857071
O O13 0.333401 0.000000 0.990657
O O14 0.250000 0.750000 0.000000
#
# Coordination Sequence:
#
# PCOD9209691 Si02
#       6
#     8   8   8   8   8   2
#     4  11  23  43  72 101 134 175 221 276 334 399
#     4  10  21  38  63  96 134 173 217 267 321 387
#     4  12  27  46  70  99 133 175 221 277 337 402
#     4  10  24  45  69  97 134 176 223 276 331 398
#     4  11  24  42  65  97 137 180 224 273 332 397
#     4   8  20  36  62  92 130 176 210 268 316 380
#
# _framework density 21.405615999999998
#
# number of rings (size 3 to 8) (size 9 to 14) (size 15 to 20)
#    0.571    0.762    0.000    5.143    2.667    5.333 
#    0.000    3.810    0.000    0.000    0.000    0.000 
#    0.000    0.000    0.000    0.000    0.000    0.000 
#
# Total GULP energy -116977.453874 kJ/mol
# GULP energy per Si atom -5570.354946 kJ/mol
# Density = 2.135690 g / cm^3
# Si number density = 21.405616 Si / 1000 Ang^3
#
#
#
# Elastic Constant Matrix: (Units=GPa)
#
#
# Indices 1 2 3 4 5 6 
#
# 1 119.6443 42.5708 38.2634 0.0000 29.3267 0.0000
# 2 42.5708 49.5654 11.3490 0.0000 8.5270 0.0000
# 3 38.2634 11.3490 66.5330 0.0000 24.9955 0.0000
# 4 0.0000 0.0000 0.0000 37.4471 0.0000 -0.1744
# 5 29.3267 8.5270 24.9955 0.0000 43.6390 0.0000
# 6 0.0000 0.0000 0.0000 -0.1744 0.0000 18.4469
#
#
#
# Elastic Compliance Matrix: (Units=1/GPa)
#
#
# Indices 1 2 3 4 5 6 
#
# 1 0.015082 -0.010946 -0.004845 0.000000 -0.005222 0.000000
# 2 -0.010946 0.029176 0.000888 0.000000 0.001147 0.000000
# 3 -0.004845 0.000888 0.021033 0.000000 -0.008965 0.000000
# 4 0.000000 0.000000 0.000000 0.026705 0.000000 0.000252
# 5 -0.005222 0.001147 -0.008965 0.000000 0.031335 0.000000
# 6 0.000000 0.000000 0.000000 0.000252 0.000000 0.054212
#
#
# Mechanical properties :
#
#
# Convention : Reuss Voigt Hill
#
# Bulk Modulus (GPa) = 28.18137 46.67879 37.43008
# Shear Modulus (GPa) = 22.81231 29.47724 26.14478
#
# Velocity S-wave (km/s) = 3.26807 3.71493 3.49864
# Velocity P-wave (km/s) = 5.23778 6.34469 5.81762
#
# Compressibility (1/GPa) = 0.03548443
#
# Stress axis : x y z
#
# Youngs Moduli (GPa) = 66.30278 34.27426 47.54428
#
# Poissons Ratio (x) = 0.37517 0.23035
# Poissons Ratio (y) = 0.72577 -0.04220
# Poissons Ratio (z) = 0.32124 -0.03042
#
# Static dielectric constant tensor:
#      x y z
#    x 1.803340 0.000000 -0.013710 
#    y 0.000000 1.743120 0.000000 
#    z -0.013710 0.000000 1.792960 
# 
# From -- ./inp_files/162971.got.cif
#   From: 2010.05.17/outbox.cif.g08.bks.cpg/sg12_82_cif.got.tgz:162971.got - 2010.06.03 13:09:07.
