data_PCOD9209957
_publ_section_title
;
Structure prediction by ZEFSAII (Michael W. Deem and Ramdas Pophale) SiO2 
 PCOD9209957
Probable space group: C 2/M
;
_chemical_formula_sum "Si O2"
_cell_formula_units_Z 64
_cell_length_a 18.987029
_cell_length_b 19.196166
_cell_length_c 9.135693
_cell_angle_alpha 90.000000
_cell_angle_beta 67.849043
_cell_angle_gamma 90.000000
_cell_volume 3084.003148
_symmetry_space_group_name_H-M "C 2/M"
_symmetry_group_IT_number 12
_symmetry_cell_setting 'monoclinic'
loop_
_space_group_symop_operation_xyz
x,y,z
-x,y,-z
-x,-y,-z
x,-y,z
1/2+x,1/2+y,z
1/2-x,1/2+y,-z
1/2-x,1/2-y,-z
1/2+x,1/2-y,z
loop_
_atom_site_type_symbol
_atom_site_label
_atom_site_fract_x
_atom_site_fract_y
_atom_site_fract_z
Si Si1 0.009716 0.216390 0.666978
Si Si2 0.326807 0.422349 0.702162
Si Si3 0.804577 0.581436 0.960996
Si Si4 0.345663 0.217165 0.310716
Si Si5 0.172337 0.080726 0.858032
Si Si6 0.218202 0.856689 0.536152
Si Si7 0.425399 0.811270 0.955583
Si Si8 0.460165 0.419262 0.838780
O O1 0.944184 0.255337 0.814250
O O2 0.016653 0.140014 0.736652
O O3 0.000000 0.211989 0.500000
O O4 0.081514 0.264089 0.649861
O O5 0.328239 0.500000 0.635141
O O6 0.330804 0.365837 0.572263
O O7 0.395208 0.418586 0.763237
O O8 0.248197 0.415359 0.852595
O O9 0.820419 0.500000 0.918359
O O10 0.745420 0.611065 0.886341
O O11 0.882442 0.623261 0.917743
O O12 0.303569 0.149346 0.407165
O O13 0.293868 0.284983 0.369370
O O14 0.367188 0.214510 0.124754
O O15 0.191857 0.087146 0.673612
O O16 0.170435 0.000000 0.905838
O O17 0.088665 0.104097 0.979295
O O18 0.500000 0.826221 0.000000
O O19 0.488022 0.500000 0.830944
#
# Coordination Sequence:
#
# PCOD9209957 Si02
#       8
#     8   8   8   8   8   8   8   8
#     4  11  23  38  57  80 115 150 193 235 281 329
#     4   9  17  32  57  83 110 141 183 232 279 335
#     4   9  18  35  56  80 107 140 184 229 282 338
#     4  10  23  36  51  82 111 152 187 227 277 335
#     4   9  19  34  57  86 112 142 180 231 288 337
#     4  11  19  34  56  80 117 140 187 233 273 332
#     4  10  21  39  56  76 112 150 184 231 286 338
#     4   9  19  38  59  84 116 151 190 233 283 342
#
# _framework density 20.752248000000002
#
# number of rings (size 3 to 8) (size 9 to 14) (size 15 to 20)
#    0.000    2.250    1.250    3.375    1.750    0.500 
#    0.000    3.125    0.000    5.250    0.000    0.000 
#    0.000    0.000    0.000    0.000    0.000    0.000 
#
# Total GULP energy -178352.837969 kJ/mol
# GULP energy per Si atom -5573.526187 kJ/mol
# Density = 2.070502 g / cm^3
# Si number density = 20.752248 Si / 1000 Ang^3
#
#
#
# Elastic Constant Matrix: (Units=GPa)
#
#
# Indices 1 2 3 4 5 6 
#
# 1 40.7584 14.1449 31.6031 0.0000 6.2943 0.0000
# 2 14.1449 41.5455 26.3411 0.0000 1.5771 0.0000
# 3 31.6031 26.3411 129.0856 0.0000 12.8929 0.0000
# 4 0.0000 0.0000 0.0000 19.8084 0.0000 7.5457
# 5 6.2943 1.5771 12.8929 0.0000 29.2743 0.0000
# 6 0.0000 0.0000 0.0000 7.5457 0.0000 18.8065
#
#
#
# Elastic Compliance Matrix: (Units=1/GPa)
#
#
# Indices 1 2 3 4 5 6 
#
# 1 0.032279 -0.006981 -0.006090 0.000000 -0.003882 0.000000
# 2 -0.006981 0.029187 -0.004435 0.000000 0.001882 0.000000
# 3 -0.006090 -0.004435 0.010448 0.000000 -0.003053 0.000000
# 4 0.000000 0.000000 0.000000 0.059592 0.000000 -0.023910
# 5 -0.003882 0.001882 -0.003053 0.000000 0.036238 0.000000
# 6 0.000000 0.000000 0.000000 -0.023910 0.000000 0.062767
#
#
# Mechanical properties :
#
#
# Convention : Reuss Voigt Hill
#
# Bulk Modulus (GPa) = 27.09908 39.50754 33.30331
# Shear Modulus (GPa) = 17.99702 22.86453 20.43077
#
# Velocity S-wave (km/s) = 2.94808 3.32292 3.14109
# Velocity P-wave (km/s) = 4.96739 5.81390 5.40723
#
# Compressibility (1/GPa) = 0.03690163
#
# Stress axis : x y z
#
# Youngs Moduli (GPa) = 30.97942 34.26161 95.71449
#
# Poissons Ratio (x) = 0.23919 0.58294
# Poissons Ratio (y) = 0.21628 0.42446
# Poissons Ratio (z) = 0.18868 0.15194
#
# Static dielectric constant tensor:
#      x y z
#    x 1.775140 0.000000 -0.032490 
#    y 0.000000 1.777110 0.000000 
#    z -0.032490 0.000000 1.804370 
# 
# From -- ./inp_files/89601.got.cif
#   From: 2010.05.17/outbox.cif.g08.bks.cpg/sg12_45_cif.got.tgz:89601.got - 2010.06.03 13:09:07.
