data_PCOD9209217
_publ_section_title
;
Structure prediction by ZEFSAII (Michael W. Deem and Ramdas Pophale) SiO2 
 PCOD9209217
Probable space group: C 2/M
;
_chemical_formula_sum "Si O2"
_cell_formula_units_Z 64
_cell_length_a 18.833654
_cell_length_b 8.905449
_cell_length_c 33.090536
_cell_angle_alpha 90.000000
_cell_angle_beta 37.953487
_cell_angle_gamma 90.000000
_cell_volume 3413.379312
_symmetry_space_group_name_H-M "C 2/M"
_symmetry_group_IT_number 12
_symmetry_cell_setting 'monoclinic'
loop_
_space_group_symop_operation_xyz
x,y,z
-x,y,-z
-x,-y,-z
x,-y,z
1/2+x,1/2+y,z
1/2-x,1/2+y,-z
1/2-x,1/2-y,-z
1/2+x,1/2-y,z
loop_
_atom_site_type_symbol
_atom_site_label
_atom_site_fract_x
_atom_site_fract_y
_atom_site_fract_z
Si Si1 0.531624 0.180987 0.307579
Si Si2 0.646535 0.819768 0.684680
Si Si3 0.934460 0.819692 0.194758
Si Si4 0.704366 0.681614 0.062393
Si Si5 0.632064 0.817396 0.936668
Si Si6 0.627501 0.177021 0.547156
Si Si7 0.283756 0.819572 0.190261
Si Si8 0.122099 0.169809 0.466857
O O1 0.451236 0.215798 0.304945
O O2 0.463179 0.228371 0.378538
O O3 0.653384 0.262531 0.252574
O O4 0.548118 0.000000 0.300887
O O5 0.617605 0.740122 0.739718
O O6 0.771541 0.780723 0.609325
O O7 0.646342 0.000000 0.691186
O O8 0.863984 0.750942 0.188899
O O9 0.070315 0.778344 0.130292
O O10 0.926088 0.000000 0.197466
O O11 0.710916 0.500000 0.056939
O O12 0.785012 0.731310 0.063833
O O13 0.750000 0.750000 0.000000
O O14 0.675837 0.773814 0.872774
O O15 0.632061 0.000000 0.937966
O O16 0.500000 0.766392 0.000000
O O17 0.750000 0.250000 0.500000
O O18 0.599937 0.223355 0.514319
O O19 0.636175 0.000000 0.547427
O O20 0.289257 0.000000 0.190849
O O21 0.000000 0.160274 0.500000
O O22 0.154038 0.000000 0.466718
#
# Coordination Sequence:
#
# PCOD9209217 Si02
#       8
#     8   8   8   8   8   8   8   8
#     4  10  22  40  60  85 121 155 191 246 302 351
#     4  10  21  40  61  85 118 158 199 241 298 360
#     4  11  24  40  58  86 125 160 198 249 299 346
#     4  10  21  38  61  89 122 158 196 241 293 350
#     4   9  18  35  60  88 118 150 191 243 289 339
#     4  11  22  39  62  88 118 154 198 246 301 360
#     4  11  23  39  62  89 116 156 205 244 295 358
#     4  10  22  40  61  87 120 154 196 249 300 355
#
# _framework density 18.749746999999999
#
# number of rings (size 3 to 8) (size 9 to 14) (size 15 to 20)
#    0.000    1.750    1.250    2.625    1.750    5.250 
#    0.000    1.250    0.000    3.375    0.000    0.000 
#    0.000    0.000    0.000    0.000    0.000    0.000 
#
# Total GULP energy -178704.530695 kJ/mol
# GULP energy per Si atom -5584.516584 kJ/mol
# Density = 1.870707 g / cm^3
# Si number density = 18.749747 Si / 1000 Ang^3
#
#
#
# Elastic Constant Matrix: (Units=GPa)
#
#
# Indices 1 2 3 4 5 6 
#
# 1 177.1490 48.0953 117.7370 -0.0004 -0.7640 -0.0017
# 2 48.0953 34.1925 52.5924 -0.0001 2.4315 -0.0065
# 3 117.7370 52.5924 202.0870 0.0000 6.5497 -0.0004
# 4 -0.0004 -0.0001 0.0000 28.0266 0.0005 11.6204
# 5 -0.7640 2.4315 6.5497 0.0005 34.9284 0.0004
# 6 -0.0017 -0.0065 -0.0004 11.6204 0.0004 4.3963
#
#
#
# Elastic Compliance Matrix: (Units=1/GPa)
#
#
# Indices 1 2 3 4 5 6 
#
# 1 0.010762 -0.009218 -0.003923 -0.000044 0.001613 0.000106
# 2 -0.009218 0.056699 -0.009307 0.000343 -0.002403 -0.000827
# 3 -0.003923 -0.009307 0.009697 -0.000061 -0.001256 0.000147
# 4 -0.000044 0.000343 -0.000061 -0.371931 -0.000020 0.983094
# 5 0.001613 -0.002403 -0.001256 -0.000020 0.029068 0.000047
# 6 0.000106 -0.000827 0.000147 0.983094 0.000047 -2.371066
#
#
# Mechanical properties :
#
#
# Convention : Reuss Voigt Hill
#
# Bulk Modulus (GPa) = 30.99763 94.47533 62.73648
# Shear Modulus (GPa) = -1.93714 26.47052 12.26669
#
# Velocity S-wave (km/s) = -1.01755 3.76144 2.56057
# Velocity P-wave (km/s) = 3.89713 8.32836 6.50189
#
# Compressibility (1/GPa) = 0.03226054
#
# Stress axis : x y z
#
# Youngs Moduli (GPa) = 92.91813 17.63707 103.12410
#
# Poissons Ratio (x) = 0.16258 0.40460
# Poissons Ratio (y) = 0.85652 0.95980
# Poissons Ratio (z) = 0.36456 0.16415
#
# Static dielectric constant tensor:
#      x y z
#    x 1.631270 0.000000 -0.019770 
#    y 0.000000 1.674220 0.000000 
#    z -0.019770 0.000000 1.590700 
# 
# From -- ./inp_files/378130.got.cif
#   From: 2010.05.17/outbox.cif.g08.bks.cpg/sg12_190_cif.got.tgz:378130.got - 2010.06.03 13:09:07.
