data_PCOD9209080
_publ_section_title
;
Structure prediction by ZEFSAII (Michael W. Deem and Ramdas Pophale) SiO2 
 PCOD9209080
Probable space group: C 2/M
;
_chemical_formula_sum "Si O2"
_cell_formula_units_Z 56
_cell_length_a 20.671623
_cell_length_b 8.175445
_cell_length_c 16.749604
_cell_angle_alpha 90.000000
_cell_angle_beta 92.055738
_cell_angle_gamma 90.000000
_cell_volume 2828.856519
_symmetry_space_group_name_H-M "C 2/M"
_symmetry_group_IT_number 12
_symmetry_cell_setting 'monoclinic'
loop_
_space_group_symop_operation_xyz
x,y,z
-x,y,-z
-x,-y,-z
x,-y,z
1/2+x,1/2+y,z
1/2-x,1/2+y,-z
1/2-x,1/2-y,-z
1/2+x,1/2-y,z
loop_
_atom_site_type_symbol
_atom_site_label
_atom_site_fract_x
_atom_site_fract_y
_atom_site_fract_z
Si Si1 0.676398 0.805540 0.480652
Si Si2 0.629919 0.200201 0.305065
Si Si3 0.874373 0.195569 0.356893
Si Si4 0.261702 0.300504 0.233789
Si Si5 0.512000 0.197768 0.755005
Si Si6 0.306291 0.695802 0.061688
Si Si7 0.950598 0.303216 0.065502
O O1 0.750000 0.750000 0.500000
O O2 0.648320 0.743703 0.395163
O O3 0.632003 0.757470 0.553437
O O4 0.678454 0.000000 0.474751
O O5 0.688846 0.250734 0.250314
O O6 0.559809 0.254537 0.272129
O O7 0.628848 0.000000 0.305582
O O8 0.810756 0.252754 0.305319
O O9 0.936311 0.250495 0.309265
O O10 0.873084 0.000000 0.358706
O O11 0.262220 0.500000 0.233382
O O12 0.288134 0.244478 0.149844
O O13 0.532625 0.257138 0.844244
O O14 0.511389 0.000000 0.757343
O O15 0.308908 0.500000 0.063550
O O16 0.376900 0.760085 0.042067
O O17 0.250000 0.750000 0.000000
O O18 0.956242 0.500000 0.067755
O O19 0.000000 0.242038 0.000000
#
# Coordination Sequence:
#
# PCOD9209080 Si02
#       7
#     8   8   8   8   8   8   8
#     4  11  21  36  59  88 119 152 198 247 296 348
#     4   9  19  36  59  85 113 152 197 238 286 350
#     4  11  21  38  61  84 117 157 196 239 296 351
#     4   9  18  35  60  84 111 153 197 236 285 346
#     4  10  21  38  61  86 115 153 199 242 288 352
#     4  11  23  39  62  90 122 157 197 244 295 353
#     4  10  22  39  61  89 120 155 198 248 301 358
#
# _framework density 19.795984000000001
#
# number of rings (size 3 to 8) (size 9 to 14) (size 15 to 20)
#    0.000    1.857    2.857    1.286    2.000    0.857 
#    0.000    4.286    0.000    0.000    0.000    0.000 
#    0.000    0.000    0.000    0.000    0.000    0.000 
#
# Total GULP energy -156402.756325 kJ/mol
# GULP energy per Si atom -5585.812726 kJ/mol
# Density = 1.975093 g / cm^3
# Si number density = 19.795984 Si / 1000 Ang^3
#
#
#
# Elastic Constant Matrix: (Units=GPa)
#
#
# Indices 1 2 3 4 5 6 
#
# 1 169.1070 4.2706 59.1502 0.0000 -11.1405 0.0000
# 2 4.2706 15.9649 7.3876 0.0000 -1.0156 0.0000
# 3 59.1502 7.3876 104.0862 0.0000 -16.9173 0.0000
# 4 0.0000 0.0000 0.0000 16.6726 0.0000 -0.4168
# 5 -11.1405 -1.0156 -16.9173 0.0000 39.2942 0.0000
# 6 0.0000 0.0000 0.0000 -0.4168 0.0000 26.9306
#
#
#
# Elastic Compliance Matrix: (Units=1/GPa)
#
#
# Indices 1 2 3 4 5 6 
#
# 1 0.007384 -0.000038 -0.004143 0.000000 0.000309 0.000000
# 2 -0.000038 0.064769 -0.004629 0.000000 -0.000330 0.000000
# 3 -0.004143 -0.004629 0.012989 0.000000 0.004298 0.000000
# 4 0.000000 0.000000 0.000000 0.060002 0.000000 0.000929
# 5 0.000309 -0.000330 0.004298 0.000000 0.027378 0.000000
# 6 0.000000 0.000000 0.000000 0.000929 0.000000 0.037147
#
#
# Mechanical properties :
#
#
# Convention : Reuss Voigt Hill
#
# Bulk Modulus (GPa) = 14.81022 47.86387 31.33704
# Shear Modulus (GPa) = 20.01628 31.13612 25.57620
#
# Velocity S-wave (km/s) = 3.18327 3.97022 3.59832
# Velocity P-wave (km/s) = 4.58352 6.72666 5.75572
#
# Compressibility (1/GPa) = 0.06752095
#
# Stress axis : x y z
#
# Youngs Moduli (GPa) = 135.42887 15.43953 76.98801
#
# Poissons Ratio (x) = 0.00059 0.31898
# Poissons Ratio (y) = 0.00519 0.35637
# Poissons Ratio (z) = 0.56112 0.07147
#
# Static dielectric constant tensor:
#      x y z
#    x 1.664620 0.000000 0.009150 
#    y 0.000000 1.705550 0.000000 
#    z 0.009150 0.000000 1.691290 
# 
# From -- ./inp_files/231014.got.cif
#   From: 2010.05.17/outbox.cif.g08.bks.cpg/sg12_116_cif.got.tgz:231014.got - 2010.06.03 13:09:07.
