data_PCOD9209965
_publ_section_title
;
Structure prediction by ZEFSAII (Michael W. Deem and Ramdas Pophale) SiO2 
 PCOD9209965
Probable space group: C 2/M
;
_chemical_formula_sum "Si O2"
_cell_formula_units_Z 56
_cell_length_a 13.507814
_cell_length_b 31.182174
_cell_length_c 13.308835
_cell_angle_alpha 90.000000
_cell_angle_beta 148.986549
_cell_angle_gamma 90.000000
_cell_volume 2888.287887
_symmetry_space_group_name_H-M "C 2/M"
_symmetry_group_IT_number 12
_symmetry_cell_setting 'monoclinic'
loop_
_space_group_symop_operation_xyz
x,y,z
-x,y,-z
-x,-y,-z
x,-y,z
1/2+x,1/2+y,z
1/2-x,1/2+y,-z
1/2-x,1/2-y,-z
1/2+x,1/2-y,z
loop_
_atom_site_type_symbol
_atom_site_label
_atom_site_fract_x
_atom_site_fract_y
_atom_site_fract_z
Si Si1 0.527129 0.157009 0.915923
Si Si2 0.911321 0.951562 0.034497
Si Si3 0.854951 0.874265 0.669649
Si Si4 0.085133 0.608499 0.764235
Si Si5 0.606542 0.681924 0.488202
Si Si6 0.792157 0.238249 0.151389
Si Si7 0.282048 0.819959 0.270727
O O1 0.589063 0.125184 0.881765
O O2 0.332972 0.180238 0.707626
O O3 0.500000 0.134729 0.000000
O O4 0.679012 0.194294 0.069179
O O5 0.019917 0.914949 0.191418
O O6 0.933027 0.000000 0.091481
O O7 0.000000 0.950040 0.000000
O O8 0.690143 0.936467 0.840541
O O9 0.634520 0.889547 0.463229
O O10 0.924124 0.852218 0.627386
O O11 0.845786 0.838271 0.749715
O O12 0.201541 0.642936 0.798613
O O13 0.500000 0.671610 0.500000
O O14 0.514352 0.726417 0.368625
O O15 0.727293 0.275840 0.169353
O O16 0.750000 0.250000 0.000000
O O17 0.500000 0.814214 0.500000
#
# Coordination Sequence:
#
# PCOD9209965 Si02
#       7
#     8   8   8   8   8   8   8
#     4  11  23  40  62  87 118 169 216 255 311 352
#     4  11  23  39  67 101 125 150 190 244 313 389
#     4  10  23  41  65  86 122 166 199 248 310 367
#     4  10  21  43  59  88 123 157 203 246 300 372
#     4  11  24  43  58  88 121 162 218 261 300 360
#     4  12  24  39  57  85 126 165 214 269 304 344
#     4  10  21  39  57  83 119 164 206 252 301 351
#
# _framework density 19.388649999999998
#
# number of rings (size 3 to 8) (size 9 to 14) (size 15 to 20)
#    0.000    1.286    4.286    1.286    0.000    2.286 
#    0.000    1.429    0.000    0.857    0.000    0.000 
#    0.000    0.000    0.000    0.000    0.000    0.000 
#
# Total GULP energy -156511.740402 kJ/mol
# GULP energy per Si atom -5589.705014 kJ/mol
# Density = 1.934452 g / cm^3
# Si number density = 19.388650 Si / 1000 Ang^3
#
#
#
# Elastic Constant Matrix: (Units=GPa)
#
#
# Indices 1 2 3 4 5 6 
#
# 1 112.9332 34.5860 32.6897 0.0000 -23.4566 0.0000
# 2 34.5860 91.0780 38.8636 0.0000 -5.9041 0.0000
# 3 32.6897 38.8636 82.5375 0.0000 -3.3321 0.0000
# 4 0.0000 0.0000 0.0000 15.7072 0.0000 4.1086
# 5 -23.4566 -5.9041 -3.3321 0.0000 34.4077 0.0000
# 6 0.0000 0.0000 0.0000 4.1086 0.0000 18.1348
#
#
#
# Elastic Compliance Matrix: (Units=1/GPa)
#
#
# Indices 1 2 3 4 5 6 
#
# 1 0.012200 -0.002769 -0.003224 0.000000 0.007530 0.000000
# 2 -0.002769 0.014473 -0.005716 0.000000 0.000042 0.000000
# 3 -0.003224 -0.005716 0.016019 0.000000 -0.001628 0.000000
# 4 0.000000 0.000000 0.000000 0.067675 0.000000 -0.015332
# 5 0.007530 0.000042 -0.001628 0.000000 0.034046 0.000000
# 6 0.000000 0.000000 0.000000 -0.015332 0.000000 0.058616
#
#
# Mechanical properties :
#
#
# Convention : Reuss Voigt Hill
#
# Bulk Modulus (GPa) = 51.88709 55.42524 53.65616
# Shear Modulus (GPa) = 21.47097 25.67724 23.57411
#
# Velocity S-wave (km/s) = 3.33137 3.64310 3.49072
# Velocity P-wave (km/s) = 6.45113 6.80770 6.63181
#
# Compressibility (1/GPa) = 0.01927262
#
# Stress axis : x y z
#
# Youngs Moduli (GPa) = 81.96722 69.09394 62.42753
#
# Poissons Ratio (x) = 0.19132 0.20128
# Poissons Ratio (y) = 0.22696 0.35686
# Poissons Ratio (z) = 0.26427 0.39497
#
# Static dielectric constant tensor:
#      x y z
#    x 1.701060 0.000000 0.014260 
#    y 0.000000 1.637320 0.000000 
#    z 0.014260 0.000000 1.748890 
# 
# From -- ./inp_files/219119.got.cif
#   From: 2010.05.17/outbox.cif.g08.bks.cpg/sg12_110_cif.got.tgz:219119.got - 2010.06.03 13:09:07.
