data_PCOD9209420
_publ_section_title
;
Structure prediction by ZEFSAII (Michael W. Deem and Ramdas Pophale) SiO2 
 PCOD9209420
Probable space group: C 2/M
;
_chemical_formula_sum "Si O2"
_cell_formula_units_Z 48
_cell_length_a 5.319767
_cell_length_b 19.302654
_cell_length_c 24.072393
_cell_angle_alpha 90.000000
_cell_angle_beta 115.456786
_cell_angle_gamma 90.000000
_cell_volume 2231.892308
_symmetry_space_group_name_H-M "C 2/M"
_symmetry_group_IT_number 12
_symmetry_cell_setting 'monoclinic'
loop_
_space_group_symop_operation_xyz
x,y,z
-x,y,-z
-x,-y,-z
x,-y,z
1/2+x,1/2+y,z
1/2-x,1/2+y,-z
1/2-x,1/2-y,-z
1/2+x,1/2-y,z
loop_
_atom_site_type_symbol
_atom_site_label
_atom_site_fract_x
_atom_site_fract_y
_atom_site_fract_z
Si Si1 0.792087 0.420394 0.801004
Si Si2 0.756110 0.419337 0.667342
Si Si3 0.814289 0.084032 0.533890
Si Si4 0.802131 0.172546 0.026628
Si Si5 0.120417 0.289146 0.699726
Si Si6 0.851405 0.843665 0.832140
O O1 0.866220 0.500000 0.817351
O O2 0.703869 0.412480 0.728082
O O3 0.540121 0.398868 0.816584
O O4 0.069744 0.374437 0.831860
O O5 0.831500 0.500000 0.663020
O O6 0.484775 0.401457 0.605915
O O7 0.002605 0.365875 0.676664
O O8 0.500000 0.110523 0.500000
O O9 0.000000 0.108631 0.500000
O O10 0.799426 0.000000 0.528632
O O11 0.953337 0.181064 0.099744
O O12 0.500000 0.137795 0.000000
O O13 0.750000 0.250000 0.000000
O O14 0.000000 0.137324 0.000000
O O15 0.350095 0.259668 0.680143
O O16 0.258218 0.291667 0.774577
#
# Coordination Sequence:
#
# PCOD9209420 Si02
#       6
#     8   8   8   8   8   8
#     4  10  21  38  62  90 118 158 200 250 302 362
#     4   9  20  40  63  91 125 165 211 251 308 376
#     4   9  18  32  55  87 119 155 204 261 302 344
#     4  10  22  36  57  84 113 149 190 244 289 364
#     4  11  24  38  60  90 127 160 194 258 314 360
#     4  11  22  38  61  87 123 154 198 246 308 367
#
# _framework density 21.506412999999998
#
# number of rings (size 3 to 8) (size 9 to 14) (size 15 to 20)
#    0.000    2.000    0.000    3.500    4.667    4.667 
#    0.000   10.833    0.000   13.000    0.000    0.000 
#    0.000    0.000    0.000    0.000    0.000    0.000 
#
# Total GULP energy -134102.902413 kJ/mol
# GULP energy per Si atom -5587.620934 kJ/mol
# Density = 2.145746 g / cm^3
# Si number density = 21.506413 Si / 1000 Ang^3
#
#
#
# Elastic Constant Matrix: (Units=GPa)
#
#
# Indices 1 2 3 4 5 6 
#
# 1 123.4550 19.8876 28.1811 0.0000 25.2284 0.0000
# 2 19.8876 60.0013 25.2361 0.0000 9.8608 0.0000
# 3 28.1811 25.2361 122.1211 0.0000 33.3971 0.0000
# 4 0.0000 0.0000 0.0000 18.3768 0.0000 1.2992
# 5 25.2284 9.8608 33.3971 0.0000 27.4082 0.0000
# 6 0.0000 0.0000 0.0000 1.2992 0.0000 15.7099
#
#
#
# Elastic Compliance Matrix: (Units=1/GPa)
#
#
# Indices 1 2 3 4 5 6 
#
# 1 0.010222 -0.002113 0.000664 0.000000 -0.009458 0.000000
# 2 -0.002113 0.018851 -0.003127 0.000000 -0.001027 0.000000
# 3 0.000664 -0.003127 0.012810 0.000000 -0.015095 0.000000
# 4 0.000000 0.000000 0.000000 0.054736 0.000000 -0.004527
# 5 -0.009458 -0.001027 -0.015095 0.000000 0.063954 0.000000
# 6 0.000000 0.000000 0.000000 -0.004527 0.000000 0.064028
#
#
# Mechanical properties :
#
#
# Convention : Reuss Voigt Hill
#
# Bulk Modulus (GPa) = 30.55262 50.24301 40.39782
# Shear Modulus (GPa) = 20.43632 27.78383 24.11008
#
# Velocity S-wave (km/s) = 3.08595 3.59818 3.35186
# Velocity P-wave (km/s) = 5.18985 6.37771 5.81419
#
# Compressibility (1/GPa) = 0.03273041
#
# Stress axis : x y z
#
# Youngs Moduli (GPa) = 97.83171 53.04863 78.06621
#
# Poissons Ratio (x) = 0.11210 -0.05187
# Poissons Ratio (y) = 0.20673 0.24412
# Poissons Ratio (z) = -0.06500 0.16589
#
# Static dielectric constant tensor:
#      x y z
#    x 1.179010 0.000000 -0.205200 
#    y 0.000000 1.747080 0.000000 
#    z -0.205200 0.000000 1.680620 
# 
# From -- ./inp_files/297783.got.cif
#   From: 2010.05.17/outbox.cif.g08.bks.cpg/sg12_149_cif.got.tgz:297783.got - 2010.06.03 13:09:07.
