data_PCOD9209648
_publ_section_title
;
Structure prediction by ZEFSAII (Michael W. Deem and Ramdas Pophale) SiO2 
 PCOD9209648
Probable space group: C 2/M
;
_chemical_formula_sum "Si O2"
_cell_formula_units_Z 64
_cell_length_a 18.355940
_cell_length_b 24.209299
_cell_length_c 16.639342
_cell_angle_alpha 90.000000
_cell_angle_beta 23.106815
_cell_angle_gamma 90.000000
_cell_volume 2901.853449
_symmetry_space_group_name_H-M "C 2/M"
_symmetry_group_IT_number 12
_symmetry_cell_setting 'monoclinic'
loop_
_space_group_symop_operation_xyz
x,y,z
-x,y,-z
-x,-y,-z
x,-y,z
1/2+x,1/2+y,z
1/2-x,1/2+y,-z
1/2-x,1/2-y,-z
1/2+x,1/2-y,z
loop_
_atom_site_type_symbol
_atom_site_label
_atom_site_fract_x
_atom_site_fract_y
_atom_site_fract_z
Si Si1 0.652630 0.342102 0.951196
Si Si2 0.830048 0.759928 0.510183
Si Si3 0.215851 0.649793 0.353532
Si Si4 0.901898 0.439378 0.407246
Si Si5 0.343231 0.436680 0.493134
Si Si6 0.555690 0.846825 0.851632
Si Si7 0.740123 0.722493 0.097573
Si Si8 0.803019 0.065380 0.954196
O O1 0.779332 0.358003 0.746459
O O2 0.699109 0.276905 0.914134
O O3 0.434680 0.346689 0.153082
O O4 0.675162 0.385295 0.002190
O O5 0.750000 0.750000 0.500000
O O6 0.867433 0.703965 0.520069
O O7 0.678701 0.792530 0.713429
O O8 0.023132 0.792661 0.320006
O O9 0.116700 0.601925 0.502056
O O10 0.910433 0.500000 0.433469
O O11 0.724138 0.433767 0.531126
O O12 0.080964 0.433309 0.168394
O O13 0.319727 0.500000 0.545557
O O14 0.562714 0.425199 0.258607
O O15 0.199517 0.395517 0.681603
O O16 0.500000 0.854323 0.000000
O O17 0.374387 0.828598 0.982803
O O18 0.750000 0.750000 0.000000
O O19 0.841407 0.000000 0.940350
#
# Coordination Sequence:
#
# PCOD9209648 Si02
#       8
#     8   8   8   8   8   8   8   8
#     4  11  23  38  63  92 133 175 218 269 327 397
#     4  12  24  43  69  97 131 176 226 274 324 399
#     4  11  22  39  60  92 135 177 214 270 334 388
#     4  10  21  38  63  93 127 172 228 275 323 391
#     4  10  23  44  69  94 127 171 222 281 337 398
#     4  12  27  45  68 103 140 171 221 284 344 406
#     4  12  26  42  69  99 131 180 223 269 329 398
#     4  10  22  39  63  93 123 168 228 278 322 389
#
# _framework density 22.054869
#
# number of rings (size 3 to 8) (size 9 to 14) (size 15 to 20)
#    0.000    1.000    3.750    2.250    3.500    4.250 
#    0.000    2.500    0.000    0.000    0.000    5.250 
#    0.000    0.000    0.000    0.000    0.000    0.000 
#
# Total GULP energy -178459.712303 kJ/mol
# GULP energy per Si atom -5576.866009 kJ/mol
# Density = 2.200467 g / cm^3
# Si number density = 22.054869 Si / 1000 Ang^3
#
#
#
# Elastic Constant Matrix: (Units=GPa)
#
#
# Indices 1 2 3 4 5 6 
#
# 1 34.2820 21.2764 34.1783 -0.0480 2.2241 -0.0148
# 2 21.2764 128.2161 47.3401 -0.0795 23.4663 0.0453
# 3 34.1783 47.3401 141.4574 -0.0865 6.7743 -0.0443
# 4 -0.0480 -0.0795 -0.0865 43.8694 0.0676 -8.0566
# 5 2.2241 23.4663 6.7743 0.0676 39.7336 0.0384
# 6 -0.0148 0.0453 -0.0443 -8.0566 0.0384 -32.6936
#
#
#
# Elastic Compliance Matrix: (Units=1/GPa)
#
#
# Indices 1 2 3 4 5 6 
#
# 1 0.039813 -0.003755 -0.008431 0.000015 0.001426 -0.000014
# 2 -0.003755 0.010258 -0.002264 0.000020 -0.005462 0.000008
# 3 -0.008431 -0.002264 0.009858 0.000003 0.000128 -0.000013
# 4 0.000015 0.000020 0.000003 0.021808 -0.000045 -0.005374
# 5 0.001426 -0.005462 0.000128 -0.000045 0.028292 0.000036
# 6 -0.000014 0.000008 -0.000013 -0.005374 0.000036 -0.029263
#
#
# Mechanical properties :
#
#
# Convention : Reuss Voigt Hill
#
# Bulk Modulus (GPa) = 32.22786 56.61613 44.42200
# Shear Modulus (GPa) = 41.66314 23.59260 32.62787
#
# Velocity S-wave (km/s) = 4.35106 3.27421 3.85046
# Velocity P-wave (km/s) = 6.31558 6.32616 6.32087
#
# Compressibility (1/GPa) = 0.03102905
#
# Stress axis : x y z
#
# Youngs Moduli (GPa) = 25.11717 97.48408 101.44076
#
# Poissons Ratio (x) = 0.36603 0.85528
# Poissons Ratio (y) = 0.09431 0.22968
# Poissons Ratio (z) = 0.21177 0.22072
#
# Static dielectric constant tensor:
#      x y z
#    x 2.895540 0.000030 -0.334490 
#    y 0.000030 1.837740 0.000080 
#    z -0.334490 0.000080 1.897890 
# 
# From -- ./inp_files/286393.got.cif
#   From: 2010.05.17/outbox.cif.g08.bks.cpg/sg12_144_cif.got.tgz:286393.got - 2010.06.03 13:09:07.
