data_PCOD9209710
_publ_section_title
;
Structure prediction by ZEFSAII (Michael W. Deem and Ramdas Pophale) SiO2 
 PCOD9209710
Probable space group: C 2/M
;
_chemical_formula_sum "Si O2"
_cell_formula_units_Z 64
_cell_length_a 17.283334
_cell_length_b 15.318051
_cell_length_c 17.493426
_cell_angle_alpha 90.000000
_cell_angle_beta 41.595219
_cell_angle_gamma 90.000000
_cell_volume 3074.573650
_symmetry_space_group_name_H-M "C 2/M"
_symmetry_group_IT_number 12
_symmetry_cell_setting 'monoclinic'
loop_
_space_group_symop_operation_xyz
x,y,z
-x,y,-z
-x,-y,-z
x,-y,z
1/2+x,1/2+y,z
1/2-x,1/2+y,-z
1/2-x,1/2-y,-z
1/2+x,1/2-y,z
loop_
_atom_site_type_symbol
_atom_site_label
_atom_site_fract_x
_atom_site_fract_y
_atom_site_fract_z
Si Si1 0.065432 0.292915 0.527777
Si Si2 0.102783 0.095039 0.168952
Si Si3 0.819880 0.403637 0.315969
Si Si4 0.916225 0.901859 0.433274
Si Si5 0.733131 0.234680 0.134277
Si Si6 0.958289 0.602950 0.748576
Si Si7 0.725007 0.729663 0.723301
Si Si8 0.973482 0.152803 0.935368
O O1 0.044298 0.188641 0.556012
O O2 0.200132 0.303682 0.403754
O O3 0.000000 0.321548 0.500000
O O4 0.022979 0.348583 0.630513
O O5 0.180749 0.175414 0.141197
O O6 0.076156 0.098646 0.098696
O O7 0.979244 0.102217 0.305096
O O8 0.153871 0.000000 0.150544
O O9 0.811196 0.500000 0.290056
O O10 0.724119 0.398014 0.455282
O O11 0.785021 0.332703 0.280798
O O12 0.948956 0.389004 0.251791
O O13 0.947393 0.000000 0.441422
O O14 0.659931 0.156386 0.149390
O O15 0.715844 0.218112 0.237897
O O16 0.871585 0.224825 0.021511
O O17 0.938166 0.500000 0.748781
O O18 0.596997 0.690483 0.818559
O O19 0.000000 0.112834 0.000000
#
# Coordination Sequence:
#
# PCOD9209710 Si02
#       8
#     8   8   8   8   8   8   8   8
#     4  11  20  36  59  92 127 158 196 243 305 359
#     4  11  22  38  64  92 120 158 202 252 305 356
#     4   9  20  36  58  91 126 161 197 241 300 366
#     4   9  19  34  57  91 127 158 195 239 298 367
#     4  11  22  44  61  88 122 158 207 251 301 353
#     4  11  23  38  60  87 121 161 203 247 300 359
#     4  10  21  38  64  88 119 163 200 245 304 354
#     4  10  24  42  62  84 118 164 208 250 295 352
#
# _framework density 20.815895000000001
#
# number of rings (size 3 to 8) (size 9 to 14) (size 15 to 20)
#    0.000    1.750    2.500    1.125    1.750    2.750 
#    0.000    6.250    0.000    2.250    0.000    0.000 
#    0.000    0.000    0.000    0.000    0.000    0.000 
#
# Total GULP energy -178382.984671 kJ/mol
# GULP energy per Si atom -5574.468271 kJ/mol
# Density = 2.076852 g / cm^3
# Si number density = 20.815895 Si / 1000 Ang^3
#
#
#
# Elastic Constant Matrix: (Units=GPa)
#
#
# Indices 1 2 3 4 5 6 
#
# 1 29.8210 21.0887 5.4393 0.0000 -14.8528 0.0000
# 2 21.0887 91.0211 14.1297 0.0000 -13.3025 0.0000
# 3 5.4393 14.1297 73.8459 0.0000 -11.7625 0.0000
# 4 0.0000 0.0000 0.0000 3.8518 0.0000 -10.9672
# 5 -14.8528 -13.3025 -11.7625 0.0000 28.7335 0.0000
# 6 0.0000 0.0000 0.0000 -10.9672 0.0000 -23.5297
#
#
#
# Elastic Compliance Matrix: (Units=1/GPa)
#
#
# Indices 1 2 3 4 5 6 
#
# 1 0.050765 -0.008662 0.001561 0.000000 0.022870 0.000000
# 2 -0.008662 0.013415 -0.001768 0.000000 0.001010 0.000000
# 3 0.001561 -0.001768 0.014723 0.000000 0.006016 0.000000
# 4 0.000000 0.000000 0.000000 0.111561 0.000000 -0.051999
# 5 0.022870 0.001010 0.006016 0.000000 0.049554 0.000000
# 6 0.000000 0.000000 0.000000 -0.051999 0.000000 -0.018263
#
#
# Mechanical properties :
#
#
# Convention : Reuss Voigt Hill
#
# Bulk Modulus (GPa) = 16.34900 30.66703 23.50801
# Shear Modulus (GPa) = 19.23947 12.07981 15.65964
#
# Velocity S-wave (km/s) = 3.04348 2.41159 2.74577
# Velocity P-wave (km/s) = 4.49683 4.74540 4.62279
#
# Compressibility (1/GPa) = 0.06116582
#
# Stress axis : x y z
#
# Youngs Moduli (GPa) = 19.69876 74.54185 67.91990
#
# Poissons Ratio (x) = 0.64565 -0.10602
# Poissons Ratio (y) = 0.17062 0.12009
# Poissons Ratio (z) = -0.03075 0.13179
#
# Static dielectric constant tensor:
#      x y z
#    x 1.720490 0.000000 -0.005300 
#    y 0.000000 1.741320 0.000000 
#    z -0.005300 0.000000 1.792940 
# 
# From -- ./inp_files/278148.got.cif
#   From: 2010.05.17/outbox.cif.g08.bks.cpg/sg12_140_cif.got.tgz:278148.got - 2010.06.03 13:09:07.
