data_PCOD9209545
_publ_section_title
;
Structure prediction by ZEFSAII (Michael W. Deem and Ramdas Pophale) SiO2 
 PCOD9209545
Probable space group: C 2/M
;
_chemical_formula_sum "Si O2"
_cell_formula_units_Z 64
_cell_length_a 21.816675
_cell_length_b 13.052719
_cell_length_c 31.285018
_cell_angle_alpha 90.000000
_cell_angle_beta 161.918547
_cell_angle_gamma 90.000000
_cell_volume 2765.055881
_symmetry_space_group_name_H-M "C 2/M"
_symmetry_group_IT_number 12
_symmetry_cell_setting 'monoclinic'
loop_
_space_group_symop_operation_xyz
x,y,z
-x,y,-z
-x,-y,-z
x,-y,z
1/2+x,1/2+y,z
1/2-x,1/2+y,-z
1/2-x,1/2-y,-z
1/2+x,1/2-y,z
loop_
_atom_site_type_symbol
_atom_site_label
_atom_site_fract_x
_atom_site_fract_y
_atom_site_fract_z
Si Si1 0.135110 0.181754 0.054641
Si Si2 0.038529 0.298416 0.911440
Si Si3 0.143838 0.115358 0.767242
Si Si4 0.907541 0.677875 0.484210
Si Si5 0.020132 0.203721 0.806040
Si Si6 0.385116 0.614385 0.354552
Si Si7 0.299580 0.119175 0.504511
Si Si8 0.546251 0.114457 0.303533
O O1 0.217985 0.290093 0.128615
O O2 0.318017 0.112221 0.164761
O O3 0.018578 0.214406 0.935319
O O4 0.000000 0.132214 0.000000
O O5 0.036879 0.241785 0.865419
O O6 0.847149 0.369322 0.788217
O O7 0.265816 0.339383 0.066120
O O8 0.938176 0.125496 0.656781
O O9 0.100078 0.120688 0.687411
O O10 0.224659 0.000000 0.828877
O O11 0.680273 0.641142 0.328899
O O12 0.929563 0.650964 0.549741
O O13 0.000000 0.641006 0.500000
O O14 0.982976 0.796490 0.537016
O O15 0.958971 0.304321 0.738023
O O16 0.444556 0.500000 0.406950
O O17 0.348555 0.160238 0.584632
O O18 0.345803 0.000000 0.540893
O O19 0.618768 0.000000 0.340997
#
# Coordination Sequence:
#
# PCOD9209545 Si02
#       8
#     8   8   8   8   8   8   8   8
#     4  11  21  35  62  88 123 165 204 254 310 369
#     4  10  21  40  58  88 127 172 216 257 311 377
#     4  10  21  38  62  95 124 156 207 260 315 380
#     4  12  24  41  66  95 128 170 211 266 321 381
#     4  10  22  40  63  86 125 177 218 261 313 382
#     4  11  23  39  64 100 135 167 209 265 327 389
#     4  10  22  41  66  93 124 159 207 262 316 377
#     4  10  22  39  61  90 122 162 208 256 307 374
#
# _framework density 23.146004999999999
#
# number of rings (size 3 to 8) (size 9 to 14) (size 15 to 20)
#    0.000    1.500    2.500    3.000    0.000    5.000 
#    0.000    0.625    0.000    3.000    0.000    0.000 
#    0.000    0.000    0.000    0.000    0.000    0.000 
#
# Total GULP energy -178438.471564 kJ/mol
# GULP energy per Si atom -5576.202236 kJ/mol
# Density = 2.309332 g / cm^3
# Si number density = 23.146005 Si / 1000 Ang^3
#
#
#
# Elastic Constant Matrix: (Units=GPa)
#
#
# Indices 1 2 3 4 5 6 
#
# 1 116.9937 -16.7738 7.9918 0.0609 12.0952 -0.0181
# 2 -16.7738 62.9693 5.2373 0.0101 1.4239 -0.0008
# 3 7.9918 5.2373 55.9056 0.0484 11.7983 -0.0200
# 4 0.0609 0.0101 0.0484 10.0838 -0.0061 6.7857
# 5 12.0952 1.4239 11.7983 -0.0061 51.9819 0.0074
# 6 -0.0181 -0.0008 -0.0200 6.7857 0.0074 9.5090
#
#
#
# Elastic Compliance Matrix: (Units=1/GPa)
#
#
# Indices 1 2 3 4 5 6 
#
# 1 0.009199 0.002590 -0.001146 -0.000125 -0.001951 0.000106
# 2 0.002590 0.016735 -0.001800 -0.000051 -0.000652 0.000039
# 3 -0.001146 -0.001800 0.019067 -0.000217 -0.004012 0.000196
# 4 -0.000125 -0.000051 -0.000217 0.190792 0.000122 -0.136152
# 5 -0.001951 -0.000652 -0.004012 0.000122 0.020620 -0.000115
# 6 0.000106 0.000039 0.000196 -0.136152 -0.000115 0.202323
#
#
# Mechanical properties :
#
#
# Convention : Reuss Voigt Hill
#
# Bulk Modulus (GPa) = 22.57923 25.41991 23.99957
# Shear Modulus (GPa) = 10.54385 30.27583 20.40984
#
# Velocity S-wave (km/s) = 2.13665 3.62060 2.97271
# Velocity P-wave (km/s) = 3.98288 5.33710 4.70892
#
# Compressibility (1/GPa) = 0.04428848
#
# Stress axis : x y z
#
# Youngs Moduli (GPa) = 108.70911 59.75452 52.44778
#
# Poissons Ratio (x) = -0.15475 0.06009
# Poissons Ratio (y) = -0.28154 0.09442
# Poissons Ratio (z) = 0.12454 0.10757
#
# Static dielectric constant tensor:
#      x y z
#    x 1.926740 0.000010 -0.023960 
#    y 0.000010 1.915220 -0.000030 
#    z -0.023960 -0.000030 1.940340 
# 
# From -- ./inp_files/381523.got.cif
#   From: 2010.05.17/outbox.cif.g08.bks.cpg/sg12_191_cif.got.tgz:381523.got - 2010.06.03 13:09:07.
