data_PCOD9209060
_publ_section_title
;
Structure prediction by ZEFSAII (Michael W. Deem and Ramdas Pophale) SiO2 
 PCOD9209060
Probable space group: C 2/M
;
_chemical_formula_sum "Si O2"
_cell_formula_units_Z 56
_cell_length_a 23.781975
_cell_length_b 14.305758
_cell_length_c 10.349331
_cell_angle_alpha 90.000000
_cell_angle_beta 64.020713
_cell_angle_gamma 90.000000
_cell_volume 3165.248387
_symmetry_space_group_name_H-M "C 2/M"
_symmetry_group_IT_number 12
_symmetry_cell_setting 'monoclinic'
loop_
_space_group_symop_operation_xyz
x,y,z
-x,y,-z
-x,-y,-z
x,-y,z
1/2+x,1/2+y,z
1/2-x,1/2+y,-z
1/2-x,1/2-y,-z
1/2+x,1/2-y,z
loop_
_atom_site_type_symbol
_atom_site_label
_atom_site_fract_x
_atom_site_fract_y
_atom_site_fract_z
Si Si1 0.067109 0.000000 0.266844
Si Si2 0.645446 0.246144 0.869803
Si Si3 0.061783 0.204114 0.187603
Si Si4 0.251707 0.608381 0.135385
Si Si5 0.748653 0.609370 0.175217
Si Si6 0.916627 0.000000 0.450207
Si Si7 0.145135 0.736132 0.338172
Si Si8 0.411664 0.297792 0.347278
O O1 0.082448 0.905322 0.175884
O O2 0.095121 0.000000 0.383492
O O3 0.992253 0.000000 0.361548
O O4 0.693614 0.327747 0.862626
O O5 0.686874 0.152385 0.835485
O O6 0.617918 0.267812 0.757779
O O7 0.591381 0.248959 0.031995
O O8 0.091504 0.249028 0.285644
O O9 0.986943 0.208195 0.264663
O O10 0.261206 0.500000 0.154389
O O11 0.187288 0.647742 0.258741
O O12 0.249931 0.620551 0.981980
O O13 0.741443 0.500000 0.212761
O O14 0.692575 0.675306 0.280480
O O15 0.895265 0.905092 0.402844
O O16 0.114942 0.735879 0.509188
#
# Coordination Sequence:
#
# PCOD9209060 Si02
#       8
#     4   8   8   8   8   4   8   8
#     4   9  18  29  53  79 109 155 193 211 256 334
#     4  11  22  39  57  87 116 150 187 231 290 337
#     4  11  20  36  58  83 116 155 189 227 271 344
#     4  10  21  38  61  85 110 147 194 243 278 322
#     4  10  21  38  63  85 105 147 200 242 275 326
#     4   9  18  33  45  81 119 149 181 217 270 335
#     4  11  20  37  60  87 111 150 192 230 278 337
#     4  11  24  34  55  86 126 149 179 230 289 341
#
# _framework density 17.692135
#
# number of rings (size 3 to 8) (size 9 to 14) (size 15 to 20)
#    0.000    1.571    4.286    1.714    4.000    2.286 
#    0.000    4.286    0.000    5.143    0.000    0.000 
#    0.000    0.000    0.000    0.000    0.000    0.000 
#
# Total GULP energy -156385.604871 kJ/mol
# GULP energy per Si atom -5585.200174 kJ/mol
# Density = 1.765187 g / cm^3
# Si number density = 17.692135 Si / 1000 Ang^3
#
#
#
# Elastic Constant Matrix: (Units=GPa)
#
#
# Indices 1 2 3 4 5 6 
#
# 1 82.6447 21.7146 58.6754 0.0000 -0.4123 0.0000
# 2 21.7146 53.7451 20.1800 0.0000 -3.9214 0.0000
# 3 58.6754 20.1800 82.2432 0.0000 19.0713 0.0000
# 4 0.0000 0.0000 0.0000 19.8268 0.0000 -3.7090
# 5 -0.4123 -3.9214 19.0713 0.0000 22.7608 0.0000
# 6 0.0000 0.0000 0.0000 -3.7090 0.0000 20.1455
#
#
#
# Elastic Compliance Matrix: (Units=1/GPa)
#
#
# Indices 1 2 3 4 5 6 
#
# 1 0.033272 -0.000552 -0.029440 0.000000 0.025176 0.000000
# 2 -0.000552 0.022351 -0.007423 0.000000 0.010061 0.000000
# 3 -0.029440 -0.007423 0.043943 0.000000 -0.038632 0.000000
# 4 0.000000 0.000000 0.000000 0.052236 0.000000 0.009617
# 5 0.025176 0.010061 -0.038632 0.000000 0.078494 0.000000
# 6 0.000000 0.000000 0.000000 0.009617 0.000000 0.051409
#
#
# Mechanical properties :
#
#
# Convention : Reuss Voigt Hill
#
# Bulk Modulus (GPa) = 40.42942 46.64142 43.53542
# Shear Modulus (GPa) = 13.70684 20.41749 17.06216
#
# Velocity S-wave (km/s) = 2.78644 3.40081 3.10884
# Velocity P-wave (km/s) = 5.76659 6.46844 6.12757
#
# Compressibility (1/GPa) = 0.02473447
#
# Stress axis : x y z
#
# Youngs Moduli (GPa) = 30.05496 44.74132 22.75695
#
# Poissons Ratio (x) = 0.02470 0.66997
# Poissons Ratio (y) = 0.01659 0.16893
# Poissons Ratio (z) = 0.88483 0.33213
#
# Static dielectric constant tensor:
#      x y z
#    x 1.592570 0.000000 -0.020930 
#    y 0.000000 1.603190 0.000000 
#    z -0.020930 0.000000 1.595320 
# 
# From -- ./inp_files/96817.got.cif
#   From: 2010.05.17/outbox.cif.g08.bks.cpg/sg12_49_cif.got.tgz:96817.got - 2010.06.03 13:09:07.
