data_PCOD9209069
_publ_section_title
;
Structure prediction by ZEFSAII (Michael W. Deem and Ramdas Pophale) SiO2 
 PCOD9209069
Probable space group: C 2/M
;
_chemical_formula_sum "Si O2"
_cell_formula_units_Z 50
_cell_length_a 33.151623
_cell_length_b 10.263736
_cell_length_c 13.524289
_cell_angle_alpha 90.000000
_cell_angle_beta 36.712667
_cell_angle_gamma 90.000000
_cell_volume 2750.947847
_symmetry_space_group_name_H-M "C 2/M"
_symmetry_group_IT_number 12
_symmetry_cell_setting 'monoclinic'
loop_
_space_group_symop_operation_xyz
x,y,z
-x,y,-z
-x,-y,-z
x,-y,z
1/2+x,1/2+y,z
1/2-x,1/2+y,-z
1/2-x,1/2-y,-z
1/2+x,1/2-y,z
loop_
_atom_site_type_symbol
_atom_site_label
_atom_site_fract_x
_atom_site_fract_y
_atom_site_fract_z
Si Si1 0.135466 0.343529 0.600344
Si Si2 0.503596 0.150599 0.749530
Si Si3 0.087354 0.756625 0.906882
Si Si4 0.500000 0.500000 0.000000
Si Si5 0.292973 0.347183 0.982188
Si Si6 0.450538 0.350029 0.690614
Si Si7 0.779794 0.844029 0.241072
O O1 0.137063 0.500000 0.596731
O O2 0.110991 0.297637 0.755086
O O3 0.210135 0.295458 0.426496
O O4 0.079298 0.305825 0.629748
O O5 0.472132 0.247692 0.731394
O O6 0.504162 0.000000 0.715266
O O7 0.460095 0.162827 0.935390
O O8 0.154259 0.784136 0.839081
O O9 0.044692 0.886022 0.968492
O O10 0.277458 0.500000 0.992632
O O11 0.278712 0.321352 0.125890
O O12 0.250000 0.250000 0.000000
O O13 0.373217 0.328320 0.810557
O O14 0.500000 0.338667 0.500000
O O15 0.454337 0.500000 0.721085
O O16 0.783610 0.000000 0.248072
#
# Coordination Sequence:
#
# PCOD9209069 Si02
#       7
#     8   8   8   2   8   8   8
#     4  10  22  38  57  86 121 160 196 244 299 360
#     4  11  23  38  62  89 122 157 202 249 304 361
#     4  12  21  39  60  88 123 156 208 246 303 353
#     4  12  24  32  66  92 114 168 212 258 290 368
#     4  10  22  41  64  88 119 157 199 249 305 364
#     4  10  23  42  65  90 119 157 201 256 312 360
#     4  10  21  38  61  85 119 160 197 241 305 363
#
# _framework density 18.175553000000001
#
# number of rings (size 3 to 8) (size 9 to 14) (size 15 to 20)
#    0.000    1.440    4.000    0.960    3.360    2.240 
#    0.000    0.000    1.760    0.000    0.000    0.000 
#    0.000    0.000    0.000    0.000    0.000    0.000 
#
# Total GULP energy -139323.442324 kJ/mol
# GULP energy per Si atom -5572.937693 kJ/mol
# Density = 1.813419 g / cm^3
# Si number density = 18.175553 Si / 1000 Ang^3
#
#
#
# Elastic Constant Matrix: (Units=GPa)
#
#
# Indices 1 2 3 4 5 6 
#
# 1 126.2596 65.2553 24.2648 0.0000 -15.8741 0.0000
# 2 65.2553 64.4232 20.2854 0.0000 -7.0808 0.0000
# 3 24.2648 20.2854 72.1995 0.0000 -7.3983 0.0000
# 4 0.0000 0.0000 0.0000 9.6395 0.0000 -8.5110
# 5 -15.8741 -7.0808 -7.3983 0.0000 21.7612 0.0000
# 6 0.0000 0.0000 0.0000 -8.5110 0.0000 31.2544
#
#
#
# Elastic Compliance Matrix: (Units=1/GPa)
#
#
# Indices 1 2 3 4 5 6 
#
# 1 0.017695 -0.016992 -0.000432 0.000000 0.007232 0.000000
# 2 -0.016992 0.033700 -0.004045 0.000000 -0.002805 0.000000
# 3 -0.000432 -0.004045 0.015505 0.000000 0.003640 0.000000
# 4 0.000000 0.000000 0.000000 0.136577 0.000000 0.037192
# 5 0.007232 -0.002805 0.003640 0.000000 0.051554 0.000000
# 6 0.000000 0.000000 0.000000 0.037192 0.000000 0.042123
#
#
# Mechanical properties :
#
#
# Convention : Reuss Voigt Hill
#
# Bulk Modulus (GPa) = 41.73374 53.61037 47.67206
# Shear Modulus (GPa) = 14.36460 22.73615 18.55037
#
# Velocity S-wave (km/s) = 2.81432 3.54067 3.19818
# Velocity P-wave (km/s) = 5.79412 6.80258 6.31850
#
# Compressibility (1/GPa) = 0.02396143
#
# Stress axis : x y z
#
# Youngs Moduli (GPa) = 56.51429 29.67391 64.49507
#
# Poissons Ratio (x) = 0.50423 0.02783
# Poissons Ratio (y) = 0.96032 0.26088
# Poissons Ratio (z) = 0.02439 0.12003
#
# Static dielectric constant tensor:
#      x y z
#    x 1.602360 0.000000 -0.011970 
#    y 0.000000 1.602620 0.000000 
#    z -0.011970 0.000000 1.634560 
# 
# From -- ./inp_files/188614.got.cif
#   From: 2010.05.17/outbox.cif.g08.bks.cpg/sg12_95_cif.got.tgz:188614.got - 2010.06.03 13:09:07.
