data_PCOD9209685
_publ_section_title
;
Structure prediction by ZEFSAII (Michael W. Deem and Ramdas Pophale) SiO2 
 PCOD9209685
Probable space group: C 2/M
;
_chemical_formula_sum "Si O2"
_cell_formula_units_Z 64
_cell_length_a 17.143252
_cell_length_b 14.961576
_cell_length_c 15.227683
_cell_angle_alpha 90.000000
_cell_angle_beta 132.378292
_cell_angle_gamma 90.000000
_cell_volume 2885.219158
_symmetry_space_group_name_H-M "C 2/M"
_symmetry_group_IT_number 12
_symmetry_cell_setting 'monoclinic'
loop_
_space_group_symop_operation_xyz
x,y,z
-x,y,-z
-x,-y,-z
x,-y,z
1/2+x,1/2+y,z
1/2-x,1/2+y,-z
1/2-x,1/2-y,-z
1/2+x,1/2-y,z
loop_
_atom_site_type_symbol
_atom_site_label
_atom_site_fract_x
_atom_site_fract_y
_atom_site_fract_z
Si Si1 0.288132 0.802119 0.362599
Si Si2 0.826116 0.665311 0.062933
Si Si3 0.422882 0.604998 0.858782
Si Si4 0.510220 0.703712 0.768208
Si Si5 0.311925 0.597211 0.189203
Si Si6 0.232026 0.098353 0.643266
Si Si7 0.377924 0.853374 0.602900
Si Si8 0.395624 0.901256 0.296791
O O1 0.178607 0.829654 0.230385
O O2 0.310145 0.698965 0.403398
O O3 0.297463 0.855833 0.460724
O O4 0.375578 0.833542 0.359787
O O5 0.939452 0.712316 0.140031
O O6 0.824701 0.620554 0.157465
O O7 0.750000 0.750000 0.000000
O O8 0.780976 0.604264 0.952699
O O9 0.392495 0.500000 0.841486
O O10 0.487204 0.625218 0.818396
O O11 0.500000 0.624569 0.000000
O O12 0.597359 0.669912 0.764265
O O13 0.408934 0.750512 0.649167
O O14 0.363710 0.500000 0.222249
O O15 0.259197 0.603155 0.244591
O O16 0.332996 0.101368 0.655965
O O17 0.179906 0.000000 0.586302
O O18 0.485783 0.895216 0.648745
O O19 0.372010 0.000000 0.311746
#
# Coordination Sequence:
#
# PCOD9209685 Si02
#       8
#     8   8   8   8   8   8   8   8
#     4  12  25  46  70  97 137 181 227 281 350 408
#     4   9  19  35  62  91 127 177 220 272 332 395
#     4  11  26  42  66 104 140 178 227 285 349 417
#     4  10  21  40  65  93 134 176 223 278 340 397
#     4  10  21  38  63  95 132 178 227 273 328 402
#     4  11  24  42  66  96 131 176 231 281 332 399
#     4  11  24  45  68  98 134 177 229 280 342 408
#     4  11  24  41  68 104 136 174 230 289 346 410
#
# _framework density 22.182024999999999
#
# number of rings (size 3 to 8) (size 9 to 14) (size 15 to 20)
#    0.000    1.375    1.250    4.500    5.250    2.500 
#    0.000    2.500    0.000   10.125    0.000    0.000 
#    0.000    0.000    0.000    0.000    0.000    0.000 
#
# Total GULP energy -178360.011793 kJ/mol
# GULP energy per Si atom -5573.750369 kJ/mol
# Density = 2.213154 g / cm^3
# Si number density = 22.182025 Si / 1000 Ang^3
#
#
#
# Elastic Constant Matrix: (Units=GPa)
#
#
# Indices 1 2 3 4 5 6 
#
# 1 110.7535 27.3468 24.0391 0.0000 -28.1606 0.0000
# 2 27.3468 115.5293 20.9398 0.0000 -7.7761 0.0000
# 3 24.0391 20.9398 94.7763 0.0000 -11.9256 0.0000
# 4 0.0000 0.0000 0.0000 5.4536 0.0000 -4.4720
# 5 -28.1606 -7.7761 -11.9256 0.0000 18.1987 0.0000
# 6 0.0000 0.0000 0.0000 -4.4720 0.0000 29.2639
#
#
#
# Elastic Compliance Matrix: (Units=1/GPa)
#
#
# Indices 1 2 3 4 5 6 
#
# 1 0.015397 -0.002014 -0.000622 0.000000 0.022557 0.000000
# 2 -0.002014 0.009411 -0.001585 0.000000 -0.000133 0.000000
# 3 -0.000622 -0.001585 0.011828 0.000000 0.006111 0.000000
# 4 0.000000 0.000000 0.000000 0.209636 0.000000 0.032036
# 5 0.022557 -0.000133 0.006111 0.000000 0.093801 0.000000
# 6 0.000000 0.000000 0.000000 0.032036 0.000000 0.039067
#
#
# Mechanical properties :
#
#
# Convention : Reuss Voigt Hill
#
# Bulk Modulus (GPa) = 35.46879 51.74561 43.60720
# Shear Modulus (GPa) = 12.59511 27.16545 19.88028
#
# Velocity S-wave (km/s) = 2.38546 3.50331 2.99696
# Velocity P-wave (km/s) = 4.85920 6.30418 5.62825
#
# Compressibility (1/GPa) = 0.02819380
#
# Stress axis : x y z
#
# Youngs Moduli (GPa) = 64.94939 106.26106 84.54413
#
# Poissons Ratio (x) = 0.21396 0.05259
# Poissons Ratio (y) = 0.13078 0.13403
# Poissons Ratio (z) = 0.04040 0.16846
#
# Static dielectric constant tensor:
#      x y z
#    x 1.859880 0.000000 0.054230 
#    y 0.000000 1.896020 0.000000 
#    z 0.054230 0.000000 1.882450 
# 
# From -- ./inp_files/225757.got.cif
#   From: 2010.05.17/outbox.cif.g08.bks.cpg/sg12_113_cif.got.tgz:225757.got - 2010.06.03 13:09:07.
