data_PCOD9209651
_publ_section_title
;
Structure prediction by ZEFSAII (Michael W. Deem and Ramdas Pophale) SiO2 
 PCOD9209651
Probable space group: C 2/M
;
_chemical_formula_sum "Si O2"
_cell_formula_units_Z 64
_cell_length_a 10.208170
_cell_length_b 25.402919
_cell_length_c 19.239453
_cell_angle_alpha 90.000000
_cell_angle_beta 141.693949
_cell_angle_gamma 90.000000
_cell_volume 3092.567494
_symmetry_space_group_name_H-M "C 2/M"
_symmetry_group_IT_number 12
_symmetry_cell_setting 'monoclinic'
loop_
_space_group_symop_operation_xyz
x,y,z
-x,y,-z
-x,-y,-z
x,-y,z
1/2+x,1/2+y,z
1/2-x,1/2+y,-z
1/2-x,1/2-y,-z
1/2+x,1/2-y,z
loop_
_atom_site_type_symbol
_atom_site_label
_atom_site_fract_x
_atom_site_fract_y
_atom_site_fract_z
Si Si1 0.310735 0.703419 0.875284
Si Si2 0.873761 0.214853 0.313224
Si Si3 0.464637 0.868895 0.803059
Si Si4 0.419527 0.371203 0.798378
Si Si5 0.236534 0.292551 0.611589
Si Si6 0.471961 0.938479 0.407929
Si Si7 0.741721 0.562672 0.594540
Si Si8 0.170158 0.438861 0.009282
O O1 0.210614 0.745656 0.781595
O O2 0.414326 0.658941 0.869344
O O3 0.130805 0.675456 0.846495
O O4 0.500000 0.726794 0.000000
O O5 0.742042 0.161105 0.253859
O O6 0.815501 0.240566 0.363767
O O7 0.123012 0.211505 0.399544
O O8 0.387372 0.903953 0.706281
O O9 0.572757 0.906840 0.904172
O O10 0.382735 0.328580 0.722292
O O11 0.624234 0.407361 0.879334
O O12 0.212814 0.406711 0.705145
O O13 0.000000 0.314113 0.500000
O O14 0.500000 0.926720 0.500000
O O15 0.683620 0.928800 0.452995
O O16 0.420341 0.000000 0.380753
O O17 0.500000 0.578923 0.500000
O O18 0.758299 0.500000 0.617189
O O19 0.218425 0.500000 0.011616
O O20 0.000000 0.439053 0.000000
#
# Coordination Sequence:
#
# PCOD9209651 Si02
#       8
#     8   8   8   8   8   8   8   8
#     4  11  23  43  66  96 128 170 224 284 326 410
#     4  11  25  43  67  96 132 176 221 282 342 399
#     4  12  23  44  70  98 134 178 230 274 350 398
#     4  11  22  40  64  92 130 170 222 269 338 393
#     4  11  24  42  65  95 133 173 225 277 339 403
#     4  10  21  38  63  93 128 171 219 275 336 398
#     4  10  23  42  66  99 136 177 226 277 334 407
#     4  11  25  43  66 100 138 176 226 285 342 407
#
# _framework density 20.694779
#
# number of rings (size 3 to 8) (size 9 to 14) (size 15 to 20)
#    0.000    1.125    3.750    2.250    0.000    5.500 
#    0.000    3.125    0.000    0.000    0.000    0.000 
#    0.000    0.000    0.000    0.000    0.000    0.000 
#
# Total GULP energy -178843.938275 kJ/mol
# GULP energy per Si atom -5588.873071 kJ/mol
# Density = 2.064768 g / cm^3
# Si number density = 20.694779 Si / 1000 Ang^3
#
#
#
# Elastic Constant Matrix: (Units=GPa)
#
#
# Indices 1 2 3 4 5 6 
#
# 1 81.7937 23.0040 8.6163 -0.0011 15.9276 -0.0015
# 2 23.0040 60.7192 9.7440 -0.0005 4.9978 -0.0005
# 3 8.6163 9.7440 46.6167 -0.0050 3.9809 -0.0077
# 4 -0.0011 -0.0005 -0.0050 21.2580 -0.0006 3.6662
# 5 15.9276 4.9978 3.9809 -0.0006 34.5091 -0.0013
# 6 -0.0015 -0.0005 -0.0077 3.6662 -0.0013 24.5353
#
#
#
# Elastic Compliance Matrix: (Units=1/GPa)
#
#
# Indices 1 2 3 4 5 6 
#
# 1 0.014923 -0.004964 -0.001206 0.000000 -0.006030 0.000000
# 2 -0.004964 0.018841 -0.003013 0.000000 -0.000090 -0.000001
# 3 -0.001206 -0.003013 0.022440 0.000004 -0.001596 0.000006
# 4 0.000000 0.000000 0.000004 0.048285 0.000000 -0.007215
# 5 -0.006030 -0.000090 -0.001596 0.000000 0.031958 0.000001
# 6 0.000000 -0.000001 0.000006 -0.007215 0.000001 0.041836
#
#
# Mechanical properties :
#
#
# Convention : Reuss Voigt Hill
#
# Bulk Modulus (GPa) = 26.42779 30.20647 28.31713
# Shear Modulus (GPa) = 23.89349 25.91150 24.90249
#
# Velocity S-wave (km/s) = 3.40158 3.54231 3.47266
# Velocity P-wave (km/s) = 5.31278 5.59987 5.45821
#
# Compressibility (1/GPa) = 0.03783896
#
# Stress axis : x y z
#
# Youngs Moduli (GPa) = 67.01006 53.07624 44.56231
#
# Poissons Ratio (x) = 0.26347 0.05373
# Poissons Ratio (y) = 0.33263 0.13427
# Poissons Ratio (z) = 0.08080 0.15992
#
# Static dielectric constant tensor:
#      x y z
#    x 1.744990 0.000000 0.011940 
#    y 0.000000 1.752900 0.000000 
#    z 0.011940 0.000000 1.697260 
# 
# From -- ./inp_files/260380.got.cif
#   From: 2010.05.17/outbox.cif.g08.bks.cpg/sg12_131_cif.got.tgz:260380.got - 2010.06.03 13:09:07.
