data_PCOD9209167
_publ_section_title
;
Structure prediction by ZEFSAII (Michael W. Deem and Ramdas Pophale) SiO2 
 PCOD9209167
Probable space group: C 2/M
;
_chemical_formula_sum "Si O2"
_cell_formula_units_Z 48
_cell_length_a 29.030068
_cell_length_b 8.506464
_cell_length_c 10.394564
_cell_angle_alpha 90.000000
_cell_angle_beta 90.379760
_cell_angle_gamma 90.000000
_cell_volume 2566.810809
_symmetry_space_group_name_H-M "C 2/M"
_symmetry_group_IT_number 12
_symmetry_cell_setting 'monoclinic'
loop_
_space_group_symop_operation_xyz
x,y,z
-x,y,-z
-x,-y,-z
x,-y,z
1/2+x,1/2+y,z
1/2-x,1/2+y,-z
1/2-x,1/2-y,-z
1/2+x,1/2-y,z
loop_
_atom_site_type_symbol
_atom_site_label
_atom_site_fract_x
_atom_site_fract_y
_atom_site_fract_z
Si Si1 0.026892 0.809339 0.129832
Si Si2 0.529674 0.691250 0.622210
Si Si3 0.374973 0.189060 0.776231
Si Si4 0.222439 0.312935 0.622198
Si Si5 0.627532 0.689418 0.518802
Si Si6 0.274724 0.187985 0.872542
O O1 0.078468 0.745701 0.152483
O O2 0.995157 0.756790 0.248755
O O3 0.029973 0.000000 0.131424
O O4 0.000000 0.763012 0.000000
O O5 0.500000 0.743405 0.500000
O O6 0.470877 0.500000 0.375651
O O7 0.581649 0.738289 0.594145
O O8 0.374155 0.253369 0.629495
O O9 0.327762 0.240295 0.847548
O O10 0.374987 0.000000 0.770025
O O11 0.225528 0.500000 0.627906
O O12 0.250000 0.250000 0.500000
O O13 0.170672 0.259015 0.594716
O O14 0.244876 0.241835 0.749933
O O15 0.630269 0.500000 0.516186
O O16 0.275451 0.000000 0.878315
O O17 0.250000 0.250000 0.000000
#
# Coordination Sequence:
#
# PCOD9209167 Si02
#       6
#     8   8   8   8   8   8
#     4  10  21  38  61  88 119 159 205 250 301 368
#     4   9  17  33  57  87 118 151 198 250 295 354
#     4  11  23  39  61  89 123 159 201 254 314 376
#     4  12  24  40  63  93 127 164 210 258 309 370
#     4  11  21  36  63  91 122 163 208 258 310 362
#     4  11  25  44  65  92 127 165 208 260 317 379
#
# _framework density 18.70025
#
# number of rings (size 3 to 8) (size 9 to 14) (size 15 to 20)
#    0.000    1.333    3.333    3.000    0.000    3.667 
#    0.000    4.167    0.000    0.000    0.000    0.000 
#    0.000    0.000    0.000    0.000    0.000    0.000 
#
# Total GULP energy -134071.504890 kJ/mol
# GULP energy per Si atom -5586.312704 kJ/mol
# Density = 1.865769 g / cm^3
# Si number density = 18.700250 Si / 1000 Ang^3
#
#
#
# Elastic Constant Matrix: (Units=GPa)
#
#
# Indices 1 2 3 4 5 6 
#
# 1 207.4012 35.3673 107.4575 0.0000 -6.3378 0.0000
# 2 35.3673 49.8601 31.6168 0.0000 -5.3135 0.0000
# 3 107.4575 31.6168 180.0500 0.0000 -4.7721 0.0000
# 4 0.0000 0.0000 0.0000 24.5486 0.0000 4.1413
# 5 -6.3378 -5.3135 -4.7721 0.0000 30.0965 0.0000
# 6 0.0000 0.0000 0.0000 4.1413 0.0000 33.4827
#
#
#
# Elastic Compliance Matrix: (Units=1/GPa)
#
#
# Indices 1 2 3 4 5 6 
#
# 1 0.007299 -0.002672 -0.003875 0.000000 0.000451 0.000000
# 2 -0.002672 0.023893 -0.002515 0.000000 0.003257 0.000000
# 3 -0.003875 -0.002515 0.008310 0.000000 0.000058 0.000000
# 4 0.000000 0.000000 0.000000 0.041604 0.000000 -0.005146
# 5 0.000451 0.003257 0.000058 0.000000 0.033906 0.000000
# 6 0.000000 0.000000 0.000000 -0.005146 0.000000 0.030503
#
#
# Mechanical properties :
#
#
# Convention : Reuss Voigt Hill
#
# Bulk Modulus (GPa) = 46.77595 87.35495 67.06545
# Shear Modulus (GPa) = 29.28054 35.15022 32.21538
#
# Velocity S-wave (km/s) = 3.96129 4.34021 4.15507
# Velocity P-wave (km/s) = 6.78161 8.48123 7.67859
#
# Compressibility (1/GPa) = 0.02137851
#
# Stress axis : x y z
#
# Youngs Moduli (GPa) = 137.01295 41.85317 120.34200
#
# Poissons Ratio (x) = 0.11183 0.46630
# Poissons Ratio (y) = 0.36610 0.30261
# Poissons Ratio (z) = 0.53090 0.10524
#
# Static dielectric constant tensor:
#      x y z
#    x 1.615750 0.000000 -0.016970 
#    y 0.000000 1.640060 0.000000 
#    z -0.016970 0.000000 1.627160 
# 
# From -- ./inp_files/108611.got.cif
#   From: 2010.05.17/outbox.cif.g08.bks.cpg/sg12_55_cif.got.tgz:108611.got - 2010.06.03 13:09:07.
