data_PCOD9209144
_publ_section_title
;
Structure prediction by ZEFSAII (Michael W. Deem and Ramdas Pophale) SiO2 
 PCOD9209144
Probable space group: C 2/M
;
_chemical_formula_sum "Si O2"
_cell_formula_units_Z 64
_cell_length_a 12.980212
_cell_length_b 14.710692
_cell_length_c 26.579168
_cell_angle_alpha 90.000000
_cell_angle_beta 137.857162
_cell_angle_gamma 90.000000
_cell_volume 3405.388066
_symmetry_space_group_name_H-M "C 2/M"
_symmetry_group_IT_number 12
_symmetry_cell_setting 'monoclinic'
loop_
_space_group_symop_operation_xyz
x,y,z
-x,y,-z
-x,-y,-z
x,-y,z
1/2+x,1/2+y,z
1/2-x,1/2+y,-z
1/2-x,1/2-y,-z
1/2+x,1/2-y,z
loop_
_atom_site_type_symbol
_atom_site_label
_atom_site_fract_x
_atom_site_fract_y
_atom_site_fract_z
Si Si1 0.915466 0.285152 0.169215
Si Si2 0.986165 0.903875 0.434588
Si Si3 0.445795 0.894258 0.077149
Si Si4 0.691239 0.160861 0.450533
Si Si5 0.215950 0.277250 0.343991
Si Si6 0.081652 0.785623 0.083435
Si Si7 0.091142 0.605385 0.585058
Si Si8 0.110699 0.105826 0.904276
O O1 0.920606 0.353882 0.123793
O O2 0.761219 0.304411 0.144005
O O3 0.902308 0.181363 0.143969
O O4 0.068721 0.294272 0.256940
O O5 0.869699 0.825233 0.377499
O O6 0.000000 0.897310 0.500000
O O7 0.163230 0.902066 0.483262
O O8 0.914623 0.000000 0.394645
O O9 0.554155 0.819007 0.090468
O O10 0.496560 0.000000 0.095407
O O11 0.283311 0.890072 0.989068
O O12 0.750000 0.250000 0.500000
O O13 0.686865 0.182906 0.389474
O O14 0.531212 0.126864 0.415037
O O15 0.263919 0.171936 0.362592
O O16 0.000842 0.853884 0.093088
O O17 0.000000 0.796947 0.000000
O O18 0.133835 0.500000 0.602246
O O19 0.000000 0.623777 0.500000
O O20 0.077912 0.000000 0.879956
#
# Coordination Sequence:
#
# PCOD9209144 Si02
#       8
#     8   8   8   8   8   8   8   8
#     4  11  23  39  58  85 124 155 195 248 305 353
#     4   9  18  35  59  84 110 146 195 240 284 344
#     4  10  21  38  61  88 115 151 198 247 297 355
#     4  11  19  37  63  88 114 153 202 242 287 350
#     4  11  23  38  59  85 121 160 190 245 307 354
#     4  11  19  37  61  89 116 155 201 247 292 350
#     4  11  22  39  63  90 118 155 201 246 290 349
#     4  10  21  38  62  87 115 154 200 246 295 354
#
# _framework density 18.793745999999999
#
# number of rings (size 3 to 8) (size 9 to 14) (size 15 to 20)
#    0.000    1.500    5.000    1.500    0.000    5.000 
#    0.000    0.000    0.000    0.000    0.000    0.000 
#    0.000    0.000    0.000    0.000    0.000    0.000 
#
# Total GULP energy -178463.721711 kJ/mol
# GULP energy per Si atom -5576.991303 kJ/mol
# Density = 1.875097 g / cm^3
# Si number density = 18.793746 Si / 1000 Ang^3
#
#
#
# Elastic Constant Matrix: (Units=GPa)
#
#
# Indices 1 2 3 4 5 6 
#
# 1 50.8935 -17.3463 8.9816 0.0000 8.5033 0.0000
# 2 -17.3463 61.0891 18.0121 0.0000 -3.5169 0.0000
# 3 8.9816 18.0121 79.9234 0.0000 7.2067 0.0000
# 4 0.0000 0.0000 0.0000 6.4836 0.0000 1.1925
# 5 8.5033 -3.5169 7.2067 0.0000 19.8511 0.0000
# 6 0.0000 0.0000 0.0000 1.1925 0.0000 11.5288
#
#
#
# Elastic Compliance Matrix: (Units=1/GPa)
#
#
# Indices 1 2 3 4 5 6 
#
# 1 0.024145 0.007510 -0.003715 0.000000 -0.007663 0.000000
# 2 0.007510 0.020304 -0.005639 0.000000 0.002427 0.000000
# 3 -0.003715 -0.005639 0.014626 0.000000 -0.004717 0.000000
# 4 0.000000 0.000000 0.000000 0.157227 0.000000 -0.016263
# 5 -0.007663 0.002427 -0.004717 0.000000 0.055800 0.000000
# 6 0.000000 0.000000 0.000000 -0.016263 0.000000 0.088421
#
#
# Mechanical properties :
#
#
# Convention : Reuss Voigt Hill
#
# Bulk Modulus (GPa) = 18.05468 23.46675 20.76071
# Shear Modulus (GPa) = 13.06599 19.72326 16.39462
#
# Velocity S-wave (km/s) = 2.63958 3.24305 2.95675
# Velocity P-wave (km/s) = 4.34942 5.15138 4.76729
#
# Compressibility (1/GPa) = 0.05538731
#
# Stress axis : x y z
#
# Youngs Moduli (GPa) = 41.41728 49.25054 68.37318
#
# Poissons Ratio (x) = -0.36987 0.25399
# Poissons Ratio (y) = -0.31104 0.38554
# Poissons Ratio (z) = 0.15386 0.27771
#
# Static dielectric constant tensor:
#      x y z
#    x 1.669710 0.000000 0.006760 
#    y 0.000000 2.797970 0.000000 
#    z 0.006760 0.000000 1.615050 
# 
# From -- ./inp_files/358493.got.cif
#   From: 2010.05.17/outbox.cif.g08.bks.cpg/sg12_180_cif.got.tgz:358493.got - 2010.06.03 13:09:07.
