data_PCOD9209421
_publ_section_title
;
Structure prediction by ZEFSAII (Michael W. Deem and Ramdas Pophale) SiO2 
 PCOD9209421
Probable space group: C 2/M
;
_chemical_formula_sum "Si O2"
_cell_formula_units_Z 48
_cell_length_a 22.121365
_cell_length_b 9.522426
_cell_length_c 10.938993
_cell_angle_alpha 90.000000
_cell_angle_beta 73.156926
_cell_angle_gamma 90.000000
_cell_volume 2205.439090
_symmetry_space_group_name_H-M "C 2/M"
_symmetry_group_IT_number 12
_symmetry_cell_setting 'monoclinic'
loop_
_space_group_symop_operation_xyz
x,y,z
-x,y,-z
-x,-y,-z
x,-y,z
1/2+x,1/2+y,z
1/2-x,1/2+y,-z
1/2-x,1/2-y,-z
1/2+x,1/2-y,z
loop_
_atom_site_type_symbol
_atom_site_label
_atom_site_fract_x
_atom_site_fract_y
_atom_site_fract_z
Si Si1 0.249908 0.155128 0.800772
Si Si2 0.134800 0.840653 0.365966
Si Si3 0.923546 0.656378 0.200320
Si Si4 0.623419 0.331617 0.996729
Si Si5 0.182881 0.217257 0.597892
Si Si6 0.555278 0.833070 0.252249
O O1 0.303864 0.265164 0.731763
O O2 0.198247 0.196286 0.932359
O O3 0.204655 0.140360 0.707920
O O4 0.276840 0.000000 0.811772
O O5 0.145149 0.845528 0.505850
O O6 0.075602 0.744412 0.364294
O O7 0.128561 0.000000 0.324254
O O8 0.930928 0.500000 0.142700
O O9 0.913940 0.768043 0.098030
O O10 0.861494 0.661794 0.321734
O O11 0.983871 0.687747 0.248394
O O12 0.614811 0.500000 0.011450
O O13 0.598093 0.245356 0.126302
O O14 0.250000 0.250000 0.500000
O O15 0.566386 0.000000 0.252332
#
# Coordination Sequence:
#
# PCOD9209421 Si02
#       6
#     8   8   8   8   8   8
#     4   9  19  37  61  88 116 149 192 239 291 349
#     4  11  23  38  58  86 120 156 195 241 293 344
#     4  10  22  40  63  88 115 153 198 240 284 343
#     4  10  21  38  62  90 119 151 191 243 296 343
#     4   9  20  37  61  89 115 144 185 238 291 341
#     4  11  24  40  58  83 118 160 200 237 285 346
#
# _framework density 21.764374
#
# number of rings (size 3 to 8) (size 9 to 14) (size 15 to 20)
#    0.000    2.000    0.000    2.500    0.000   15.333 
#    0.000    2.500    0.000    0.000    0.000    0.000 
#    0.000    0.000    0.000    0.000    0.000    0.000 
#
# Total GULP energy -133852.382308 kJ/mol
# GULP energy per Si atom -5577.182596 kJ/mol
# Density = 2.171484 g / cm^3
# Si number density = 21.764374 Si / 1000 Ang^3
#
#
#
# Elastic Constant Matrix: (Units=GPa)
#
#
# Indices 1 2 3 4 5 6 
#
# 1 101.4975 48.6610 21.8566 0.0000 26.5644 0.0000
# 2 48.6610 126.3231 9.0457 0.0000 10.9685 0.0000
# 3 21.8566 9.0457 47.3734 0.0000 0.6727 0.0000
# 4 0.0000 0.0000 0.0000 15.3584 0.0000 -2.8459
# 5 26.5644 10.9685 0.6727 0.0000 29.2299 0.0000
# 6 0.0000 0.0000 0.0000 -2.8459 0.0000 20.8598
#
#
#
# Elastic Compliance Matrix: (Units=1/GPa)
#
#
# Indices 1 2 3 4 5 6 
#
# 1 0.017298 -0.004985 -0.006834 0.000000 -0.013692 0.000000
# 2 -0.004985 0.009730 0.000430 0.000000 0.000869 0.000000
# 3 -0.006834 0.000430 0.024102 0.000000 0.005495 0.000000
# 4 0.000000 0.000000 0.000000 0.066800 0.000000 0.009113
# 5 -0.013692 0.000869 0.005495 0.000000 0.046203 0.000000
# 6 0.000000 0.000000 0.000000 0.009113 0.000000 0.049182
#
#
# Mechanical properties :
#
#
# Convention : Reuss Voigt Hill
#
# Bulk Modulus (GPa) = 35.27267 48.25786 41.76527
# Shear Modulus (GPa) = 20.36294 26.13168 23.24731
#
# Velocity S-wave (km/s) = 3.06209 3.46882 3.27178
# Velocity P-wave (km/s) = 5.36131 6.18584 5.78828
#
# Compressibility (1/GPa) = 0.02835056
#
# Stress axis : x y z
#
# Youngs Moduli (GPa) = 57.81090 102.77237 41.49039
#
# Poissons Ratio (x) = 0.51232 0.28356
# Poissons Ratio (y) = 0.28819 -0.01783
# Poissons Ratio (z) = 0.39510 -0.04415
#
# Static dielectric constant tensor:
#      x y z
#    x 1.828830 0.000000 -0.006100 
#    y 0.000000 1.762850 0.000000 
#    z -0.006100 0.000000 1.920400 
# 
# From -- ./inp_files/172853.got.cif
#   From: 2010.05.17/outbox.cif.g08.bks.cpg/sg12_87_cif.got.tgz:172853.got - 2010.06.03 13:09:07.
