data_PCOD9209149
_publ_section_title
;
Structure prediction by ZEFSAII (Michael W. Deem and Ramdas Pophale) SiO2 
 PCOD9209149
Probable space group: C 2/M
;
_chemical_formula_sum "Si O2"
_cell_formula_units_Z 64
_cell_length_a 22.580765
_cell_length_b 8.981195
_cell_length_c 24.584323
_cell_angle_alpha 90.000000
_cell_angle_beta 45.745503
_cell_angle_gamma 90.000000
_cell_volume 3571.033721
_symmetry_space_group_name_H-M "C 2/M"
_symmetry_group_IT_number 12
_symmetry_cell_setting 'monoclinic'
loop_
_space_group_symop_operation_xyz
x,y,z
-x,y,-z
-x,-y,-z
x,-y,z
1/2+x,1/2+y,z
1/2-x,1/2+y,-z
1/2-x,1/2-y,-z
1/2+x,1/2-y,z
loop_
_atom_site_type_symbol
_atom_site_label
_atom_site_fract_x
_atom_site_fract_y
_atom_site_fract_z
Si Si1 0.102982 0.824026 0.791666
Si Si2 0.970400 0.679190 0.956794
Si Si3 0.058252 0.829857 0.414178
Si Si4 0.525540 0.673943 0.219088
Si Si5 0.005646 0.323470 0.646979
Si Si6 0.161035 0.180581 0.039891
Si Si7 0.191017 0.321376 0.493572
Si Si8 0.262210 0.670486 0.649361
O O1 0.192332 0.752114 0.728871
O O2 0.044776 0.739677 0.871577
O O3 0.058184 0.807264 0.761932
O O4 0.105405 0.000000 0.802726
O O5 0.961826 0.500000 0.958420
O O6 0.887037 0.752774 0.982902
O O7 0.000000 0.714269 0.000000
O O8 0.151439 0.833084 0.374665
O O9 0.000000 0.769102 0.500000
O O10 0.051714 0.737544 0.363811
O O11 0.029794 0.000000 0.421987
O O12 0.534920 0.500000 0.226349
O O13 0.519821 0.762985 0.278160
O O14 0.599175 0.713437 0.130189
O O15 0.004131 0.500000 0.649413
O O16 0.097856 0.276520 0.569454
O O17 0.166907 0.000000 0.030347
O O18 0.250000 0.250000 0.000000
O O19 0.196151 0.500000 0.490232
O O20 0.250000 0.250000 0.500000
O O21 0.219187 0.258189 0.417762
O O22 0.236578 0.500000 0.653919
#
# Coordination Sequence:
#
# PCOD9209149 Si02
#       8
#     8   8   8   8   8   8   8   8
#     4  10  21  38  61  88 118 153 190 237 293 343
#     4  10  21  39  64  93 125 162 201 244 297 359
#     4  10  21  39  59  77 105 151 193 231 286 345
#     4   9  20  38  59  83 114 151 187 229 284 344
#     4  11  23  36  55  82 110 143 187 236 283 332
#     4  10  21  39  64  93 124 161 201 247 301 357
#     4  11  23  36  53  80 111 144 184 234 284 337
#     4  11  22  37  58  82 109 146 192 236 285 344
#
# _framework density 17.921980999999999
#
# number of rings (size 3 to 8) (size 9 to 14) (size 15 to 20)
#    0.000    1.750    1.250    3.750    0.000    8.750 
#    2.250    0.000    0.000    0.000    0.000    0.000 
#    0.000    0.000    0.000    0.000    0.000    0.000 
#
# Total GULP energy -178560.585129 kJ/mol
# GULP energy per Si atom -5580.018285 kJ/mol
# Density = 1.788119 g / cm^3
# Si number density = 17.921981 Si / 1000 Ang^3
#
#
#
# Elastic Constant Matrix: (Units=GPa)
#
#
# Indices 1 2 3 4 5 6 
#
# 1 102.1636 52.0040 51.1545 -0.0003 3.5761 0.0004
# 2 52.0040 66.1653 42.5898 -0.0005 6.0455 0.0009
# 3 51.1545 42.5898 75.8933 0.0000 4.8400 0.0002
# 4 -0.0003 -0.0005 0.0000 31.4982 0.0000 -0.2708
# 5 3.5761 6.0455 4.8400 0.0000 34.1855 -0.0001
# 6 0.0004 0.0009 0.0002 -0.2708 -0.0001 29.7149
#
#
#
# Elastic Compliance Matrix: (Units=1/GPa)
#
#
# Indices 1 2 3 4 5 6 
#
# 1 0.018257 -0.010129 -0.006675 0.000000 0.000826 0.000000
# 2 -0.010129 0.029464 -0.009529 0.000000 -0.002802 -0.000001
# 3 -0.006675 -0.009529 0.023079 0.000000 -0.000884 0.000000
# 4 0.000000 0.000000 0.000000 0.031750 0.000000 0.000289
# 5 0.000826 -0.002802 -0.000884 0.000000 0.029786 0.000000
# 6 0.000000 -0.000001 0.000000 0.000289 0.000000 0.033656
#
#
# Mechanical properties :
#
#
# Convention : Reuss Voigt Hill
#
# Bulk Modulus (GPa) = 55.13901 59.52431 57.33166
# Shear Modulus (GPa) = 22.25160 25.64463 23.94812
#
# Velocity S-wave (km/s) = 3.52743 3.78683 3.65943
# Velocity P-wave (km/s) = 6.88646 7.23915 7.06500
#
# Compressibility (1/GPa) = 0.01813598
#
# Stress axis : x y z
#
# Youngs Moduli (GPa) = 54.77316 33.93939 43.32929
#
# Poissons Ratio (x) = 0.34376 0.28920
# Poissons Ratio (y) = 0.55478 0.41288
# Poissons Ratio (z) = 0.36558 0.32341
#
# Static dielectric constant tensor:
#      x y z
#    x 1.629810 0.000000 -0.009690 
#    y 0.000000 1.614790 0.000000 
#    z -0.009690 0.000000 1.577880 
# 
# From -- ./inp_files/345973.got.cif
#   From: 2010.05.17/outbox.cif.g08.bks.cpg/sg12_173_cif.got.tgz:345973.got - 2010.06.03 13:09:07.
