data_PCOD9210447
_publ_section_title
;
Structure prediction by ZEFSAII (Michael W. Deem and Ramdas Pophale) SiO2 
 PCOD9210447
Probable space group: C 2/M
;
_chemical_formula_sum "Si O2"
_cell_formula_units_Z 52
_cell_length_a 9.009638
_cell_length_b 10.841217
_cell_length_c 27.448403
_cell_angle_alpha 90.000000
_cell_angle_beta 109.620199
_cell_angle_gamma 90.000000
_cell_volume 2525.371654
_symmetry_space_group_name_H-M "C 2/M"
_symmetry_group_IT_number 12
_symmetry_cell_setting 'monoclinic'
loop_
_space_group_symop_operation_xyz
x,y,z
-x,y,-z
-x,-y,-z
x,-y,z
1/2+x,1/2+y,z
1/2-x,1/2+y,-z
1/2-x,1/2-y,-z
1/2+x,1/2-y,z
loop_
_atom_site_type_symbol
_atom_site_label
_atom_site_fract_x
_atom_site_fract_y
_atom_site_fract_z
Si Si1 0.586454 0.139510 0.387640
Si Si2 0.677915 0.297676 0.203179
Si Si3 0.462287 0.362481 0.438740
Si Si4 0.436103 0.500000 0.133228
Si Si5 0.527754 0.138677 0.268289
Si Si6 0.823833 0.303607 0.898801
Si Si7 0.688025 0.858767 0.958129
O O1 0.530050 0.248583 0.416152
O O2 0.775201 0.137680 0.410474
O O3 0.533721 0.164439 0.326413
O O4 0.531376 0.000000 0.395000
O O5 0.549831 0.393355 0.169845
O O6 0.625251 0.234941 0.247376
O O7 0.849397 0.354492 0.229579
O O8 0.685977 0.197486 0.160711
O O9 0.500000 0.347810 0.500000
O O10 0.521694 0.500000 0.430497
O O11 0.313528 0.393835 0.099399
O O12 0.590558 0.000000 0.268036
O O13 0.776777 0.171587 0.916770
O O14 0.999235 0.343298 0.932899
O O15 0.722427 0.000000 0.976092
O O16 0.750000 0.750000 0.000000
#
# Coordination Sequence:
#
# PCOD9210447 Si02
#       7
#     8   8   8   4   8   8   8
#     4  10  22  40  59  90 128 166 211 264 318 379
#     4  12  24  41  66  94 125 167 209 256 305 370
#     4  10  21  39  62  89 122 164 215 269 322 378
#     4  12  24  42  67  97 129 158 214 260 300 366
#     4  11  24  40  61  91 130 167 207 257 314 372
#     4  12  26  45  70  96 128 167 212 256 309 369
#     4  12  29  47  72  99 131 168 207 258 317 373
#
# _framework density 20.591028999999999
#
# number of rings (size 3 to 8) (size 9 to 14) (size 15 to 20)
#    0.000    0.769    4.615    1.846    3.231    4.000 
#    1.385    0.000    0.000    0.000    0.000    0.000 
#    0.000    0.000    0.000    0.000    0.000    0.000 
#
# Total GULP energy -144795.024976 kJ/mol
# GULP energy per Si atom -5569.039422 kJ/mol
# Density = 2.054416 g / cm^3
# Si number density = 20.591029 Si / 1000 Ang^3
#
#
#
# Elastic Constant Matrix: (Units=GPa)
#
#
# Indices 1 2 3 4 5 6 
#
# 1 29.3484 18.5317 1.9706 0.0000 0.3082 0.0000
# 2 18.5317 119.3632 31.1372 0.0000 -21.4858 0.0000
# 3 1.9706 31.1372 90.6415 0.0000 7.9170 0.0000
# 4 0.0000 0.0000 0.0000 39.4762 0.0000 6.0734
# 5 0.3082 -21.4858 7.9170 0.0000 32.4393 0.0000
# 6 0.0000 0.0000 0.0000 6.0734 0.0000 6.8098
#
#
#
# Elastic Compliance Matrix: (Units=1/GPa)
#
#
# Indices 1 2 3 4 5 6 
#
# 1 0.038865 -0.007737 0.002343 0.000000 -0.006065 0.000000
# 2 -0.007737 0.012625 -0.005012 0.000000 0.009659 0.000000
# 3 0.002343 -0.005012 0.013278 0.000000 -0.006583 0.000000
# 4 0.000000 0.000000 0.000000 0.029360 0.000000 -0.026185
# 5 -0.006065 0.009659 -0.006583 0.000000 0.038888 0.000000
# 6 0.000000 0.000000 0.000000 -0.026185 0.000000 0.170201
#
#
# Mechanical properties :
#
#
# Convention : Reuss Voigt Hill
#
# Bulk Modulus (GPa) = 22.75043 38.07026 30.41035
# Shear Modulus (GPa) = 14.76304 28.25928 21.51116
#
# Velocity S-wave (km/s) = 2.68052 3.70862 3.23567
# Velocity P-wave (km/s) = 4.54455 6.07185 5.36285
#
# Compressibility (1/GPa) = 0.04395521
#
# Stress axis : x y z
#
# Youngs Moduli (GPa) = 25.73000 79.20679 75.31026
#
# Poissons Ratio (x) = 0.61281 -0.17642
# Poissons Ratio (y) = 0.19907 0.37749
# Poissons Ratio (z) = -0.06027 0.39702
#
# Static dielectric constant tensor:
#      x y z
#    x 1.732800 0.000000 -0.034720 
#    y 0.000000 1.778780 0.000000 
#    z -0.034720 0.000000 1.728690 
# 
# From -- ./inp_files/355859.got.cif
#   From: 2010.05.17/outbox.cif.g08.bks.cpg/sg12_178_cif.got.tgz:355859.got - 2010.06.03 13:09:07.
