data_PCOD9210043
_publ_section_title
;
Structure prediction by ZEFSAII (Michael W. Deem and Ramdas Pophale) SiO2 
 PCOD9210043
Probable space group: C 2/M
;
_chemical_formula_sum "Si O2"
_cell_formula_units_Z 48
_cell_length_a 24.701427
_cell_length_b 9.433076
_cell_length_c 14.160914
_cell_angle_alpha 90.000000
_cell_angle_beta 42.196303
_cell_angle_gamma 90.000000
_cell_volume 2216.278919
_symmetry_space_group_name_H-M "C 2/M"
_symmetry_group_IT_number 12
_symmetry_cell_setting 'monoclinic'
loop_
_space_group_symop_operation_xyz
x,y,z
-x,y,-z
-x,-y,-z
x,-y,z
1/2+x,1/2+y,z
1/2-x,1/2+y,-z
1/2-x,1/2-y,-z
1/2+x,1/2-y,z
loop_
_atom_site_type_symbol
_atom_site_label
_atom_site_fract_x
_atom_site_fract_y
_atom_site_fract_z
Si Si1 0.161766 0.837768 0.509375
Si Si2 0.760359 0.167531 0.887635
Si Si3 0.992323 0.337111 0.278851
Si Si4 0.321007 0.337632 0.285974
Si Si5 0.413771 0.162952 0.657020
Si Si6 0.900030 0.333237 0.031589
O O1 0.238707 0.749275 0.377227
O O2 0.163923 0.836365 0.621309
O O3 0.078579 0.761647 0.592829
O O4 0.166529 0.000000 0.470658
O O5 0.839663 0.233520 0.735956
O O6 0.681770 0.185848 0.924023
O O7 0.770713 0.000000 0.891732
O O8 0.750000 0.250000 0.000000
O O9 0.962824 0.500000 0.311560
O O10 0.065747 0.335988 0.257803
O O11 0.027124 0.294857 0.132387
O O12 0.312285 0.500000 0.266654
O O13 0.389729 0.259989 0.137519
O O14 0.500000 0.199476 0.500000
O O15 0.394625 0.000000 0.653892
O O16 0.906972 0.500000 0.046214
#
# Coordination Sequence:
#
# PCOD9210043 Si02
#       6
#     8   8   8   8   8   8
#     4  10  22  40  61  87 119 150 190 243 291 343
#     4  11  22  39  61  86 119 156 196 240 287 342
#     4  10  21  39  59  85 120 156 194 235 290 348
#     4  10  22  40  62  87 115 152 195 237 290 351
#     4  10  22  40  60  86 120 156 196 240 286 343
#     4  10  22  39  59  86 120 154 193 240 288 344
#
# _framework density 21.657924000000001
#
# number of rings (size 3 to 8) (size 9 to 14) (size 15 to 20)
#    0.000    1.833    1.667    1.500    2.333    5.667 
#    0.000    3.333    0.000    0.000    0.000    0.000 
#    0.000    0.000    0.000    0.000    0.000    0.000 
#
# Total GULP energy -134246.014076 kJ/mol
# GULP energy per Si atom -5593.583920 kJ/mol
# Density = 2.160863 g / cm^3
# Si number density = 21.657924 Si / 1000 Ang^3
#
#
#
# Elastic Constant Matrix: (Units=GPa)
#
#
# Indices 1 2 3 4 5 6 
#
# 1 47.0203 25.9925 2.8565 0.0000 -8.0679 0.0000
# 2 25.9925 69.6593 31.1214 0.0007 -8.8581 -0.0007
# 3 2.8565 31.1214 85.8370 0.0001 6.4105 -0.0002
# 4 0.0000 0.0007 0.0001 34.7196 -0.0001 -3.1753
# 5 -8.0679 -8.8581 6.4105 -0.0001 34.9884 0.0001
# 6 0.0000 -0.0007 -0.0002 -3.1753 0.0001 22.5972
#
#
#
# Elastic Compliance Matrix: (Units=1/GPa)
#
#
# Indices 1 2 3 4 5 6 
#
# 1 0.027873 -0.011339 0.002958 0.000000 0.003014 0.000000
# 2 -0.011339 0.022877 -0.008267 0.000000 0.004692 0.000001
# 3 0.002958 -0.008267 0.014858 0.000000 -0.004133 0.000000
# 4 0.000000 0.000000 0.000000 0.029177 0.000000 0.004100
# 5 0.003014 0.004692 -0.004133 0.000000 0.031221 0.000000
# 6 0.000000 0.000001 0.000000 0.004100 0.000000 0.044829
#
#
# Mechanical properties :
#
#
# Convention : Reuss Voigt Hill
#
# Bulk Modulus (GPa) = 30.94853 35.82860 33.38856
# Shear Modulus (GPa) = 23.26651 27.96412 25.61532
#
# Velocity S-wave (km/s) = 3.28117 3.59719 3.44280
# Velocity P-wave (km/s) = 5.35495 5.81652 5.59050
#
# Compressibility (1/GPa) = 0.03231172
#
# Stress axis : x y z
#
# Youngs Moduli (GPa) = 35.87712 43.71256 67.30539
#
# Poissons Ratio (x) = 0.49565 -0.19911
# Poissons Ratio (y) = 0.40680 0.55644
# Poissons Ratio (z) = -0.10614 0.36139
#
# Static dielectric constant tensor:
#      x y z
#    x 1.817600 0.000000 0.044870 
#    y 0.000000 1.736020 0.000000 
#    z 0.044870 0.000000 1.796810 
# 
# From -- ./inp_files/244651.got.cif
#   From: 2010.05.17/outbox.cif.g08.bks.cpg/sg12_123_cif.got.tgz:244651.got - 2010.06.03 13:09:07.
