data_PCOD9210778
_publ_section_title
;
Structure prediction by ZEFSAII (Michael W. Deem and Ramdas Pophale) SiO2 
 PCOD9210778
Probable space group: C 2/M
;
_chemical_formula_sum "Si O2"
_cell_formula_units_Z 64
_cell_length_a 18.278891
_cell_length_b 15.350343
_cell_length_c 18.584658
_cell_angle_alpha 90.000000
_cell_angle_beta 144.655223
_cell_angle_gamma 90.000000
_cell_volume 3016.631827
_symmetry_space_group_name_H-M "C 2/M"
_symmetry_group_IT_number 12
_symmetry_cell_setting 'monoclinic'
loop_
_space_group_symop_operation_xyz
x,y,z
-x,y,-z
-x,-y,-z
x,-y,z
1/2+x,1/2+y,z
1/2-x,1/2+y,-z
1/2-x,1/2-y,-z
1/2+x,1/2-y,z
loop_
_atom_site_type_symbol
_atom_site_label
_atom_site_fract_x
_atom_site_fract_y
_atom_site_fract_z
Si Si1 0.474295 0.796105 0.624351
Si Si2 0.539110 0.896944 0.236888
Si Si3 0.205619 0.097009 0.641079
Si Si4 0.556356 0.652765 0.119654
Si Si5 0.249049 0.095876 0.394884
Si Si6 0.061065 0.904397 0.378102
Si Si7 0.215654 0.761224 0.761471
Si Si8 0.342094 0.777611 0.009922
O O1 0.464329 0.852945 0.688078
O O2 0.351889 0.825827 0.479640
O O3 0.485686 0.695670 0.660421
O O4 0.604764 0.808643 0.685860
O O5 0.664690 0.873306 0.293256
O O6 0.421701 0.860242 0.098636
O O7 0.538206 0.000000 0.244280
O O8 0.109397 0.090895 0.498424
O O9 0.166368 0.163623 0.670275
O O10 0.224740 0.000000 0.686705
O O11 0.641704 0.602839 0.246942
O O12 0.657960 0.721745 0.171231
O O13 0.441775 0.700978 0.069204
O O14 0.500000 0.611079 0.000000
O O15 0.175168 0.097719 0.411700
O O16 0.311220 0.000000 0.438519
O O17 0.995819 0.000000 0.311699
O O18 0.261377 0.796680 0.874662
O O19 0.250000 0.750000 0.000000
#
# Coordination Sequence:
#
# PCOD9210778 Si02
#       8
#     8   8   8   8   8   8   8   8
#     4  12  23  39  68 100 136 177 228 284 347 409
#     4  11  22  40  67 100 135 177 231 288 339 400
#     4  10  21  39  63  97 137 171 217 282 351 415
#     4  10  23  43  66  93 132 175 224 281 349 407
#     4  11  23  41  68  98 128 175 237 287 337 410
#     4  10  22  38  63  99 132 170 222 280 343 412
#     4  11  24  39  63  98 135 178 222 273 354 415
#     4  11  22  42  68  95 128 179 238 280 333 417
#
# _framework density 21.215713999999998
#
# number of rings (size 3 to 8) (size 9 to 14) (size 15 to 20)
#    0.000    1.250    3.750    2.250    0.000    3.250 
#    0.000    5.000    0.000    0.000    0.000    0.000 
#    0.000    0.000    0.000    0.000    0.000    0.000 
#
# Total GULP energy -178572.480077 kJ/mol
# GULP energy per Si atom -5580.390002 kJ/mol
# Density = 2.116743 g / cm^3
# Si number density = 21.215714 Si / 1000 Ang^3
#
#
#
# Elastic Constant Matrix: (Units=GPa)
#
#
# Indices 1 2 3 4 5 6 
#
# 1 99.1480 47.5611 32.6206 0.0001 0.0112 0.0000
# 2 47.5611 77.5709 35.1514 0.0000 -4.1419 0.0000
# 3 32.6206 35.1514 100.2237 0.0001 -10.9242 0.0001
# 4 0.0001 0.0000 0.0001 23.9445 0.0000 -0.3230
# 5 0.0112 -4.1419 -10.9242 0.0000 39.5742 0.0000
# 6 0.0000 0.0000 0.0001 -0.3230 0.0000 9.1126
#
#
#
# Elastic Compliance Matrix: (Units=1/GPa)
#
#
# Indices 1 2 3 4 5 6 
#
# 1 0.014669 -0.008128 -0.002080 0.000000 -0.001429 0.000000
# 2 -0.008128 0.019832 -0.004210 0.000000 0.000916 0.000000
# 3 -0.002080 -0.004210 0.012458 0.000000 0.002999 0.000000
# 4 0.000000 0.000000 0.000000 0.041783 0.000000 0.001481
# 5 -0.001429 0.000916 0.002999 0.000000 0.026193 0.000000
# 6 0.000000 0.000000 0.000000 0.001481 0.000000 0.109791
#
#
# Mechanical properties :
#
#
# Convention : Reuss Voigt Hill
#
# Bulk Modulus (GPa) = 55.17742 56.40097 55.78920
# Shear Modulus (GPa) = 19.26017 25.30023 22.28020
#
# Velocity S-wave (km/s) = 3.01628 3.45704 3.24416
# Velocity P-wave (km/s) = 6.18020 6.52511 6.35500
#
# Compressibility (1/GPa) = 0.01812336
#
# Stress axis : x y z
#
# Youngs Moduli (GPa) = 68.16934 50.42391 80.26945
#
# Poissons Ratio (x) = 0.40986 0.16692
# Poissons Ratio (y) = 0.55409 0.33795
# Poissons Ratio (z) = 0.14176 0.21230
#
# Static dielectric constant tensor:
#      x y z
#    x 1.778030 0.000000 0.011260 
#    y 0.000000 1.811180 0.000000 
#    z 0.011260 0.000000 1.806340 
# 
# From -- ./inp_files/278125.got.cif
#   From: 2010.05.17/outbox.cif.g08.bks.cpg/sg12_140_cif.got.tgz:278125.got - 2010.06.03 13:09:07.
