data_PCOD9210674
_publ_section_title
;
Structure prediction by ZEFSAII (Michael W. Deem and Ramdas Pophale) SiO2 
 PCOD9210674
Probable space group: C 2/M
;
_chemical_formula_sum "Si O2"
_cell_formula_units_Z 56
_cell_length_a 21.320248
_cell_length_b 11.179612
_cell_length_c 12.202180
_cell_angle_alpha 90.000000
_cell_angle_beta 104.673058
_cell_angle_gamma 90.000000
_cell_volume 2813.562998
_symmetry_space_group_name_H-M "C 2/M"
_symmetry_group_IT_number 12
_symmetry_cell_setting 'monoclinic'
loop_
_space_group_symop_operation_xyz
x,y,z
-x,y,-z
-x,-y,-z
x,-y,z
1/2+x,1/2+y,z
1/2-x,1/2+y,-z
1/2-x,1/2-y,-z
1/2+x,1/2-y,z
loop_
_atom_site_type_symbol
_atom_site_label
_atom_site_fract_x
_atom_site_fract_y
_atom_site_fract_z
Si Si1 0.576930 0.862177 0.143627
Si Si2 0.772616 0.364078 0.154483
Si Si3 0.680812 0.133976 0.383008
Si Si4 0.949991 0.859758 0.388632
Si Si5 0.645393 0.731445 0.990460
Si Si6 0.013679 0.864187 0.847393
Si Si7 0.311746 0.258053 0.383716
O O1 0.626812 0.846513 0.266741
O O2 0.527341 0.750686 0.130906
O O3 0.551605 0.000000 0.136226
O O4 0.616146 0.839965 0.048882
O O5 0.786568 0.500000 0.131094
O O6 0.817937 0.278608 0.101098
O O7 0.786140 0.342193 0.288374
O O8 0.698910 0.333202 0.089132
O O9 0.676325 0.218771 0.486016
O O10 0.752006 0.149643 0.361961
O O11 0.673156 0.000000 0.421506
O O12 0.978847 0.850199 0.280097
O O13 0.879438 0.803280 0.366821
O O14 0.000000 0.808378 0.500000
O O15 0.941549 0.000000 0.409717
O O16 0.585401 0.648791 0.929748
O O17 0.988587 0.000000 0.858935
#
# Coordination Sequence:
#
# PCOD9210674 Si02
#       7
#     8   8   8   8   8   8   8
#     4  11  24  43  64  92 130 171 213 260 316 379
#     4  11  23  39  63  95 126 162 209 260 313 372
#     4  10  22  39  62  92 124 161 207 257 316 379
#     4  10  21  39  63  91 123 161 208 258 312 375
#     4  11  23  42  62  92 126 171 207 263 307 380
#     4  11  24  42  65  93 127 169 217 264 314 372
#     4  11  20  40  64  89 123 161 206 257 316 373
#
# _framework density 19.903587999999999
#
# number of rings (size 3 to 8) (size 9 to 14) (size 15 to 20)
#    0.000    1.286    2.857    3.000    0.000    3.429 
#    0.000    0.714    0.000    3.000    0.000    0.000 
#    0.000    0.000    0.000    0.000    0.000    0.000 
#
# Total GULP energy -156302.825064 kJ/mol
# GULP energy per Si atom -5582.243752 kJ/mol
# Density = 1.985829 g / cm^3
# Si number density = 19.903588 Si / 1000 Ang^3
#
#
#
# Elastic Constant Matrix: (Units=GPa)
#
#
# Indices 1 2 3 4 5 6 
#
# 1 69.6689 23.3568 28.3680 0.0000 15.2260 0.0000
# 2 23.3568 78.9344 22.9199 0.0000 11.9535 0.0000
# 3 28.3680 22.9199 101.0952 0.0000 12.9955 0.0000
# 4 0.0000 0.0000 0.0000 18.1185 0.0000 -4.4182
# 5 15.2260 11.9535 12.9955 0.0000 29.6987 0.0000
# 6 0.0000 0.0000 0.0000 -4.4182 0.0000 21.0754
#
#
#
# Elastic Compliance Matrix: (Units=1/GPa)
#
#
# Indices 1 2 3 4 5 6 
#
# 1 0.018361 -0.003422 -0.003543 0.000000 -0.006486 0.000000
# 2 -0.003422 0.014753 -0.001957 0.000000 -0.003327 0.000000
# 3 -0.003543 -0.001957 0.011650 0.000000 -0.002494 0.000000
# 4 0.000000 0.000000 0.000000 0.058166 0.000000 0.012194
# 5 -0.006486 -0.003327 -0.002494 0.000000 0.039427 0.000000
# 6 0.000000 0.000000 0.000000 0.012194 0.000000 0.050005
#
#
# Mechanical properties :
#
#
# Convention : Reuss Voigt Hill
#
# Bulk Modulus (GPa) = 37.14563 44.33201 40.73882
# Shear Modulus (GPa) = 22.81240 25.44878 24.13059
#
# Velocity S-wave (km/s) = 3.38915 3.57963 3.48569
# Velocity P-wave (km/s) = 5.83253 6.27748 6.05909
#
# Compressibility (1/GPa) = 0.02692107
#
# Stress axis : x y z
#
# Youngs Moduli (GPa) = 54.46381 67.78074 85.83708
#
# Poissons Ratio (x) = 0.23196 0.30409
# Poissons Ratio (y) = 0.18638 0.16797
# Poissons Ratio (z) = 0.19294 0.13264
#
# Static dielectric constant tensor:
#      x y z
#    x 1.693600 0.000000 0.004590 
#    y 0.000000 1.687950 0.000000 
#    z 0.004590 0.000000 1.703010 
# 
# From -- ./inp_files/165595.got.cif
#   From: 2010.05.17/outbox.cif.g08.bks.cpg/sg12_83_cif.got.tgz:165595.got - 2010.06.03 13:09:07.
