data_PCOD9210979
_publ_section_title
;
Structure prediction by ZEFSAII (Michael W. Deem and Ramdas Pophale) SiO2 
 PCOD9210979
Probable space group: C 2/M
;
_chemical_formula_sum "Si O2"
_cell_formula_units_Z 48
_cell_length_a 32.262239
_cell_length_b 7.368288
_cell_length_c 10.406359
_cell_angle_alpha 90.000000
_cell_angle_beta 76.774230
_cell_angle_gamma 90.000000
_cell_volume 2408.159198
_symmetry_space_group_name_H-M "C 2/M"
_symmetry_group_IT_number 12
_symmetry_cell_setting 'monoclinic'
loop_
_space_group_symop_operation_xyz
x,y,z
-x,y,-z
-x,-y,-z
x,-y,z
1/2+x,1/2+y,z
1/2-x,1/2+y,-z
1/2-x,1/2-y,-z
1/2+x,1/2-y,z
loop_
_atom_site_type_symbol
_atom_site_label
_atom_site_fract_x
_atom_site_fract_y
_atom_site_fract_z
Si Si1 0.541619 0.783082 0.886108
Si Si2 0.633998 0.780725 0.229165
Si Si3 0.969853 0.000000 0.325990
Si Si4 0.195803 0.711675 0.674751
Si Si5 0.434892 0.500000 0.633836
Si Si6 0.867573 0.720096 0.062697
Si Si7 0.293687 0.780976 0.620086
O O1 0.539897 0.673802 0.755237
O O2 0.584364 0.731668 0.932371
O O3 0.542251 0.000000 0.863841
O O4 0.500000 0.739666 0.000000
O O5 0.592312 0.675311 0.305750
O O6 0.672874 0.728711 0.294916
O O7 0.628487 0.000000 0.238893
O O8 0.642533 0.726300 0.075668
O O9 0.943139 0.000000 0.475701
O O10 0.019429 0.000000 0.329835
O O11 0.184318 0.500000 0.671129
O O12 0.164956 0.788124 0.805651
O O13 0.245198 0.723874 0.679523
O O14 0.193326 0.787038 0.531490
O O15 0.865418 0.500000 0.064207
O O16 0.293092 0.000000 0.615800
#
# Coordination Sequence:
#
# PCOD9210979 Si02
#       7
#     8   8   4   8   4   8   8
#     4  10  21  39  65  91 121 163 204 251 306 359
#     4  10  22  41  63  85 121 163 198 252 304 361
#     4  11  25  42  60  92 127 158 203 264 297 362
#     4   9  18  34  56  83 117 153 199 253 292 359
#     4  11  26  42  60  92 124 159 210 245 311 371
#     4   9  19  36  59  89 117 154 208 249 299 362
#     4   9  19  35  55  84 118 156 198 244 305 356
#
# _framework density 19.932236
#
# number of rings (size 3 to 8) (size 9 to 14) (size 15 to 20)
#    0.000    2.333    0.000    1.250    3.500    4.000 
#    3.000    1.667    0.000    0.000    0.000    0.000 
#    0.000    0.000    0.000    0.000    0.000    0.000 
#
# Total GULP energy -134046.154209 kJ/mol
# GULP energy per Si atom -5585.256425 kJ/mol
# Density = 1.988687 g / cm^3
# Si number density = 19.932236 Si / 1000 Ang^3
#
#
#
# Elastic Constant Matrix: (Units=GPa)
#
#
# Indices 1 2 3 4 5 6 
#
# 1 129.2577 14.9512 114.2483 0.0000 -5.6253 0.0000
# 2 14.9512 76.0730 31.3778 0.0000 -0.7383 0.0000
# 3 114.2483 31.3778 181.0628 0.0000 -2.3807 0.0000
# 4 0.0000 0.0000 0.0000 -61.3277 0.0000 -75.1050
# 5 -5.6253 -0.7383 -2.3807 0.0000 35.4579 0.0000
# 6 0.0000 0.0000 0.0000 -75.1050 0.0000 -62.8076
#
#
#
# Elastic Compliance Matrix: (Units=1/GPa)
#
#
# Indices 1 2 3 4 5 6 
#
# 1 0.017746 0.001228 -0.011383 0.000000 0.002077 0.000000
# 2 0.001228 0.014243 -0.003239 0.000000 0.000274 0.000000
# 3 -0.011383 -0.003239 0.013254 0.000000 -0.000983 0.000000
# 4 0.000000 0.000000 0.000000 0.035109 0.000000 -0.041984
# 5 0.002077 0.000274 -0.000983 0.000000 0.028472 0.000000
# 6 0.000000 0.000000 0.000000 -0.041984 0.000000 0.034282
#
#
# Mechanical properties :
#
#
# Convention : Reuss Voigt Hill
#
# Bulk Modulus (GPa) = 54.19056 78.61644 66.40350
# Shear Modulus (GPa) = 28.40168 -2.68106 12.86031
#
# Velocity S-wave (km/s) = 3.77890 -1.16104 2.54284
# Velocity P-wave (km/s) = 6.80342 6.14249 6.48138
#
# Compressibility (1/GPa) = 0.01845340
#
# Stress axis : x y z
#
# Youngs Moduli (GPa) = 56.35063 70.21125 75.44976
#
# Poissons Ratio (x) = -0.08619 0.85884
# Poissons Ratio (y) = -0.06917 0.24440
# Poissons Ratio (z) = 0.64144 0.22743
#
# Static dielectric constant tensor:
#      x y z
#    x 1.660790 0.000000 -0.002310 
#    y 0.000000 1.744010 0.000000 
#    z -0.002310 0.000000 1.684310 
# 
# From -- ./inp_files/108825.got.cif
#   From: 2010.05.17/outbox.cif.g08.bks.cpg/sg12_55_cif.got.tgz:108825.got - 2010.06.03 13:09:07.
