data_PCOD9210149
_publ_section_title
;
Structure prediction by ZEFSAII (Michael W. Deem and Ramdas Pophale) SiO2 
 PCOD9210149
Probable space group: C 2/M
;
_chemical_formula_sum "Si O2"
_cell_formula_units_Z 40
_cell_length_a 10.076253
_cell_length_b 15.390773
_cell_length_c 18.211546
_cell_angle_alpha 90.000000
_cell_angle_beta 141.556305
_cell_angle_gamma 90.000000
_cell_volume 1755.976887
_symmetry_space_group_name_H-M "C 2/M"
_symmetry_group_IT_number 12
_symmetry_cell_setting 'monoclinic'
loop_
_space_group_symop_operation_xyz
x,y,z
-x,y,-z
-x,-y,-z
x,-y,z
1/2+x,1/2+y,z
1/2-x,1/2+y,-z
1/2-x,1/2-y,-z
1/2+x,1/2-y,z
loop_
_atom_site_type_symbol
_atom_site_label
_atom_site_fract_x
_atom_site_fract_y
_atom_site_fract_z
Si Si1 0.996011 0.900048 0.273878
Si Si2 0.922595 0.595289 0.203613
Si Si3 0.769396 0.753743 0.374476
Si Si4 0.024336 0.638128 0.093324
Si Si5 0.094282 0.827213 0.164459
O O1 0.771672 0.886081 0.216631
O O2 0.171051 0.829526 0.375238
O O3 0.963042 0.873872 0.172724
O O4 0.063407 0.000000 0.308063
O O5 0.004757 0.500000 0.258371
O O6 0.092132 0.670963 0.295277
O O7 0.888367 0.600650 0.101116
O O8 0.705879 0.613389 0.153405
O O9 0.780428 0.714331 0.296910
O O10 0.000000 0.781681 0.500000
O O11 0.992840 0.742363 0.083522
O O12 0.000000 0.606638 0.000000
#
# Coordination Sequence:
#
# PCOD9210149 Si02
#       5
#     8   8   8   8   8
#     4  10  21  39  60  88 120 155 202 243 288 356
#     4  11  22  39  61  91 123 153 199 252 294 347
#     4   9  21  40  64  86 122 161 200 236 299 352
#     4  11  22  41  64  86 119 162 199 241 304 360
#     4   9  20  40  61  88 117 158 195 250 288 348
#
# _framework density 22.779343000000001
#
# number of rings (size 3 to 8) (size 9 to 14) (size 15 to 20)
#    1.200    0.800    2.000    1.200    0.000    6.400 
#    0.000    0.000    0.000    3.600    0.000    0.000 
#    0.000    0.000    0.000    0.000    0.000    0.000 
#
# Total GULP energy -111553.563826 kJ/mol
# GULP energy per Si atom -5577.678191 kJ/mol
# Density = 2.272750 g / cm^3
# Si number density = 22.779343 Si / 1000 Ang^3
#
#
#
# Elastic Constant Matrix: (Units=GPa)
#
#
# Indices 1 2 3 4 5 6 
#
# 1 126.6697 8.6378 -8.7183 0.0000 -9.9392 0.0000
# 2 8.6378 149.9160 -10.3999 0.0000 6.6512 0.0000
# 3 -8.7183 -10.3999 34.3900 0.0001 6.1455 0.0000
# 4 0.0000 0.0000 0.0001 3.8840 0.0001 -3.2163
# 5 -9.9392 6.6512 6.1455 0.0001 18.1386 0.0000
# 6 0.0000 0.0000 0.0000 -3.2163 0.0000 16.4450
#
#
#
# Elastic Compliance Matrix: (Units=1/GPa)
#
#
# Indices 1 2 3 4 5 6 
#
# 1 0.008361 -0.000598 0.001151 0.000000 0.004411 0.000000
# 2 -0.000598 0.007059 0.002666 0.000000 -0.003819 0.000000
# 3 0.001151 0.002666 0.032187 -0.000001 -0.011252 0.000000
# 4 0.000000 0.000000 -0.000001 0.307220 -0.000001 0.060086
# 5 0.004411 -0.003819 -0.011252 -0.000001 0.062761 0.000000
# 6 0.000000 0.000000 0.000000 0.060086 0.000000 0.072561
#
#
# Mechanical properties :
#
#
# Convention : Reuss Voigt Hill
#
# Bulk Modulus (GPa) = 18.50337 32.22388 25.36362
# Shear Modulus (GPa) = 9.96562 29.12393 19.54477
#
# Velocity S-wave (km/s) = 2.09388 3.57952 2.93235
# Velocity P-wave (km/s) = 3.73983 5.59114 4.75642
#
# Compressibility (1/GPa) = 0.05404422
#
# Stress axis : x y z
#
# Youngs Moduli (GPa) = 119.60910 141.65902 31.06863
#
# Poissons Ratio (x) = 0.08465 -0.03575
# Poissons Ratio (y) = 0.07148 -0.08282
# Poissons Ratio (z) = -0.13762 -0.37763
#
# Static dielectric constant tensor:
#      x y z
#    x 1.845400 0.000000 -0.029500 
#    y 0.000000 1.848370 0.000000 
#    z -0.029500 0.000000 1.878220 
# 
# From -- ./inp_files/256779.got.cif
#   From: 2010.05.17/outbox.cif.g08.bks.cpg/sg12_129_cif.got.tgz:256779.got - 2010.06.03 13:09:07.
