data_PCOD9210476
_publ_section_title
;
Structure prediction by ZEFSAII (Michael W. Deem and Ramdas Pophale) SiO2 
 PCOD9210476
Probable space group: C 2/M
;
_chemical_formula_sum "Si O2"
_cell_formula_units_Z 64
_cell_length_a 15.151781
_cell_length_b 13.463571
_cell_length_c 23.836594
_cell_angle_alpha 90.000000
_cell_angle_beta 138.907421
_cell_angle_gamma 90.000000
_cell_volume 3196.075322
_symmetry_space_group_name_H-M "C 2/M"
_symmetry_group_IT_number 12
_symmetry_cell_setting 'monoclinic'
loop_
_space_group_symop_operation_xyz
x,y,z
-x,y,-z
-x,-y,-z
x,-y,z
1/2+x,1/2+y,z
1/2-x,1/2+y,-z
1/2-x,1/2-y,-z
1/2+x,1/2-y,z
loop_
_atom_site_type_symbol
_atom_site_label
_atom_site_fract_x
_atom_site_fract_y
_atom_site_fract_z
Si Si1 0.319140 0.615786 0.065013
Si Si2 0.898756 0.248314 0.201166
Si Si3 0.160361 0.118067 0.458863
Si Si4 0.239212 0.112737 0.772979
Si Si5 0.145590 0.115665 0.050060
Si Si6 0.478807 0.884057 0.056654
Si Si7 0.192838 0.268035 0.379877
Si Si8 0.412670 0.657094 0.407340
O O1 0.321068 0.500000 0.084370
O O2 0.404667 0.681051 0.148282
O O3 0.357139 0.617864 0.018584
O O4 0.166489 0.656145 0.997808
O O5 0.853878 0.178194 0.231452
O O6 0.777285 0.326428 0.134458
O O7 0.047415 0.288130 0.284056
O O8 0.191429 0.164908 0.413620
O O9 0.274368 0.146435 0.558448
O O10 0.033654 0.180580 0.422658
O O11 0.131751 0.000000 0.443931
O O12 0.389332 0.156215 0.850002
O O13 0.188638 0.106978 0.685034
O O14 0.241307 0.000000 0.796901
O O15 0.155064 0.000000 0.072480
O O16 0.000000 0.155275 0.000000
O O17 0.471726 0.000000 0.070209
O O18 0.500000 0.880082 0.000000
O O19 0.314756 0.268741 0.393622
O O20 0.500000 0.607873 0.500000
#
# Coordination Sequence:
#
# PCOD9210476 Si02
#       8
#     8   8   8   8   8   8   8   8
#     4  10  21  39  62  90 124 163 211 262 319 385
#     4  12  23  37  64  93 126 162 204 273 327 372
#     4  10  21  44  71  92 126 173 211 261 332 399
#     4  11  22  35  60  98 130 160 206 262 328 400
#     4  10  25  45  59  76 117 178 229 255 292 371
#     4   9  17  31  53  86 125 152 187 251 316 371
#     4  10  24  39  60 103 132 157 211 274 321 395
#     4  10  22  40  64  90 133 167 207 259 329 389
#
# _framework density 20.024559
#
# number of rings (size 3 to 8) (size 9 to 14) (size 15 to 20)
#    0.000    1.750    2.500    1.125    3.500    6.500 
#    0.000    0.000    0.000   10.125    0.000    0.000 
#    0.000    0.000    0.000    0.000    0.000    0.000 
#
# Total GULP energy -178373.020079 kJ/mol
# GULP energy per Si atom -5574.156877 kJ/mol
# Density = 1.997898 g / cm^3
# Si number density = 20.024559 Si / 1000 Ang^3
#
#
#
# Elastic Constant Matrix: (Units=GPa)
#
#
# Indices 1 2 3 4 5 6 
#
# 1 115.3992 25.1981 42.0603 0.0000 13.1874 0.0000
# 2 25.1981 74.0667 22.8409 0.0000 8.5251 0.0000
# 3 42.0603 22.8409 160.7196 0.0000 14.3461 0.0000
# 4 0.0000 0.0000 0.0000 12.7431 0.0000 1.0827
# 5 13.1874 8.5251 14.3461 0.0000 33.8437 0.0000
# 6 0.0000 0.0000 0.0000 1.0827 0.0000 -3.1814
#
#
#
# Elastic Compliance Matrix: (Units=1/GPa)
#
#
# Indices 1 2 3 4 5 6 
#
# 1 0.010274 -0.002562 -0.002104 0.000000 -0.002466 0.000000
# 2 -0.002562 0.015022 -0.001263 0.000000 -0.002250 0.000000
# 3 -0.002104 -0.001263 0.007120 0.000000 -0.001880 0.000000
# 4 0.000000 0.000000 0.000000 0.076269 0.000000 0.025956
# 5 -0.002466 -0.002250 -0.001880 0.000000 0.031872 0.000000
# 6 0.000000 0.000000 0.000000 0.025956 0.000000 -0.305496
#
#
# Mechanical properties :
#
#
# Convention : Reuss Voigt Hill
#
# Bulk Modulus (GPa) = 48.64975 58.93158 53.79066
# Shear Modulus (GPa) = -34.19325 26.02015 -4.08655
#
# Velocity S-wave (km/s) = -4.13675 3.60865 -1.43010
# Velocity P-wave (km/s) = 1.23726 6.84519 4.91871
#
# Compressibility (1/GPa) = 0.02055509
#
# Stress axis : x y z
#
# Youngs Moduli (GPa) = 97.33412 66.57034 140.44757
#
# Poissons Ratio (x) = 0.17059 0.29556
# Poissons Ratio (y) = 0.24942 0.17744
# Poissons Ratio (z) = 0.20483 0.08410
#
# Static dielectric constant tensor:
#      x y z
#    x 1.724130 0.000000 0.015550 
#    y 0.000000 1.743460 0.000000 
#    z 0.015550 0.000000 1.756960 
# 
# From -- ./inp_files/340179.got.cif
#   From: 2010.05.17/outbox.cif.g08.bks.cpg/sg12_171_cif.got.tgz:340179.got - 2010.06.03 13:09:07.
