data_PCOD9210345
_publ_section_title
;
Structure prediction by ZEFSAII (Michael W. Deem and Ramdas Pophale) SiO2 
 PCOD9210345
Probable space group: C 2/M
;
_chemical_formula_sum "Si O2"
_cell_formula_units_Z 40
_cell_length_a 17.232335
_cell_length_b 9.267082
_cell_length_c 26.346854
_cell_angle_alpha 90.000000
_cell_angle_beta 29.870287
_cell_angle_gamma 90.000000
_cell_volume 2095.455658
_symmetry_space_group_name_H-M "C 2/M"
_symmetry_group_IT_number 12
_symmetry_cell_setting 'monoclinic'
loop_
_space_group_symop_operation_xyz
x,y,z
-x,y,-z
-x,-y,-z
x,-y,z
1/2+x,1/2+y,z
1/2-x,1/2+y,-z
1/2-x,1/2-y,-z
1/2+x,1/2-y,z
loop_
_atom_site_type_symbol
_atom_site_label
_atom_site_fract_x
_atom_site_fract_y
_atom_site_fract_z
Si Si1 0.377649 0.330225 0.393919
Si Si2 0.846447 0.777728 0.061566
Si Si3 0.497271 0.837587 0.771512
Si Si4 0.513656 0.327212 0.867564
Si Si5 0.768626 0.842835 0.773781
O O1 0.341499 0.500000 0.407004
O O2 0.250000 0.250000 0.500000
O O3 0.400674 0.246806 0.327831
O O4 0.547296 0.323572 0.324561
O O5 0.678548 0.849662 0.150674
O O6 0.805804 0.659271 0.127221
O O7 0.000000 0.849639 0.000000
O O8 0.901862 0.751068 0.972724
O O9 0.489378 0.742274 0.826649
O O10 0.554468 0.000000 0.748640
O O11 0.488753 0.500000 0.882469
O O12 0.685493 0.283129 0.789712
O O13 0.735534 0.000000 0.769585
#
# Coordination Sequence:
#
# PCOD9210345 Si02
#       5
#     8   8   8   8   8
#     4  10  21  39  62  85 109 138 178 227 277 330
#     4   9  20  34  54  81 112 149 188 225 266 318
#     4  11  22  36  56  81 112 148 185 226 273 324
#     4  11  22  35  53  80 116 151 185 227 270 318
#     4   9  20  37  57  82 111 145 185 226 270 325
#
# _framework density 19.088927999999999
#
# number of rings (size 3 to 8) (size 9 to 14) (size 15 to 20)
#    0.000    2.000    0.000    3.000    0.000   17.200 
#    0.000    1.000    0.000    6.000    0.000    0.000 
#    0.000    0.000    0.000    0.000    0.000    0.000 
#
# Total GULP energy -111370.121112 kJ/mol
# GULP energy per Si atom -5568.506056 kJ/mol
# Density = 1.904548 g / cm^3
# Si number density = 19.088928 Si / 1000 Ang^3
#
#
#
# Elastic Constant Matrix: (Units=GPa)
#
#
# Indices 1 2 3 4 5 6 
#
# 1 82.0121 45.6696 47.9655 0.0000 19.0339 0.0000
# 2 45.6696 104.2854 52.2416 0.0001 -3.0413 0.0000
# 3 47.9655 52.2416 140.1930 0.0001 15.4703 0.0000
# 4 0.0000 0.0001 0.0001 -13.8760 0.0001 -4.3983
# 5 19.0339 -3.0413 15.4703 0.0001 22.4649 0.0000
# 6 0.0000 0.0000 0.0000 -4.3983 0.0000 19.8637
#
#
#
# Elastic Compliance Matrix: (Units=1/GPa)
#
#
# Indices 1 2 3 4 5 6 
#
# 1 0.023496 -0.009744 -0.002235 0.000000 -0.019687 0.000000
# 2 -0.009744 0.016374 -0.004246 0.000000 0.013396 0.000000
# 3 -0.002235 -0.004246 0.010102 0.000000 -0.005638 0.000000
# 4 0.000000 0.000000 0.000000 -0.067340 0.000000 -0.014911
# 5 -0.019687 0.013396 -0.005638 0.000000 0.066890 0.000000
# 6 0.000000 0.000000 0.000000 -0.014911 0.000000 0.047041
#
#
# Mechanical properties :
#
#
# Convention : Reuss Voigt Hill
#
# Bulk Modulus (GPa) = 57.07358 68.69375 62.88367
# Shear Modulus (GPa) = 37.07710 17.73145 27.40427
#
# Velocity S-wave (km/s) = 4.41197 3.05107 3.79306
# Velocity P-wave (km/s) = 7.47782 6.96250 7.22475
#
# Compressibility (1/GPa) = 0.01752124
#
# Stress axis : x y z
#
# Youngs Moduli (GPa) = 42.56085 61.07272 98.98772
#
# Poissons Ratio (x) = 0.59508 0.22128
# Poissons Ratio (y) = 0.41470 0.42032
# Poissons Ratio (z) = 0.09514 0.25932
#
# Static dielectric constant tensor:
#      x y z
#    x 1.680160 0.000000 -0.010730 
#    y 0.000000 1.693740 0.000000 
#    z -0.010730 0.000000 1.649970 
# 
# From -- ./inp_files/362585.got.cif
#   From: 2010.05.17/outbox.cif.g08.bks.cpg/sg12_182_cif.got.tgz:362585.got - 2010.06.03 13:09:07.
