data_PCOD9210365
_publ_section_title
;
Structure prediction by ZEFSAII (Michael W. Deem and Ramdas Pophale) SiO2 
 PCOD9210365
Probable space group: C 2/M
;
_chemical_formula_sum "Si O2"
_cell_formula_units_Z 48
_cell_length_a 27.623761
_cell_length_b 8.713407
_cell_length_c 15.665987
_cell_angle_alpha 90.000000
_cell_angle_beta 139.083246
_cell_angle_gamma 90.000000
_cell_volume 2469.701954
_symmetry_space_group_name_H-M "C 2/M"
_symmetry_group_IT_number 12
_symmetry_cell_setting 'monoclinic'
loop_
_space_group_symop_operation_xyz
x,y,z
-x,y,-z
-x,-y,-z
x,-y,z
1/2+x,1/2+y,z
1/2-x,1/2+y,-z
1/2-x,1/2-y,-z
1/2+x,1/2-y,z
loop_
_atom_site_type_symbol
_atom_site_label
_atom_site_fract_x
_atom_site_fract_y
_atom_site_fract_z
Si Si1 0.442255 0.316267 0.997676
Si Si2 0.461694 0.685220 0.359772
Si Si3 0.279071 0.184451 0.775305
Si Si4 0.210276 0.184645 0.864287
Si Si5 0.302380 0.184069 0.496291
Si Si6 0.526169 0.816262 0.271634
O O1 0.434255 0.500000 0.988038
O O2 0.475878 0.259762 0.131944
O O3 0.500000 0.274377 0.000000
O O4 0.362704 0.241572 0.875362
O O5 0.500000 0.727017 0.500000
O O6 0.466900 0.500000 0.357339
O O7 0.375663 0.728615 0.249502
O O8 0.499718 0.762318 0.329293
O O9 0.249672 0.233715 0.829213
O O10 0.227010 0.252158 0.632598
O O11 0.277006 0.000000 0.767846
O O12 0.213838 0.000000 0.871875
O O13 0.250000 0.250000 0.000000
O O14 0.250000 0.250000 0.500000
O O15 0.387820 0.227561 0.625343
O O16 0.297840 0.000000 0.490099
O O17 0.520024 0.000000 0.256633
#
# Coordination Sequence:
#
# PCOD9210365 Si02
#       6
#     8   8   8   8   8   8
#     4  11  24  41  62  88 119 157 200 245 295 353
#     4  10  21  39  62  86 115 154 199 243 290 348
#     4  11  23  40  63  90 121 156 197 246 297 351
#     4  10  22  38  58  86 117 152 193 239 291 346
#     4  11  24  41  62  89 121 157 198 245 296 352
#     4  11  24  40  60  89 122 156 197 246 297 349
#
# _framework density 19.435542999999999
#
# number of rings (size 3 to 8) (size 9 to 14) (size 15 to 20)
#    0.000    1.333    0.000    5.000    0.000   13.000 
#    0.000    0.000    0.000    0.000    0.000    0.000 
#    0.000    0.000    0.000    0.000    0.000    0.000 
#
# Total GULP energy -134280.697802 kJ/mol
# GULP energy per Si atom -5595.029075 kJ/mol
# Density = 1.939131 g / cm^3
# Si number density = 19.435543 Si / 1000 Ang^3
#
#
#
# Elastic Constant Matrix: (Units=GPa)
#
#
# Indices 1 2 3 4 5 6 
#
# 1 58.8316 5.5897 -25.4327 0.0000 0.4932 0.0000
# 2 5.5897 25.0380 3.3357 0.0000 4.8055 0.0000
# 3 -25.4327 3.3357 70.9094 0.0000 0.5367 0.0000
# 4 0.0000 0.0000 0.0000 26.7790 0.0000 0.1143
# 5 0.4932 4.8055 0.5367 0.0000 42.7897 0.0000
# 6 0.0000 0.0000 0.0000 0.1143 0.0000 31.5807
#
#
#
# Elastic Compliance Matrix: (Units=1/GPa)
#
#
# Indices 1 2 3 4 5 6 
#
# 1 0.020899 -0.005759 0.007764 0.000000 0.000309 0.000000
# 2 -0.005759 0.042660 -0.004037 0.000000 -0.004674 0.000000
# 3 0.007764 -0.004037 0.017076 0.000000 0.000150 0.000000
# 4 0.000000 0.000000 0.000000 0.037343 0.000000 -0.000135
# 5 0.000309 -0.004674 0.000150 0.000000 0.023890 0.000000
# 6 0.000000 0.000000 0.000000 -0.000135 0.000000 0.031665
#
#
# Mechanical properties :
#
#
# Convention : Reuss Voigt Hill
#
# Bulk Modulus (GPa) = 13.05985 13.52938 13.29461
# Shear Modulus (GPa) = 24.61592 31.64896 28.13244
#
# Velocity S-wave (km/s) = 3.56271 4.03973 3.80870
# Velocity P-wave (km/s) = 4.86395 5.36055 5.11828
#
# Compressibility (1/GPa) = 0.07657056
#
# Stress axis : x y z
#
# Youngs Moduli (GPa) = 47.84975 23.44122 58.56161
#
# Poissons Ratio (x) = 0.13500 -0.45469
# Poissons Ratio (y) = 0.27558 0.23642
# Poissons Ratio (z) = -0.37152 0.09463
#
# Static dielectric constant tensor:
#      x y z
#    x 1.652700 0.000000 0.005570 
#    y 0.000000 1.656740 0.000000 
#    z 0.005570 0.000000 1.632880 
# 
# From -- ./inp_files/244919.got.cif
#   From: 2010.05.17/outbox.cif.g08.bks.cpg/sg12_123_cif.got.tgz:244919.got - 2010.06.03 13:09:07.
