data_PCOD9210911
_publ_section_title
;
Structure prediction by ZEFSAII (Michael W. Deem and Ramdas Pophale) SiO2 
 PCOD9210911
Probable space group: C 2/M
;
_chemical_formula_sum "Si O2"
_cell_formula_units_Z 40
_cell_length_a 19.772000
_cell_length_b 7.549669
_cell_length_c 13.569515
_cell_angle_alpha 90.000000
_cell_angle_beta 73.930585
_cell_angle_gamma 90.000000
_cell_volume 1946.405206
_symmetry_space_group_name_H-M "C 2/M"
_symmetry_group_IT_number 12
_symmetry_cell_setting 'monoclinic'
loop_
_space_group_symop_operation_xyz
x,y,z
-x,y,-z
-x,-y,-z
x,-y,z
1/2+x,1/2+y,z
1/2-x,1/2+y,-z
1/2-x,1/2-y,-z
1/2+x,1/2-y,z
loop_
_atom_site_type_symbol
_atom_site_label
_atom_site_fract_x
_atom_site_fract_y
_atom_site_fract_z
Si Si1 0.913590 0.500000 0.420376
Si Si2 0.864941 0.797684 0.813805
Si Si3 0.713684 0.286387 0.822697
Si Si4 0.077869 0.784028 0.997204
Si Si5 0.080937 0.500000 0.349915
Si Si6 0.191495 0.209433 0.606227
O O1 0.900024 0.500000 0.543088
O O2 0.876152 0.328093 0.390191
O O3 0.996880 0.500000 0.372237
O O4 0.780405 0.789494 0.853297
O O5 0.887640 0.670656 0.716646
O O6 0.886814 0.000000 0.787485
O O7 0.899508 0.734091 0.901661
O O8 0.717493 0.500000 0.829804
O O9 0.639337 0.227666 0.897809
O O10 0.717994 0.242912 0.705157
O O11 0.076997 0.000000 0.995256
O O12 0.000000 0.722715 0.000000
O O13 0.250000 0.250000 0.500000
O O14 0.175908 0.000000 0.611575
#
# Coordination Sequence:
#
# PCOD9210911 Si02
#       6
#     4   8   8   8   4   8
#     4  11  26  44  65  94 133 166 216 272 318 380
#     4  11  23  41  69  92 128 173 215 260 323 390
#     4  10  21  39  64  94 132 170 213 270 317 377
#     4   9  20  39  63  94 131 169 213 264 323 383
#     4  11  26  46  64  93 133 168 210 273 326 379
#     4  11  23  40  67  97 129 170 218 264 318 379
#
# _framework density 20.550706999999999
#
# number of rings (size 3 to 8) (size 9 to 14) (size 15 to 20)
#    0.000    1.600    2.000    1.800    4.200    3.200 
#    1.800    2.500    0.000    0.000    0.000    0.000 
#    0.000    0.000    0.000    0.000    0.000    0.000 
#
# Total GULP energy -111866.830325 kJ/mol
# GULP energy per Si atom -5593.341516 kJ/mol
# Density = 2.050393 g / cm^3
# Si number density = 20.550707 Si / 1000 Ang^3
#
#
#
# Elastic Constant Matrix: (Units=GPa)
#
#
# Indices 1 2 3 4 5 6 
#
# 1 145.0473 24.4047 55.7024 0.0000 20.1260 0.0000
# 2 24.4047 83.3903 20.5127 0.0000 5.8678 0.0000
# 3 55.7024 20.5127 77.8438 0.0000 0.0306 0.0000
# 4 0.0000 0.0000 0.0000 -22.1275 0.0000 -6.0179
# 5 20.1260 5.8678 0.0306 0.0000 31.8582 0.0000
# 6 0.0000 0.0000 0.0000 -6.0179 0.0000 3.5550
#
#
#
# Elastic Compliance Matrix: (Units=1/GPa)
#
#
# Indices 1 2 3 4 5 6 
#
# 1 0.010866 -0.000852 -0.007548 0.000000 -0.006700 0.000000
# 2 -0.000852 0.013069 -0.002834 0.000000 -0.001866 0.000000
# 3 -0.007548 -0.002834 0.018992 0.000000 0.005272 0.000000
# 4 0.000000 0.000000 0.000000 -0.030946 0.000000 -0.052385
# 5 -0.006700 -0.001866 0.005272 0.000000 0.035961 0.000000
# 6 0.000000 0.000000 0.000000 -0.052385 0.000000 0.192616
#
#
# Mechanical properties :
#
#
# Convention : Reuss Voigt Hill
#
# Bulk Modulus (GPa) = 48.87555 56.39122 52.63339
# Shear Modulus (GPa) = 18.52907 16.36793 17.44850
#
# Velocity S-wave (km/s) = 3.00597 2.82523 2.91700
# Velocity P-wave (km/s) = 5.99019 6.17594 6.08377
#
# Compressibility (1/GPa) = 0.02046013
#
# Stress axis : x y z
#
# Youngs Moduli (GPa) = 92.02927 76.51432 52.65316
#
# Poissons Ratio (x) = 0.06517 0.39744
# Poissons Ratio (y) = 0.07839 0.14920
# Poissons Ratio (z) = 0.69467 0.21682
#
# Static dielectric constant tensor:
#      x y z
#    x 1.712250 0.000000 -0.004920 
#    y 0.000000 1.738670 0.000000 
#    z -0.004920 0.000000 1.702280 
# 
# From -- ./inp_files/151782.got.cif
#   From: 2010.05.17/outbox.cif.g08.bks.cpg/sg12_76_cif.got.tgz:151782.got - 2010.06.03 13:09:07.
