data_PCOD9210601
_publ_section_title
;
Structure prediction by ZEFSAII (Michael W. Deem and Ramdas Pophale) SiO2 
 PCOD9210601
Probable space group: C 2/M
;
_chemical_formula_sum "Si O2"
_cell_formula_units_Z 48
_cell_length_a 29.236433
_cell_length_b 17.252994
_cell_length_c 13.920983
_cell_angle_alpha 90.000000
_cell_angle_beta 19.197215
_cell_angle_gamma 90.000000
_cell_volume 2308.968274
_symmetry_space_group_name_H-M "C 2/M"
_symmetry_group_IT_number 12
_symmetry_cell_setting 'monoclinic'
loop_
_space_group_symop_operation_xyz
x,y,z
-x,y,-z
-x,-y,-z
x,-y,z
1/2+x,1/2+y,z
1/2-x,1/2+y,-z
1/2-x,1/2-y,-z
1/2+x,1/2-y,z
loop_
_atom_site_type_symbol
_atom_site_label
_atom_site_fract_x
_atom_site_fract_y
_atom_site_fract_z
Si Si1 0.974550 0.091805 0.883282
Si Si2 0.881847 0.091219 0.860749
Si Si3 0.207614 0.907625 0.158069
Si Si4 0.955659 0.584274 0.199412
Si Si5 0.778762 0.207670 0.342333
Si Si6 0.216020 0.641771 0.792099
O O1 0.884103 0.113860 0.967090
O O2 0.134888 0.110003 0.540879
O O3 0.962078 0.000000 0.927388
O O4 0.907986 0.148683 0.092735
O O5 0.786414 0.123169 0.963566
O O6 0.043792 0.098139 0.509402
O O7 0.850176 0.000000 0.923320
O O8 0.285246 0.864056 0.089913
O O9 0.242714 0.000000 0.092751
O O10 0.888298 0.500000 0.349399
O O11 0.853489 0.654909 0.420233
O O12 0.091965 0.591946 0.993589
O O13 0.000000 0.588245 0.000000
O O14 0.750000 0.250000 0.500000
O O15 0.801810 0.273276 0.216958
#
# Coordination Sequence:
#
# PCOD9210601 Si02
#       6
#     8   8   8   8   8   8
#     4  10  21  39  63  89 111 149 202 243 274 333
#     4   7  12  26  52  83 115 142 181 236 282 323
#     4   8  13  26  51  86 116 144 182 231 283 337
#     4  11  23  41  60  80 111 154 195 234 286 350
#     4  12  25  42  56  80 119 157 189 237 303 341
#     4  11  21  36  62  89 117 147 191 240 290 340
#
# _framework density 20.788506999999999
#
# number of rings (size 3 to 8) (size 9 to 14) (size 15 to 20)
#    0.000    2.167    1.667    5.000    0.000    0.000 
#    0.000    1.667    0.000    3.000    0.000    4.667 
#    0.000    0.000    0.000    0.000    0.000    0.000 
#
# Total GULP energy -133861.418741 kJ/mol
# GULP energy per Si atom -5577.559114 kJ/mol
# Density = 2.074119 g / cm^3
# Si number density = 20.788507 Si / 1000 Ang^3
#
#
#
# Elastic Constant Matrix: (Units=GPa)
#
#
# Indices 1 2 3 4 5 6 
#
# 1 119.7696 28.6724 22.6935 0.0000 -23.1599 0.0000
# 2 28.6724 108.4728 16.9730 0.0000 -2.1417 0.0000
# 3 22.6935 16.9730 47.6466 -0.0001 -8.5659 0.0001
# 4 0.0000 0.0000 -0.0001 27.6508 0.0000 -26.1970
# 5 -23.1599 -2.1417 -8.5659 0.0000 21.0389 0.0000
# 6 0.0000 0.0000 0.0001 -26.1970 0.0000 -11.3400
#
#
#
# Elastic Compliance Matrix: (Units=1/GPa)
#
#
# Indices 1 2 3 4 5 6 
#
# 1 0.011657 -0.002445 -0.002610 0.000000 0.011521 0.000000
# 2 -0.002445 0.010280 -0.003014 0.000000 -0.002873 0.000000
# 3 -0.002610 -0.003014 0.024528 0.000000 0.006807 0.000000
# 4 0.000000 0.000000 0.000000 0.011342 0.000000 -0.026201
# 5 0.011521 -0.002873 0.006807 0.000000 0.062692 0.000000
# 6 0.000000 0.000000 0.000000 -0.026201 0.000000 -0.027655
#
#
# Mechanical properties :
#
#
# Convention : Reuss Voigt Hill
#
# Bulk Modulus (GPa) = 32.97346 45.84073 39.40710
# Shear Modulus (GPa) = 41.98464 21.30662 31.64563
#
# Velocity S-wave (km/s) = 4.49888 3.20492 3.90585
# Velocity P-wave (km/s) = 6.54846 5.98282 6.27202
#
# Compressibility (1/GPa) = 0.03032742
#
# Stress axis : x y z
#
# Youngs Moduli (GPa) = 85.78496 97.27474 40.76942
#
# Poissons Ratio (x) = 0.23788 0.10640
# Poissons Ratio (y) = 0.20978 0.12287
# Poissons Ratio (z) = 0.22388 0.29316
#
# Static dielectric constant tensor:
#      x y z
#    x 1.824960 0.000000 0.031670 
#    y 0.000000 1.717400 0.000000 
#    z 0.031670 0.000000 1.744650 
# 
# From -- ./inp_files/251412.got.cif
#   From: 2010.05.17/outbox.cif.g08.bks.cpg/sg12_126_cif.got.tgz:251412.got - 2010.06.03 13:09:07.
