data_PCOD9210216
_publ_section_title
;
Structure prediction by ZEFSAII (Michael W. Deem and Ramdas Pophale) SiO2 
 PCOD9210216
Probable space group: C 2/M
;
_chemical_formula_sum "Si O2"
_cell_formula_units_Z 48
_cell_length_a 19.275316
_cell_length_b 8.768666
_cell_length_c 26.176891
_cell_angle_alpha 90.000000
_cell_angle_beta 34.927914
_cell_angle_gamma 90.000000
_cell_volume 2533.162271
_symmetry_space_group_name_H-M "C 2/M"
_symmetry_group_IT_number 12
_symmetry_cell_setting 'monoclinic'
loop_
_space_group_symop_operation_xyz
x,y,z
-x,y,-z
-x,-y,-z
x,-y,z
1/2+x,1/2+y,z
1/2-x,1/2+y,-z
1/2-x,1/2-y,-z
1/2+x,1/2-y,z
loop_
_atom_site_type_symbol
_atom_site_label
_atom_site_fract_x
_atom_site_fract_y
_atom_site_fract_z
Si Si1 0.010028 0.172277 0.933149
Si Si2 0.201880 0.184596 0.582456
Si Si3 0.235765 0.318974 0.952959
Si Si4 0.142760 0.316472 0.411699
Si Si5 0.422305 0.685441 0.753069
Si Si6 0.233774 0.182976 0.250608
O O1 0.137396 0.244403 0.840978
O O2 0.999718 0.000000 0.918218
O O3 0.897950 0.273800 0.983753
O O4 0.000000 0.163709 0.000000
O O5 0.250000 0.250000 0.500000
O O6 0.285833 0.230032 0.579898
O O7 0.061793 0.233445 0.674498
O O8 0.204399 0.000000 0.578199
O O9 0.248358 0.500000 0.947798
O O10 0.334995 0.261810 0.851795
O O11 0.250000 0.250000 0.000000
O O12 0.155587 0.500000 0.399133
O O13 0.195518 0.238579 0.329470
O O14 0.000000 0.281049 0.500000
O O15 0.421805 0.500000 0.754309
O O16 0.363042 0.730964 0.734655
O O17 0.242407 0.000000 0.244013
#
# Coordination Sequence:
#
# PCOD9210216 Si02
#       6
#     8   8   8   8   8   8
#     4  11  23  40  62  89 121 161 205 251 307 367
#     4  10  21  39  61  85 117 156 195 240 297 360
#     4  11  23  40  61  88 124 163 206 253 303 360
#     4  10  22  39  60  89 123 157 195 248 308 363
#     4   9  20  38  59  83 117 159 196 242 304 353
#     4  11  22  38  62  89 118 156 204 254 302 360
#
# _framework density 18.948647000000001
#
# number of rings (size 3 to 8) (size 9 to 14) (size 15 to 20)
#    0.000    1.667    1.667    2.500    2.333    1.667 
#    0.000    2.500    0.000    0.000    0.000    0.000 
#    0.000    0.000    0.000    0.000    0.000    0.000 
#
# Total GULP energy -134061.646742 kJ/mol
# GULP energy per Si atom -5585.901948 kJ/mol
# Density = 1.890552 g / cm^3
# Si number density = 18.948647 Si / 1000 Ang^3
#
#
#
# Elastic Constant Matrix: (Units=GPa)
#
#
# Indices 1 2 3 4 5 6 
#
# 1 156.9236 33.1627 95.9912 -0.0001 7.0725 0.0001
# 2 33.1627 38.2106 46.6366 -0.0001 6.0241 0.0003
# 3 95.9912 46.6366 166.0908 0.0000 -2.9789 0.0001
# 4 -0.0001 -0.0001 0.0000 34.7442 0.0000 5.4217
# 5 7.0725 6.0241 -2.9789 0.0000 36.9076 -0.0001
# 6 0.0001 0.0003 0.0001 5.4217 -0.0001 21.9385
#
#
#
# Elastic Compliance Matrix: (Units=1/GPa)
#
#
# Indices 1 2 3 4 5 6 
#
# 1 0.010155 -0.001948 -0.005359 0.000000 -0.002061 0.000000
# 2 -0.001948 0.042323 -0.010891 0.000000 -0.007414 -0.000001
# 3 -0.005359 -0.010891 0.012244 0.000000 0.003793 0.000000
# 4 0.000000 0.000000 0.000000 0.029936 0.000000 -0.007398
# 5 -0.002061 -0.007414 0.003793 0.000000 0.029006 0.000000
# 6 0.000000 -0.000001 0.000000 -0.007398 0.000000 0.047410
#
#
# Mechanical properties :
#
#
# Convention : Reuss Voigt Hill
#
# Bulk Modulus (GPa) = 35.30315 79.20069 57.25192
# Shear Modulus (GPa) = 23.05074 31.08035 27.06555
#
# Velocity S-wave (km/s) = 3.49160 4.05438 3.78347
# Velocity P-wave (km/s) = 5.90986 7.98784 7.02610
#
# Compressibility (1/GPa) = 0.02832609
#
# Stress axis : x y z
#
# Youngs Moduli (GPa) = 98.47059 23.62801 81.67097
#
# Poissons Ratio (x) = 0.04602 0.43769
# Poissons Ratio (y) = 0.19180 0.88948
# Poissons Ratio (z) = 0.52773 0.25733
#
# Static dielectric constant tensor:
#      x y z
#    x 1.596420 0.000000 0.002480 
#    y 0.000000 1.653400 0.000000 
#    z 0.002480 0.000000 1.627750 
# 
# From -- ./inp_files/365370.got.cif
#   From: 2010.05.17/outbox.cif.g08.bks.cpg/sg12_183_cif.got.tgz:365370.got - 2010.06.03 13:09:07.
