data_PCOD9210866
_publ_section_title
;
Structure prediction by ZEFSAII (Michael W. Deem and Ramdas Pophale) SiO2 
 PCOD9210866
Probable space group: C 2/M
;
_chemical_formula_sum "Si O2"
_cell_formula_units_Z 64
_cell_length_a 14.681476
_cell_length_b 9.834952
_cell_length_c 25.224373
_cell_angle_alpha 90.000000
_cell_angle_beta 126.480413
_cell_angle_gamma 90.000000
_cell_volume 2928.538158
_symmetry_space_group_name_H-M "C 2/M"
_symmetry_group_IT_number 12
_symmetry_cell_setting 'monoclinic'
loop_
_space_group_symop_operation_xyz
x,y,z
-x,y,-z
-x,-y,-z
x,-y,z
1/2+x,1/2+y,z
1/2-x,1/2+y,-z
1/2-x,1/2-y,-z
1/2+x,1/2-y,z
loop_
_atom_site_type_symbol
_atom_site_label
_atom_site_fract_x
_atom_site_fract_y
_atom_site_fract_z
Si Si1 0.811535 0.154580 0.152551
Si Si2 0.825939 0.653251 0.744817
Si Si3 0.860482 0.158715 0.048366
Si Si4 0.068473 0.342689 0.101422
Si Si5 0.324953 0.847598 0.372894
Si Si6 0.800350 0.141939 0.458856
Si Si7 0.527169 0.159040 0.728058
Si Si8 0.439232 0.222910 0.587022
O O1 0.870765 0.160055 0.115991
O O2 0.676594 0.176563 0.100836
O O3 0.866236 0.266319 0.209304
O O4 0.825321 0.000000 0.178386
O O5 0.777917 0.500000 0.726637
O O6 0.878445 0.672781 0.821154
O O7 0.735765 0.764373 0.695153
O O8 0.927477 0.659746 0.737142
O O9 0.968587 0.234971 0.061199
O O10 0.848623 0.000000 0.027974
O O11 0.750000 0.250000 0.000000
O O12 0.027929 0.500000 0.082213
O O13 0.304677 0.765736 0.419834
O O14 0.458659 0.848685 0.407921
O O15 0.280414 0.000000 0.360507
O O16 0.679391 0.145223 0.446148
O O17 0.899221 0.154385 0.536163
O O18 0.809443 0.000000 0.431746
O O19 0.484552 0.240759 0.662089
O O20 0.548090 0.000000 0.720900
#
# Coordination Sequence:
#
# PCOD9210866 Si02
#       8
#     8   8   8   8   8   8   8   8
#     4  10  23  41  65  97 129 163 207 258 309 363
#     4  10  21  39  64  92 125 164 205 253 309 370
#     4  11  24  42  65  95 132 172 212 257 305 360
#     4  10  21  41  66  93 128 168 209 257 310 363
#     4  12  25  40  63  92 123 160 203 257 315 372
#     4  11  25  46  66  86 118 161 209 258 313 378
#     4  11  21  39  66  92 123 163 203 253 311 370
#     4  11  25  42  63  89 122 160 203 253 313 374
#
# _framework density 21.853908000000001
#
# number of rings (size 3 to 8) (size 9 to 14) (size 15 to 20)
#    0.000    1.250    2.500    3.000    0.000    8.000 
#    0.000    2.500    0.000    0.000    0.000    0.000 
#    0.000    0.000    0.000    0.000    0.000    0.000 
#
# Total GULP energy -178838.058503 kJ/mol
# GULP energy per Si atom -5588.689328 kJ/mol
# Density = 2.180417 g / cm^3
# Si number density = 21.853908 Si / 1000 Ang^3
#
#
#
# Elastic Constant Matrix: (Units=GPa)
#
#
# Indices 1 2 3 4 5 6 
#
# 1 73.8398 28.3087 -1.7218 0.0000 15.1823 0.0000
# 2 28.3087 141.6960 51.5917 0.0000 24.2429 0.0000
# 3 -1.7218 51.5917 71.1203 0.0000 10.1717 0.0000
# 4 0.0000 0.0000 0.0000 6.4500 0.0000 -7.9616
# 5 15.1823 24.2429 10.1717 0.0000 34.2196 0.0000
# 6 0.0000 0.0000 0.0000 -7.9616 0.0000 9.1515
#
#
#
# Elastic Compliance Matrix: (Units=1/GPa)
#
#
# Indices 1 2 3 4 5 6 
#
# 1 0.016222 -0.003668 0.003876 0.000000 -0.005751 0.000000
# 2 -0.003668 0.011291 -0.007695 0.000000 -0.004084 0.000000
# 3 0.003876 -0.007695 0.020056 0.000000 -0.002230 0.000000
# 4 0.000000 0.000000 0.000000 -2.098891 0.000000 -1.826000
# 5 -0.005751 -0.004084 -0.002230 0.000000 0.035331 0.000000
# 6 0.000000 0.000000 0.000000 -1.826000 0.000000 -1.479316
#
#
# Mechanical properties :
#
#
# Convention : Reuss Voigt Hill
#
# Bulk Modulus (GPa) = 30.68065 49.22369 39.95217
# Shear Modulus (GPa) = -1.44114 23.86271 11.21078
#
# Velocity S-wave (km/s) = -0.81294 3.30801 2.26738
# Velocity P-wave (km/s) = 3.63157 6.09618 5.01755
#
# Compressibility (1/GPa) = 0.03259383
#
# Stress axis : x y z
#
# Youngs Moduli (GPa) = 61.64469 88.56734 49.86120
#
# Poissons Ratio (x) = 0.32490 -0.19328
# Poissons Ratio (y) = 0.22614 0.38369
# Poissons Ratio (z) = -0.23895 0.68155
#
# Static dielectric constant tensor:
#      x y z
#    x 1.806030 0.000000 -0.012820 
#    y 0.000000 1.816200 0.000000 
#    z -0.012820 0.000000 1.796300 
# 
# From -- ./inp_files/375544.got.cif
#   From: 2010.05.17/outbox.cif.g08.bks.cpg/sg12_188_cif.got.tgz:375544.got - 2010.06.03 13:09:07.
