data_PCOD9210235
_publ_section_title
;
Structure prediction by ZEFSAII (Michael W. Deem and Ramdas Pophale) SiO2 
 PCOD9210235
Probable space group: C 2/M
;
_chemical_formula_sum "Si O2"
_cell_formula_units_Z 56
_cell_length_a 24.500818
_cell_length_b 29.981988
_cell_length_c 10.758718
_cell_angle_alpha 90.000000
_cell_angle_beta 159.103124
_cell_angle_gamma 90.000000
_cell_volume 2818.959856
_symmetry_space_group_name_H-M "C 2/M"
_symmetry_group_IT_number 12
_symmetry_cell_setting 'monoclinic'
loop_
_space_group_symop_operation_xyz
x,y,z
-x,y,-z
-x,-y,-z
x,-y,z
1/2+x,1/2+y,z
1/2-x,1/2+y,-z
1/2-x,1/2-y,-z
1/2+x,1/2-y,z
loop_
_atom_site_type_symbol
_atom_site_label
_atom_site_fract_x
_atom_site_fract_y
_atom_site_fract_z
Si Si1 0.573998 0.283163 0.295679
Si Si2 0.318972 0.622736 0.413441
Si Si3 0.402165 0.050925 0.165739
Si Si4 0.184846 0.611034 0.393816
Si Si5 0.758229 0.193646 0.718059
Si Si6 0.897977 0.124333 0.165195
Si Si7 0.210226 0.449340 0.679239
O O1 0.688512 0.323464 0.578112
O O2 0.646829 0.234948 0.467854
O O3 0.500000 0.288554 0.000000
O O4 0.427734 0.286713 0.072213
O O5 0.274127 0.604583 0.454710
O O6 0.486748 0.618996 0.707798
O O7 0.210528 0.592696 0.094379
O O8 0.500000 0.054384 0.500000
O O9 0.531550 0.053207 0.333999
O O10 0.334547 0.000000 0.018978
O O11 0.227420 0.659449 0.539980
O O12 0.233216 0.574158 0.596450
O O13 0.000000 0.609738 0.000000
O O14 0.768155 0.161140 0.858055
O O15 0.000000 0.135931 0.500000
O O16 0.808647 0.078161 0.988125
O O17 0.258147 0.500000 0.779820
#
# Coordination Sequence:
#
# PCOD9210235 Si02
#       7
#     8   8   8   8   8   8   8
#     4  11  21  36  58  89 120 152 191 243 285 359
#     4  11  23  38  61  90 117 154 200 238 296 354
#     4  10  21  39  61  86 117 156 205 247 282 340
#     4  11  21  37  59  88 123 155 186 245 300 351
#     4  10  23  36  59  88 117 152 197 236 295 348
#     4  10  23  43  61  81 120 158 196 246 290 345
#     4  10  22  37  59  89 118 155 197 241 297 351
#
# _framework density 19.865483999999999
#
# number of rings (size 3 to 8) (size 9 to 14) (size 15 to 20)
#    0.000    1.571    2.857    1.714    2.000    1.714 
#    0.000    4.286    0.000    0.000    0.000    0.000 
#    0.000    0.000    0.000    0.000    0.000    0.000 
#
# Total GULP energy -155979.961311 kJ/mol
# GULP energy per Si atom -5570.712904 kJ/mol
# Density = 1.982027 g / cm^3
# Si number density = 19.865484 Si / 1000 Ang^3
#
#
#
# Elastic Constant Matrix: (Units=GPa)
#
#
# Indices 1 2 3 4 5 6 
#
# 1 56.4535 19.5671 12.7068 0.0000 -1.7761 0.0000
# 2 19.5671 159.7640 56.6772 0.0000 -14.5975 0.0000
# 3 12.7068 56.6772 67.5190 0.0000 -19.1713 0.0000
# 4 0.0000 0.0000 0.0000 39.5862 0.0000 2.4398
# 5 -1.7761 -14.5975 -19.1713 0.0000 22.7358 0.0000
# 6 0.0000 0.0000 0.0000 2.4398 0.0000 10.9207
#
#
#
# Elastic Compliance Matrix: (Units=1/GPa)
#
#
# Indices 1 2 3 4 5 6 
#
# 1 0.018802 -0.001467 -0.002837 0.000000 -0.001865 0.000000
# 2 -0.001467 0.009038 -0.007489 0.000000 -0.000626 0.000000
# 3 -0.002837 -0.007489 0.026562 0.000000 0.017368 0.000000
# 4 0.000000 0.000000 0.000000 0.025614 0.000000 -0.005722
# 5 -0.001865 -0.000626 0.017368 0.000000 0.058081 0.000000
# 6 0.000000 0.000000 0.000000 -0.005722 0.000000 0.092847
#
#
# Mechanical properties :
#
#
# Convention : Reuss Voigt Hill
#
# Bulk Modulus (GPa) = 32.44864 51.29319 41.87092
# Shear Modulus (GPa) = 18.88203 27.63423 23.25813
#
# Velocity S-wave (km/s) = 3.08635 3.73375 3.42538
# Velocity P-wave (km/s) = 5.39170 6.66814 6.06360
#
# Compressibility (1/GPa) = 0.03081793
#
# Stress axis : x y z
#
# Youngs Moduli (GPa) = 53.18600 110.63950 37.64740
#
# Poissons Ratio (x) = 0.16229 0.10679
# Poissons Ratio (y) = 0.07802 0.28193
# Poissons Ratio (z) = 0.15087 0.82856
#
# Static dielectric constant tensor:
#      x y z
#    x 1.746110 0.000000 -0.003290 
#    y 0.000000 1.720950 0.000000 
#    z -0.003290 0.000000 1.719410 
# 
# From -- ./inp_files/185165.got.cif
#   From: 2010.05.17/outbox.cif.g08.bks.cpg/sg12_93_cif.got.tgz:185165.got - 2010.06.03 13:09:07.
