data_PCOD9210346
_publ_section_title
;
Structure prediction by ZEFSAII (Michael W. Deem and Ramdas Pophale) SiO2 
 PCOD9210346
Probable space group: C 2/M
;
_chemical_formula_sum "Si O2"
_cell_formula_units_Z 64
_cell_length_a 20.755342
_cell_length_b 8.940018
_cell_length_c 32.061411
_cell_angle_alpha 90.000000
_cell_angle_beta 141.826258
_cell_angle_gamma 90.000000
_cell_volume 3676.827467
_symmetry_space_group_name_H-M "C 2/M"
_symmetry_group_IT_number 12
_symmetry_cell_setting 'monoclinic'
loop_
_space_group_symop_operation_xyz
x,y,z
-x,y,-z
-x,-y,-z
x,-y,z
1/2+x,1/2+y,z
1/2-x,1/2+y,-z
1/2-x,1/2-y,-z
1/2+x,1/2-y,z
loop_
_atom_site_type_symbol
_atom_site_label
_atom_site_fract_x
_atom_site_fract_y
_atom_site_fract_z
Si Si1 0.500084 0.320451 0.205982
Si Si2 0.311296 0.678712 0.492139
Si Si3 0.992201 0.820943 0.359218
Si Si4 0.640582 0.678919 0.355618
Si Si5 0.935526 0.320871 0.848708
Si Si6 0.076153 0.320832 0.000147
Si Si7 0.790659 0.678471 0.135719
Si Si8 0.222364 0.678276 0.772184
O O1 0.495367 0.500000 0.201105
O O2 0.587588 0.280632 0.285044
O O3 0.528089 0.251156 0.175870
O O4 0.390448 0.257782 0.166607
O O5 0.300967 0.500000 0.488325
O O6 0.250000 0.750000 0.500000
O O7 0.431966 0.714416 0.563162
O O8 0.250209 0.742630 0.421421
O O9 0.883741 0.735765 0.302830
O O10 0.058426 0.783227 0.350944
O O11 0.974387 0.000000 0.349365
O O12 0.655258 0.500000 0.364932
O O13 0.930772 0.500000 0.842616
O O14 0.823164 0.257929 0.804621
O O15 0.016513 0.284576 0.927081
O O16 0.094410 0.500000 0.010921
O O17 0.184644 0.236499 0.060890
O O18 0.000000 0.282860 0.000000
O O19 0.800123 0.500000 0.136018
O O20 0.784925 0.713976 0.182158
O O21 0.232288 0.500000 0.772798
#
# Coordination Sequence:
#
# PCOD9210346 Si02
#       8
#     8   8   8   8   8   8   8   8
#     4  11  23  40  60  83 117 154 191 233 282 340
#     4   9  17  28  46  76 112 147 185 230 279 330
#     4   9  17  31  51  79 112 146 186 229 278 329
#     4   9  18  32  52  78 110 150 187 226 280 335
#     4  11  24  41  61  84 113 148 189 234 284 344
#     4  10  21  39  62  85 111 148 189 231 286 341
#     4  11  23  37  59  89 116 146 190 236 281 334
#     4  11  22  35  56  86 115 147 188 234 282 332
#
# _framework density 17.406310000000001
#
# number of rings (size 3 to 8) (size 9 to 14) (size 15 to 20)
#    0.000    1.875    2.500    2.625    0.000    6.250 
#    0.000    0.000    0.000    0.750    0.000    5.250 
#    0.000    0.000    0.000    0.000    0.000    0.000 
#
# Total GULP energy -178628.556267 kJ/mol
# GULP energy per Si atom -5582.142383 kJ/mol
# Density = 1.736669 g / cm^3
# Si number density = 17.406310 Si / 1000 Ang^3
#
#
#
# Elastic Constant Matrix: (Units=GPa)
#
#
# Indices 1 2 3 4 5 6 
#
# 1 106.2896 54.3538 79.3654 0.0000 -4.9745 0.0000
# 2 54.3538 56.3164 75.0980 -0.0001 1.7827 0.0000
# 3 79.3654 75.0980 184.7476 0.0000 4.8288 0.0000
# 4 0.0000 -0.0001 0.0000 33.9570 0.0000 2.0771
# 5 -4.9745 1.7827 4.8288 0.0000 21.5196 0.0000
# 6 0.0000 0.0000 0.0000 2.0771 0.0000 27.5671
#
#
#
# Elastic Compliance Matrix: (Units=1/GPa)
#
#
# Indices 1 2 3 4 5 6 
#
# 1 0.019589 -0.016737 -0.001777 0.000000 0.006314 0.000000
# 2 -0.016737 0.053077 -0.014253 0.000000 -0.005068 0.000000
# 3 -0.001777 -0.014253 0.012020 0.000000 -0.001927 0.000000
# 4 0.000000 0.000000 0.000000 0.029585 0.000000 -0.002229
# 5 0.006314 -0.005068 -0.001927 0.000000 0.048781 0.000000
# 6 0.000000 0.000000 0.000000 -0.002229 0.000000 0.036443
#
#
# Mechanical properties :
#
#
# Convention : Reuss Voigt Hill
#
# Bulk Modulus (GPa) = 52.21093 84.99868 68.60480
# Shear Modulus (GPa) = 18.42203 25.84451 22.13327
#
# Velocity S-wave (km/s) = 3.25676 3.85746 3.56977
# Velocity P-wave (km/s) = 6.64850 8.29326 7.51601
#
# Compressibility (1/GPa) = 0.01915308
#
# Stress axis : x y z
#
# Youngs Moduli (GPa) = 51.04779 18.84052 83.19348
#
# Poissons Ratio (x) = 0.31533 0.14784
# Poissons Ratio (y) = 0.85439 1.18574
# Poissons Ratio (z) = 0.09071 0.26853
#
# Static dielectric constant tensor:
#      x y z
#    x 1.560460 0.000000 -0.013450 
#    y 0.000000 1.579280 0.000000 
#    z -0.013450 0.000000 1.603790 
# 
# From -- ./inp_files/378420.got.cif
#   From: 2010.05.17/outbox.cif.g08.bks.cpg/sg12_190_cif.got.tgz:378420.got - 2010.06.03 13:09:07.
