data_PCOD9210118
_publ_section_title
;
Structure prediction by ZEFSAII (Michael W. Deem and Ramdas Pophale) SiO2 
 PCOD9210118
Probable space group: C 2/M
;
_chemical_formula_sum "Si O2"
_cell_formula_units_Z 60
_cell_length_a 23.549962
_cell_length_b 20.635707
_cell_length_c 11.620412
_cell_angle_alpha 90.000000
_cell_angle_beta 147.282040
_cell_angle_gamma 90.000000
_cell_volume 3052.319998
_symmetry_space_group_name_H-M "C 2/M"
_symmetry_group_IT_number 12
_symmetry_cell_setting 'monoclinic'
loop_
_space_group_symop_operation_xyz
x,y,z
-x,y,-z
-x,-y,-z
x,-y,z
1/2+x,1/2+y,z
1/2-x,1/2+y,-z
1/2-x,1/2-y,-z
1/2+x,1/2-y,z
loop_
_atom_site_type_symbol
_atom_site_label
_atom_site_fract_x
_atom_site_fract_y
_atom_site_fract_z
Si Si1 0.530854 0.638645 0.805916
Si Si2 0.810278 0.241756 0.222568
Si Si3 0.778910 0.070758 0.770539
Si Si4 0.408453 0.783216 0.042901
Si Si5 0.824239 0.689975 0.661085
Si Si6 0.333054 0.424722 0.593122
Si Si7 0.000000 0.144792 0.500000
Si Si8 0.911467 0.347724 0.558836
O O1 0.530130 0.717034 0.815643
O O2 0.443540 0.605179 0.738121
O O3 0.514714 0.612439 0.649097
O O4 0.649190 0.622223 0.043529
O O5 0.898192 0.188751 0.348360
O O6 0.869060 0.301371 0.385098
O O7 0.750000 0.250000 0.000000
O O8 0.714988 0.221427 0.141668
O O9 0.819955 0.072855 0.709056
O O10 0.655790 0.086966 0.569571
O O11 0.801227 0.000000 0.855816
O O12 0.463811 0.839458 0.213100
O O13 0.403914 0.791867 0.898295
O O14 0.750000 0.750000 0.500000
O O15 0.756756 0.627911 0.590582
O O16 0.876345 0.673648 0.627626
O O17 0.321372 0.500000 0.533469
#
# Coordination Sequence:
#
# PCOD9210118 Si02
#       8
#     8   8   8   8   8   8   4   8
#     4  12  21  37  58  90 121 155 205 252 317 368
#     4  12  20  38  55  84 119 156 196 240 312 366
#     4  10  21  39  60  84 118 161 205 243 292 365
#     4  12  22  35  60  89 124 154 194 255 317 364
#     4  11  20  36  58  90 125 159 198 251 309 366
#     4  10  22  39  61  88 125 166 204 252 307 376
#     4  12  24  38  59  90 123 158 196 264 316 370
#     4  11  21  36  54  88 119 151 196 244 303 363
#
# _framework density 19.657177999999998
#
# number of rings (size 3 to 8) (size 9 to 14) (size 15 to 20)
#    0.000    0.800    5.333    3.600    0.000    2.133 
#    0.000    2.000    0.000    3.200    0.000    8.867 
#    0.000    0.000    0.000    0.000    0.000    0.000 
#
# Total GULP energy -167180.015172 kJ/mol
# GULP energy per Si atom -5572.667172 kJ/mol
# Density = 1.961244 g / cm^3
# Si number density = 19.657178 Si / 1000 Ang^3
#
#
#
# Elastic Constant Matrix: (Units=GPa)
#
#
# Indices 1 2 3 4 5 6 
#
# 1 28.7026 18.2006 16.7700 0.0000 -4.7514 0.0000
# 2 18.2006 59.2503 16.5946 0.0000 6.6426 0.0000
# 3 16.7700 16.5946 85.8994 0.0000 -11.3310 0.0000
# 4 0.0000 0.0000 0.0000 17.0483 0.0000 2.1940
# 5 -4.7514 6.6426 -11.3310 0.0000 39.1623 0.0000
# 6 0.0000 0.0000 0.0000 2.1940 0.0000 9.9719
#
#
#
# Elastic Compliance Matrix: (Units=1/GPa)
#
#
# Indices 1 2 3 4 5 6 
#
# 1 0.048137 -0.013874 -0.005860 0.000000 0.006498 0.000000
# 2 -0.013874 0.022526 -0.002463 0.000000 -0.006217 0.000000
# 3 -0.005860 -0.002463 0.013748 0.000000 0.003684 0.000000
# 4 0.000000 0.000000 0.000000 0.060366 0.000000 -0.013282
# 5 0.006498 -0.006217 0.003684 0.000000 0.028444 0.000000
# 6 0.000000 0.000000 0.000000 -0.013282 0.000000 0.103204
#
#
# Mechanical properties :
#
#
# Convention : Reuss Voigt Hill
#
# Bulk Modulus (GPa) = 24.99005 30.77585 27.88295
# Shear Modulus (GPa) = 14.96293 21.38899 18.17596
#
# Velocity S-wave (km/s) = 2.76197 3.30222 3.04410
# Velocity P-wave (km/s) = 4.78663 5.49816 5.15469
#
# Compressibility (1/GPa) = 0.04001593
#
# Stress axis : x y z
#
# Youngs Moduli (GPa) = 20.77385 44.39266 72.74046
#
# Poissons Ratio (x) = 0.61591 0.42629
# Poissons Ratio (y) = 0.28822 0.17918
# Poissons Ratio (z) = 0.12174 0.10935
#
# Static dielectric constant tensor:
#      x y z
#    x 1.807200 0.000000 0.025290 
#    y 0.000000 1.710440 0.000000 
#    z 0.025290 0.000000 1.783110 
# 
# From -- ./inp_files/178045.got.cif
#   From: 2010.05.17/outbox.cif.g08.bks.cpg/sg12_90_cif.got.tgz:178045.got - 2010.06.03 13:09:07.
