data_PCOD9210187
_publ_section_title
;
Structure prediction by ZEFSAII (Michael W. Deem and Ramdas Pophale) SiO2 
 PCOD9210187
Probable space group: C 2/M
;
_chemical_formula_sum "Si O2"
_cell_formula_units_Z 48
_cell_length_a 26.461640
_cell_length_b 8.623770
_cell_length_c 15.062050
_cell_angle_alpha 90.000000
_cell_angle_beta 40.705125
_cell_angle_gamma 90.000000
_cell_volume 2241.590635
_symmetry_space_group_name_H-M "C 2/M"
_symmetry_group_IT_number 12
_symmetry_cell_setting 'monoclinic'
loop_
_space_group_symop_operation_xyz
x,y,z
-x,y,-z
-x,-y,-z
x,-y,z
1/2+x,1/2+y,z
1/2-x,1/2+y,-z
1/2-x,1/2-y,-z
1/2+x,1/2-y,z
loop_
_atom_site_type_symbol
_atom_site_label
_atom_site_fract_x
_atom_site_fract_y
_atom_site_fract_z
Si Si1 0.082108 0.815321 0.849045
Si Si2 0.833576 0.184700 0.759841
Si Si3 0.581153 0.812207 0.517800
Si Si4 0.169406 0.684665 0.571635
Si Si5 0.167195 0.687263 0.899683
Si Si6 0.584584 0.813553 0.184747
O O1 0.102878 0.735643 0.728886
O O2 0.146881 0.767492 0.834564
O O3 0.081516 0.000000 0.837901
O O4 0.000000 0.765567 0.000000
O O5 0.898193 0.242450 0.604436
O O6 0.750916 0.228747 0.827812
O O7 0.850759 0.257874 0.832205
O O8 0.835625 0.000000 0.765087
O O9 0.645481 0.764071 0.504810
O O10 0.498384 0.761994 0.667325
O O11 0.580841 0.000000 0.511136
O O12 0.174131 0.500000 0.564460
O O13 0.250000 0.750000 0.500000
O O14 0.164206 0.500000 0.892209
O O15 0.105196 0.735858 0.057647
O O16 0.584538 0.000000 0.184116
#
# Coordination Sequence:
#
# PCOD9210187 Si02
#       6
#     8   8   8   8   8   8
#     4  11  24  40  60  89 122 155 195 244 295 348
#     4  11  23  37  57  87 118 148 186 236 291 343
#     4  10  22  39  59  83 112 151 194 234 281 341
#     4  11  23  40  63  89 119 156 198 244 294 349
#     4  10  22  40  61  85 114 152 196 238 286 346
#     4  10  21  39  61  83 111 150 195 237 281 341
#
# _framework density 21.413367000000001
#
# number of rings (size 3 to 8) (size 9 to 14) (size 15 to 20)
#    0.000    1.500    0.000    4.500    0.000   11.333 
#    0.000    0.000    0.000    0.000    0.000    0.000 
#    0.000    0.000    0.000    0.000    0.000    0.000 
#
# Total GULP energy -134297.513843 kJ/mol
# GULP energy per Si atom -5595.729743 kJ/mol
# Density = 2.136463 g / cm^3
# Si number density = 21.413367 Si / 1000 Ang^3
#
#
#
# Elastic Constant Matrix: (Units=GPa)
#
#
# Indices 1 2 3 4 5 6 
#
# 1 59.8487 -2.8126 -15.9130 0.0002 5.9591 -0.0002
# 2 -2.8126 3.7154 -1.7170 -0.0009 -1.4241 -0.0003
# 3 -15.9130 -1.7170 60.8202 -0.0003 3.0472 -0.0002
# 4 0.0002 -0.0009 -0.0003 25.5574 -0.0002 -3.8825
# 5 5.9591 -1.4241 3.0472 -0.0002 42.8856 0.0002
# 6 -0.0002 -0.0003 -0.0002 -3.8825 0.0002 25.2825
#
#
#
# Elastic Compliance Matrix: (Units=1/GPa)
#
#
# Indices 1 2 3 4 5 6 
#
# 1 0.019212 0.016166 0.005610 0.000001 -0.002531 0.000000
# 2 0.016166 0.289462 0.012076 0.000011 0.006508 0.000006
# 3 0.005610 0.012076 0.018335 0.000001 -0.001681 0.000000
# 4 0.000001 0.000011 0.000001 0.040062 0.000000 0.006152
# 5 -0.002531 0.006508 -0.001681 0.000000 0.024005 0.000000
# 6 0.000000 0.000006 0.000000 0.006152 0.000000 0.040498
#
#
# Mechanical properties :
#
#
# Convention : Reuss Voigt Hill
#
# Bulk Modulus (GPa) = 2.53349 9.27767 5.90558
# Shear Modulus (GPa) = 10.09201 28.40024 19.24613
#
# Velocity S-wave (km/s) = 2.17329 3.64577 3.00124
# Velocity P-wave (km/s) = 2.73556 4.69726 3.84367
#
# Compressibility (1/GPa) = 0.39471183
#
# Stress axis : x y z
#
# Youngs Moduli (GPa) = 52.05035 3.45469 54.54104
#
# Poissons Ratio (x) = -0.05585 -0.30597
# Poissons Ratio (y) = -0.84145 -0.65861
# Poissons Ratio (z) = -0.29200 -0.04172
#
# Static dielectric constant tensor:
#      x y z
#    x 1.769230 0.000000 -0.033020 
#    y 0.000000 1.720560 0.000000 
#    z -0.033020 0.000000 1.781420 
# 
# From -- ./inp_files/244673.got.cif
#   From: 2010.05.17/outbox.cif.g08.bks.cpg/sg12_123_cif.got.tgz:244673.got - 2010.06.03 13:09:07.
