data_PCOD9210766
_publ_section_title
;
Structure prediction by ZEFSAII (Michael W. Deem and Ramdas Pophale) SiO2 
 PCOD9210766
Probable space group: C 2/M
;
_chemical_formula_sum "Si O2"
_cell_formula_units_Z 50
_cell_length_a 10.959996
_cell_length_b 26.221033
_cell_length_c 9.679241
_cell_angle_alpha 90.000000
_cell_angle_beta 114.721007
_cell_angle_gamma 90.000000
_cell_volume 2526.719684
_symmetry_space_group_name_H-M "C 2/M"
_symmetry_group_IT_number 12
_symmetry_cell_setting 'monoclinic'
loop_
_space_group_symop_operation_xyz
x,y,z
-x,y,-z
-x,-y,-z
x,-y,z
1/2+x,1/2+y,z
1/2-x,1/2+y,-z
1/2-x,1/2-y,-z
1/2+x,1/2-y,z
loop_
_atom_site_type_symbol
_atom_site_label
_atom_site_fract_x
_atom_site_fract_y
_atom_site_fract_z
Si Si1 0.637514 0.168826 0.286873
Si Si2 0.495768 0.440486 0.333608
Si Si3 0.654075 0.652170 0.855254
Si Si4 0.506414 0.739460 0.663525
Si Si5 0.500000 0.000000 0.500000
Si Si6 0.658144 0.836210 0.805351
Si Si7 0.293643 0.906894 0.434795
O O1 0.731368 0.168976 0.199339
O O2 0.615964 0.224525 0.345961
O O3 0.483335 0.152008 0.183874
O O4 0.694853 0.129799 0.426998
O O5 0.500000 0.429309 0.500000
O O6 0.464516 0.500000 0.301519
O O7 0.391229 0.404291 0.206786
O O8 0.643208 0.427353 0.348178
O O9 0.529961 0.690174 0.767715
O O10 0.716504 0.657392 0.035494
O O11 0.500000 0.725114 0.500000
O O12 0.632110 0.778201 0.744801
O O13 0.608259 0.045104 0.508005
O O14 0.666804 0.872548 0.677823
#
# Coordination Sequence:
#
# PCOD9210766 Si02
#       7
#     8   8   8   8   2   8   8
#     4  10  21  41  65  93 126 170 218 260 312 386
#     4  11  25  43  64  96 129 169 218 266 312 383
#     4  12  24  40  65  94 134 174 205 263 336 374
#     4  10  21  39  63  96 125 168 218 257 314 385
#     4  12  20  40  74 100 112 172 226 264 316 356
#     4  10  22  43  60  98 133 161 211 269 320 378
#     4  12  21  43  70  94 125 168 220 264 310 383
#
# _framework density 19.788502999999999
#
# number of rings (size 3 to 8) (size 9 to 14) (size 15 to 20)
#    0.960    0.160    5.600    1.440    0.000    2.560 
#    1.440    0.800    0.000    1.920    0.000    0.000 
#    0.000    0.000    0.000    0.000    0.000    0.000 
#
# Total GULP energy -139352.085211 kJ/mol
# GULP energy per Si atom -5574.083408 kJ/mol
# Density = 1.974346 g / cm^3
# Si number density = 19.788503 Si / 1000 Ang^3
#
#
#
# Elastic Constant Matrix: (Units=GPa)
#
#
# Indices 1 2 3 4 5 6 
#
# 1 44.3396 -2.6854 -26.1646 0.0000 -1.2620 0.0000
# 2 -2.6854 99.3563 34.3743 0.0000 3.2766 0.0000
# 3 -26.1646 34.3743 75.6969 0.0000 13.1255 0.0000
# 4 0.0000 0.0000 0.0000 4.5642 0.0000 13.2836
# 5 -1.2620 3.2766 13.1255 0.0000 21.4809 0.0000
# 6 0.0000 0.0000 0.0000 13.2836 0.0000 17.8112
#
#
#
# Elastic Compliance Matrix: (Units=1/GPa)
#
#
# Indices 1 2 3 4 5 6 
#
# 1 0.029745 -0.003444 0.012808 0.000000 -0.005553 0.000000
# 2 -0.003444 0.012393 -0.007220 0.000000 0.002319 0.000000
# 3 0.012808 -0.007220 0.023036 0.000000 -0.012222 0.000000
# 4 0.000000 0.000000 0.000000 -0.187169 0.000000 0.139591
# 5 -0.005553 0.002319 -0.012222 0.000000 0.053341 0.000000
# 6 0.000000 0.000000 0.000000 0.139591 0.000000 -0.047962
#
#
# Mechanical properties :
#
#
# Convention : Reuss Voigt Hill
#
# Bulk Modulus (GPa) = 14.39664 25.60458 20.00061
# Shear Modulus (GPa) = -51.15056 23.02916 -14.06070
#
# Velocity S-wave (km/s) = -5.08967 3.41510 -2.66850
# Velocity P-wave (km/s) = 5.22002 5.34020 0.79660
#
# Compressibility (1/GPa) = 0.06946067
#
# Stress axis : x y z
#
# Youngs Moduli (GPa) = 33.61956 80.68897 43.41084
#
# Poissons Ratio (x) = 0.27790 -0.55601
# Poissons Ratio (y) = 0.11579 0.31345
# Poissons Ratio (z) = -0.43060 0.58261
#
# Static dielectric constant tensor:
#      x y z
#    x 1.730590 0.000000 0.026450 
#    y 0.000000 1.670320 0.000000 
#    z 0.026450 0.000000 1.677990 
# 
# From -- ./inp_files/53359.got.cif
#   From: 2010.05.17/outbox.cif.g08.bks.cpg/sg12_27_cif.got.tgz:53359.got - 2010.06.03 13:09:07.
