data_PCOD9210997
_publ_section_title
;
Structure prediction by ZEFSAII (Michael W. Deem and Ramdas Pophale) SiO2 
 PCOD9210997
Probable space group: C 2/M
;
_chemical_formula_sum "Si O2"
_cell_formula_units_Z 42
_cell_length_a 5.017515
_cell_length_b 13.527746
_cell_length_c 27.612977
_cell_angle_alpha 90.000000
_cell_angle_beta 89.106348
_cell_angle_gamma 90.000000
_cell_volume 1874.021301
_symmetry_space_group_name_H-M "C 2/M"
_symmetry_group_IT_number 12
_symmetry_cell_setting 'monoclinic'
loop_
_space_group_symop_operation_xyz
x,y,z
-x,y,-z
-x,-y,-z
x,-y,z
1/2+x,1/2+y,z
1/2-x,1/2+y,-z
1/2-x,1/2-y,-z
1/2+x,1/2-y,z
loop_
_atom_site_type_symbol
_atom_site_label
_atom_site_fract_x
_atom_site_fract_y
_atom_site_fract_z
Si Si1 0.236652 0.884754 0.533010
Si Si2 0.421866 0.000000 0.699439
Si Si3 0.747208 0.314968 0.173399
Si Si4 0.500000 0.500000 0.000000
Si Si5 0.253909 0.309295 0.359251
Si Si6 0.916225 0.000000 0.761682
Si Si7 0.750433 0.681736 0.059860
O O1 0.500000 0.884236 0.500000
O O2 0.267974 0.829597 0.583381
O O3 0.000000 0.845244 0.500000
O O4 0.172173 0.000000 0.544979
O O5 0.346872 0.904299 0.668720
O O6 0.224759 0.000000 0.746149
O O7 0.727004 0.000000 0.715070
O O8 0.544291 0.223904 0.181800
O O9 0.660823 0.403942 0.207438
O O10 0.724486 0.344493 0.116968
O O11 0.331153 0.587775 0.971346
O O12 0.555769 0.280147 0.347033
O O13 0.043866 0.727531 0.052178
#
# Coordination Sequence:
#
# PCOD9210997 Si02
#       7
#     8   4   8   2   8   4   8
#     4  10  21  39  65  93 125 161 204 255 300 350
#     4  12  28  46  62  97 132 157 209 260 310 379
#     4  10  22  42  66  94 126 159 209 268 318 369
#     4  12  22  38  64  88 132 178 218 246 312 380
#     4  12  26  44  67  92 128 170 205 249 311 368
#     4  12  25  42  70  92 120 164 208 258 320 383
#     4  10  23  40  60  92 129 166 212 264 311 368
#
# _framework density 22.411697
#
# number of rings (size 3 to 8) (size 9 to 14) (size 15 to 20)
#    0.000    1.143    0.952    4.571    0.000    8.381 
#    0.000    5.714    0.000    0.000    0.000    0.000 
#    0.000    0.000    0.000    0.000    0.000    0.000 
#
# Total GULP energy -117394.109600 kJ/mol
# GULP energy per Si atom -5590.195695 kJ/mol
# Density = 2.236069 g / cm^3
# Si number density = 22.411697 Si / 1000 Ang^3
#
#
#
# Elastic Constant Matrix: (Units=GPa)
#
#
# Indices 1 2 3 4 5 6 
#
# 1 73.1076 -7.5884 -4.1944 0.0000 8.7391 0.0000
# 2 -7.5884 104.0717 29.0131 0.0000 12.3700 0.0000
# 3 -4.1944 29.0131 60.1221 0.0000 10.8914 0.0000
# 4 0.0000 0.0000 0.0000 -36.9569 0.0000 27.6770
# 5 8.7391 12.3700 10.8914 0.0000 30.6544 0.0000
# 6 0.0000 0.0000 0.0000 27.6770 0.0000 18.0498
#
#
#
# Elastic Compliance Matrix: (Units=1/GPa)
#
#
# Indices 1 2 3 4 5 6 
#
# 1 0.014501 0.001301 0.001313 0.000000 -0.005125 0.000000
# 2 0.001301 0.011441 -0.004838 0.000000 -0.003269 0.000000
# 3 0.001313 -0.004838 0.020065 0.000000 -0.005551 0.000000
# 4 0.000000 0.000000 0.000000 -0.012595 0.000000 0.019313
# 5 -0.005125 -0.003269 -0.005551 0.000000 0.037374 0.000000
# 6 0.000000 0.000000 0.000000 0.019313 0.000000 0.025788
#
#
# Mechanical properties :
#
#
# Convention : Reuss Voigt Hill
#
# Bulk Modulus (GPa) = 24.06331 30.19579 27.12955
# Shear Modulus (GPa) = 43.52492 17.02086 30.27289
#
# Velocity S-wave (km/s) = 4.41166 2.75883 3.67926
# Velocity P-wave (km/s) = 6.05893 4.86319 5.49369
#
# Compressibility (1/GPa) = 0.04155705
#
# Stress axis : x y z
#
# Youngs Moduli (GPa) = 68.95858 87.40588 49.83881
#
# Poissons Ratio (x) = -0.11369 -0.06541
# Poissons Ratio (y) = -0.08969 0.24113
# Poissons Ratio (z) = -0.09051 0.42288
#
# Static dielectric constant tensor:
#      x y z
#    x 1.753600 0.000000 0.005290 
#    y 0.000000 1.802920 0.000000 
#    z 0.005290 0.000000 1.813720 
# 
# From -- ./inp_files/330888.got.cif
#   From: 2010.05.17/outbox.cif.g08.bks.cpg/sg12_166_cif.got.tgz:330888.got - 2010.06.03 13:09:07.
