data_PCOD9210539
_publ_section_title
;
Structure prediction by ZEFSAII (Michael W. Deem and Ramdas Pophale) SiO2 
 PCOD9210539
Probable space group: C 2/M
;
_chemical_formula_sum "Si O2"
_cell_formula_units_Z 48
_cell_length_a 17.002142
_cell_length_b 29.073108
_cell_length_c 5.310731
_cell_angle_alpha 90.000000
_cell_angle_beta 128.150653
_cell_angle_gamma 90.000000
_cell_volume 2064.367220
_symmetry_space_group_name_H-M "C 2/M"
_symmetry_group_IT_number 12
_symmetry_cell_setting 'monoclinic'
loop_
_space_group_symop_operation_xyz
x,y,z
-x,y,-z
-x,-y,-z
x,-y,z
1/2+x,1/2+y,z
1/2-x,1/2+y,-z
1/2-x,1/2-y,-z
1/2+x,1/2-y,z
loop_
_atom_site_type_symbol
_atom_site_label
_atom_site_fract_x
_atom_site_fract_y
_atom_site_fract_z
Si Si1 0.258087 0.308882 0.244361
Si Si2 0.620572 0.552568 0.245816
Si Si3 0.389287 0.854959 0.665727
Si Si4 0.068505 0.450612 0.387636
Si Si5 0.621152 0.389012 0.747797
Si Si6 0.604209 0.760683 0.606707
O O1 0.198022 0.340275 0.318108
O O2 0.312271 0.342871 0.151166
O O3 0.348271 0.274844 0.497479
O O4 0.177688 0.272119 0.982533
O O5 0.659464 0.500000 0.318353
O O6 0.645743 0.579050 0.553907
O O7 0.500000 0.549120 0.000000
O O8 0.643662 0.583072 0.046389
O O9 0.368351 0.904200 0.501039
O O10 0.405190 0.811557 0.520189
O O11 0.500000 0.860276 0.000000
O O12 0.121986 0.500000 0.508738
O O13 0.000000 0.446878 0.500000
O O14 0.000000 0.452552 0.000000
O O15 0.500000 0.379515 0.500000
O O16 0.500000 0.742801 0.500000
#
# Coordination Sequence:
#
# PCOD9210539 Si02
#       6
#     8   8   8   8   8   8
#     4  11  25  40  64  94 129 171 218 274 332 396
#     4   9  18  36  64  93 129 175 221 266 327 392
#     4  11  22  40  66  93 128 174 219 272 331 396
#     4   9  19  36  63  95 127 169 218 266 319 382
#     4  10  21  39  62  96 131 172 215 273 329 388
#     4  11  23  44  66  92 126 170 223 271 337 398
#
# _framework density 23.251676
#
# number of rings (size 3 to 8) (size 9 to 14) (size 15 to 20)
#    0.000    1.833    1.667    2.000    4.667    2.000 
#    0.000    2.500    0.000    0.000    0.000    0.000 
#    0.000    0.000    0.000    0.000    0.000    0.000 
#
# Total GULP energy -133978.467312 kJ/mol
# GULP energy per Si atom -5582.436138 kJ/mol
# Density = 2.319875 g / cm^3
# Si number density = 23.251676 Si / 1000 Ang^3
#
#
#
# Elastic Constant Matrix: (Units=GPa)
#
#
# Indices 1 2 3 4 5 6 
#
# 1 153.4304 70.5987 51.4093 0.0000 0.0659 0.0000
# 2 70.5987 159.4368 14.0931 0.0000 0.4210 0.0000
# 3 51.4093 14.0931 46.8817 0.0000 -11.5236 0.0000
# 4 0.0000 0.0000 0.0000 23.9128 0.0000 -16.7002
# 5 0.0659 0.4210 -11.5236 0.0000 40.3358 0.0000
# 6 0.0000 0.0000 0.0000 -16.7002 0.0000 37.8064
#
#
#
# Elastic Compliance Matrix: (Units=1/GPa)
#
#
# Indices 1 2 3 4 5 6 
#
# 1 0.013507 -0.004697 -0.014404 0.000000 -0.004088 0.000000
# 2 -0.004697 0.008093 0.002902 0.000000 0.000752 0.000000
# 3 -0.014404 0.002902 0.038990 0.000000 0.011132 0.000000
# 4 0.000000 0.000000 0.000000 0.060475 0.000000 0.026713
# 5 -0.004088 0.000752 0.011132 0.000000 0.027971 0.000000
# 6 0.000000 0.000000 0.000000 0.026713 0.000000 0.038251
#
#
# Mechanical properties :
#
#
# Convention : Reuss Voigt Hill
#
# Bulk Modulus (GPa) = 35.47065 70.21679 52.84372
# Shear Modulus (GPa) = 21.82632 35.32086 28.57359
#
# Velocity S-wave (km/s) = 3.06714 3.90175 3.50935
# Velocity P-wave (km/s) = 5.27554 7.11072 6.26074
#
# Compressibility (1/GPa) = 0.02819232
#
# Stress axis : x y z
#
# Youngs Moduli (GPa) = 74.03580 123.55892 25.64787
#
# Poissons Ratio (x) = 0.58034 0.36944
# Poissons Ratio (y) = 0.34774 -0.07444
# Poissons Ratio (z) = 1.06644 -0.35863
#
# Static dielectric constant tensor:
#      x y z
#    x 1.922810 0.000000 0.051740 
#    y 0.000000 1.925730 0.000000 
#    z 0.051740 0.000000 1.909020 
# 
# From -- ./inp_files/13228.got.cif
#   From: 2010.05.17/outbox.cif.g08.bks.cpg/sg12_7_cif.got.tgz:13228.got - 2010.06.03 13:09:07.
