data_PCOD9210250
_publ_section_title
;
Structure prediction by ZEFSAII (Michael W. Deem and Ramdas Pophale) SiO2 
 PCOD9210250
Probable space group: C 2/M
;
_chemical_formula_sum "Si O2"
_cell_formula_units_Z 40
_cell_length_a 8.854116
_cell_length_b 11.338506
_cell_length_c 16.945152
_cell_angle_alpha 90.000000
_cell_angle_beta 84.881847
_cell_angle_gamma 90.000000
_cell_volume 1694.382481
_symmetry_space_group_name_H-M "C 2/M"
_symmetry_group_IT_number 12
_symmetry_cell_setting 'monoclinic'
loop_
_space_group_symop_operation_xyz
x,y,z
-x,y,-z
-x,-y,-z
x,-y,z
1/2+x,1/2+y,z
1/2-x,1/2+y,-z
1/2-x,1/2-y,-z
1/2+x,1/2-y,z
loop_
_atom_site_type_symbol
_atom_site_label
_atom_site_fract_x
_atom_site_fract_y
_atom_site_fract_z
Si Si1 0.372965 0.124006 0.439265
Si Si2 0.346987 0.127722 0.742449
Si Si3 0.552446 0.279617 0.837853
Si Si4 0.833691 0.126645 0.405198
Si Si5 0.738427 0.637041 0.059538
O O1 0.500000 0.118073 0.500000
O O2 0.221412 0.127692 0.500875
O O3 0.400008 0.243890 0.392172
O O4 0.369826 0.000000 0.394258
O O5 0.455489 0.226922 0.770732
O O6 0.188543 0.143712 0.796621
O O7 0.301865 0.127986 0.652485
O O8 0.411273 0.000000 0.759145
O O9 0.430469 0.349831 0.896036
O O10 0.632644 0.173358 0.882681
O O11 0.913747 0.000000 0.388623
O O12 0.759276 0.500000 0.031361
O O13 0.750000 0.750000 0.000000
#
# Coordination Sequence:
#
# PCOD9210250 Si02
#       5
#     8   8   8   8   8
#     4   9  18  33  53  77 109 145 192 246 295 349
#     4  10  21  39  61  86 121 161 202 248 300 359
#     4  10  23  40  62  90 125 160 197 247 297 357
#     4   9  19  34  53  79 109 148 194 243 298 351
#     4  11  24  42  66  95 124 159 201 244 297 354
#
# _framework density 23.607419
#
# number of rings (size 3 to 8) (size 9 to 14) (size 15 to 20)
#    0.000    2.200    0.000    1.800    2.800    6.800 
#    0.000    5.000    0.000    0.000    0.000    0.000 
#    0.000    0.000    0.000    0.000    0.000    0.000 
#
# Total GULP energy -111530.670726 kJ/mol
# GULP energy per Si atom -5576.533536 kJ/mol
# Density = 2.355369 g / cm^3
# Si number density = 23.607419 Si / 1000 Ang^3
#
#
#
# Elastic Constant Matrix: (Units=GPa)
#
#
# Indices 1 2 3 4 5 6 
#
# 1 66.2399 16.1077 22.2737 0.0000 -12.9572 0.0000
# 2 16.1077 230.3074 46.8227 0.0000 -1.3876 0.0000
# 3 22.2737 46.8227 79.7957 0.0000 -11.6148 0.0000
# 4 0.0000 0.0000 0.0000 8.8109 0.0000 24.4331
# 5 -12.9572 -1.3876 -11.6148 0.0000 33.2948 0.0000
# 6 0.0000 0.0000 0.0000 24.4331 0.0000 -13.5158
#
#
#
# Elastic Compliance Matrix: (Units=1/GPa)
#
#
# Indices 1 2 3 4 5 6 
#
# 1 0.017567 -0.000409 -0.003867 0.000000 0.005470 0.000000
# 2 -0.000409 0.004962 -0.002940 0.000000 -0.000978 0.000000
# 3 -0.003867 -0.002940 0.015907 0.000000 0.003922 0.000000
# 4 0.000000 0.000000 0.000000 0.018875 0.000000 0.034121
# 5 0.005470 -0.000978 0.003922 0.000000 0.033491 0.000000
# 6 0.000000 0.000000 0.000000 0.034121 0.000000 -0.012305
#
#
# Mechanical properties :
#
#
# Convention : Reuss Voigt Hill
#
# Bulk Modulus (GPa) = 41.66030 60.75014 51.20522
# Shear Modulus (GPa) = 49.53838 25.12722 37.33280
#
# Velocity S-wave (km/s) = 4.58583 3.26602 3.98100
# Velocity P-wave (km/s) = 6.76204 6.32549 6.54741
#
# Compressibility (1/GPa) = 0.02400367
#
# Stress axis : x y z
#
# Youngs Moduli (GPa) = 56.92644 201.51207 62.86395
#
# Poissons Ratio (x) = 0.08252 0.24309
# Poissons Ratio (y) = 0.02331 0.18482
# Poissons Ratio (z) = 0.22013 0.59244
#
# Static dielectric constant tensor:
#      x y z
#    x 1.924730 0.000000 -0.047790 
#    y 0.000000 1.953400 0.000000 
#    z -0.047790 0.000000 1.900910 
# 
# From -- ./inp_files/203501.got.cif
#   From: 2010.05.17/outbox.cif.g08.bks.cpg/sg12_102_cif.got.tgz:203501.got - 2010.06.03 13:09:07.
