data_PCOD9210117
_publ_section_title
;
Structure prediction by ZEFSAII (Michael W. Deem and Ramdas Pophale) SiO2 
 PCOD9210117
Probable space group: C 2/M
;
_chemical_formula_sum "Si O2"
_cell_formula_units_Z 56
_cell_length_a 27.644012
_cell_length_b 8.106842
_cell_length_c 13.095722
_cell_angle_alpha 90.000000
_cell_angle_beta 112.136694
_cell_angle_gamma 90.000000
_cell_volume 2718.491816
_symmetry_space_group_name_H-M "C 2/M"
_symmetry_group_IT_number 12
_symmetry_cell_setting 'monoclinic'
loop_
_space_group_symop_operation_xyz
x,y,z
-x,y,-z
-x,-y,-z
x,-y,z
1/2+x,1/2+y,z
1/2-x,1/2+y,-z
1/2-x,1/2-y,-z
1/2+x,1/2-y,z
loop_
_atom_site_type_symbol
_atom_site_label
_atom_site_fract_x
_atom_site_fract_y
_atom_site_fract_z
Si Si1 0.633879 0.804779 0.271638
Si Si2 0.250980 0.800307 0.314757
Si Si3 0.446561 0.699302 0.406807
Si Si4 0.594610 0.303072 0.837457
Si Si5 0.288948 0.802626 0.119905
Si Si6 0.441111 0.698450 0.970646
Si Si7 0.358637 0.800479 0.496433
O O1 0.694669 0.769113 0.297876
O O2 0.597170 0.736108 0.153604
O O3 0.623135 0.740191 0.377769
O O4 0.625864 0.000000 0.266415
O O5 0.266964 0.750715 0.212540
O O6 0.299171 0.747393 0.424975
O O7 0.247555 0.000000 0.315362
O O8 0.500000 0.760229 0.500000
O O9 0.448692 0.500000 0.404894
O O10 0.438588 0.761663 0.284986
O O11 0.397417 0.746051 0.437911
O O12 0.586652 0.500000 0.834780
O O13 0.654567 0.270643 0.858113
O O14 0.580332 0.236924 0.937897
O O15 0.293661 0.000000 0.125581
O O16 0.250000 0.750000 0.000000
O O17 0.443517 0.500000 0.979584
O O18 0.500000 0.759927 0.000000
O O19 0.358206 0.000000 0.496880
#
# Coordination Sequence:
#
# PCOD9210117 Si02
#       7
#     8   8   8   8   8   8   8
#     4  11  24  39  60  90 122 155 198 249 295 347
#     4  10  21  39  60  84 118 157 198 239 291 358
#     4  10  22  38  62  93 121 152 198 250 294 347
#     4  10  21  39  60  88 120 151 196 246 292 347
#     4  11  22  36  58  86 118 157 196 238 292 351
#     4  10  23  42  64  86 116 160 202 242 293 353
#     4  10  22  41  61  88 123 158 197 241 295 356
#
# _framework density 20.599658000000002
#
# number of rings (size 3 to 8) (size 9 to 14) (size 15 to 20)
#    0.000    1.714    1.429    2.143    2.000    7.429 
#    0.000    0.000    0.000    0.000    0.000    0.000 
#    0.000    0.000    0.000    0.000    0.000    0.000 
#
# Total GULP energy -156475.619296 kJ/mol
# GULP energy per Si atom -5588.414975 kJ/mol
# Density = 2.055277 g / cm^3
# Si number density = 20.599658 Si / 1000 Ang^3
#
#
#
# Elastic Constant Matrix: (Units=GPa)
#
#
# Indices 1 2 3 4 5 6 
#
# 1 48.6803 1.0336 37.1602 0.0000 8.4716 0.0000
# 2 1.0336 9.1706 13.8331 0.0000 -3.6682 0.0000
# 3 37.1602 13.8331 181.8679 0.0000 4.1967 0.0000
# 4 0.0000 0.0000 0.0000 1.0862 0.0000 -19.0816
# 5 8.4716 -3.6682 4.1967 0.0000 43.1520 0.0000
# 6 0.0000 0.0000 0.0000 -19.0816 0.0000 2.9917
#
#
#
# Elastic Compliance Matrix: (Units=1/GPa)
#
#
# Indices 1 2 3 4 5 6 
#
# 1 0.025260 0.003546 -0.005335 0.000000 -0.004139 0.000000
# 2 0.003546 0.129543 -0.010840 0.000000 0.011370 0.000000
# 3 -0.005335 -0.010840 0.007427 0.000000 -0.000596 0.000000
# 4 0.000000 0.000000 0.000000 -0.008291 0.000000 -0.052879
# 5 -0.004139 0.011370 -0.000596 0.000000 0.025011 0.000000
# 6 0.000000 0.000000 0.000000 -0.052879 0.000000 -0.003010
#
#
# Mechanical properties :
#
#
# Convention : Reuss Voigt Hill
#
# Bulk Modulus (GPa) = 7.30084 38.19698 22.74891
# Shear Modulus (GPa) = 20.25461 21.95877 21.10669
#
# Velocity S-wave (km/s) = 3.13908 3.26847 3.20443
# Velocity P-wave (km/s) = 4.08538 5.72946 4.97579
#
# Compressibility (1/GPa) = 0.13697045
#
# Stress axis : x y z
#
# Youngs Moduli (GPa) = 39.58834 7.71942 134.64508
#
# Poissons Ratio (x) = -0.02737 0.71839
# Poissons Ratio (y) = -0.14036 1.45957
# Poissons Ratio (z) = 0.21122 0.08368
#
# Static dielectric constant tensor:
#      x y z
#    x 1.687270 0.000000 -0.010310 
#    y 0.000000 1.736220 0.000000 
#    z -0.010310 0.000000 1.747880 
# 
# From -- ./inp_files/181065.got.cif
#   From: 2010.05.17/outbox.cif.g08.bks.cpg/sg12_91_cif.got.tgz:181065.got - 2010.06.03 13:09:07.
