data_PCOD9210302
_publ_section_title
;
Structure prediction by ZEFSAII (Michael W. Deem and Ramdas Pophale) SiO2 
 PCOD9210302
Probable space group: C 2/M
;
_chemical_formula_sum "Si O2"
_cell_formula_units_Z 64
_cell_length_a 26.998537
_cell_length_b 20.373696
_cell_length_c 12.562377
_cell_angle_alpha 90.000000
_cell_angle_beta 21.520747
_cell_angle_gamma 90.000000
_cell_volume 2534.873684
_symmetry_space_group_name_H-M "C 2/M"
_symmetry_group_IT_number 12
_symmetry_cell_setting 'monoclinic'
loop_
_space_group_symop_operation_xyz
x,y,z
-x,y,-z
-x,-y,-z
x,-y,z
1/2+x,1/2+y,z
1/2-x,1/2+y,-z
1/2-x,1/2-y,-z
1/2+x,1/2-y,z
loop_
_atom_site_type_symbol
_atom_site_label
_atom_site_fract_x
_atom_site_fract_y
_atom_site_fract_z
Si Si1 0.160162 0.076486 0.194899
Si Si2 0.168274 0.214551 0.390171
Si Si3 0.783518 0.076163 0.142317
Si Si4 0.936868 0.721809 0.742246
Si Si5 0.871210 0.922869 0.183428
Si Si6 0.318123 0.804749 0.438869
Si Si7 0.717602 0.574413 0.328349
Si Si8 0.501583 0.881786 0.792314
O O1 0.203366 0.089137 0.229338
O O2 0.000000 0.084821 0.500000
O O3 0.195746 0.000000 0.118781
O O4 0.220035 0.108431 0.967512
O O5 0.021007 0.221466 0.633536
O O6 0.209025 0.273044 0.389580
O O7 0.173630 0.148000 0.449362
O O8 0.276514 0.224898 0.078243
O O9 0.891267 0.094460 0.018012
O O10 0.639969 0.081511 0.487835
O O11 0.815581 0.000000 0.060395
O O12 0.972285 0.659552 0.744636
O O13 0.000000 0.715755 0.500000
O O14 0.757762 0.871248 0.442085
O O15 0.833078 0.000000 0.266993
O O16 0.000000 0.914045 0.000000
O O17 0.250000 0.750000 0.500000
O O18 0.470020 0.831068 0.167303
O O19 0.660517 0.500000 0.462789
O O20 0.871240 0.573245 0.063258
#
# Coordination Sequence:
#
# PCOD9210302 Si02
#       8
#     8   8   8   8   8   8   8   8
#     4   9  19  35  52  81 126 176 216 256 324 399
#     4  10  23  42  64  96 124 173 227 264 329 409
#     4   9  17  32  56  85 120 160 209 262 319 388
#     4  10  21  39  61  89 130 167 212 272 328 391
#     4   9  19  37  62  93 122 154 206 274 330 379
#     4  10  22  44  68  93 130 173 218 274 332 397
#     4  10  21  39  61  90 134 173 213 272 330 395
#     4   9  20  35  60  92 120 158 219 262 324 391
#
# _framework density 25.247807999999999
#
# number of rings (size 3 to 8) (size 9 to 14) (size 15 to 20)
#    0.000    2.500    0.000    0.750    3.500    4.000 
#   11.250    2.500    0.000    0.750    0.000    0.000 
#    0.000    0.000    0.000    0.000    0.000    0.000 
#
# Total GULP energy -178218.502156 kJ/mol
# GULP energy per Si atom -5569.328192 kJ/mol
# Density = 2.519034 g / cm^3
# Si number density = 25.247808 Si / 1000 Ang^3
#
#
#
# Elastic Constant Matrix: (Units=GPa)
#
#
# Indices 1 2 3 4 5 6 
#
# 1 122.2909 11.5975 -1.6543 -0.0002 -0.9802 0.0000
# 2 11.5975 120.0115 28.4493 0.0003 -19.7069 0.0003
# 3 -1.6543 28.4493 73.6883 0.0016 -19.5661 -0.0008
# 4 -0.0002 0.0003 0.0016 29.6266 -0.0002 -8.7975
# 5 -0.9802 -19.7069 -19.5661 -0.0002 44.8976 -0.0007
# 6 0.0000 0.0003 -0.0008 -8.7975 -0.0007 19.5997
#
#
#
# Elastic Compliance Matrix: (Units=1/GPa)
#
#
# Indices 1 2 3 4 5 6 
#
# 1 0.008273 -0.000927 0.000547 0.000000 0.000012 0.000000
# 2 -0.000927 0.009600 -0.002956 0.000000 0.002905 0.000000
# 3 0.000547 -0.002956 0.016265 -0.000001 0.005803 0.000001
# 4 0.000000 0.000000 -0.000001 0.038944 0.000000 0.017480
# 5 0.000012 0.002905 0.005803 0.000000 0.026077 0.000001
# 6 0.000000 0.000000 0.000001 0.017480 0.000001 0.058867
#
#
# Mechanical properties :
#
#
# Convention : Reuss Voigt Hill
#
# Bulk Modulus (GPa) = 36.40931 43.64174 40.02553
# Shear Modulus (GPa) = 28.75996 37.33136 33.04566
#
# Velocity S-wave (km/s) = 3.37873 3.84943 3.62173
# Velocity P-wave (km/s) = 5.44731 6.08936 5.77726
#
# Compressibility (1/GPa) = 0.02746551
#
# Stress axis : x y z
#
# Youngs Moduli (GPa) = 120.88046 104.16820 61.48240
#
# Poissons Ratio (x) = 0.09657 -0.03362
# Poissons Ratio (y) = 0.11207 0.18172
# Poissons Ratio (z) = -0.06610 0.30788
#
# Static dielectric constant tensor:
#      x y z
#    x 2.070340 0.000000 0.049540 
#    y 0.000000 2.019460 0.000000 
#    z 0.049540 0.000000 2.236890 
# 
# From -- ./inp_files/251911.got.cif
#   From: 2010.05.17/outbox.cif.g08.bks.cpg/sg12_126_cif.got.tgz:251911.got - 2010.06.03 13:09:07.
