data_PCOD9210015
_publ_section_title
;
Structure prediction by ZEFSAII (Michael W. Deem and Ramdas Pophale) SiO2 
 PCOD9210015
Probable space group: C 2/M
;
_chemical_formula_sum "Si O2"
_cell_formula_units_Z 56
_cell_length_a 9.735671
_cell_length_b 14.955251
_cell_length_c 23.867103
_cell_angle_alpha 90.000000
_cell_angle_beta 52.289921
_cell_angle_gamma 90.000000
_cell_volume 2749.156360
_symmetry_space_group_name_H-M "C 2/M"
_symmetry_group_IT_number 12
_symmetry_cell_setting 'monoclinic'
loop_
_space_group_symop_operation_xyz
x,y,z
-x,y,-z
-x,-y,-z
x,-y,z
1/2+x,1/2+y,z
1/2-x,1/2+y,-z
1/2-x,1/2-y,-z
1/2+x,1/2-y,z
loop_
_atom_site_type_symbol
_atom_site_label
_atom_site_fract_x
_atom_site_fract_y
_atom_site_fract_z
Si Si1 0.246212 0.599365 0.538548
Si Si2 0.815597 0.604967 0.013885
Si Si3 0.121118 0.276693 0.110914
Si Si4 0.435246 0.650890 0.602343
Si Si5 0.512400 0.595020 0.285574
Si Si6 0.355789 0.154093 0.657728
Si Si7 0.777772 0.269027 0.793903
O O1 0.274064 0.500000 0.508599
O O2 0.326005 0.604079 0.581018
O O3 0.369274 0.661776 0.470287
O O4 0.043433 0.618603 0.593090
O O5 0.758593 0.500000 0.026194
O O6 0.694573 0.678564 0.075037
O O7 0.842130 0.650266 0.946303
O O8 0.000000 0.606357 0.000000
O O9 0.208689 0.306677 0.147066
O O10 0.915919 0.264265 0.169976
O O11 0.448029 0.602333 0.658352
O O12 0.347255 0.745791 0.635553
O O13 0.578814 0.500000 0.246913
O O14 0.307378 0.601492 0.325519
O O15 0.599902 0.681636 0.237060
O O16 0.339013 0.165410 0.729056
#
# Coordination Sequence:
#
# PCOD9210015 Si02
#       7
#     8   8   8   8   8   8   8
#     4  11  22  38  58  84 117 153 199 258 311 357
#     4  10  22  41  70 101 127 164 209 248 297 359
#     4  11  22  43  67  94 132 166 200 253 300 359
#     4  10  21  39  59  81 114 158 201 247 314 377
#     4  11  23  39  60  88 119 156 208 259 303 365
#     4  11  23  39  59  86 118 156 205 250 302 363
#     4  11  23  41  62  89 126 169 201 238 312 362
#
# _framework density 20.369886000000001
#
# number of rings (size 3 to 8) (size 9 to 14) (size 15 to 20)
#    0.000    1.286    2.857    4.286    2.000    2.857 
#    0.000    4.286    0.000    0.000    0.000    0.000 
#    0.000    0.000    0.000    0.000    0.000    0.000 
#
# Total GULP energy -156384.003678 kJ/mol
# GULP energy per Si atom -5585.142989 kJ/mol
# Density = 2.032352 g / cm^3
# Si number density = 20.369886 Si / 1000 Ang^3
#
#
#
# Elastic Constant Matrix: (Units=GPa)
#
#
# Indices 1 2 3 4 5 6 
#
# 1 38.3201 9.0054 -11.0527 -0.0001 -9.8029 0.0001
# 2 9.0054 91.5727 5.5290 0.0000 2.3974 0.0001
# 3 -11.0527 5.5290 47.9867 0.0000 3.9105 0.0001
# 4 -0.0001 0.0000 0.0000 3.3525 0.0000 5.4218
# 5 -9.8029 2.3974 3.9105 0.0000 42.3333 -0.0001
# 6 0.0001 0.0001 0.0001 5.4218 -0.0001 20.0967
#
#
#
# Elastic Compliance Matrix: (Units=1/GPa)
#
#
# Indices 1 2 3 4 5 6 
#
# 1 0.030647 -0.003607 0.006932 0.000001 0.006661 -0.000001
# 2 -0.003607 0.011432 -0.002043 0.000000 -0.001294 0.000000
# 3 0.006932 -0.002043 0.022702 0.000001 -0.000376 0.000000
# 4 0.000001 0.000000 0.000001 0.529158 0.000000 -0.142759
# 5 0.006661 -0.001294 -0.000376 0.000000 0.025272 0.000000
# 6 -0.000001 0.000000 0.000000 -0.142759 0.000000 0.088274
#
#
# Mechanical properties :
#
#
# Convention : Reuss Voigt Hill
#
# Bulk Modulus (GPa) = 14.84885 20.53811 17.69348
# Shear Modulus (GPa) = 6.87410 24.78301 15.82855
#
# Velocity S-wave (km/s) = 1.83901 3.49183 2.79060
# Velocity P-wave (km/s) = 3.43725 5.13436 4.36900
#
# Compressibility (1/GPa) = 0.06734530
#
# Stress axis : x y z
#
# Youngs Moduli (GPa) = 32.62985 87.47244 44.04966
#
# Poissons Ratio (x) = 0.31549 -0.30533
# Poissons Ratio (y) = 0.11769 0.08997
# Poissons Ratio (z) = -0.22618 0.17866
#
# Static dielectric constant tensor:
#      x y z
#    x 1.701410 0.000000 0.005210 
#    y 0.000000 1.830350 0.000000 
#    z 0.005210 0.000000 1.725000 
# 
# From -- ./inp_files/332843.got.cif
#   From: 2010.05.17/outbox.cif.g08.bks.cpg/sg12_167_cif.got.tgz:332843.got - 2010.06.03 13:09:07.
