data_PCOD9210170
_publ_section_title
;
Structure prediction by ZEFSAII (Michael W. Deem and Ramdas Pophale) SiO2 
 PCOD9210170
Probable space group: C 2/M
;
_chemical_formula_sum "Si O2"
_cell_formula_units_Z 40
_cell_length_a 13.436500
_cell_length_b 18.546683
_cell_length_c 14.309103
_cell_angle_alpha 90.000000
_cell_angle_beta 151.199709
_cell_angle_gamma 90.000000
_cell_volume 1717.884112
_symmetry_space_group_name_H-M "C 2/M"
_symmetry_group_IT_number 12
_symmetry_cell_setting 'monoclinic'
loop_
_space_group_symop_operation_xyz
x,y,z
-x,y,-z
-x,-y,-z
x,-y,z
1/2+x,1/2+y,z
1/2-x,1/2+y,-z
1/2-x,1/2-y,-z
1/2+x,1/2-y,z
loop_
_atom_site_type_symbol
_atom_site_label
_atom_site_fract_x
_atom_site_fract_y
_atom_site_fract_z
Si Si1 0.190110 0.085482 0.713741
Si Si2 0.156817 0.919042 0.254776
Si Si3 0.618796 0.720581 0.003824
Si Si4 0.579114 0.111664 0.707990
Si Si5 0.096419 0.624120 0.930994
O O1 0.393473 0.100670 0.820172
O O2 0.000000 0.117899 0.500000
O O3 0.164620 0.000000 0.698732
O O4 0.219313 0.110160 0.844333
O O5 0.260521 0.920046 0.236135
O O6 0.350943 0.902344 0.482040
O O7 0.997809 0.852149 0.127699
O O8 0.076897 0.000000 0.208269
O O9 0.598488 0.789405 0.921715
O O10 0.500000 0.743497 0.000000
O O11 0.843774 0.694660 0.223783
O O12 0.596494 0.087614 0.829867
#
# Coordination Sequence:
#
# PCOD9210170 Si02
#       5
#     8   8   8   8   8
#     4  10  23  41  62  90 124 161 204 257 311 368
#     4  10  23  41  59  90 129 168 211 254 307 369
#     4  10  21  39  60  92 123 163 206 256 314 363
#     4  10  22  37  63  89 122 161 207 256 307 361
#     4  11  21  40  64  93 124 161 206 256 312 374
#
# _framework density 23.284457
#
# number of rings (size 3 to 8) (size 9 to 14) (size 15 to 20)
#    0.000    1.800    2.000    3.000    0.000   11.600 
#    0.000    2.000    0.000    0.000    0.000    0.000 
#    0.000    0.000    0.000    0.000    0.000    0.000 
#
# Total GULP energy -111671.203581 kJ/mol
# GULP energy per Si atom -5583.560179 kJ/mol
# Density = 2.323146 g / cm^3
# Si number density = 23.284457 Si / 1000 Ang^3
#
#
#
# Elastic Constant Matrix: (Units=GPa)
#
#
# Indices 1 2 3 4 5 6 
#
# 1 85.6438 17.6855 52.2063 0.0004 -45.4733 0.0002
# 2 17.6855 123.8029 45.7983 0.0002 -12.3502 0.0002
# 3 52.2063 45.7983 152.6542 0.0008 -30.9038 0.0006
# 4 0.0004 0.0002 0.0008 29.5811 0.0006 5.2314
# 5 -45.4733 -12.3502 -30.9038 0.0006 35.9131 0.0004
# 6 0.0002 0.0002 0.0006 5.2314 0.0004 7.7813
#
#
#
# Elastic Compliance Matrix: (Units=1/GPa)
#
#
# Indices 1 2 3 4 5 6 
#
# 1 0.037473 0.000547 -0.004039 -0.000001 0.044160 -0.000003
# 2 0.000547 0.009120 -0.002601 0.000000 0.001590 0.000000
# 3 -0.004039 -0.002601 0.009077 0.000000 0.001802 -0.000001
# 4 -0.000001 0.000000 0.000000 0.038367 -0.000001 -0.025795
# 5 0.044160 0.001590 0.001802 -0.000001 0.085858 -0.000005
# 6 -0.000003 0.000000 -0.000001 -0.025795 -0.000005 0.145855
#
#
# Mechanical properties :
#
#
# Convention : Reuss Voigt Hill
#
# Bulk Modulus (GPa) = 22.99778 65.94234 44.47006
# Shear Modulus (GPa) = 14.18705 31.08250 22.63477
#
# Velocity S-wave (km/s) = 2.47106 3.65760 3.12123
# Velocity P-wave (km/s) = 4.24734 6.79847 5.66829
#
# Compressibility (1/GPa) = 0.04348246
#
# Stress axis : x y z
#
# Youngs Moduli (GPa) = 26.68585 109.64728 110.16386
#
# Poissons Ratio (x) = -0.05992 0.44499
# Poissons Ratio (y) = -0.01458 0.28656
# Poissons Ratio (z) = 0.10779 0.28521
#
# Static dielectric constant tensor:
#      x y z
#    x 2.009430 0.000000 0.005410 
#    y 0.000000 1.856840 0.000000 
#    z 0.005410 0.000000 1.895820 
# 
# From -- ./inp_files/216918.got.cif
#   From: 2010.05.17/outbox.cif.g08.bks.cpg/sg12_109_cif.got.tgz:216918.got - 2010.06.03 13:09:07.
