data_PCOD9210271
_publ_section_title
;
Structure prediction by ZEFSAII (Michael W. Deem and Ramdas Pophale) SiO2 
 PCOD9210271
Probable space group: C 2/M
;
_chemical_formula_sum "Si O2"
_cell_formula_units_Z 28
_cell_length_a 7.547109
_cell_length_b 38.167311
_cell_length_c 5.303477
_cell_angle_alpha 90.000000
_cell_angle_beta 115.515208
_cell_angle_gamma 90.000000
_cell_volume 1378.688403
_symmetry_space_group_name_H-M "C 2/M"
_symmetry_group_IT_number 12
_symmetry_cell_setting 'monoclinic'
loop_
_space_group_symop_operation_xyz
x,y,z
-x,y,-z
-x,-y,-z
x,-y,z
1/2+x,1/2+y,z
1/2-x,1/2+y,-z
1/2-x,1/2-y,-z
1/2+x,1/2-y,z
loop_
_atom_site_type_symbol
_atom_site_label
_atom_site_fract_x
_atom_site_fract_y
_atom_site_fract_z
Si Si1 0.500000 0.862598 0.500000
Si Si2 0.000000 0.591100 0.000000
Si Si3 0.213962 0.200477 0.254398
Si Si4 0.870487 0.040826 0.168683
Si Si5 0.500000 0.254834 0.500000
O O1 0.529385 0.885525 0.267786
O O2 0.684964 0.836877 0.658405
O O3 0.812616 0.566505 0.929865
O O4 0.379012 0.227480 0.248935
O O5 0.160933 0.218866 0.486209
O O6 0.000000 0.198904 0.000000
O O7 0.000000 0.044865 0.500000
O O8 0.807163 0.000000 0.116135
O O9 0.000000 0.048044 0.000000
#
# Coordination Sequence:
#
# PCOD9210271 Si02
#       5
#     4   4   8   8   4
#     4  11  28  40  61  92 131 172 214 242 323 392
#     4  12  25  46  62  96 138 174 208 264 310 386
#     4  10  21  39  61  88 117 162 208 271 315 379
#     4  10  22  42  71 100 126 167 219 265 315 369
#     4   9  20  38  62  90 111 154 218 268 327 364
#
# _framework density 20.309156999999999
#
# number of rings (size 3 to 8) (size 9 to 14) (size 15 to 20)
#    0.000    1.714    0.000    3.000    4.000    3.429 
#    5.143    5.714    0.000    0.000    0.000    0.000 
#    0.000    0.000    0.000    0.000    0.000    0.000 
#
# Total GULP energy -78103.147483 kJ/mol
# GULP energy per Si atom -5578.796249 kJ/mol
# Density = 2.026293 g / cm^3
# Si number density = 20.309157 Si / 1000 Ang^3
#
#
#
# Elastic Constant Matrix: (Units=GPa)
#
#
# Indices 1 2 3 4 5 6 
#
# 1 132.0153 98.0699 59.5631 0.0000 8.4551 0.0000
# 2 98.0699 150.6728 70.4829 0.0000 5.7421 0.0000
# 3 59.5631 70.4829 114.7719 0.0000 2.5640 0.0000
# 4 0.0000 0.0000 0.0000 68.4050 0.0000 10.9664
# 5 8.4551 5.7421 2.5640 0.0000 45.1039 0.0000
# 6 0.0000 0.0000 0.0000 10.9664 0.0000 56.1640
#
#
#
# Elastic Compliance Matrix: (Units=1/GPa)
#
#
# Indices 1 2 3 4 5 6 
#
# 1 0.015292 -0.008694 -0.002561 0.000000 -0.001614 0.000000
# 2 -0.008694 0.014288 -0.004264 0.000000 0.000053 0.000000
# 3 -0.002561 -0.004264 0.012654 0.000000 0.000304 0.000000
# 4 0.000000 0.000000 0.000000 0.015091 0.000000 -0.002947
# 5 -0.001614 0.000053 0.000304 0.000000 0.022450 0.000000
# 6 0.000000 0.000000 0.000000 -0.002947 0.000000 0.018380
#
#
# Mechanical properties :
#
#
# Convention : Reuss Voigt Hill
#
# Bulk Modulus (GPa) = 89.31397 94.85464 92.08430
# Shear Modulus (GPa) = 37.61526 45.22418 41.41972
#
# Velocity S-wave (km/s) = 4.30831 4.72400 4.52094
# Velocity P-wave (km/s) = 8.29587 8.74995 8.52593
#
# Compressibility (1/GPa) = 0.01119646
#
# Stress axis : x y z
#
# Youngs Moduli (GPa) = 65.39323 69.98861 79.02765
#
# Poissons Ratio (x) = 0.60846 0.20240
# Poissons Ratio (y) = 0.56851 0.33696
# Poissons Ratio (z) = 0.16748 0.29842
#
# Static dielectric constant tensor:
#      x y z
#    x 1.799030 0.000000 -0.014520 
#    y 0.000000 1.689060 0.000000 
#    z -0.014520 0.000000 1.764510 
# 
# From -- ./inp_files/3990.got.cif
#   From: 2010.05.17/outbox.cif.g08.bks.cpg/sg12_2_cif.got.tgz:3990.got - 2010.06.03 13:09:07.
