data_PCOD9210339
_publ_section_title
;
Structure prediction by ZEFSAII (Michael W. Deem and Ramdas Pophale) SiO2 
 PCOD9210339
Probable space group: C 2/M
;
_chemical_formula_sum "Si O2"
_cell_formula_units_Z 40
_cell_length_a 14.039723
_cell_length_b 18.984357
_cell_length_c 12.681756
_cell_angle_alpha 90.000000
_cell_angle_beta 148.889494
_cell_angle_gamma 90.000000
_cell_volume 1746.482175
_symmetry_space_group_name_H-M "C 2/M"
_symmetry_group_IT_number 12
_symmetry_cell_setting 'monoclinic'
loop_
_space_group_symop_operation_xyz
x,y,z
-x,y,-z
-x,-y,-z
x,-y,z
1/2+x,1/2+y,z
1/2-x,1/2+y,-z
1/2-x,1/2-y,-z
1/2+x,1/2-y,z
loop_
_atom_site_type_symbol
_atom_site_label
_atom_site_fract_x
_atom_site_fract_y
_atom_site_fract_z
Si Si1 0.629862 0.132779 0.021777
Si Si2 0.452023 0.420017 0.216011
Si Si3 0.888592 0.722309 0.493855
Si Si4 0.480586 0.722205 0.155891
Si Si5 0.114084 0.578856 0.401451
O O1 0.646180 0.215083 0.004882
O O2 0.517491 0.095555 0.820883
O O3 0.500000 0.125050 0.000000
O O4 0.831251 0.097763 0.205140
O O5 0.410291 0.500000 0.142576
O O6 0.405737 0.357227 0.088960
O O7 0.673228 0.415053 0.436373
O O8 0.670029 0.729676 0.270534
O O9 0.918430 0.639682 0.544747
O O10 0.000000 0.748035 0.500000
O O11 0.951277 0.760592 0.660401
O O12 0.085961 0.500000 0.414088
#
# Coordination Sequence:
#
# PCOD9210339 Si02
#       5
#     8   8   8   8   8
#     4  11  23  37  60  90 117 158 201 245 290 352
#     4  10  21  39  62  82 117 159 192 243 301 348
#     4   9  18  34  62  88 115 154 200 246 291 350
#     4   9  20  38  56  88 120 153 198 246 293 347
#     4   9  20  39  58  86 123 155 193 241 296 353
#
# _framework density 22.903182999999999
#
# number of rings (size 3 to 8) (size 9 to 14) (size 15 to 20)
#    0.000    2.400    0.000    2.400    2.800    2.800 
#    0.000    2.000    0.000    0.600    0.000    0.000 
#    0.000    0.000    0.000    0.000    0.000    0.000 
#
# Total GULP energy -111776.671215 kJ/mol
# GULP energy per Si atom -5588.833561 kJ/mol
# Density = 2.285105 g / cm^3
# Si number density = 22.903183 Si / 1000 Ang^3
#
#
#
# Elastic Constant Matrix: (Units=GPa)
#
#
# Indices 1 2 3 4 5 6 
#
# 1 98.0468 -4.4253 6.2992 0.0000 21.5193 0.0000
# 2 -4.4253 136.9542 4.3495 0.0000 5.1177 0.0000
# 3 6.2992 4.3495 40.0607 0.0000 12.3694 0.0000
# 4 0.0000 0.0000 0.0000 22.2588 0.0000 12.1535
# 5 21.5193 5.1177 12.3694 0.0000 24.0356 0.0000
# 6 0.0000 0.0000 0.0000 12.1535 0.0000 19.9652
#
#
#
# Elastic Compliance Matrix: (Units=1/GPa)
#
#
# Indices 1 2 3 4 5 6 
#
# 1 0.012897 0.000832 0.001785 0.000000 -0.012643 0.000000
# 2 0.000832 0.007419 -0.000260 0.000000 -0.002191 0.000000
# 3 0.001785 -0.000260 0.029944 0.000000 -0.016953 0.000000
# 4 0.000000 0.000000 0.000000 0.067292 0.000000 -0.040963
# 5 -0.012643 -0.002191 -0.016953 0.000000 0.062115 0.000000
# 6 0.000000 0.000000 0.000000 -0.040963 0.000000 0.075023
#
#
# Mechanical properties :
#
#
# Convention : Reuss Voigt Hill
#
# Bulk Modulus (GPa) = 18.18977 31.94537 25.06757
# Shear Modulus (GPa) = 18.63590 31.17448 24.90519
#
# Velocity S-wave (km/s) = 2.85561 3.69337 3.30117
# Velocity P-wave (km/s) = 4.33957 5.67153 5.04966
#
# Compressibility (1/GPa) = 0.05497595
#
# Stress axis : x y z
#
# Youngs Moduli (GPa) = 77.53783 134.79375 33.39545
#
# Poissons Ratio (x) = -0.11221 -0.05962
# Poissons Ratio (y) = -0.06455 0.00868
# Poissons Ratio (z) = -0.13843 0.03502
#
# Static dielectric constant tensor:
#      x y z
#    x 1.857460 0.000000 0.039400 
#    y 0.000000 1.875830 0.000000 
#    z 0.039400 0.000000 1.859600 
# 
# From -- ./inp_files/62122.got.cif
#   From: 2010.05.17/outbox.cif.g08.bks.cpg/sg12_32_cif.got.tgz:62122.got - 2010.06.03 13:09:07.
