data_PCOD9210259
_publ_section_title
;
Structure prediction by ZEFSAII (Michael W. Deem and Ramdas Pophale) SiO2 
 PCOD9210259
Probable space group: C 2/M
;
_chemical_formula_sum "Si O2"
_cell_formula_units_Z 64
_cell_length_a 18.091470
_cell_length_b 21.316259
_cell_length_c 21.809172
_cell_angle_alpha 90.000000
_cell_angle_beta 159.267025
_cell_angle_gamma 90.000000
_cell_volume 2977.442765
_symmetry_space_group_name_H-M "C 2/M"
_symmetry_group_IT_number 12
_symmetry_cell_setting 'monoclinic'
loop_
_space_group_symop_operation_xyz
x,y,z
-x,y,-z
-x,-y,-z
x,-y,z
1/2+x,1/2+y,z
1/2-x,1/2+y,-z
1/2-x,1/2-y,-z
1/2+x,1/2-y,z
loop_
_atom_site_type_symbol
_atom_site_label
_atom_site_fract_x
_atom_site_fract_y
_atom_site_fract_z
Si Si1 0.366242 0.191051 0.709322
Si Si2 0.390103 0.431985 0.479974
Si Si3 0.281399 0.930462 0.159870
Si Si4 0.188161 0.182302 0.890901
Si Si5 0.708425 0.073120 0.121748
Si Si6 0.495312 0.196774 0.309141
Si Si7 0.712424 0.430286 0.249802
Si Si8 0.742415 0.319739 0.367466
O O1 0.271281 0.124269 0.649235
O O2 0.329611 0.201626 0.608147
O O3 0.270845 0.249947 0.671619
O O4 0.612486 0.195661 0.912017
O O5 0.500000 0.435506 0.500000
O O6 0.292383 0.500000 0.418103
O O7 0.579889 0.421236 0.674211
O O8 0.384784 0.869935 0.210297
O O9 0.297666 0.925268 0.246561
O O10 0.362666 0.000000 0.205679
O O11 0.037733 0.928302 0.953498
O O12 0.257297 0.121621 0.906181
O O13 0.144156 0.241484 0.811256
O O14 0.979054 0.170511 0.768476
O O15 0.688284 0.000000 0.086851
O O16 0.500000 0.087543 0.000000
O O17 0.584035 0.186973 0.445531
O O18 0.764053 0.500000 0.314142
O O19 0.772698 0.374892 0.342512
#
# Coordination Sequence:
#
# PCOD9210259 Si02
#       8
#     8   8   8   8   8   8   8   8
#     4  11  22  39  61  84 116 155 197 247 295 352
#     4  10  21  39  61  87 120 154 193 245 297 350
#     4   9  19  38  61  85 116 154 196 244 291 348
#     4  11  22  39  61  84 115 155 199 244 296 353
#     4  10  21  39  61  87 120 155 195 242 294 353
#     4  11  22  38  59  85 120 153 193 248 299 356
#     4   9  19  38  61  85 117 154 197 244 291 349
#     4  11  22  38  59  85 119 154 193 246 301 353
#
# _framework density 21.494955000000001
#
# number of rings (size 3 to 8) (size 9 to 14) (size 15 to 20)
#    0.000    1.750    0.000    7.500    0.000    3.500 
#    9.000    1.250    0.000    0.000    0.000    0.000 
#    0.000    0.000    0.000    0.000    0.000    0.000 
#
# Total GULP energy -178687.222873 kJ/mol
# GULP energy per Si atom -5583.975715 kJ/mol
# Density = 2.144603 g / cm^3
# Si number density = 21.494955 Si / 1000 Ang^3
#
#
#
# Elastic Constant Matrix: (Units=GPa)
#
#
# Indices 1 2 3 4 5 6 
#
# 1 47.4484 55.1379 19.4687 -0.0213 -9.9478 -0.0196
# 2 55.1379 182.5078 59.0280 0.0653 3.8824 0.0500
# 3 19.4687 59.0280 93.6467 0.0732 -8.3536 0.0627
# 4 -0.0213 0.0653 0.0732 64.1188 -0.0022 4.7088
# 5 -9.9478 3.8824 -8.3536 -0.0022 35.8737 -0.0010
# 6 -0.0196 0.0500 0.0627 4.7088 -0.0010 36.8905
#
#
#
# Elastic Compliance Matrix: (Units=1/GPa)
#
#
# Indices 1 2 3 4 5 6 
#
# 1 0.036617 -0.011531 0.000687 0.000021 0.011562 0.000032
# 2 -0.011531 0.010628 -0.004789 -0.000009 -0.005463 -0.000011
# 3 0.000687 -0.004789 0.013907 -0.000010 0.003947 -0.000015
# 4 0.000021 -0.000009 -0.000010 0.015744 0.000006 -0.002010
# 5 0.011562 -0.005463 0.003947 0.000006 0.032592 0.000007
# 6 0.000032 -0.000011 -0.000015 -0.002010 0.000007 0.027364
#
#
# Mechanical properties :
#
#
# Convention : Reuss Voigt Hill
#
# Bulk Modulus (GPa) = 33.46108 65.65246 49.55677
# Shear Modulus (GPa) = 28.07754 40.04114 34.05934
#
# Velocity S-wave (km/s) = 3.61811 4.32072 3.98493
# Velocity P-wave (km/s) = 5.74935 7.44990 6.65417
#
# Compressibility (1/GPa) = 0.02988546
#
# Stress axis : x y z
#
# Youngs Moduli (GPa) = 27.30985 94.09186 71.90875
#
# Poissons Ratio (x) = 1.08493 -0.04939
# Poissons Ratio (y) = 0.31490 0.34439
# Poissons Ratio (z) = -0.01876 0.45063
#
# Static dielectric constant tensor:
#      x y z
#    x 1.774340 -0.000050 -0.044330 
#    y -0.000050 1.828470 -0.000050 
#    z -0.044330 -0.000050 1.890540 
# 
# From -- ./inp_files/347910.got.cif
#   From: 2010.05.17/outbox.cif.g08.bks.cpg/sg12_174_cif.got.tgz:347910.got - 2010.06.03 13:09:07.
