data_PCOD9210284
_publ_section_title
;
Structure prediction by ZEFSAII (Michael W. Deem and Ramdas Pophale) SiO2 
 PCOD9210284
Probable space group: C 2/M
;
_chemical_formula_sum "Si O2"
_cell_formula_units_Z 40
_cell_length_a 7.233726
_cell_length_b 28.609852
_cell_length_c 7.287819
_cell_angle_alpha 90.000000
_cell_angle_beta 90.715220
_cell_angle_gamma 90.000000
_cell_volume 1508.139122
_symmetry_space_group_name_H-M "C 2/M"
_symmetry_group_IT_number 12
_symmetry_cell_setting 'monoclinic'
loop_
_space_group_symop_operation_xyz
x,y,z
-x,y,-z
-x,-y,-z
x,-y,z
1/2+x,1/2+y,z
1/2-x,1/2+y,-z
1/2-x,1/2-y,-z
1/2+x,1/2-y,z
loop_
_atom_site_type_symbol
_atom_site_label
_atom_site_fract_x
_atom_site_fract_y
_atom_site_fract_z
Si Si1 0.051093 0.183483 0.702139
Si Si2 0.652804 0.943395 0.856362
Si Si3 0.621138 0.222788 0.144085
Si Si4 0.510236 0.585034 0.818355
Si Si5 0.187777 0.443762 0.482252
O O1 0.972512 0.234802 0.749256
O O2 0.000000 0.172126 0.500000
O O3 0.269125 0.189411 0.724106
O O4 0.977079 0.141425 0.818689
O O5 0.519268 0.935191 0.650415
O O6 0.654002 0.000000 0.871135
O O7 0.500000 0.925011 0.000000
O O8 0.849392 0.929204 0.991957
O O9 0.500000 0.193993 0.000000
O O10 0.750000 0.250000 0.000000
O O11 0.667462 0.577496 0.662742
O O12 0.321446 0.566349 0.687866
O O13 0.207303 0.500000 0.464323
#
# Coordination Sequence:
#
# PCOD9210284 Si02
#       5
#     8   8   8   8   8
#     4  11  22  40  64  93 127 168 221 273 331 402
#     4  10  21  39  63  91 125 167 215 269 334 405
#     4   9  19  39  64  89 121 162 208 262 328 398
#     4  12  24  39  61  92 128 168 216 275 335 397
#     4  10  21  39  61  88 125 167 213 266 327 398
#
# _framework density 26.522753000000002
#
# number of rings (size 3 to 8) (size 9 to 14) (size 15 to 20)
#    0.000    1.600    0.000    6.000    0.000    4.800 
#    0.000   19.000    0.000    0.000    0.000    0.000 
#    0.000    0.000    0.000    0.000    0.000    0.000 
#
# Total GULP energy -111398.645986 kJ/mol
# GULP energy per Si atom -5569.932299 kJ/mol
# Density = 2.646239 g / cm^3
# Si number density = 26.522753 Si / 1000 Ang^3
#
#
#
# Elastic Constant Matrix: (Units=GPa)
#
#
# Indices 1 2 3 4 5 6 
#
# 1 237.2510 31.2275 87.2027 0.0000 23.5424 0.0000
# 2 31.2275 92.0032 46.2740 0.0000 17.1184 0.0000
# 3 87.2027 46.2740 320.6062 0.0000 -12.1549 0.0000
# 4 0.0000 0.0000 0.0000 74.7610 0.0000 16.3521
# 5 23.5424 17.1184 -12.1549 0.0000 71.9585 0.0000
# 6 0.0000 0.0000 0.0000 16.3521 0.0000 16.9083
#
#
#
# Elastic Compliance Matrix: (Units=1/GPa)
#
#
# Indices 1 2 3 4 5 6 
#
# 1 0.004956 -0.000713 -0.001308 0.000000 -0.001673 0.000000
# 2 -0.000713 0.012549 -0.001733 0.000000 -0.003045 0.000000
# 3 -0.001308 -0.001733 0.003781 0.000000 0.001479 0.000000
# 4 0.000000 0.000000 0.000000 0.016964 0.000000 -0.016406
# 5 -0.001673 -0.003045 0.001479 0.000000 0.015418 0.000000
# 6 0.000000 0.000000 0.000000 -0.016406 0.000000 0.075010
#
#
# Mechanical properties :
#
#
# Convention : Reuss Voigt Hill
#
# Bulk Modulus (GPa) = 72.57939 108.80764 90.69352
# Shear Modulus (GPa) = 35.51663 65.06929 50.29296
#
# Velocity S-wave (km/s) = 3.66334 4.95849 4.35928
# Velocity P-wave (km/s) = 6.73185 8.59625 7.72053
#
# Compressibility (1/GPa) = 0.01377802
#
# Stress axis : x y z
#
# Youngs Moduli (GPa) = 201.78886 79.68640 264.46877
#
# Poissons Ratio (x) = 0.05679 0.34605
# Poissons Ratio (y) = 0.14381 0.45829
# Poissons Ratio (z) = 0.26403 0.13808
#
# Static dielectric constant tensor:
#      x y z
#    x 2.703620 0.000000 0.593980 
#    y 0.000000 1.782690 0.000000 
#    z 0.593980 0.000000 2.664320 
# 
# From -- ./inp_files/41892.got.cif
#   From: 2010.05.17/outbox.cif.g08.bks.cpg/sg12_21_cif.got.tgz:41892.got - 2010.06.03 13:09:07.
