data_PCOD9210818
_publ_section_title
;
Structure prediction by ZEFSAII (Michael W. Deem and Ramdas Pophale) SiO2 
 PCOD9210818
Probable space group: C 2/M
;
_chemical_formula_sum "Si O2"
_cell_formula_units_Z 40
_cell_length_a 14.340771
_cell_length_b 14.336037
_cell_length_c 15.210332
_cell_angle_alpha 90.000000
_cell_angle_beta 138.879859
_cell_angle_gamma 90.000000
_cell_volume 2056.499443
_symmetry_space_group_name_H-M "C 2/M"
_symmetry_group_IT_number 12
_symmetry_cell_setting 'monoclinic'
loop_
_space_group_symop_operation_xyz
x,y,z
-x,y,-z
-x,-y,-z
x,-y,z
1/2+x,1/2+y,z
1/2-x,1/2+y,-z
1/2-x,1/2-y,-z
1/2+x,1/2-y,z
loop_
_atom_site_type_symbol
_atom_site_label
_atom_site_fract_x
_atom_site_fract_y
_atom_site_fract_z
Si Si1 0.411268 0.280558 0.211215
Si Si2 0.912608 0.311732 0.027460
Si Si3 0.546382 0.000000 0.132249
Si Si4 0.801029 0.856359 0.534849
Si Si5 0.007862 0.605712 0.402552
Si Si6 0.662666 0.500000 0.589575
O O1 0.421914 0.260005 0.114564
O O2 0.536376 0.353360 0.319955
O O3 0.441052 0.187052 0.292522
O O4 0.252893 0.317477 0.115807
O O5 0.977155 0.405489 0.117593
O O6 0.000000 0.291199 0.000000
O O7 0.715118 0.000000 0.252053
O O8 0.500000 0.000000 0.000000
O O9 0.750000 0.750000 0.500000
O O10 0.675442 0.901312 0.501110
O O11 0.803691 0.908718 0.444349
O O12 0.947993 0.500000 0.347023
O O13 0.000000 0.631779 0.500000
O O14 0.500000 0.500000 0.500000
#
# Coordination Sequence:
#
# PCOD9210818 Si02
#       6
#     8   8   4   8   8   4
#     4  10  23  40  62  94 123 168 212 273 324 398
#     4  10  23  40  65  87 125 170 213 256 332 399
#     4  10  22  40  62  87 128 168 207 259 330 399
#     4  10  22  39  62  95 129 163 218 274 333 396
#     4  10  21  39  64  90 120 167 211 269 332 395
#     4  12  26  40  69 103 136 177 227 286 340 392
#
# _framework density 19.450529
#
# number of rings (size 3 to 8) (size 9 to 14) (size 15 to 20)
#    0.000    1.800    1.000    2.400    9.800    3.200 
#    0.000    0.000    0.000    0.600    0.000    0.000 
#    0.000    0.000    0.000    0.000    0.000    0.000 
#
# Total GULP energy -111367.755316 kJ/mol
# GULP energy per Si atom -5568.387766 kJ/mol
# Density = 1.940626 g / cm^3
# Si number density = 19.450529 Si / 1000 Ang^3
#
#
#
# Elastic Constant Matrix: (Units=GPa)
#
#
# Indices 1 2 3 4 5 6 
#
# 1 140.2653 18.3450 52.4388 0.0000 11.9220 0.0000
# 2 18.3450 57.7386 10.6122 0.0000 3.3302 0.0000
# 3 52.4388 10.6122 126.3304 0.0000 27.1800 0.0000
# 4 0.0000 0.0000 0.0000 33.0563 0.0000 -4.9378
# 5 11.9220 3.3302 27.1800 0.0000 39.0125 0.0000
# 6 0.0000 0.0000 0.0000 -4.9378 0.0000 26.9126
#
#
#
# Elastic Compliance Matrix: (Units=1/GPa)
#
#
# Indices 1 2 3 4 5 6 
#
# 1 0.008690 -0.002129 -0.003407 0.000000 -0.000100 0.000000
# 2 -0.002129 0.018123 -0.000524 0.000000 -0.000531 0.000000
# 3 -0.003407 -0.000524 0.010752 0.000000 -0.006405 0.000000
# 4 0.000000 0.000000 0.000000 0.031104 0.000000 0.005707
# 5 -0.000100 -0.000531 -0.006405 0.000000 0.030171 0.000000
# 6 0.000000 0.000000 0.000000 0.005707 0.000000 0.038204
#
#
# Mechanical properties :
#
#
# Convention : Reuss Voigt Hill
#
# Bulk Modulus (GPa) = 39.30119 54.12516 46.71317
# Shear Modulus (GPa) = 31.71663 35.99216 33.85439
#
# Velocity S-wave (km/s) = 4.04249 4.30635 4.17650
# Velocity P-wave (km/s) = 6.48371 7.25353 6.87940
#
# Compressibility (1/GPa) = 0.02544452
#
# Stress axis : x y z
#
# Youngs Moduli (GPa) = 115.07553 55.17882 93.00653
#
# Poissons Ratio (x) = 0.11748 0.31684
# Poissons Ratio (y) = 0.24501 0.04877
# Poissons Ratio (z) = 0.39202 0.02893
#
# Static dielectric constant tensor:
#      x y z
#    x 1.681190 0.000000 0.046900 
#    y 0.000000 1.792190 0.000000 
#    z 0.046900 0.000000 1.606420 
# 
# From -- ./inp_files/215082.got.cif
#   From: 2010.05.17/outbox.cif.g08.bks.cpg/sg12_108_cif.got.tgz:215082.got - 2010.06.03 13:09:07.
