data_PCOD9210477
_publ_section_title
;
Structure prediction by ZEFSAII (Michael W. Deem and Ramdas Pophale) SiO2 
 PCOD9210477
Probable space group: C 2/M
;
_chemical_formula_sum "Si O2"
_cell_formula_units_Z 64
_cell_length_a 24.943027
_cell_length_b 23.936996
_cell_length_c 12.753223
_cell_angle_alpha 90.000000
_cell_angle_beta 153.102053
_cell_angle_gamma 90.000000
_cell_volume 3444.799887
_symmetry_space_group_name_H-M "C 2/M"
_symmetry_group_IT_number 12
_symmetry_cell_setting 'monoclinic'
loop_
_space_group_symop_operation_xyz
x,y,z
-x,y,-z
-x,-y,-z
x,-y,z
1/2+x,1/2+y,z
1/2-x,1/2+y,-z
1/2-x,1/2-y,-z
1/2+x,1/2-y,z
loop_
_atom_site_type_symbol
_atom_site_label
_atom_site_fract_x
_atom_site_fract_y
_atom_site_fract_z
Si Si1 0.496489 0.750488 0.872991
Si Si2 0.003356 0.566514 0.879526
Si Si3 0.637093 0.560929 0.707546
Si Si4 0.140047 0.818621 0.761937
Si Si5 0.277646 0.728538 0.873644
Si Si6 0.670076 0.157298 0.516238
Si Si7 0.388259 0.633438 0.745102
Si Si8 0.268553 0.435462 0.353000
O O1 0.407164 0.790885 0.658781
O O2 0.443301 0.688228 0.786607
O O3 0.500000 0.769949 0.000000
O O4 0.622568 0.748567 0.034841
O O5 0.985636 0.500000 0.831012
O O6 0.909379 0.603036 0.650422
O O7 0.138364 0.583425 0.088321
O O8 0.000000 0.576114 0.000000
O O9 0.500000 0.558681 0.500000
O O10 0.691221 0.500000 0.829163
O O11 0.688843 0.617950 0.844337
O O12 0.646820 0.567080 0.599395
O O13 0.196266 0.780121 0.769025
O O14 0.000000 0.821065 0.500000
O O15 0.163612 0.792230 0.916254
O O16 0.207668 0.676872 0.697995
O O17 0.790317 0.151281 0.659034
O O18 0.322435 0.597425 0.543472
O O19 0.500000 0.605708 0.000000
O O20 0.253158 0.500000 0.358541
#
# Coordination Sequence:
#
# PCOD9210477 Si02
#       8
#     8   8   8   8   8   8   8   8
#     4  11  24  37  58  90 125 162 203 248 304 371
#     4  10  21  39  62  90 124 165 210 249 294 368
#     4   9  20  37  62  89 111 147 202 256 302 353
#     4  10  23  42  64  85 120 164 208 259 310 365
#     4  11  24  41  59  90 124 163 207 254 311 374
#     4  12  23  37  61  90 126 162 205 251 308 367
#     4  11  23  37  55  88 132 159 194 249 306 369
#     4  10  22  39  63  90 119 162 209 248 301 367
#
# _framework density 18.578728000000002
#
# number of rings (size 3 to 8) (size 9 to 14) (size 15 to 20)
#    0.000    1.500    3.750    1.500    7.000    0.250 
#    0.000    0.625    0.000    0.000    0.000    2.625 
#    0.000    0.000    0.000    0.000    0.000    0.000 
#
# Total GULP energy -178500.062029 kJ/mol
# GULP energy per Si atom -5578.126938 kJ/mol
# Density = 1.853644 g / cm^3
# Si number density = 18.578728 Si / 1000 Ang^3
#
#
#
# Elastic Constant Matrix: (Units=GPa)
#
#
# Indices 1 2 3 4 5 6 
#
# 1 110.0508 38.5097 42.3775 0.0000 6.4884 0.0000
# 2 38.5097 78.0021 38.9236 0.0000 7.6110 0.0000
# 3 42.3775 38.9236 96.5980 0.0000 8.8892 0.0000
# 4 0.0000 0.0000 0.0000 17.6823 0.0000 0.7664
# 5 6.4884 7.6110 8.8892 0.0000 16.7440 0.0000
# 6 0.0000 0.0000 0.0000 0.7664 0.0000 25.6206
#
#
#
# Elastic Compliance Matrix: (Units=1/GPa)
#
#
# Indices 1 2 3 4 5 6 
#
# 1 0.011905 -0.004036 -0.003513 0.000000 -0.000914 0.000000
# 2 -0.004036 0.017682 -0.005003 0.000000 -0.003817 0.000000
# 3 -0.003513 -0.005003 0.014272 0.000000 -0.003941 0.000000
# 4 0.000000 0.000000 0.000000 0.056627 0.000000 -0.001694
# 5 -0.000914 -0.003817 -0.003941 0.000000 0.063905 0.000000
# 6 0.000000 0.000000 0.000000 -0.001694 0.000000 0.039082
#
#
# Mechanical properties :
#
#
# Convention : Reuss Voigt Hill
#
# Bulk Modulus (GPa) = 53.31558 58.25252 55.78405
# Shear Modulus (GPa) = 21.29227 22.99872 22.14549
#
# Velocity S-wave (km/s) = 3.38902 3.52221 3.45625
# Velocity P-wave (km/s) = 6.63877 6.92559 6.78370
#
# Compressibility (1/GPa) = 0.01875624
#
# Stress axis : x y z
#
# Youngs Moduli (GPa) = 83.99535 56.55612 70.06841
#
# Poissons Ratio (x) = 0.22824 0.24612
# Poissons Ratio (y) = 0.33898 0.35055
# Poissons Ratio (z) = 0.29504 0.28295
#
# Static dielectric constant tensor:
#      x y z
#    x 1.655030 0.000000 0.021880 
#    y 0.000000 1.679210 0.000000 
#    z 0.021880 0.000000 1.648860 
# 
# From -- ./inp_files/178424.got.cif
#   From: 2010.05.17/outbox.cif.g08.bks.cpg/sg12_90_cif.got.tgz:178424.got - 2010.06.03 13:09:07.
