data_PCOD9210053
_publ_section_title
;
Structure prediction by ZEFSAII (Michael W. Deem and Ramdas Pophale) SiO2 
 PCOD9210053
Probable space group: C 2/M
;
_chemical_formula_sum "Si O2"
_cell_formula_units_Z 48
_cell_length_a 13.829568
_cell_length_b 26.739797
_cell_length_c 12.015158
_cell_angle_alpha 90.000000
_cell_angle_beta 149.195089
_cell_angle_gamma 90.000000
_cell_volume 2275.437777
_symmetry_space_group_name_H-M "C 2/M"
_symmetry_group_IT_number 12
_symmetry_cell_setting 'monoclinic'
loop_
_space_group_symop_operation_xyz
x,y,z
-x,y,-z
-x,-y,-z
x,-y,z
1/2+x,1/2+y,z
1/2-x,1/2+y,-z
1/2-x,1/2-y,-z
1/2+x,1/2-y,z
loop_
_atom_site_type_symbol
_atom_site_label
_atom_site_fract_x
_atom_site_fract_y
_atom_site_fract_z
Si Si1 0.620018 0.228874 0.721362
Si Si2 0.028821 0.757722 0.186576
Si Si3 0.181288 0.619240 0.857780
Si Si4 0.628720 0.364457 0.334842
Si Si5 0.275478 0.444031 0.749674
Si Si6 0.914688 0.642143 0.794182
O O1 0.500000 0.247037 0.500000
O O2 0.550721 0.255702 0.764899
O O3 0.606702 0.169691 0.725989
O O4 0.842709 0.237000 0.927304
O O5 0.100204 0.702414 0.233297
O O6 0.155002 0.807618 0.313302
O O7 0.172930 0.574882 0.760177
O O8 0.064479 0.618343 0.855705
O O9 0.403697 0.627011 0.105546
O O10 0.733018 0.402782 0.355323
O O11 0.713088 0.373068 0.541377
O O12 0.219188 0.500000 0.661527
O O13 0.500000 0.445306 0.000000
O O14 0.000000 0.631398 0.000000
#
# Coordination Sequence:
#
# PCOD9210053 Si02
#       6
#     8   8   8   8   8   8
#     4   9  18  31  55  80 118 160 200 237 285 353
#     4   9  20  35  49  85 115 163 204 234 293 345
#     4   9  21  39  57  86 120 154 192 247 306 347
#     4  10  21  39  59  86 122 154 195 252 304 352
#     4   9  19  38  68  97 117 148 197 253 314 369
#     4  11  24  37  56  86 119 163 210 238 280 363
#
# _framework density 21.094840999999999
#
# number of rings (size 3 to 8) (size 9 to 14) (size 15 to 20)
#    0.000    2.500    0.000    1.500    7.000    4.000 
#    0.000    1.667    0.000    2.000    0.000    4.667 
#    0.000    0.000    0.000    0.000    0.000    0.000 
#
# Total GULP energy -134082.804376 kJ/mol
# GULP energy per Si atom -5586.783516 kJ/mol
# Density = 2.104683 g / cm^3
# Si number density = 21.094841 Si / 1000 Ang^3
#
#
#
# Elastic Constant Matrix: (Units=GPa)
#
#
# Indices 1 2 3 4 5 6 
#
# 1 85.3881 44.4591 38.1143 0.0000 -8.8114 0.0000
# 2 44.4591 112.6626 22.6155 0.0000 -5.4127 0.0000
# 3 38.1143 22.6155 152.2312 0.0000 -22.6406 0.0000
# 4 0.0000 0.0000 0.0000 16.0024 0.0000 -1.8991
# 5 -8.8114 -5.4127 -22.6406 0.0000 36.1596 0.0000
# 6 0.0000 0.0000 0.0000 -1.8991 0.0000 25.2860
#
#
#
# Elastic Compliance Matrix: (Units=1/GPa)
#
#
# Indices 1 2 3 4 5 6 
#
# 1 0.016156 -0.005712 -0.003019 0.000000 0.001191 0.000000
# 2 -0.005712 0.011179 -0.000208 0.000000 0.000151 0.000000
# 3 -0.003019 -0.000208 0.007985 0.000000 0.004233 0.000000
# 4 0.000000 0.000000 0.000000 0.063053 0.000000 0.004735
# 5 0.001191 0.000151 0.004233 0.000000 0.030618 0.000000
# 6 0.000000 0.000000 0.000000 0.004735 0.000000 0.039903
#
#
# Mechanical properties :
#
#
# Convention : Reuss Voigt Hill
#
# Bulk Modulus (GPa) = 57.33441 62.29553 59.81497
# Shear Modulus (GPa) = 25.96213 31.82911 28.89562
#
# Velocity S-wave (km/s) = 3.51199 3.88862 3.70509
# Velocity P-wave (km/s) = 6.60937 7.05387 6.83523
#
# Compressibility (1/GPa) = 0.01744153
#
# Stress axis : x y z
#
# Youngs Moduli (GPa) = 61.89631 89.45127 125.22931
#
# Poissons Ratio (x) = 0.51097 0.37809
# Poissons Ratio (y) = 0.35357 0.02607
# Poissons Ratio (z) = 0.18688 0.01862
#
# Static dielectric constant tensor:
#      x y z
#    x 1.810100 0.000000 0.023150 
#    y 0.000000 1.729450 0.000000 
#    z 0.023150 0.000000 1.828970 
# 
# From -- ./inp_files/150333.got.cif
#   From: 2010.05.17/outbox.cif.g08.bks.cpg/sg12_76_cif.got.tgz:150333.got - 2010.06.03 13:09:07.
