data_PCOD9210903
_publ_section_title
;
Structure prediction by ZEFSAII (Michael W. Deem and Ramdas Pophale) SiO2 
 PCOD9210903
Probable space group: C 2/M
;
_chemical_formula_sum "Si O2"
_cell_formula_units_Z 48
_cell_length_a 30.687768
_cell_length_b 8.854935
_cell_length_c 15.005261
_cell_angle_alpha 90.000000
_cell_angle_beta 140.007648
_cell_angle_gamma 90.000000
_cell_volume 2620.551109
_symmetry_space_group_name_H-M "C 2/M"
_symmetry_group_IT_number 12
_symmetry_cell_setting 'monoclinic'
loop_
_space_group_symop_operation_xyz
x,y,z
-x,y,-z
-x,-y,-z
x,-y,z
1/2+x,1/2+y,z
1/2-x,1/2+y,-z
1/2-x,1/2-y,-z
1/2+x,1/2-y,z
loop_
_atom_site_type_symbol
_atom_site_label
_atom_site_fract_x
_atom_site_fract_y
_atom_site_fract_z
Si Si1 0.819962 0.680767 0.646422
Si Si2 0.572043 0.818989 0.658122
Si Si3 0.673128 0.819064 0.656923
Si Si4 0.318516 0.819539 0.853555
Si Si5 0.590033 0.319043 0.361586
Si Si6 0.933666 0.819740 0.156925
O O1 0.818095 0.500000 0.632901
O O2 0.750000 0.750000 0.500000
O O3 0.826592 0.716039 0.761313
O O4 0.880173 0.749558 0.682026
O O5 0.500000 0.779366 0.500000
O O6 0.631135 0.782837 0.680482
O O7 0.579308 0.736154 0.763059
O O8 0.571934 0.000000 0.673035
O O9 0.748800 0.755337 0.777197
O O10 0.633777 0.747303 0.511600
O O11 0.674064 0.000000 0.647996
O O12 0.313586 0.000000 0.854794
O O13 0.381179 0.757976 0.008132
O O14 0.597689 0.500000 0.372225
O O15 0.511302 0.281466 0.253451
O O16 0.926125 0.000000 0.140201
#
# Coordination Sequence:
#
# PCOD9210903 Si02
#       6
#     8   8   8   8   8   8
#     4  11  23  39  64  94 123 162 208 258 309 367
#     4  10  21  39  64  94 124 161 208 255 309 370
#     4  11  22  38  65  94 123 162 207 255 308 369
#     4  11  25  43  63  90 127 164 205 258 313 369
#     4  11  23  39  62  93 126 162 207 255 306 368
#     4  11  25  42  63  92 127 166 207 256 312 367
#
# _framework density 18.316759000000001
#
# number of rings (size 3 to 8) (size 9 to 14) (size 15 to 20)
#    0.000    1.167    3.333    2.500    0.000    7.000 
#    0.000    3.333    0.000    0.000    0.000    0.000 
#    0.000    0.000    0.000    0.000    0.000    0.000 
#
# Total GULP energy -134222.723059 kJ/mol
# GULP energy per Si atom -5592.613461 kJ/mol
# Density = 1.827507 g / cm^3
# Si number density = 18.316759 Si / 1000 Ang^3
#
#
#
# Elastic Constant Matrix: (Units=GPa)
#
#
# Indices 1 2 3 4 5 6 
#
# 1 141.2960 55.4766 49.3615 0.0000 0.9880 0.0000
# 2 55.4766 52.1718 41.7854 0.0000 -2.1142 0.0000
# 3 49.3615 41.7854 113.5632 0.0000 -3.5068 0.0000
# 4 0.0000 0.0000 0.0000 27.3771 0.0000 -0.8221
# 5 0.9880 -2.1142 -3.5068 0.0000 27.8933 0.0000
# 6 0.0000 0.0000 0.0000 -0.8221 0.0000 34.6160
#
#
#
# Elastic Compliance Matrix: (Units=1/GPa)
#
#
# Indices 1 2 3 4 5 6 
#
# 1 0.012255 -0.012460 -0.000788 0.000000 -0.001478 0.000000
# 2 -0.012460 0.039863 -0.009180 0.000000 0.002309 0.000000
# 3 -0.000788 -0.009180 0.012554 0.000000 0.000910 0.000000
# 4 0.000000 0.000000 0.000000 0.036553 0.000000 0.000868
# 5 -0.001478 0.002309 0.000910 0.000000 0.036193 0.000000
# 6 0.000000 0.000000 0.000000 0.000868 0.000000 0.028909
#
#
# Mechanical properties :
#
#
# Convention : Reuss Voigt Hill
#
# Bulk Modulus (GPa) = 50.46493 66.69754 58.58123
# Shear Modulus (GPa) = 22.95796 28.67112 25.81454
#
# Velocity S-wave (km/s) = 3.54416 3.96067 3.75819
# Velocity P-wave (km/s) = 6.66027 7.57683 7.13328
#
# Compressibility (1/GPa) = 0.01981574
#
# Stress axis : x y z
#
# Youngs Moduli (GPa) = 81.59837 25.08564 79.65566
#
# Poissons Ratio (x) = 0.31258 0.06274
# Poissons Ratio (y) = 1.01675 0.73127
# Poissons Ratio (z) = 0.06427 0.23029
#
# Static dielectric constant tensor:
#      x y z
#    x 1.614660 0.000000 0.006290 
#    y 0.000000 1.613140 0.000000 
#    z 0.006290 0.000000 1.588530 
# 
# From -- ./inp_files/230363.got.cif
#   From: 2010.05.17/outbox.cif.g08.bks.cpg/sg12_116_cif.got.tgz:230363.got - 2010.06.03 13:09:07.
