data_PCOD9210151
_publ_section_title
;
Structure prediction by ZEFSAII (Michael W. Deem and Ramdas Pophale) SiO2 
 PCOD9210151
Probable space group: C 2/M
;
_chemical_formula_sum "Si O2"
_cell_formula_units_Z 48
_cell_length_a 15.553861
_cell_length_b 33.181206
_cell_length_c 7.459055
_cell_angle_alpha 90.000000
_cell_angle_beta 144.514464
_cell_angle_gamma 90.000000
_cell_volume 2234.675576
_symmetry_space_group_name_H-M "C 2/M"
_symmetry_group_IT_number 12
_symmetry_cell_setting 'monoclinic'
loop_
_space_group_symop_operation_xyz
x,y,z
-x,y,-z
-x,-y,-z
x,-y,z
1/2+x,1/2+y,z
1/2-x,1/2+y,-z
1/2-x,1/2-y,-z
1/2+x,1/2-y,z
loop_
_atom_site_type_symbol
_atom_site_label
_atom_site_fract_x
_atom_site_fract_y
_atom_site_fract_z
Si Si1 0.000000 0.151460 0.500000
Si Si2 0.168705 0.000000 0.850252
Si Si3 0.264503 0.408696 0.140835
Si Si4 0.836374 0.882858 0.672572
Si Si5 0.957331 0.411982 0.726009
Si Si6 0.182479 0.799531 0.516571
Si Si7 0.597195 0.000000 0.482301
Si Si8 0.500000 0.767061 0.000000
O O1 0.123974 0.119656 0.780347
O O2 0.093172 0.180080 0.527547
O O3 0.223147 0.956324 0.872697
O O4 0.000000 0.000000 0.500000
O O5 0.231754 0.000000 0.161097
O O6 0.305713 0.399965 0.419763
O O7 0.091920 0.397992 0.831117
O O8 0.707377 0.897091 0.584269
O O9 0.826001 0.834471 0.647309
O O10 0.000000 0.895704 0.000000
O O11 0.944437 0.460068 0.693289
O O12 0.000000 0.399110 0.000000
O O13 0.358422 0.790870 0.844055
O O14 0.088444 0.761070 0.291781
O O15 0.500000 0.000000 0.500000
#
# Coordination Sequence:
#
# PCOD9210151 Si02
#       8
#     4   4   8   8   8   8   4   4
#     4  10  22  37  64  94 130 158 204 250 314 355
#     4  12  24  38  55  82 126 165 209 254 317 361
#     4  10  21  39  60  88 122 168 202 262 307 360
#     4  10  22  38  62  89 121 157 210 254 303 374
#     4  10  22  40  62  85 120 164 211 260 313 366
#     4  10  22  41  64  93 122 160 199 254 300 383
#     4  12  23  38  58  85 119 163 216 266 308 369
#     4  10  22  42  68  88 122 162 202 240 318 366
#
# _framework density 21.479628000000002
#
# number of rings (size 3 to 8) (size 9 to 14) (size 15 to 20)
#    0.000    1.667    3.333    0.250    8.167    2.667 
#    0.000    0.833    0.000    4.000    0.000    0.000 
#    0.000    0.000    0.000    0.000    0.000    0.000 
#
# Total GULP energy -133776.193601 kJ/mol
# GULP energy per Si atom -5574.008067 kJ/mol
# Density = 2.143074 g / cm^3
# Si number density = 21.479628 Si / 1000 Ang^3
#
#
#
# Elastic Constant Matrix: (Units=GPa)
#
#
# Indices 1 2 3 4 5 6 
#
# 1 97.7559 47.1236 56.4268 0.0000 52.9510 0.0000
# 2 47.1236 85.0825 20.7960 0.0000 26.2618 0.0000
# 3 56.4268 20.7960 146.8105 0.0000 45.5940 0.0000
# 4 0.0000 0.0000 0.0000 19.2870 0.0000 2.7161
# 5 52.9510 26.2618 45.5940 0.0000 52.4900 0.0000
# 6 0.0000 0.0000 0.0000 2.7161 0.0000 31.5389
#
#
#
# Elastic Compliance Matrix: (Units=1/GPa)
#
#
# Indices 1 2 3 4 5 6 
#
# 1 0.026815 -0.007767 -0.002755 0.000000 -0.020771 0.000000
# 2 -0.007767 0.016157 0.001060 0.000000 -0.001169 0.000000
# 3 -0.002755 0.001060 0.009616 0.000000 -0.006103 0.000000
# 4 0.000000 0.000000 0.000000 0.052485 0.000000 -0.004520
# 5 -0.020771 -0.001169 -0.006103 0.000000 0.045891 0.000000
# 6 0.000000 0.000000 0.000000 -0.004520 0.000000 0.032096
#
#
# Mechanical properties :
#
#
# Convention : Reuss Voigt Hill
#
# Bulk Modulus (GPa) = 29.70684 64.26019 46.98352
# Shear Modulus (GPa) = 23.45141 34.35001 28.90071
#
# Velocity S-wave (km/s) = 3.30782 4.00333 3.67208
# Velocity P-wave (km/s) = 5.33378 7.16593 6.31663
#
# Compressibility (1/GPa) = 0.03366228
#
# Stress axis : x y z
#
# Youngs Moduli (GPa) = 37.29206 61.89304 103.99498
#
# Poissons Ratio (x) = 0.48073 0.28655
# Poissons Ratio (y) = 0.28965 -0.11019
# Poissons Ratio (z) = 0.10276 -0.06558
#
# Static dielectric constant tensor:
#      x y z
#    x 1.846490 0.000000 0.017920 
#    y 0.000000 1.773900 0.000000 
#    z 0.017920 0.000000 1.829950 
# 
# From -- ./inp_files/80906.got.cif
#   From: 2010.05.17/outbox.cif.g08.bks.cpg/sg12_41_cif.got.tgz:80906.got - 2010.06.03 13:09:07.
