data_PCOD9210396
_publ_section_title
;
Structure prediction by ZEFSAII (Michael W. Deem and Ramdas Pophale) SiO2 
 PCOD9210396
Probable space group: C 2/M
;
_chemical_formula_sum "Si O2"
_cell_formula_units_Z 42
_cell_length_a 5.097605
_cell_length_b 13.417619
_cell_length_c 27.226834
_cell_angle_alpha 90.000000
_cell_angle_beta 81.477276
_cell_angle_gamma 90.000000
_cell_volume 1841.688854
_symmetry_space_group_name_H-M "C 2/M"
_symmetry_group_IT_number 12
_symmetry_cell_setting 'monoclinic'
loop_
_space_group_symop_operation_xyz
x,y,z
-x,y,-z
-x,-y,-z
x,-y,z
1/2+x,1/2+y,z
1/2-x,1/2+y,-z
1/2-x,1/2-y,-z
1/2+x,1/2-y,z
loop_
_atom_site_type_symbol
_atom_site_label
_atom_site_fract_x
_atom_site_fract_y
_atom_site_fract_z
Si Si1 0.000000 0.500000 0.500000
Si Si2 0.703016 0.321536 0.561812
Si Si3 0.590427 0.500000 0.851105
Si Si4 0.342035 0.790474 0.944420
Si Si5 0.783667 0.814660 0.329088
Si Si6 0.976370 0.818984 0.220784
Si Si7 0.543191 0.000000 0.914379
O O1 0.204310 0.411239 0.474773
O O2 0.427444 0.266057 0.557204
O O3 0.691787 0.363196 0.618285
O O4 0.547073 0.403539 0.818898
O O5 0.880441 0.500000 0.867694
O O6 0.356676 0.500000 0.898229
O O7 0.582745 0.723170 0.919069
O O8 0.444661 0.901391 0.943934
O O9 0.250000 0.750000 0.000000
O O10 0.480085 0.781546 0.328963
O O11 0.892818 0.863322 0.276462
O O12 0.765240 0.730700 0.216153
#
# Coordination Sequence:
#
# PCOD9210396 Si02
#       7
#     2   8   4   8   8   8   4
#     4  12  24  36  60  84 112 162 194 238 312 364
#     4  10  22  39  57  83 117 149 196 250 297 353
#     4  12  26  39  61  92 126 163 192 238 300 354
#     4  10  23  42  67  92 118 157 199 244 292 337
#     4   8  16  34  58  81 110 151 193 244 292 338
#     4  10  21  39  62  87 120 158 200 241 289 353
#     4  12  26  42  61  94 128 156 199 243 290 350
#
# _framework density 22.805156
#
# number of rings (size 3 to 8) (size 9 to 14) (size 15 to 20)
#    0.000    1.905    0.000    2.857    0.000    9.905 
#    0.000    0.000    0.000   13.714    0.000    0.000 
#    0.000    0.000    0.000    0.000    0.000    0.000 
#
# Total GULP energy -117084.741127 kJ/mol
# GULP energy per Si atom -5575.463863 kJ/mol
# Density = 2.275325 g / cm^3
# Si number density = 22.805156 Si / 1000 Ang^3
#
#
#
# Elastic Constant Matrix: (Units=GPa)
#
#
# Indices 1 2 3 4 5 6 
#
# 1 112.4872 4.6825 -5.5942 0.0000 -7.6605 0.0000
# 2 4.6825 96.8909 34.0262 0.0000 -13.8747 0.0000
# 3 -5.5942 34.0262 72.7546 0.0000 -3.1763 0.0000
# 4 0.0000 0.0000 0.0000 25.2041 0.0000 -6.9229
# 5 -7.6605 -13.8747 -3.1763 0.0000 28.7080 0.0000
# 6 0.0000 0.0000 0.0000 -6.9229 0.0000 22.0199
#
#
#
# Elastic Compliance Matrix: (Units=1/GPa)
#
#
# Indices 1 2 3 4 5 6 
#
# 1 0.009118 -0.000467 0.001021 0.000000 0.002320 0.000000
# 2 -0.000467 0.013251 -0.005988 0.000000 0.005617 0.000000
# 3 0.001021 -0.005988 0.016589 0.000000 -0.000786 0.000000
# 4 0.000000 0.000000 0.000000 0.043426 0.000000 0.013653
# 5 0.002320 0.005617 -0.000786 0.000000 0.038080 0.000000
# 6 0.000000 0.000000 0.000000 0.013653 0.000000 0.049706
#
#
# Mechanical properties :
#
#
# Convention : Reuss Voigt Hill
#
# Bulk Modulus (GPa) = 35.59941 38.70686 37.15313
# Shear Modulus (GPa) = 26.26029 31.78763 29.02396
#
# Velocity S-wave (km/s) = 3.39707 3.73752 3.57135
# Velocity P-wave (km/s) = 5.57054 5.96951 5.77347
#
# Compressibility (1/GPa) = 0.02809035
#
# Stress axis : x y z
#
# Youngs Moduli (GPa) = 109.67175 75.46840 60.27954
#
# Poissons Ratio (x) = 0.03523 -0.06153
# Poissons Ratio (y) = 0.05120 0.36094
# Poissons Ratio (z) = -0.11195 0.45189
#
# Static dielectric constant tensor:
#      x y z
#    x 2.816550 0.000000 1.252150 
#    y 0.000000 1.792820 0.000000 
#    z 1.252150 0.000000 3.519040 
# 
# From -- ./inp_files/371374.got.cif
#   From: 2010.05.17/outbox.cif.g08.bks.cpg/sg12_186_cif.got.tgz:371374.got - 2010.06.03 13:09:07.
