data_PCOD9210598
_publ_section_title
;
Structure prediction by ZEFSAII (Michael W. Deem and Ramdas Pophale) SiO2 
 PCOD9210598
Probable space group: C 2/M
;
_chemical_formula_sum "Si O2"
_cell_formula_units_Z 56
_cell_length_a 14.203591
_cell_length_b 18.693923
_cell_length_c 12.237255
_cell_angle_alpha 90.000000
_cell_angle_beta 55.850134
_cell_angle_gamma 90.000000
_cell_volume 2688.985431
_symmetry_space_group_name_H-M "C 2/M"
_symmetry_group_IT_number 12
_symmetry_cell_setting 'monoclinic'
loop_
_space_group_symop_operation_xyz
x,y,z
-x,y,-z
-x,-y,-z
x,-y,z
1/2+x,1/2+y,z
1/2-x,1/2+y,-z
1/2-x,1/2-y,-z
1/2+x,1/2-y,z
loop_
_atom_site_type_symbol
_atom_site_label
_atom_site_fract_x
_atom_site_fract_y
_atom_site_fract_z
Si Si1 0.775723 0.704852 0.750066
Si Si2 0.338648 0.079908 0.861808
Si Si3 0.533751 0.273964 0.805063
Si Si4 0.952008 0.390484 0.147656
Si Si5 0.817249 0.082716 0.650441
Si Si6 0.636853 0.722114 0.512195
Si Si7 0.821893 0.841369 0.866535
O O1 0.816746 0.632257 0.776336
O O2 0.650093 0.695746 0.779849
O O3 0.860409 0.732011 0.599876
O O4 0.775099 0.768534 0.840852
O O5 0.470832 0.078219 0.807099
O O6 0.295760 0.000000 0.872542
O O7 0.275208 0.116331 0.006058
O O8 0.527847 0.194695 0.856660
O O9 0.544368 0.267839 0.666077
O O10 0.420411 0.320568 0.888516
O O11 0.819746 0.407759 0.248902
O O12 0.000000 0.415551 0.000000
O O13 0.855655 0.140142 0.534165
O O14 0.862779 0.109517 0.738588
O O15 0.844789 0.000000 0.610850
O O16 0.750000 0.750000 0.500000
#
# Coordination Sequence:
#
# PCOD9210598 Si02
#       7
#     8   8   8   8   8   8   8
#     4  10  21  39  63  88 124 158 204 249 299 358
#     4  12  25  40  58  92 130 162 198 248 314 370
#     4  11  22  39  66  95 115 156 219 247 297 357
#     4  12  22  37  68  95 122 154 199 265 309 363
#     4  11  22  39  62  95 125 154 198 257 317 356
#     4   9  19  41  63  91 119 161 204 252 295 364
#     4  11  22  38  62  89 124 160 200 254 298 366
#
# _framework density 20.825697000000002
#
# number of rings (size 3 to 8) (size 9 to 14) (size 15 to 20)
#    0.000    1.143    7.143    1.286    2.000    2.857 
#    0.000    7.143    0.000    0.857    0.000    0.000 
#    0.000    0.000    0.000    0.000    0.000    0.000 
#
# Total GULP energy -156517.125005 kJ/mol
# GULP energy per Si atom -5589.897322 kJ/mol
# Density = 2.077830 g / cm^3
# Si number density = 20.825697 Si / 1000 Ang^3
#
#
#
# Elastic Constant Matrix: (Units=GPa)
#
#
# Indices 1 2 3 4 5 6 
#
# 1 109.3073 38.0652 8.7385 0.0000 11.4285 0.0000
# 2 38.0652 128.4678 33.7512 0.0000 18.3753 0.0000
# 3 8.7385 33.7512 76.1839 0.0000 12.6023 0.0000
# 4 0.0000 0.0000 0.0000 4.5650 0.0000 -4.5027
# 5 11.4285 18.3753 12.6023 0.0000 28.4350 0.0000
# 6 0.0000 0.0000 0.0000 -4.5027 0.0000 -7.2938
#
#
#
# Elastic Compliance Matrix: (Units=1/GPa)
#
#
# Indices 1 2 3 4 5 6 
#
# 1 0.010363 -0.002834 0.000489 0.000000 -0.002550 0.000000
# 2 -0.002834 0.010094 -0.003514 0.000000 -0.003827 0.000000
# 3 0.000489 -0.003514 0.015414 0.000000 -0.004757 0.000000
# 4 0.000000 0.000000 0.000000 0.136153 0.000000 -0.084051
# 5 -0.002550 -0.003827 -0.004757 0.000000 0.040774 0.000000
# 6 0.000000 0.000000 0.000000 -0.084051 0.000000 -0.085215
#
#
# Mechanical properties :
#
#
# Convention : Reuss Voigt Hill
#
# Bulk Modulus (GPa) = 41.40374 52.78541 47.09458
# Shear Modulus (GPa) = 33.93212 20.70152 27.31682
#
# Velocity S-wave (km/s) = 4.04089 3.15626 3.62565
# Velocity P-wave (km/s) = 6.45724 6.21964 6.33955
#
# Compressibility (1/GPa) = 0.02415241
#
# Stress axis : x y z
#
# Youngs Moduli (GPa) = 96.49653 99.06505 64.87730
#
# Poissons Ratio (x) = 0.28078 -0.03171
# Poissons Ratio (y) = 0.27350 0.22797
# Poissons Ratio (z) = -0.04717 0.34811
#
# Static dielectric constant tensor:
#      x y z
#    x 1.811330 0.000000 -0.052470 
#    y 0.000000 1.741590 0.000000 
#    z -0.052470 0.000000 1.799830 
# 
# From -- ./inp_files/146026.got.cif
#   From: 2010.05.17/outbox.cif.g08.bks.cpg/sg12_74_cif.got.tgz:146026.got - 2010.06.03 13:09:07.
