data_PCOD9210908
_publ_section_title
;
Structure prediction by ZEFSAII (Michael W. Deem and Ramdas Pophale) SiO2 
 PCOD9210908
Probable space group: C 2/M
;
_chemical_formula_sum "Si O2"
_cell_formula_units_Z 56
_cell_length_a 23.162192
_cell_length_b 13.900795
_cell_length_c 22.776369
_cell_angle_alpha 90.000000
_cell_angle_beta 23.649942
_cell_angle_gamma 90.000000
_cell_volume 2941.765274
_symmetry_space_group_name_H-M "C 2/M"
_symmetry_group_IT_number 12
_symmetry_cell_setting 'monoclinic'
loop_
_space_group_symop_operation_xyz
x,y,z
-x,y,-z
-x,-y,-z
x,-y,z
1/2+x,1/2+y,z
1/2-x,1/2+y,-z
1/2-x,1/2-y,-z
1/2+x,1/2-y,z
loop_
_atom_site_type_symbol
_atom_site_label
_atom_site_fract_x
_atom_site_fract_y
_atom_site_fract_z
Si Si1 0.565658 0.390804 0.092176
Si Si2 0.831704 0.782051 0.666933
Si Si3 0.617719 0.886050 0.780047
Si Si4 0.701902 0.731881 0.478709
Si Si5 0.305249 0.796263 0.078592
Si Si6 0.740761 0.888483 0.349335
Si Si7 0.560954 0.612844 0.235191
O O1 0.620959 0.500000 0.036315
O O2 0.412471 0.386813 0.201552
O O3 0.542267 0.369344 0.183008
O O4 0.667260 0.311013 0.970273
O O5 0.732792 0.855431 0.722191
O O6 0.783750 0.791220 0.778527
O O7 0.797254 0.676393 0.671607
O O8 0.000000 0.801173 0.500000
O O9 0.676634 0.830055 0.667938
O O10 0.613420 0.000000 0.775735
O O11 0.460734 0.845513 0.942547
O O12 0.750000 0.750000 0.500000
O O13 0.678772 0.828969 0.462672
O O14 0.556153 0.671534 0.618986
O O15 0.216426 0.854918 0.112851
O O16 0.695900 0.000000 0.387629
O O17 0.539747 0.500000 0.264724
#
# Coordination Sequence:
#
# PCOD9210908 Si02
#       7
#     8   8   8   8   8   8   8
#     4  10  21  39  64  94 127 165 210 256 312 375
#     4  11  25  43  63  88 123 166 210 266 320 373
#     4  11  24  40  61  91 125 164 214 264 312 371
#     4  11  20  38  63  93 125 166 208 253 306 372
#     4  12  22  41  65  92 127 168 213 259 315 374
#     4  10  21  40  63  92 126 161 206 260 315 370
#     4  11  23  39  63  95 133 169 205 255 316 378
#
# _framework density 19.036187999999999
#
# number of rings (size 3 to 8) (size 9 to 14) (size 15 to 20)
#    0.000    1.143    4.286    3.429    0.000    3.429 
#    0.000    3.571    0.000    0.000    0.000    0.000 
#    0.000    0.000    0.000    0.000    0.000    0.000 
#
# Total GULP energy -156442.695851 kJ/mol
# GULP energy per Si atom -5587.239138 kJ/mol
# Density = 1.899286 g / cm^3
# Si number density = 19.036188 Si / 1000 Ang^3
#
#
#
# Elastic Constant Matrix: (Units=GPa)
#
#
# Indices 1 2 3 4 5 6 
#
# 1 50.3118 17.7571 30.0344 0.0010 -8.7230 -0.0004
# 2 17.7571 105.8092 33.2768 -0.0005 8.5133 0.0000
# 3 30.0344 33.2768 106.5314 -0.0027 -4.9790 0.0005
# 4 0.0010 -0.0005 -0.0027 27.0922 0.0008 -3.9392
# 5 -8.7230 8.5133 -4.9790 0.0008 30.8728 -0.0001
# 6 -0.0004 0.0000 0.0005 -3.9392 -0.0001 19.2739
#
#
#
# Elastic Compliance Matrix: (Units=1/GPa)
#
#
# Indices 1 2 3 4 5 6 
#
# 1 0.025751 -0.003014 -0.005985 -0.000002 0.007142 0.000000
# 2 -0.003014 0.011210 -0.002858 0.000000 -0.004404 0.000000
# 3 -0.005985 -0.002858 0.012015 0.000001 0.001035 0.000000
# 4 -0.000002 0.000000 0.000001 0.038041 -0.000001 0.007775
# 5 0.007142 -0.004404 0.001035 -0.000001 0.035790 0.000000
# 6 0.000000 0.000000 0.000000 0.007775 0.000000 0.053473
#
#
# Mechanical properties :
#
#
# Convention : Reuss Voigt Hill
#
# Bulk Modulus (GPa) = 39.58343 47.19876 43.39109
# Shear Modulus (GPa) = 23.99078 27.55339 25.77209
#
# Velocity S-wave (km/s) = 3.55388 3.80863 3.68346
# Velocity P-wave (km/s) = 6.13832 6.64747 6.39797
#
# Compressibility (1/GPa) = 0.02526310
#
# Stress axis : x y z
#
# Youngs Moduli (GPa) = 38.83395 89.20741 83.22826
#
# Poissons Ratio (x) = 0.26887 0.49809
# Poissons Ratio (y) = 0.11705 0.23784
# Poissons Ratio (z) = 0.23241 0.25492
#
# Static dielectric constant tensor:
#      x y z
#    x 1.668720 0.000000 -0.014930 
#    y 0.000000 1.652360 0.000000 
#    z -0.014930 0.000000 1.646090 
# 
# From -- ./inp_files/96488.got.cif
#   From: 2010.05.17/outbox.cif.g08.bks.cpg/sg12_49_cif.got.tgz:96488.got - 2010.06.03 13:09:07.
