data_PCOD9210996
_publ_section_title
;
Structure prediction by ZEFSAII (Michael W. Deem and Ramdas Pophale) SiO2 
 PCOD9210996
Probable space group: C 2/M
;
_chemical_formula_sum "Si O2"
_cell_formula_units_Z 40
_cell_length_a 16.087032
_cell_length_b 20.768304
_cell_length_c 8.735846
_cell_angle_alpha 90.000000
_cell_angle_beta 140.436210
_cell_angle_gamma 90.000000
_cell_volume 1858.995526
_symmetry_space_group_name_H-M "C 2/M"
_symmetry_group_IT_number 12
_symmetry_cell_setting 'monoclinic'
loop_
_space_group_symop_operation_xyz
x,y,z
-x,y,-z
-x,-y,-z
x,-y,z
1/2+x,1/2+y,z
1/2-x,1/2+y,-z
1/2-x,1/2-y,-z
1/2+x,1/2-y,z
loop_
_atom_site_type_symbol
_atom_site_label
_atom_site_fract_x
_atom_site_fract_y
_atom_site_fract_z
Si Si1 0.473864 0.500000 0.216950
Si Si2 0.143100 0.342980 0.403496
Si Si3 0.579053 0.627042 0.239725
Si Si4 0.852957 0.361540 0.952454
Si Si5 0.721350 0.500000 0.796646
Si Si6 0.871058 0.220780 0.410109
O O1 0.493970 0.564297 0.150525
O O2 0.597352 0.500000 0.508004
O O3 0.340989 0.500000 0.123254
O O4 0.272663 0.386650 0.604251
O O5 0.135721 0.337581 0.208123
O O6 0.173120 0.280054 0.546501
O O7 0.994514 0.361766 0.231890
O O8 0.587597 0.665563 0.409954
O O9 0.500000 0.666631 0.000000
O O10 0.800554 0.434520 0.880759
O O11 0.742283 0.311939 0.854264
O O12 0.000000 0.238503 0.500000
#
# Coordination Sequence:
#
# PCOD9210996 Si02
#       6
#     4   8   8   8   4   8
#     4  11  21  39  63  98 121 156 210 259 315 368
#     4  10  23  38  59  92 126 162 210 248 311 366
#     4  11  23  40  65  90 125 166 205 257 309 377
#     4  10  21  39  65  93 123 162 211 260 305 371
#     4  11  20  38  68  97 123 155 212 265 306 364
#     4  11  23  40  62  91 124 165 211 256 305 365
#
# _framework density 21.516995999999999
#
# number of rings (size 3 to 8) (size 9 to 14) (size 15 to 20)
#    0.000    1.400    4.000    3.900    5.600    3.200 
#    3.600    0.000    0.000    1.200    0.000    0.000 
#    0.000    0.000    0.000    0.000    0.000    0.000 
#
# Total GULP energy -111497.954469 kJ/mol
# GULP energy per Si atom -5574.897723 kJ/mol
# Density = 2.146802 g / cm^3
# Si number density = 21.516996 Si / 1000 Ang^3
#
#
#
# Elastic Constant Matrix: (Units=GPa)
#
#
# Indices 1 2 3 4 5 6 
#
# 1 77.4206 39.5375 23.3857 0.0000 20.4325 0.0000
# 2 39.5375 96.1408 3.9428 0.0000 10.4459 0.0000
# 3 23.3857 3.9428 108.3694 0.0000 19.3656 0.0000
# 4 0.0000 0.0000 0.0000 -0.4507 0.0000 -10.8512
# 5 20.4325 10.4459 19.3656 0.0000 25.5156 0.0000
# 6 0.0000 0.0000 0.0000 -10.8512 0.0000 14.0267
#
#
#
# Elastic Compliance Matrix: (Units=1/GPa)
#
#
# Indices 1 2 3 4 5 6 
#
# 1 0.020174 -0.006932 -0.001992 0.000000 -0.011805 0.000000
# 2 -0.006932 0.013288 0.001148 0.000000 -0.000760 0.000000
# 3 -0.001992 0.001148 0.010892 0.000000 -0.007142 0.000000
# 4 0.000000 0.000000 0.000000 -0.113054 0.000000 -0.087460
# 5 -0.011805 -0.000760 -0.007142 0.000000 0.054377 0.000000
# 6 0.000000 0.000000 0.000000 -0.087460 0.000000 0.003633
#
#
# Mechanical properties :
#
#
# Convention : Reuss Voigt Hill
#
# Bulk Modulus (GPa) = 34.71879 46.18475 40.45177
# Shear Modulus (GPa) = 345.77472 22.15597 183.96535
#
# Velocity S-wave (km/s) = 12.69044 3.21237 9.25653
# Velocity P-wave (km/s) = 15.19540 5.93885 11.53625
#
# Compressibility (1/GPa) = 0.02880285
#
# Stress axis : x y z
#
# Youngs Moduli (GPa) = 49.56943 75.25762 91.81083
#
# Poissons Ratio (x) = 0.52169 0.18285
# Poissons Ratio (y) = 0.34362 -0.10543
# Poissons Ratio (z) = 0.09872 -0.08642
#
# Static dielectric constant tensor:
#      x y z
#    x 1.834460 0.000000 0.026360 
#    y 0.000000 1.771710 0.000000 
#    z 0.026360 0.000000 1.879980 
# 
# From -- ./inp_files/159689.got.cif
#   From: 2010.05.17/outbox.cif.g08.bks.cpg/sg12_80_cif.got.tgz:159689.got - 2010.06.03 13:09:07.
