data_PCOD9210071
_publ_section_title
;
Structure prediction by ZEFSAII (Michael W. Deem and Ramdas Pophale) SiO2 
 PCOD9210071
Probable space group: C 2/M
;
_chemical_formula_sum "Si O2"
_cell_formula_units_Z 48
_cell_length_a 14.317885
_cell_length_b 30.409557
_cell_length_c 14.025155
_cell_angle_alpha 90.000000
_cell_angle_beta 20.821796
_cell_angle_gamma 90.000000
_cell_volume 2170.653445
_symmetry_space_group_name_H-M "C 2/M"
_symmetry_group_IT_number 12
_symmetry_cell_setting 'monoclinic'
loop_
_space_group_symop_operation_xyz
x,y,z
-x,y,-z
-x,-y,-z
x,-y,z
1/2+x,1/2+y,z
1/2-x,1/2+y,-z
1/2-x,1/2-y,-z
1/2+x,1/2-y,z
loop_
_atom_site_type_symbol
_atom_site_label
_atom_site_fract_x
_atom_site_fract_y
_atom_site_fract_z
Si Si1 0.528164 0.778840 0.663807
Si Si2 0.631289 0.951703 0.159616
Si Si3 0.225873 0.205288 0.206805
Si Si4 0.218193 0.642807 0.005146
Si Si5 0.363865 0.662095 0.223937
Si Si6 0.330372 0.561934 0.254301
O O1 0.750000 0.750000 0.500000
O O2 0.304875 0.745494 0.840203
O O3 0.486378 0.818986 0.775737
O O4 0.640028 0.805045 0.467244
O O5 0.592896 0.905486 0.140119
O O6 0.444747 0.952124 0.433202
O O7 0.585649 0.000000 0.158218
O O8 0.942262 0.947502 0.885398
O O9 0.000000 0.210826 0.500000
O O10 0.500000 0.205962 0.000000
O O11 0.184276 0.158798 0.190725
O O12 0.436210 0.653155 0.878891
O O13 0.273867 0.612835 0.286793
O O14 0.500000 0.679645 0.000000
O O15 0.500000 0.546143 0.000000
#
# Coordination Sequence:
#
# PCOD9210071 Si02
#       6
#     8   8   8   8   8   8
#     4  12  24  42  68  96 136 183 230 282 337 410
#     4  11  23  40  67  95 125 174 225 277 343 403
#     4  12  29  45  69 100 136 181 232 287 350 408
#     4  11  25  45  65  95 141 175 226 285 345 402
#     4  10  23  39  64  95 134 183 226 269 329 401
#     4  10  21  39  59  90 133 174 217 269 328 395
#
# _framework density 22.113156
#
# number of rings (size 3 to 8) (size 9 to 14) (size 15 to 20)
#    0.000    1.000    3.333    2.500    4.667    2.000 
#    0.000    0.000    0.000    1.000    0.000    0.000 
#    0.000    0.000    0.000    0.000    0.000    0.000 
#
# Total GULP energy -133909.531310 kJ/mol
# GULP energy per Si atom -5579.563805 kJ/mol
# Density = 2.206283 g / cm^3
# Si number density = 22.113156 Si / 1000 Ang^3
#
#
#
# Elastic Constant Matrix: (Units=GPa)
#
#
# Indices 1 2 3 4 5 6 
#
# 1 65.2678 24.3148 11.7434 -0.0145 -9.3108 -0.0592
# 2 24.3148 195.0947 26.7945 -0.0305 10.5781 -0.0976
# 3 11.7434 26.7945 91.5220 -0.0733 -6.8104 -0.2973
# 4 -0.0145 -0.0305 -0.0733 3.3159 -0.0125 -12.6800
# 5 -9.3108 10.5781 -6.8104 -0.0125 39.4130 -0.0826
# 6 -0.0592 -0.0976 -0.2973 -12.6800 -0.0826 -27.4471
#
#
#
# Elastic Compliance Matrix: (Units=1/GPa)
#
#
# Indices 1 2 3 4 5 6 
#
# 1 0.016981 -0.002188 -0.001212 -0.000024 0.004389 -0.000018
# 2 -0.002188 0.005741 -0.001573 0.000011 -0.002329 0.000003
# 3 -0.001212 -0.001573 0.011703 -0.000084 0.002158 -0.000086
# 4 -0.000024 0.000011 -0.000084 0.109008 -0.000094 -0.050358
# 5 0.004389 -0.002329 0.002158 -0.000094 0.027407 -0.000063
# 6 -0.000018 0.000003 -0.000086 -0.050358 -0.000063 -0.013168
#
#
# Mechanical properties :
#
#
# Convention : Reuss Voigt Hill
#
# Bulk Modulus (GPa) = 40.85255 53.06555 46.95905
# Shear Modulus (GPa) = 28.44526 22.32513 25.38520
#
# Velocity S-wave (km/s) = 3.59046 3.18085 3.39184
# Velocity P-wave (km/s) = 5.97520 6.12697 6.05156
#
# Compressibility (1/GPa) = 0.02447827
#
# Stress axis : x y z
#
# Youngs Moduli (GPa) = 58.89024 174.19223 85.45067
#
# Poissons Ratio (x) = 0.38111 0.10355
# Poissons Ratio (y) = 0.12885 0.13444
# Poissons Ratio (z) = 0.07136 0.27406
#
# Static dielectric constant tensor:
#      x y z
#    x 1.838460 -0.000200 -0.031630 
#    y -0.000200 1.882410 -0.000420 
#    z -0.031630 -0.000420 1.738700 
# 
# From -- ./inp_files/219560.got.cif
#   From: 2010.05.17/outbox.cif.g08.bks.cpg/sg12_110_cif.got.tgz:219560.got - 2010.06.03 13:09:07.
