data_PCOD9210439
_publ_section_title
;
Structure prediction by ZEFSAII (Michael W. Deem and Ramdas Pophale) SiO2 
 PCOD9210439
Probable space group: C 2/M
;
_chemical_formula_sum "Si O2"
_cell_formula_units_Z 48
_cell_length_a 13.653598
_cell_length_b 10.743821
_cell_length_c 15.423223
_cell_angle_alpha 90.000000
_cell_angle_beta 112.557114
_cell_angle_gamma 90.000000
_cell_volume 2089.376891
_symmetry_space_group_name_H-M "C 2/M"
_symmetry_group_IT_number 12
_symmetry_cell_setting 'monoclinic'
loop_
_space_group_symop_operation_xyz
x,y,z
-x,y,-z
-x,-y,-z
x,-y,z
1/2+x,1/2+y,z
1/2-x,1/2+y,-z
1/2-x,1/2-y,-z
1/2+x,1/2-y,z
loop_
_atom_site_type_symbol
_atom_site_label
_atom_site_fract_x
_atom_site_fract_y
_atom_site_fract_z
Si Si1 0.120563 0.733774 0.229639
Si Si2 0.710738 0.641484 0.420498
Si Si3 0.839450 0.134809 0.931348
Si Si4 0.149534 0.863993 0.738186
Si Si5 0.927329 0.635684 0.392402
Si Si6 0.889970 0.720182 0.113363
O O1 0.126673 0.797515 0.326021
O O2 0.129252 0.836361 0.156371
O O3 0.226924 0.652948 0.248419
O O4 0.006465 0.671083 0.175847
O O5 0.684691 0.500000 0.445395
O O6 0.750000 0.750000 0.500000
O O7 0.810698 0.623528 0.391840
O O8 0.711502 0.137988 0.896336
O O9 0.878336 0.000000 0.971233
O O10 0.881627 0.239962 0.010668
O O11 0.084395 0.751994 0.673511
O O12 0.133672 0.841966 0.835091
O O13 0.113119 0.000000 0.699056
O O14 0.960010 0.500000 0.366642
O O15 0.000000 0.662039 0.500000
#
# Coordination Sequence:
#
# PCOD9210439 Si02
#       6
#     8   8   8   8   8   8
#     4  10  22  40  61  86 124 164 204 249 310 371
#     4  10  22  38  58  86 119 154 202 255 303 363
#     4  10  21  39  62  89 121 159 208 254 299 367
#     4  10  22  38  59  92 127 157 202 260 308 359
#     4   9  20  40  61  82 116 160 202 249 307 368
#     4  10  22  38  60  92 125 161 202 252 312 369
#
# _framework density 22.973357
#
# number of rings (size 3 to 8) (size 9 to 14) (size 15 to 20)
#    0.000    2.167    0.000    1.500    2.333   11.000 
#    0.000    0.000    0.000    6.000    0.000    0.000 
#    0.000    0.000    0.000    0.000    0.000    0.000 
#
# Total GULP energy -133900.363882 kJ/mol
# GULP energy per Si atom -5579.181828 kJ/mol
# Density = 2.292107 g / cm^3
# Si number density = 22.973357 Si / 1000 Ang^3
#
#
#
# Elastic Constant Matrix: (Units=GPa)
#
#
# Indices 1 2 3 4 5 6 
#
# 1 108.6396 5.7392 31.2119 0.0000 18.7334 0.0000
# 2 5.7392 118.1160 57.9408 0.0000 -6.6985 0.0000
# 3 31.2119 57.9408 118.0408 0.0000 10.7358 0.0000
# 4 0.0000 0.0000 0.0000 4.7695 0.0000 -0.1710
# 5 18.7334 -6.6985 10.7358 0.0000 39.7834 0.0000
# 6 0.0000 0.0000 0.0000 -0.1710 0.0000 -1.5944
#
#
#
# Elastic Compliance Matrix: (Units=1/GPa)
#
#
# Indices 1 2 3 4 5 6 
#
# 1 0.010681 0.000581 -0.002728 0.000000 -0.004196 0.000000
# 2 0.000581 0.011662 -0.006183 0.000000 0.003358 0.000000
# 3 -0.002728 -0.006183 0.012513 0.000000 -0.003133 0.000000
# 4 0.000000 0.000000 0.000000 0.208865 0.000000 -0.022398
# 5 -0.004196 0.003358 -0.003133 0.000000 0.028523 0.000000
# 6 0.000000 0.000000 0.000000 -0.022398 0.000000 -0.624802
#
#
# Mechanical properties :
#
#
# Convention : Reuss Voigt Hill
#
# Bulk Modulus (GPa) = 54.95764 59.39780 57.17772
# Shear Modulus (GPa) = -15.15919 25.25199 5.04640
#
# Velocity S-wave (km/s) = -2.57156 3.31899 1.48371
# Velocity P-wave (km/s) = 3.89320 6.37172 5.27996
#
# Compressibility (1/GPa) = 0.01819583
#
# Stress axis : x y z
#
# Youngs Moduli (GPa) = 93.62183 85.75128 79.91655
#
# Poissons Ratio (x) = -0.04985 0.21802
# Poissons Ratio (y) = -0.05442 0.49415
# Poissons Ratio (z) = 0.25540 0.53023
#
# Static dielectric constant tensor:
#      x y z
#    x 1.945770 0.000000 0.034120 
#    y 0.000000 1.888140 0.000000 
#    z 0.034120 0.000000 1.915730 
# 
# From -- ./inp_files/212920.got.cif
#   From: 2010.05.17/outbox.cif.g08.bks.cpg/sg12_107_cif.got.tgz:212920.got - 2010.06.03 13:09:07.
