data_PCOD9210275
_publ_section_title
;
Structure prediction by ZEFSAII (Michael W. Deem and Ramdas Pophale) SiO2 
 PCOD9210275
Probable space group: C 2/M
;
_chemical_formula_sum "Si O2"
_cell_formula_units_Z 48
_cell_length_a 30.637571
_cell_length_b 8.009598
_cell_length_c 15.407705
_cell_angle_alpha 90.000000
_cell_angle_beta 38.729436
_cell_angle_gamma 90.000000
_cell_volume 2365.538161
_symmetry_space_group_name_H-M "C 2/M"
_symmetry_group_IT_number 12
_symmetry_cell_setting 'monoclinic'
loop_
_space_group_symop_operation_xyz
x,y,z
-x,y,-z
-x,-y,-z
x,-y,z
1/2+x,1/2+y,z
1/2-x,1/2+y,-z
1/2-x,1/2-y,-z
1/2+x,1/2-y,z
loop_
_atom_site_type_symbol
_atom_site_label
_atom_site_fract_x
_atom_site_fract_y
_atom_site_fract_z
Si Si1 0.975273 0.700031 0.941754
Si Si2 0.227066 0.305575 0.439603
Si Si3 0.527541 0.704210 0.362513
Si Si4 0.819494 0.200077 0.140273
Si Si5 0.073051 0.805434 0.636233
Si Si6 0.819858 0.201743 0.942386
O O1 0.978472 0.500000 0.924717
O O2 0.024050 0.785283 0.795423
O O3 0.897539 0.763117 0.048638
O O4 0.000000 0.739184 0.000000
O O5 0.243403 0.500000 0.413502
O O6 0.250000 0.250000 0.500000
O O7 0.269292 0.228558 0.292902
O O8 0.145829 0.280410 0.545565
O O9 0.500000 0.755744 0.500000
O O10 0.528417 0.500000 0.359724
O O11 0.471825 0.759015 0.375941
O O12 0.606376 0.758699 0.214760
O O13 0.808627 0.000000 0.151526
O O14 0.812344 0.264610 0.053079
O O15 0.088110 0.000000 0.596951
O O16 0.823924 0.000000 0.938040
O O17 0.750000 0.250000 0.000000
#
# Coordination Sequence:
#
# PCOD9210275 Si02
#       6
#     8   8   8   8   8   8
#     4  11  23  38  60  89 119 152 198 251 297 352
#     4  11  24  41  61  88 123 160 203 250 298 354
#     4   9  19  37  61  88 118 153 196 242 291 353
#     4  10  22  41  61  84 120 161 198 242 299 359
#     4  11  22  39  63  88 121 161 199 243 299 358
#     4  10  21  39  61  88 120 153 194 242 296 358
#
# _framework density 20.291366
#
# number of rings (size 3 to 8) (size 9 to 14) (size 15 to 20)
#    0.000    1.667    1.667    2.500    2.333    6.000 
#    0.000    0.000    0.000    2.500    0.000    0.000 
#    0.000    0.000    0.000    0.000    0.000    0.000 
#
# Total GULP energy -134035.210229 kJ/mol
# GULP energy per Si atom -5584.800426 kJ/mol
# Density = 2.024518 g / cm^3
# Si number density = 20.291366 Si / 1000 Ang^3
#
#
#
# Elastic Constant Matrix: (Units=GPa)
#
#
# Indices 1 2 3 4 5 6 
#
# 1 452.5381 157.4929 -62.5292 0.0017 -143.8414 -0.0001
# 2 157.4929 97.1559 -91.3119 -0.0012 -76.9907 -0.0001
# 3 -62.5292 -91.3119 277.0638 -0.0013 104.3684 -0.0001
# 4 0.0017 -0.0012 -0.0013 5.4418 -0.0008 -12.6894
# 5 -143.8414 -76.9907 104.3684 -0.0008 128.8470 0.0000
# 6 -0.0001 -0.0001 -0.0001 -12.6894 0.0000 27.8140
#
#
#
# Elastic Compliance Matrix: (Units=1/GPa)
#
#
# Indices 1 2 3 4 5 6 
#
# 1 0.007081 -0.012053 -0.003798 0.000084 0.003779 0.000038
# 2 -0.012053 0.041885 0.009678 -0.000256 0.003733 -0.000116
# 3 -0.003798 0.009678 0.007714 -0.000073 -0.004706 -0.000033
# 4 0.000084 -0.000256 -0.000073 -2.878394 -0.000017 -1.313193
# 5 0.003779 0.003733 -0.004706 -0.000017 0.018022 -0.000008
# 6 0.000038 -0.000116 -0.000033 -1.313193 -0.000008 -0.563157
#
#
# Mechanical properties :
#
#
# Convention : Reuss Voigt Hill
#
# Bulk Modulus (GPa) = 22.55638 92.67347 57.61492
# Shear Modulus (GPa) = -1.49713 87.29428 42.89858
#
# Velocity S-wave (km/s) = -0.85989 6.56611 4.60295
# Velocity P-wave (km/s) = 3.18661 10.16148 7.53027
#
# Compressibility (1/GPa) = 0.04433335
#
# Stress axis : x y z
#
# Youngs Moduli (GPa) = 141.22401 23.87500 129.63003
#
# Poissons Ratio (x) = 0.28777 0.49232
# Poissons Ratio (y) = 1.70219 -1.25451
# Poissons Ratio (z) = 0.53635 -0.23105
#
# Static dielectric constant tensor:
#      x y z
#    x 1.697460 0.000000 0.022900 
#    y 0.000000 1.738180 0.000000 
#    z 0.022900 0.000000 1.709220 
# 
# From -- ./inp_files/244713.got.cif
#   From: 2010.05.17/outbox.cif.g08.bks.cpg/sg12_123_cif.got.tgz:244713.got - 2010.06.03 13:09:07.
