data_PCOD9210514
_publ_section_title
;
Structure prediction by ZEFSAII (Michael W. Deem and Ramdas Pophale) SiO2 
 PCOD9210514
Probable space group: C 2/M
;
_chemical_formula_sum "Si O2"
_cell_formula_units_Z 42
_cell_length_a 29.622899
_cell_length_b 7.524578
_cell_length_c 8.659887
_cell_angle_alpha 90.000000
_cell_angle_beta 106.316976
_cell_angle_gamma 90.000000
_cell_volume 1852.539272
_symmetry_space_group_name_H-M "C 2/M"
_symmetry_group_IT_number 12
_symmetry_cell_setting 'monoclinic'
loop_
_space_group_symop_operation_xyz
x,y,z
-x,y,-z
-x,-y,-z
x,-y,z
1/2+x,1/2+y,z
1/2-x,1/2+y,-z
1/2-x,1/2-y,-z
1/2+x,1/2-y,z
loop_
_atom_site_type_symbol
_atom_site_label
_atom_site_fract_x
_atom_site_fract_y
_atom_site_fract_z
Si Si1 0.548702 0.716812 0.971358
Si Si2 0.163090 0.289898 0.599468
Si Si3 0.500000 0.000000 0.500000
Si Si4 0.565813 0.296170 0.635802
Si Si5 0.644016 0.714151 0.224568
Si Si6 0.740291 0.287265 0.169187
O O1 0.548462 0.500000 0.973176
O O2 0.594764 0.778528 0.107394
O O3 0.500000 0.777272 0.000000
O O4 0.553103 0.767556 0.796391
O O5 0.163208 0.500000 0.628834
O O6 0.121618 0.211081 0.663623
O O7 0.150550 0.256549 0.410018
O O8 0.214922 0.219893 0.690812
O O9 0.539276 0.157608 0.502062
O O10 0.551256 0.500000 0.599783
O O11 0.642813 0.500000 0.208724
O O12 0.689898 0.781784 0.177394
O O13 0.738540 0.500000 0.188658
O O14 0.750000 0.250000 0.000000
#
# Coordination Sequence:
#
# PCOD9210514 Si02
#       6
#     8   8   2   8   8   8
#     4   9  20  38  62  91 125 168 221 268 320 391
#     4  11  23  40  61  95 133 166 218 278 328 398
#     4  12  26  44  66 102 136 164 236 272 310 402
#     4  11  24  44  69  94 132 179 215 271 336 383
#     4  10  21  39  62  92 126 171 224 271 327 399
#     4  10  22  39  63  91 129 170 218 275 332 398
#
# _framework density 22.671585
#
# number of rings (size 3 to 8) (size 9 to 14) (size 15 to 20)
#    0.000    1.714    0.952    2.571    2.667    3.810 
#    1.714    0.476    0.000    0.000    0.000    0.000 
#    0.000    0.000    0.000    0.000    0.000    0.000 
#
# Total GULP energy -117222.768597 kJ/mol
# GULP energy per Si atom -5582.036600 kJ/mol
# Density = 2.261998 g / cm^3
# Si number density = 22.671585 Si / 1000 Ang^3
#
#
#
# Elastic Constant Matrix: (Units=GPa)
#
#
# Indices 1 2 3 4 5 6 
#
# 1 210.1350 15.0377 70.8247 0.0000 8.4188 0.0000
# 2 15.0377 100.1474 3.5306 0.0000 11.9291 0.0000
# 3 70.8247 3.5306 103.3231 0.0000 9.0626 0.0000
# 4 0.0000 0.0000 0.0000 12.0757 0.0000 2.0392
# 5 8.4188 11.9291 9.0626 0.0000 47.1147 0.0000
# 6 0.0000 0.0000 0.0000 2.0392 0.0000 67.0989
#
#
#
# Elastic Compliance Matrix: (Units=1/GPa)
#
#
# Indices 1 2 3 4 5 6 
#
# 1 0.006251 -0.000777 -0.004249 0.000000 -0.000103 0.000000
# 2 -0.000777 0.010394 0.000403 0.000000 -0.002570 0.000000
# 3 -0.004249 0.000403 0.012734 0.000000 -0.001792 0.000000
# 4 0.000000 0.000000 0.000000 0.083238 0.000000 -0.002530
# 5 -0.000103 -0.002570 -0.001792 0.000000 0.022239 0.000000
# 6 0.000000 0.000000 0.000000 -0.002530 0.000000 0.014980
#
#
# Mechanical properties :
#
#
# Convention : Reuss Voigt Hill
#
# Bulk Modulus (GPa) = 49.66996 65.82129 57.74563
# Shear Modulus (GPa) = 30.15807 46.87203 38.51505
#
# Velocity S-wave (km/s) = 3.65117 4.55184 4.12615
# Velocity P-wave (km/s) = 6.30323 7.53135 6.94449
#
# Compressibility (1/GPa) = 0.02013289
#
# Stress axis : x y z
#
# Youngs Moduli (GPa) = 159.98307 96.21074 78.52736
#
# Poissons Ratio (x) = 0.07471 0.33367
# Poissons Ratio (y) = 0.12423 -0.03161
# Poissons Ratio (z) = 0.67978 -0.03873
#
# Static dielectric constant tensor:
#      x y z
#    x 1.831070 0.000000 0.034030 
#    y 0.000000 1.848430 0.000000 
#    z 0.034030 0.000000 1.838460 
# 
# From -- ./inp_files/108930.got.cif
#   From: 2010.05.17/outbox.cif.g08.bks.cpg/sg12_55_cif.got.tgz:108930.got - 2010.06.03 13:09:07.
