data_PCOD9210146
_publ_section_title
;
Structure prediction by ZEFSAII (Michael W. Deem and Ramdas Pophale) SiO2 
 PCOD9210146
Probable space group: C 2/M
;
_chemical_formula_sum "Si O2"
_cell_formula_units_Z 48
_cell_length_a 9.283232
_cell_length_b 21.079075
_cell_length_c 13.628144
_cell_angle_alpha 90.000000
_cell_angle_beta 64.623445
_cell_angle_gamma 90.000000
_cell_volume 2409.465897
_symmetry_space_group_name_H-M "C 2/M"
_symmetry_group_IT_number 12
_symmetry_cell_setting 'monoclinic'
loop_
_space_group_symop_operation_xyz
x,y,z
-x,y,-z
-x,-y,-z
x,-y,z
1/2+x,1/2+y,z
1/2-x,1/2+y,-z
1/2-x,1/2-y,-z
1/2+x,1/2-y,z
loop_
_atom_site_type_symbol
_atom_site_label
_atom_site_fract_x
_atom_site_fract_y
_atom_site_fract_z
Si Si1 0.653333 0.141625 0.882257
Si Si2 0.833551 0.429493 0.605316
Si Si3 0.632216 0.753870 0.245782
Si Si4 0.640075 0.428488 0.025477
Si Si5 0.711604 0.294862 0.604578
Si Si6 0.085246 0.393089 0.195424
O O1 0.726204 0.208891 0.831116
O O2 0.588209 0.104664 0.804986
O O3 0.500000 0.146366 0.000000
O O4 0.796878 0.107021 0.897376
O O5 0.759984 0.500000 0.619323
O O6 0.734048 0.370755 0.589443
O O7 0.881910 0.416544 0.704551
O O8 0.000000 0.429801 0.500000
O O9 0.462581 0.719356 0.300676
O O10 0.665065 0.774774 0.347418
O O11 0.623523 0.817755 0.184903
O O12 0.589491 0.500000 0.065687
O O13 0.792611 0.428770 0.910202
O O14 0.500000 0.398499 0.000000
O O15 0.750000 0.250000 0.500000
#
# Coordination Sequence:
#
# PCOD9210146 Si02
#       6
#     8   8   8   8   8   8
#     4  10  23  39  59  88 124 161 204 255 310 366
#     4  10  22  39  64  94 125 164 209 258 315 375
#     4  11  22  38  61  94 122 162 206 257 316 365
#     4  10  23  39  60  87 118 164 209 253 312 374
#     4  11  22  40  65  93 126 163 211 261 311 374
#     4  10  21  39  60  87 123 159 208 255 307 371
#
# _framework density 19.921427000000001
#
# number of rings (size 3 to 8) (size 9 to 14) (size 15 to 20)
#    0.000    1.667    1.667    3.000    4.667    7.000 
#    0.000    0.000    0.000    2.000    0.000    0.000 
#    0.000    0.000    0.000    0.000    0.000    0.000 
#
# Total GULP energy -133851.768575 kJ/mol
# GULP energy per Si atom -5577.157024 kJ/mol
# Density = 1.987608 g / cm^3
# Si number density = 19.921427 Si / 1000 Ang^3
#
#
#
# Elastic Constant Matrix: (Units=GPa)
#
#
# Indices 1 2 3 4 5 6 
#
# 1 87.9963 33.7750 -10.9310 0.0000 12.7734 0.0000
# 2 33.7750 128.3483 18.2570 0.0000 3.4902 0.0000
# 3 -10.9310 18.2570 33.9257 0.0000 12.6645 0.0000
# 4 0.0000 0.0000 0.0000 19.2244 0.0000 -3.0346
# 5 12.7734 3.4902 12.6645 0.0000 35.1937 0.0000
# 6 0.0000 0.0000 0.0000 -3.0346 0.0000 21.8049
#
#
#
# Elastic Compliance Matrix: (Units=1/GPa)
#
#
# Indices 1 2 3 4 5 6 
#
# 1 0.016508 -0.005797 0.012084 0.000000 -0.009765 0.000000
# 2 -0.005797 0.010499 -0.009143 0.000000 0.004353 0.000000
# 3 0.012084 -0.009143 0.045732 0.000000 -0.019936 0.000000
# 4 0.000000 0.000000 0.000000 0.053186 0.000000 0.007402
# 5 -0.009765 0.004353 -0.019936 0.000000 0.038701 0.000000
# 6 0.000000 0.000000 0.000000 0.007402 0.000000 0.046891
#
#
# Mechanical properties :
#
#
# Convention : Reuss Voigt Hill
#
# Bulk Modulus (GPa) = 14.91954 36.94136 25.93045
# Shear Modulus (GPa) = 20.87061 29.18923 25.02992
#
# Velocity S-wave (km/s) = 3.24025 3.83197 3.54846
# Velocity P-wave (km/s) = 4.63728 6.17758 5.46200
#
# Compressibility (1/GPa) = 0.06702620
#
# Stress axis : x y z
#
# Youngs Moduli (GPa) = 60.57718 95.24642 21.86652
#
# Poissons Ratio (x) = 0.55218 -0.26424
# Poissons Ratio (y) = 0.35119 0.19993
# Poissons Ratio (z) = -0.73202 0.87084
#
# Static dielectric constant tensor:
#      x y z
#    x 1.729380 0.000000 0.027860 
#    y 0.000000 1.742900 0.000000 
#    z 0.027860 0.000000 1.699620 
# 
# From -- ./inp_files/196929.got.cif
#   From: 2010.05.17/outbox.cif.g08.bks.cpg/sg12_99_cif.got.tgz:196929.got - 2010.06.03 13:09:07.
