data_PCOD9210282
_publ_section_title
;
Structure prediction by ZEFSAII (Michael W. Deem and Ramdas Pophale) SiO2 
 PCOD9210282
Probable space group: C 2/M
;
_chemical_formula_sum "Si O2"
_cell_formula_units_Z 64
_cell_length_a 9.052681
_cell_length_b 18.271742
_cell_length_c 30.724839
_cell_angle_alpha 90.000000
_cell_angle_beta 136.522432
_cell_angle_gamma 90.000000
_cell_volume 3496.872071
_symmetry_space_group_name_H-M "C 2/M"
_symmetry_group_IT_number 12
_symmetry_cell_setting 'monoclinic'
loop_
_space_group_symop_operation_xyz
x,y,z
-x,y,-z
-x,-y,-z
x,-y,z
1/2+x,1/2+y,z
1/2-x,1/2+y,-z
1/2-x,1/2-y,-z
1/2+x,1/2-y,z
loop_
_atom_site_type_symbol
_atom_site_label
_atom_site_fract_x
_atom_site_fract_y
_atom_site_fract_z
Si Si1 0.754379 0.305126 0.959938
Si Si2 0.919614 0.788743 0.242792
Si Si3 0.420545 0.190355 0.642421
Si Si4 0.431925 0.202661 0.155404
Si Si5 0.063180 0.914082 0.064430
Si Si6 0.735693 0.914658 0.676932
Si Si7 0.948617 0.212883 0.567982
Si Si8 0.268286 0.918229 0.427954
O O1 0.643725 0.261763 0.896714
O O2 0.620756 0.375993 0.945827
O O3 0.750000 0.250000 0.000000
O O4 0.000000 0.321187 0.000000
O O5 0.680151 0.815932 0.201476
O O6 0.912037 0.740795 0.197759
O O7 0.998162 0.735468 0.298526
O O8 0.076382 0.857933 0.270839
O O9 0.525992 0.110842 0.659272
O O10 0.509567 0.231082 0.618944
O O11 0.161933 0.195190 0.586294
O O12 0.277367 0.132950 0.118279
O O13 0.087778 0.000000 0.078936
O O14 0.000000 0.905810 0.000000
O O15 0.706048 0.906112 0.618189
O O16 0.784128 0.000000 0.695223
O O17 0.750000 0.250000 0.500000
O O18 0.872333 0.141414 0.577618
O O19 0.500000 0.914690 0.500000
O O20 0.180003 0.000000 0.415094
#
# Coordination Sequence:
#
# PCOD9210282 Si02
#       8
#     8   8   8   8   8   8   8   8
#     4  12  20  39  68  97 125 168 214 254 313 376
#     4  12  23  40  64  91 122 171 216 260 301 380
#     4  12  22  40  60  89 126 162 210 261 321 375
#     4  12  22  39  68  93 121 171 217 254 304 380
#     4  11  24  42  65 101 137 162 205 274 326 365
#     4  11  24  43  64  91 128 168 211 271 328 373
#     4  12  22  36  64  94 120 158 217 267 316 386
#     4  10  21  39  61  88 124 162 203 260 329 384
#
# _framework density 18.302071999999999
#
# number of rings (size 3 to 8) (size 9 to 14) (size 15 to 20)
#    0.000    0.500    7.500    1.875    0.000    1.250 
#    0.000    2.500    0.000    3.750    0.000    0.000 
#    0.000    0.000    0.000    0.000    0.000    0.000 
#
# Total GULP energy -178767.735824 kJ/mol
# GULP energy per Si atom -5586.491745 kJ/mol
# Density = 1.826042 g / cm^3
# Si number density = 18.302072 Si / 1000 Ang^3
#
#
#
# Elastic Constant Matrix: (Units=GPa)
#
#
# Indices 1 2 3 4 5 6 
#
# 1 109.6749 60.0500 41.6548 0.0000 26.4577 0.0000
# 2 60.0500 153.8648 53.8728 0.0000 6.8084 0.0000
# 3 41.6548 53.8728 102.9076 0.0001 5.7196 0.0000
# 4 0.0000 0.0000 0.0001 21.9591 0.0001 1.8065
# 5 26.4577 6.8084 5.7196 0.0001 42.2672 0.0000
# 6 0.0000 0.0000 0.0000 1.8065 0.0000 37.7837
#
#
#
# Elastic Compliance Matrix: (Units=1/GPa)
#
#
# Indices 1 2 3 4 5 6 
#
# 1 0.014588 -0.004196 -0.003263 0.000000 -0.008014 0.000000
# 2 -0.004196 0.009187 -0.003199 0.000000 0.001580 0.000000
# 3 -0.003263 -0.003199 0.012666 0.000000 0.000844 0.000000
# 4 0.000000 0.000000 0.000000 0.045719 0.000000 -0.002186
# 5 -0.008014 0.001580 0.000844 0.000000 0.028307 0.000000
# 6 0.000000 0.000000 0.000000 -0.002186 0.000000 0.026571
#
#
# Mechanical properties :
#
#
# Convention : Reuss Voigt Hill
#
# Bulk Modulus (GPa) = 66.11425 75.28918 70.70172
# Shear Modulus (GPa) = 30.60076 34.45998 32.53037
#
# Velocity S-wave (km/s) = 4.09343 4.34388 4.22051
# Velocity P-wave (km/s) = 7.65140 8.14772 7.90346
#
# Compressibility (1/GPa) = 0.01512533
#
# Stress axis : x y z
#
# Youngs Moduli (GPa) = 68.54984 108.84925 78.95315
#
# Poissons Ratio (x) = 0.45677 0.25759
# Poissons Ratio (y) = 0.28766 0.25254
# Poissons Ratio (z) = 0.22365 0.34817
#
# Static dielectric constant tensor:
#      x y z
#    x 1.631570 0.000000 0.016400 
#    y 0.000000 1.809020 0.000000 
#    z 0.016400 0.000000 1.638560 
# 
# From -- ./inp_files/372990.got.cif
#   From: 2010.05.17/outbox.cif.g08.bks.cpg/sg12_187_cif.got.tgz:372990.got - 2010.06.03 13:09:07.
