data_PCOD9210822
_publ_section_title
;
Structure prediction by ZEFSAII (Michael W. Deem and Ramdas Pophale) SiO2 
 PCOD9210822
Probable space group: C 2/M
;
_chemical_formula_sum "Si O2"
_cell_formula_units_Z 40
_cell_length_a 17.094841
_cell_length_b 14.823182
_cell_length_c 14.598791
_cell_angle_alpha 90.000000
_cell_angle_beta 154.836875
_cell_angle_gamma 90.000000
_cell_volume 1572.944692
_symmetry_space_group_name_H-M "C 2/M"
_symmetry_group_IT_number 12
_symmetry_cell_setting 'monoclinic'
loop_
_space_group_symop_operation_xyz
x,y,z
-x,y,-z
-x,-y,-z
x,-y,z
1/2+x,1/2+y,z
1/2-x,1/2+y,-z
1/2-x,1/2-y,-z
1/2+x,1/2-y,z
loop_
_atom_site_type_symbol
_atom_site_label
_atom_site_fract_x
_atom_site_fract_y
_atom_site_fract_z
Si Si1 0.768202 0.393611 0.979573
Si Si2 0.356515 0.161475 0.575008
Si Si3 0.220216 0.900771 0.232203
Si Si4 0.711503 0.207230 0.188257
Si Si5 0.124478 0.098970 0.476966
O O1 0.807123 0.500000 0.032607
O O2 0.923846 0.335656 0.194181
O O3 0.775483 0.360256 0.882272
O O4 0.553064 0.381050 0.774421
O O5 0.250000 0.250000 0.500000
O O6 0.284028 0.123613 0.402591
O O7 0.300716 0.095920 0.598765
O O8 0.265232 0.810545 0.223115
O O9 0.288324 0.000000 0.274736
O O10 0.000000 0.906249 0.000000
O O11 0.838423 0.171026 0.405039
O O12 0.500000 0.207646 0.000000
O O13 0.092940 0.000000 0.484825
#
# Coordination Sequence:
#
# PCOD9210822 Si02
#       5
#     8   8   8   8   8
#     4  11  24  40  66 100 131 164 207 264 324 380
#     4  12  22  42  66  95 127 168 211 266 320 374
#     4  10  21  39  64  90 122 168 217 260 312 380
#     4  11  20  38  62  95 130 169 208 254 320 381
#     4  11  23  39  64  98 132 167 207 260 324 384
#
# _framework density 25.430009999999999
#
# number of rings (size 3 to 8) (size 9 to 14) (size 15 to 20)
#    0.000    1.000    4.000    4.200    0.000    3.200 
#    0.000    0.000    0.000    2.400    0.000    0.000 
#    0.000    0.000    0.000    0.000    0.000    0.000 
#
# Total GULP energy -111919.430755 kJ/mol
# GULP energy per Si atom -5595.971538 kJ/mol
# Density = 2.537213 g / cm^3
# Si number density = 25.430010 Si / 1000 Ang^3
#
#
#
# Elastic Constant Matrix: (Units=GPa)
#
#
# Indices 1 2 3 4 5 6 
#
# 1 57.8226 -10.3501 8.6068 0.0012 4.6947 0.0002
# 2 -10.3501 181.8292 26.3321 0.0030 8.0743 0.0014
# 3 8.6068 26.3321 175.0404 0.0030 -5.1058 0.0019
# 4 0.0012 0.0030 0.0030 28.3198 0.0017 3.5222
# 5 4.6947 8.0743 -5.1058 0.0017 33.9030 0.0006
# 6 0.0002 0.0014 0.0019 3.5222 0.0006 36.2914
#
#
#
# Elastic Compliance Matrix: (Units=1/GPa)
#
#
# Indices 1 2 3 4 5 6 
#
# 1 0.017947 0.001323 -0.001168 -0.000001 -0.002976 0.000000
# 2 0.001323 0.005794 -0.000987 0.000000 -0.001712 0.000000
# 3 -0.001168 -0.000987 0.005957 -0.000001 0.001294 0.000000
# 4 -0.000001 0.000000 -0.000001 0.035742 -0.000002 -0.003469
# 5 -0.002976 -0.001712 0.001294 -0.000002 0.030511 0.000000
# 6 0.000000 0.000000 0.000000 -0.003469 0.000000 0.027891
#
#
# Mechanical properties :
#
#
# Convention : Reuss Voigt Hill
#
# Bulk Modulus (GPa) = 35.67205 51.54109 43.60657
# Shear Modulus (GPa) = 37.07836 45.70974 41.39405
#
# Velocity S-wave (km/s) = 3.82259 4.24426 4.03893
# Velocity P-wave (km/s) = 5.79145 6.65809 6.23983
#
# Compressibility (1/GPa) = 0.02803315
#
# Stress axis : x y z
#
# Youngs Moduli (GPa) = 55.72087 172.59688 167.88203
#
# Poissons Ratio (x) = -0.22833 0.19613
# Poissons Ratio (y) = -0.07371 0.16563
# Poissons Ratio (z) = 0.06510 0.17028
#
# Static dielectric constant tensor:
#      x y z
#    x 1.927250 0.000000 0.023660 
#    y 0.000000 2.075450 0.000000 
#    z 0.023660 0.000000 1.995970 
# 
# From -- ./inp_files/284420.got.cif
#   From: 2010.05.17/outbox.cif.g08.bks.cpg/sg12_143_cif.got.tgz:284420.got - 2010.06.03 13:09:07.
