data_PCOD9210181
_publ_section_title
;
Structure prediction by ZEFSAII (Michael W. Deem and Ramdas Pophale) SiO2 
 PCOD9210181
Probable space group: C 2/M
;
_chemical_formula_sum "Si O2"
_cell_formula_units_Z 40
_cell_length_a 17.555243
_cell_length_b 13.762948
_cell_length_c 15.153987
_cell_angle_alpha 90.000000
_cell_angle_beta 32.587399
_cell_angle_gamma 90.000000
_cell_volume 1971.968056
_symmetry_space_group_name_H-M "C 2/M"
_symmetry_group_IT_number 12
_symmetry_cell_setting 'monoclinic'
loop_
_space_group_symop_operation_xyz
x,y,z
-x,y,-z
-x,-y,-z
x,-y,z
1/2+x,1/2+y,z
1/2-x,1/2+y,-z
1/2-x,1/2-y,-z
1/2+x,1/2-y,z
loop_
_atom_site_type_symbol
_atom_site_label
_atom_site_fract_x
_atom_site_fract_y
_atom_site_fract_z
Si Si1 0.584111 0.726384 0.169748
Si Si2 0.389891 0.611049 0.027504
Si Si3 0.658615 0.796134 0.369756
Si Si4 0.391523 0.613144 0.479784
Si Si5 0.648296 0.113333 0.568425
O O1 0.534679 0.660648 0.300829
O O2 0.485834 0.821577 0.272612
O O3 0.750000 0.750000 0.000000
O O4 0.548927 0.664766 0.116877
O O5 0.351384 0.500000 0.042803
O O6 0.257907 0.670119 0.194509
O O7 0.500000 0.609054 0.000000
O O8 0.500000 0.824917 0.500000
O O9 0.659176 0.681641 0.391177
O O10 0.695537 0.849273 0.425900
O O11 0.406337 0.500000 0.486367
O O12 0.274244 0.624147 0.516471
O O13 0.611761 0.000000 0.598902
#
# Coordination Sequence:
#
# PCOD9210181 Si02
#       5
#     8   8   8   8   8
#     4  11  22  36  56  85 118 146 181 231 282 332
#     4  11  22  36  57  84 113 144 180 228 282 330
#     4  11  22  36  56  84 114 142 179 231 281 327
#     4  10  21  40  62  79 106 153 197 226 264 331
#     4  10  21  39  61  81 107 150 195 229 268 329
#
# _framework density 20.284303999999999
#
# number of rings (size 3 to 8) (size 9 to 14) (size 15 to 20)
#    0.000    1.400    0.000    8.400    0.000    8.400 
#    0.000    1.000    0.000    3.600    0.000    0.000 
#    0.000    0.000    0.000    0.000    0.000    0.000 
#
# Total GULP energy -111852.572996 kJ/mol
# GULP energy per Si atom -5592.628650 kJ/mol
# Density = 2.023814 g / cm^3
# Si number density = 20.284304 Si / 1000 Ang^3
#
#
#
# Elastic Constant Matrix: (Units=GPa)
#
#
# Indices 1 2 3 4 5 6 
#
# 1 51.7451 18.0626 6.7774 0.0000 4.5718 0.0000
# 2 18.0626 160.8329 58.0699 0.0000 8.7881 0.0000
# 3 6.7774 58.0699 102.9296 0.0000 -1.5973 0.0000
# 4 0.0000 0.0000 0.0000 10.6919 0.0000 -10.0721
# 5 4.5718 8.7881 -1.5973 0.0000 35.8311 0.0000
# 6 0.0000 0.0000 0.0000 -10.0721 0.0000 -22.0282
#
#
#
# Elastic Compliance Matrix: (Units=1/GPa)
#
#
# Indices 1 2 3 4 5 6 
#
# 1 0.020265 -0.002096 -0.000184 0.000000 -0.002080 0.000000
# 2 -0.002096 0.008188 -0.004512 0.000000 -0.001942 0.000000
# 3 -0.000184 -0.004512 0.012299 0.000000 0.001678 0.000000
# 4 0.000000 0.000000 0.000000 0.065372 0.000000 -0.029890
# 5 -0.002080 -0.001942 0.001678 0.000000 0.028725 0.000000
# 6 0.000000 0.000000 0.000000 -0.029890 0.000000 -0.031730
#
#
# Mechanical properties :
#
#
# Convention : Reuss Voigt Hill
#
# Bulk Modulus (GPa) = 36.80707 53.48081 45.14394
# Shear Modulus (GPa) = 39.75872 20.40547 30.08209
#
# Velocity S-wave (km/s) = 4.43207 3.17515 3.85518
# Velocity P-wave (km/s) = 6.66153 6.31387 6.49003
#
# Compressibility (1/GPa) = 0.02716869
#
# Stress axis : x y z
#
# Youngs Moduli (GPa) = 49.34626 122.12910 81.30821
#
# Poissons Ratio (x) = 0.25595 0.01498
# Poissons Ratio (y) = 0.10342 0.36683
# Poissons Ratio (z) = 0.00909 0.55100
#
# Static dielectric constant tensor:
#      x y z
#    x 1.764290 0.000000 -0.017370 
#    y 0.000000 1.716290 0.000000 
#    z -0.017370 0.000000 1.719600 
# 
# From -- ./inp_files/72822.got.cif
#   From: 2010.05.17/outbox.cif.g08.bks.cpg/sg12_37_cif.got.tgz:72822.got - 2010.06.03 13:09:07.
