data_PCOD9210685
_publ_section_title
;
Structure prediction by ZEFSAII (Michael W. Deem and Ramdas Pophale) SiO2 
 PCOD9210685
Probable space group: C 2/M
;
_chemical_formula_sum "Si O2"
_cell_formula_units_Z 48
_cell_length_a 20.680815
_cell_length_b 7.624926
_cell_length_c 29.482403
_cell_angle_alpha 90.000000
_cell_angle_beta 146.963329
_cell_angle_gamma 90.000000
_cell_volume 2534.560423
_symmetry_space_group_name_H-M "C 2/M"
_symmetry_group_IT_number 12
_symmetry_cell_setting 'monoclinic'
loop_
_space_group_symop_operation_xyz
x,y,z
-x,y,-z
-x,-y,-z
x,-y,z
1/2+x,1/2+y,z
1/2-x,1/2+y,-z
1/2-x,1/2-y,-z
1/2+x,1/2-y,z
loop_
_atom_site_type_symbol
_atom_site_label
_atom_site_fract_x
_atom_site_fract_y
_atom_site_fract_z
Si Si1 0.384740 0.711605 0.211153
Si Si2 0.817700 0.699527 0.766213
Si Si3 0.878499 0.797057 0.702926
Si Si4 0.444521 0.500000 0.894581
Si Si5 0.565505 0.712142 0.654584
Si Si6 0.310545 0.500000 0.912434
Si Si7 0.195707 0.790401 0.517391
O O1 0.365295 0.500000 0.197352
O O2 0.496883 0.758789 0.245785
O O3 0.418900 0.756211 0.283269
O O4 0.271927 0.828184 0.132054
O O5 0.827216 0.500000 0.789408
O O6 0.842440 0.700065 0.727357
O O7 0.683847 0.765003 0.697673
O O8 0.906574 0.829290 0.843934
O O9 0.779061 0.782595 0.605675
O O10 0.891306 0.000000 0.723286
O O11 0.369418 0.500000 0.897090
O O12 0.582000 0.500000 0.988922
O O13 0.559943 0.500000 0.649022
O O14 0.439712 0.776649 0.561926
O O15 0.250000 0.750000 0.500000
O O16 0.194379 0.000000 0.522149
#
# Coordination Sequence:
#
# PCOD9210685 Si02
#       7
#     8   8   8   4   8   4   8
#     4  10  21  39  63  91 124 165 206 254 309 373
#     4  11  23  43  66  87 126 175 201 253 324 373
#     4  11  23  40  61  91 129 166 214 258 307 370
#     4  11  24  44  64 102 125 149 208 271 306 384
#     4   9  19  37  59  85 123 165 209 252 302 365
#     4  11  24  40  72  97 122 155 207 261 319 377
#     4  11  21  35  56  90 126 164 213 263 303 355
#
# _framework density 18.938193999999999
#
# number of rings (size 3 to 8) (size 9 to 14) (size 15 to 20)
#    0.000    1.500    4.167    1.000    2.333    1.333 
#    4.500    5.833    0.000    0.000    0.000    0.000 
#    0.000    0.000    0.000    0.000    0.000    0.000 
#
# Total GULP energy -134071.217398 kJ/mol
# GULP energy per Si atom -5586.300725 kJ/mol
# Density = 1.889509 g / cm^3
# Si number density = 18.938194 Si / 1000 Ang^3
#
#
#
# Elastic Constant Matrix: (Units=GPa)
#
#
# Indices 1 2 3 4 5 6 
#
# 1 121.6513 23.8930 61.5922 -0.0001 10.6148 -0.0003
# 2 23.8930 72.4234 42.7083 -0.0001 7.9255 0.0005
# 3 61.5922 42.7083 158.9947 -0.0001 19.1609 0.0000
# 4 -0.0001 -0.0001 -0.0001 31.1709 0.0000 2.0639
# 5 10.6148 7.9255 19.1609 0.0000 27.6924 0.0000
# 6 -0.0003 0.0005 0.0000 2.0639 0.0000 21.5993
#
#
#
# Elastic Compliance Matrix: (Units=1/GPa)
#
#
# Indices 1 2 3 4 5 6 
#
# 1 0.010354 -0.001195 -0.003549 0.000000 -0.001171 0.000000
# 2 -0.001195 0.016627 -0.003802 0.000000 -0.001670 0.000000
# 3 -0.003549 -0.003802 0.009154 0.000000 -0.003885 0.000000
# 4 0.000000 0.000000 0.000000 0.032285 0.000000 -0.003085
# 5 -0.001171 -0.001670 -0.003885 0.000000 0.039726 0.000000
# 6 0.000000 0.000000 0.000000 -0.003085 0.000000 0.046593
#
#
# Mechanical properties :
#
#
# Convention : Reuss Voigt Hill
#
# Bulk Modulus (GPa) = 52.51324 67.71739 60.11531
# Shear Modulus (GPa) = 28.06185 31.08423 29.57304
#
# Velocity S-wave (km/s) = 3.85354 4.05575 3.95594
# Velocity P-wave (km/s) = 6.89845 7.60045 7.25794
#
# Compressibility (1/GPa) = 0.01904282
#
# Stress axis : x y z
#
# Youngs Moduli (GPa) = 96.58218 60.14413 109.24425
#
# Poissons Ratio (x) = 0.07187 0.38769
# Poissons Ratio (y) = 0.11541 0.41535
# Poissons Ratio (z) = 0.34275 0.22867
#
# Static dielectric constant tensor:
#      x y z
#    x 1.641140 0.000000 0.029660 
#    y 0.000000 1.743020 0.000000 
#    z 0.029660 0.000000 1.595270 
# 
# From -- ./inp_files/380272.got.cif
#   From: 2010.05.17/outbox.cif.g08.bks.cpg/sg12_191_cif.got.tgz:380272.got - 2010.06.03 13:09:07.
