data_PCOD9210936
_publ_section_title
;
Structure prediction by ZEFSAII (Michael W. Deem and Ramdas Pophale) SiO2 
 PCOD9210936
Probable space group: C 2/M
;
_chemical_formula_sum "Si O2"
_cell_formula_units_Z 48
_cell_length_a 21.397192
_cell_length_b 16.097892
_cell_length_c 17.280167
_cell_angle_alpha 90.000000
_cell_angle_beta 159.271770
_cell_angle_gamma 90.000000
_cell_volume 2106.677704
_symmetry_space_group_name_H-M "C 2/M"
_symmetry_group_IT_number 12
_symmetry_cell_setting 'monoclinic'
loop_
_space_group_symop_operation_xyz
x,y,z
-x,y,-z
-x,-y,-z
x,-y,z
1/2+x,1/2+y,z
1/2-x,1/2+y,-z
1/2-x,1/2-y,-z
1/2+x,1/2-y,z
loop_
_atom_site_type_symbol
_atom_site_label
_atom_site_fract_x
_atom_site_fract_y
_atom_site_fract_z
Si Si1 0.799406 0.735821 0.255883
Si Si2 0.107034 0.406005 0.366087
Si Si3 0.368140 0.598760 0.543520
Si Si4 0.246594 0.659509 0.961862
Si Si5 0.689761 0.905241 0.177963
Si Si6 0.295313 0.410067 0.743272
O O1 0.773979 0.674718 0.153437
O O2 0.695658 0.823724 0.130433
O O3 0.761586 0.675933 0.284381
O O4 0.000000 0.760853 0.500000
O O5 0.068342 0.500000 0.295894
O O6 0.209901 0.363583 0.413416
O O7 0.251539 0.405524 0.602090
O O8 0.925998 0.379146 0.197704
O O9 0.356171 0.500000 0.538363
O O10 0.327618 0.614724 0.406770
O O11 0.564006 0.621485 0.797483
O O12 0.250000 0.750000 0.000000
O O13 0.724237 0.000000 0.187680
O O14 0.500000 0.908183 0.000000
O O15 0.214793 0.500000 0.676659
O O16 0.500000 0.415055 0.000000
#
# Coordination Sequence:
#
# PCOD9210936 Si02
#       6
#     8   8   8   8   8   8
#     4  12  24  42  64  99 139 176 222 276 341 409
#     4  10  22  42  68  98 132 175 222 274 339 407
#     4  10  23  45  72  98 132 178 230 288 343 405
#     4  12  26  42  64  99 136 177 222 281 342 410
#     4  10  24  47  72  98 130 177 234 287 344 404
#     4  10  21  39  64  96 133 173 219 268 329 406
#
# _framework density 22.784690999999999
#
# number of rings (size 3 to 8) (size 9 to 14) (size 15 to 20)
#    0.000    1.333    1.667    3.000    2.333    4.000 
#    0.000    0.833    0.000    0.000    0.000    0.000 
#    0.000    0.000    0.000    0.000    0.000    0.000 
#
# Total GULP energy -133899.069970 kJ/mol
# GULP energy per Si atom -5579.127915 kJ/mol
# Density = 2.273283 g / cm^3
# Si number density = 22.784691 Si / 1000 Ang^3
#
#
#
# Elastic Constant Matrix: (Units=GPa)
#
#
# Indices 1 2 3 4 5 6 
#
# 1 56.8074 25.2164 27.2139 -0.0079 0.3097 0.0015
# 2 25.2164 98.5073 7.1256 -0.0200 17.3272 -0.0028
# 3 27.2139 7.1256 116.6619 -0.0095 0.7439 -0.0012
# 4 -0.0079 -0.0200 -0.0095 60.3799 -0.0077 -9.5466
# 5 0.3097 17.3272 0.7439 -0.0077 33.5930 -0.0014
# 6 0.0015 -0.0028 -0.0012 -9.5466 -0.0014 50.4565
#
#
#
# Elastic Compliance Matrix: (Units=1/GPa)
#
#
# Indices 1 2 3 4 5 6 
#
# 1 0.022586 -0.005948 -0.004924 0.000000 0.002969 -0.000001
# 2 -0.005948 0.012779 0.000649 0.000003 -0.006551 0.000001
# 3 -0.004924 0.000649 0.009684 0.000001 -0.000504 0.000001
# 4 0.000000 0.000003 0.000001 0.017073 0.000003 0.003230
# 5 0.002969 -0.006551 -0.000504 0.000003 0.033131 0.000001
# 6 -0.000001 0.000001 0.000001 0.003230 0.000001 0.020430
#
#
# Mechanical properties :
#
#
# Convention : Reuss Voigt Hill
#
# Bulk Modulus (GPa) = 40.64552 43.45428 42.04990
# Shear Modulus (GPa) = 34.64243 43.04725 38.84484
#
# Velocity S-wave (km/s) = 3.90349 4.35133 4.13348
# Velocity P-wave (km/s) = 6.18013 6.66022 6.42466
#
# Compressibility (1/GPa) = 0.02460296
#
# Stress axis : x y z
#
# Youngs Moduli (GPa) = 44.27444 78.25046 103.26201
#
# Poissons Ratio (x) = 0.46541 0.50851
# Poissons Ratio (y) = 0.26333 -0.06698
# Poissons Ratio (z) = 0.21803 -0.05076
#
# Static dielectric constant tensor:
#      x y z
#    x 2.014230 0.000000 0.191900 
#    y 0.000000 1.852380 0.000000 
#    z 0.191900 0.000000 1.762160 
# 
# From -- ./inp_files/285420.got.cif
#   From: 2010.05.17/outbox.cif.g08.bks.cpg/sg12_143_cif.got.tgz:285420.got - 2010.06.03 13:09:07.
