data_PCOD9210423
_publ_section_title
;
Structure prediction by ZEFSAII (Michael W. Deem and Ramdas Pophale) SiO2 
 PCOD9210423
Probable space group: C 2/M
;
_chemical_formula_sum "Si O2"
_cell_formula_units_Z 52
_cell_length_a 27.491941
_cell_length_b 14.554904
_cell_length_c 5.088976
_cell_angle_alpha 90.000000
_cell_angle_beta 89.522679
_cell_angle_gamma 90.000000
_cell_volume 2036.245232
_symmetry_space_group_name_H-M "C 2/M"
_symmetry_group_IT_number 12
_symmetry_cell_setting 'monoclinic'
loop_
_space_group_symop_operation_xyz
x,y,z
-x,y,-z
-x,-y,-z
x,-y,z
1/2+x,1/2+y,z
1/2-x,1/2+y,-z
1/2-x,1/2-y,-z
1/2+x,1/2-y,z
loop_
_atom_site_type_symbol
_atom_site_label
_atom_site_fract_x
_atom_site_fract_y
_atom_site_fract_z
Si Si1 0.890096 0.642326 0.130015
Si Si2 0.136652 0.151647 0.735907
Si Si3 0.730861 0.387655 0.416827
Si Si4 0.552007 0.143101 0.373617
Si Si5 0.102311 0.000000 0.031674
Si Si6 0.050578 0.865369 0.369906
Si Si7 0.283880 0.892959 0.915871
O O1 0.882832 0.751982 0.161513
O O2 0.907267 0.612631 0.417942
O O3 0.838543 0.612465 0.018921
O O4 0.931719 0.615332 0.918290
O O5 0.183165 0.155747 0.548305
O O6 0.094612 0.104776 0.559292
O O7 0.143058 0.080477 0.969611
O O8 0.724830 0.500000 0.413521
O O9 0.747581 0.351296 0.133851
O O10 0.774175 0.362836 0.620073
O O11 0.500000 0.116489 0.500000
O O12 0.551637 0.254980 0.353737
O O13 0.062385 0.918985 0.105927
O O14 0.000000 0.891517 0.500000
O O15 0.271521 0.000000 0.913599
#
# Coordination Sequence:
#
# PCOD9210423 Si02
#       7
#     8   8   8   8   4   8   8
#     4  11  22  40  62  90 120 151 202 241 289 350
#     4  11  24  35  58  85 116 161 199 248 290 341
#     4  10  22  38  60  86 119 154 199 238 299 352
#     4  10  21  39  62  88 121 159 192 236 292 350
#     4  12  21  37  55  79 120 163 199 254 281 341
#     4  10  23  37  53  81 119 161 207 243 286 340
#     4  10  23  41  64  88 115 155 191 246 302 357
#
# _framework density 25.537199000000001
#
# number of rings (size 3 to 8) (size 9 to 14) (size 15 to 20)
#    0.000    1.538    2.308    2.077    2.154    2.462 
#    0.000    0.000    0.000    2.769    0.000    0.000 
#    0.000    0.000    0.000    0.000    0.000    0.000 
#
# Total GULP energy -145047.520470 kJ/mol
# GULP energy per Si atom -5578.750787 kJ/mol
# Density = 2.547908 g / cm^3
# Si number density = 25.537199 Si / 1000 Ang^3
#
#
#
# Elastic Constant Matrix: (Units=GPa)
#
#
# Indices 1 2 3 4 5 6 
#
# 1 98.4278 -6.4983 4.0388 0.0000 -10.0244 0.0000
# 2 -6.4983 86.9310 14.9211 0.0000 -3.1156 0.0000
# 3 4.0388 14.9211 92.7318 0.0000 -18.3088 0.0000
# 4 0.0000 0.0000 0.0000 12.2705 0.0000 12.6763
# 5 -10.0244 -3.1156 -18.3088 0.0000 47.7375 0.0000
# 6 0.0000 0.0000 0.0000 12.6763 0.0000 23.2410
#
#
#
# Elastic Compliance Matrix: (Units=1/GPa)
#
#
# Indices 1 2 3 4 5 6 
#
# 1 0.010448 0.000888 -0.000166 0.000000 0.002188 0.000000
# 2 0.000888 0.011906 -0.001909 0.000000 0.000231 0.000000
# 3 -0.000166 -0.001909 0.011973 0.000000 0.004433 0.000000
# 4 0.000000 0.000000 0.000000 0.186690 0.000000 -0.101826
# 5 0.002188 0.000231 0.004433 0.000000 0.023123 0.000000
# 6 0.000000 0.000000 0.000000 -0.101826 0.000000 0.098567
#
#
# Mechanical properties :
#
#
# Convention : Reuss Voigt Hill
#
# Bulk Modulus (GPa) = 31.29525 33.66823 32.48174
# Shear Modulus (GPa) = 14.05559 34.35841 24.20700
#
# Velocity S-wave (km/s) = 2.34860 3.67198 3.08216
# Velocity P-wave (km/s) = 4.43124 5.58485 5.04116
#
# Compressibility (1/GPa) = 0.03195374
#
# Stress axis : x y z
#
# Youngs Moduli (GPa) = 95.71192 83.99374 83.51903
#
# Poissons Ratio (x) = -0.07458 0.01385
# Poissons Ratio (y) = -0.08498 0.15941
# Poissons Ratio (z) = 0.01588 0.16032
#
# Static dielectric constant tensor:
#      x y z
#    x 2.009110 0.000000 0.080020 
#    y 0.000000 1.996980 0.000000 
#    z 0.080020 0.000000 2.208750 
# 
# From -- ./inp_files/28513.got.cif
#   From: 2010.05.17/outbox.cif.g08.bks.cpg/sg12_15_cif.got.tgz:28513.got - 2010.06.03 13:09:07.
