data_PCOD9210303
_publ_section_title
;
Structure prediction by ZEFSAII (Michael W. Deem and Ramdas Pophale) SiO2 
 PCOD9210303
Probable space group: C 2/M
;
_chemical_formula_sum "Si O2"
_cell_formula_units_Z 40
_cell_length_a 9.311886
_cell_length_b 16.848708
_cell_length_c 13.188068
_cell_angle_alpha 90.000000
_cell_angle_beta 105.039668
_cell_angle_gamma 90.000000
_cell_volume 1998.244066
_symmetry_space_group_name_H-M "C 2/M"
_symmetry_group_IT_number 12
_symmetry_cell_setting 'monoclinic'
loop_
_space_group_symop_operation_xyz
x,y,z
-x,y,-z
-x,-y,-z
x,-y,z
1/2+x,1/2+y,z
1/2-x,1/2+y,-z
1/2-x,1/2-y,-z
1/2+x,1/2-y,z
loop_
_atom_site_type_symbol
_atom_site_label
_atom_site_fract_x
_atom_site_fract_y
_atom_site_fract_z
Si Si1 0.659120 0.706125 0.393379
Si Si2 0.451767 0.093692 0.797054
Si Si3 0.411654 0.247667 0.076601
Si Si4 0.898799 0.406380 0.391210
Si Si5 0.332473 0.315681 0.278011
O O1 0.750000 0.750000 0.500000
O O2 0.734626 0.621785 0.386079
O O3 0.483035 0.692932 0.371941
O O4 0.712738 0.754389 0.303207
O O5 0.517422 0.160383 0.885849
O O6 0.533827 0.114830 0.705519
O O7 0.273997 0.107449 0.749695
O O8 0.479855 0.000000 0.825635
O O9 0.393655 0.293444 0.178782
O O10 0.500000 0.286504 0.000000
O O11 0.250000 0.250000 0.000000
O O12 0.906440 0.500000 0.396714
O O13 0.000000 0.372253 0.500000
#
# Coordination Sequence:
#
# PCOD9210303 Si02
#       5
#     8   8   8   8   8
#     4  12  22  36  64  96 129 168 219 264 313 391
#     4  11  24  43  67  97 132 171 215 271 332 392
#     4  12  23  42  67  90 121 170 214 271 327 385
#     4  10  21  39  61  89 131 174 209 258 328 388
#     4  12  22  40  62  93 128 164 219 262 319 387
#
# _framework density 20.017576999999999
#
# number of rings (size 3 to 8) (size 9 to 14) (size 15 to 20)
#    0.000    0.600    6.000    3.000    0.000    1.200 
#    0.000    0.000    0.000    7.200    0.000    0.000 
#    0.000    0.000    0.000    0.000    0.000    0.000 
#
# Total GULP energy -111399.554601 kJ/mol
# GULP energy per Si atom -5569.977730 kJ/mol
# Density = 1.997202 g / cm^3
# Si number density = 20.017577 Si / 1000 Ang^3
#
#
#
# Elastic Constant Matrix: (Units=GPa)
#
#
# Indices 1 2 3 4 5 6 
#
# 1 144.5625 16.9368 17.3500 0.0000 18.1377 0.0000
# 2 16.9368 37.6767 15.7336 0.0000 2.7940 0.0000
# 3 17.3500 15.7336 94.8336 0.0000 -3.9323 0.0000
# 4 0.0000 0.0000 0.0000 14.6259 0.0000 4.4980
# 5 18.1377 2.7940 -3.9323 0.0000 41.2989 0.0000
# 6 0.0000 0.0000 0.0000 4.4980 0.0000 36.6238
#
#
#
# Elastic Compliance Matrix: (Units=1/GPa)
#
#
# Indices 1 2 3 4 5 6 
#
# 1 0.007796 -0.002797 -0.001101 0.000000 -0.003340 0.000000
# 2 -0.002797 0.029758 -0.004475 0.000000 -0.001211 0.000000
# 3 -0.001101 -0.004475 0.011567 0.000000 0.001888 0.000000
# 4 0.000000 0.000000 0.000000 0.071056 0.000000 -0.008727
# 5 -0.003340 -0.001211 0.001888 0.000000 0.025942 0.000000
# 6 0.000000 0.000000 0.000000 -0.008727 0.000000 0.028376
#
#
# Mechanical properties :
#
#
# Convention : Reuss Voigt Hill
#
# Bulk Modulus (GPa) = 30.88901 41.90151 36.39526
# Shear Modulus (GPa) = 24.74837 33.64656 29.19747
#
# Velocity S-wave (km/s) = 3.51997 4.10427 3.82329
# Velocity P-wave (km/s) = 5.65550 6.59074 6.14095
#
# Compressibility (1/GPa) = 0.03237397
#
# Stress axis : x y z
#
# Youngs Moduli (GPa) = 128.26670 33.60462 86.45324
#
# Poissons Ratio (x) = 0.09400 0.09516
# Poissons Ratio (y) = 0.35881 0.38692
# Poissons Ratio (z) = 0.14119 0.15040
#
# Static dielectric constant tensor:
#      x y z
#    x 1.730600 0.000000 0.067480 
#    y 0.000000 1.730630 0.000000 
#    z 0.067480 0.000000 1.838240 
# 
# From -- ./inp_files/118876.got.cif
#   From: 2010.05.17/outbox.cif.g08.bks.cpg/sg12_60_cif.got.tgz:118876.got - 2010.06.03 13:09:07.
