data_PCOD9210724
_publ_section_title
;
Structure prediction by ZEFSAII (Michael W. Deem and Ramdas Pophale) SiO2 
 PCOD9210724
Probable space group: C 2/M
;
_chemical_formula_sum "Si O2"
_cell_formula_units_Z 40
_cell_length_a 17.714153
_cell_length_b 11.881461
_cell_length_c 11.979705
_cell_angle_alpha 90.000000
_cell_angle_beta 119.929635
_cell_angle_gamma 90.000000
_cell_volume 2185.115971
_symmetry_space_group_name_H-M "C 2/M"
_symmetry_group_IT_number 12
_symmetry_cell_setting 'monoclinic'
loop_
_space_group_symop_operation_xyz
x,y,z
-x,y,-z
-x,-y,-z
x,-y,z
1/2+x,1/2+y,z
1/2-x,1/2+y,-z
1/2-x,1/2-y,-z
1/2+x,1/2-y,z
loop_
_atom_site_type_symbol
_atom_site_label
_atom_site_fract_x
_atom_site_fract_y
_atom_site_fract_z
Si Si1 0.234572 0.723006 0.802738
Si Si2 0.681427 0.788611 0.355309
Si Si3 0.119102 0.500000 0.675870
Si Si4 0.350973 0.626752 0.072828
Si Si5 0.040494 0.128149 0.144666
Si Si6 0.075403 0.500000 0.380349
O O1 0.261130 0.797301 0.715444
O O2 0.175943 0.613087 0.735150
O O3 0.185520 0.799483 0.855142
O O4 0.319040 0.677900 0.931651
O O5 0.750000 0.750000 0.500000
O O6 0.614148 0.692691 0.265743
O O7 0.622418 0.892639 0.355756
O O8 0.096774 0.500000 0.527869
O O9 0.031573 0.500000 0.690555
O O10 0.316347 0.500000 0.052897
O O11 0.454458 0.623842 0.156499
O O12 0.069289 0.000000 0.139769
O O13 0.000000 0.177852 0.000000
#
# Coordination Sequence:
#
# PCOD9210724 Si02
#       6
#     8   8   4   8   8   4
#     4  11  22  38  66  91 128 164 217 265 320 385
#     4  12  25  41  65  96 131 169 220 271 325 387
#     4  11  22  44  65  88 129 178 218 258 324 408
#     4  10  21  39  63  93 123 165 210 266 325 387
#     4  10  21  39  66  92 125 161 215 266 322 380
#     4  11  26  42  62  92 134 177 214 265 334 396
#
# _framework density 18.305664
#
# number of rings (size 3 to 8) (size 9 to 14) (size 15 to 20)
#    0.000    1.200    5.000    1.200    4.200    0.000 
#    0.000    0.500    0.000    2.400    0.000    0.000 
#    0.000    0.000    0.000    0.000    0.000    0.000 
#
# Total GULP energy -111422.895238 kJ/mol
# GULP energy per Si atom -5571.144762 kJ/mol
# Density = 1.826400 g / cm^3
# Si number density = 18.305664 Si / 1000 Ang^3
#
#
#
# Elastic Constant Matrix: (Units=GPa)
#
#
# Indices 1 2 3 4 5 6 
#
# 1 110.3209 39.0238 46.7433 0.0000 -1.8577 0.0000
# 2 39.0238 65.8494 35.3865 0.0000 -9.5558 0.0000
# 3 46.7433 35.3865 113.5506 0.0000 -1.8573 0.0000
# 4 0.0000 0.0000 0.0000 29.0855 0.0000 -2.8099
# 5 -1.8577 -9.5558 -1.8573 0.0000 31.6900 0.0000
# 6 0.0000 0.0000 0.0000 -2.8099 0.0000 33.4720
#
#
#
# Elastic Compliance Matrix: (Units=1/GPa)
#
#
# Indices 1 2 3 4 5 6 
#
# 1 0.012518 -0.005782 -0.003371 0.000000 -0.001207 0.000000
# 2 -0.005782 0.021800 -0.004316 0.000000 0.005982 0.000000
# 3 -0.003371 -0.004316 0.011526 0.000000 -0.000823 0.000000
# 4 0.000000 0.000000 0.000000 0.034663 0.000000 0.002910
# 5 -0.001207 0.005982 -0.000823 0.000000 0.033240 0.000000
# 6 0.000000 0.000000 0.000000 0.002910 0.000000 0.030120
#
#
# Mechanical properties :
#
#
# Convention : Reuss Voigt Hill
#
# Bulk Modulus (GPa) = 52.89219 59.11422 56.00320
# Shear Modulus (GPa) = 28.23184 30.08731 29.15958
#
# Velocity S-wave (km/s) = 3.93140 4.05854 3.99548
# Velocity P-wave (km/s) = 7.04021 7.37057 7.20728
#
# Compressibility (1/GPa) = 0.01890638
#
# Stress axis : x y z
#
# Youngs Moduli (GPa) = 79.88752 45.87176 86.76287
#
# Poissons Ratio (x) = 0.26523 0.29246
# Poissons Ratio (y) = 0.46191 0.37444
# Poissons Ratio (z) = 0.26928 0.19797
#
# Static dielectric constant tensor:
#      x y z
#    x 1.681130 0.000000 0.011970 
#    y 0.000000 1.624850 0.000000 
#    z 0.011970 0.000000 1.616630 
# 
# From -- ./inp_files/153319.got.cif
#   From: 2010.05.17/outbox.cif.g08.bks.cpg/sg12_77_cif.got.tgz:153319.got - 2010.06.03 13:09:07.
