data_PCOD9210984
_publ_section_title
;
Structure prediction by ZEFSAII (Michael W. Deem and Ramdas Pophale) SiO2 
 PCOD9210984
Probable space group: C 2/M
;
_chemical_formula_sum "Si O2"
_cell_formula_units_Z 56
_cell_length_a 22.016938
_cell_length_b 14.062089
_cell_length_c 8.842814
_cell_angle_alpha 90.000000
_cell_angle_beta 69.603594
_cell_angle_gamma 90.000000
_cell_volume 2566.124092
_symmetry_space_group_name_H-M "C 2/M"
_symmetry_group_IT_number 12
_symmetry_cell_setting 'monoclinic'
loop_
_space_group_symop_operation_xyz
x,y,z
-x,y,-z
-x,-y,-z
x,-y,z
1/2+x,1/2+y,z
1/2-x,1/2+y,-z
1/2-x,1/2-y,-z
1/2+x,1/2-y,z
loop_
_atom_site_type_symbol
_atom_site_label
_atom_site_fract_x
_atom_site_fract_y
_atom_site_fract_z
Si Si1 0.422068 0.729348 0.316418
Si Si2 0.660210 0.610971 0.792141
Si Si3 0.547661 0.107549 0.102635
Si Si4 0.764082 0.249566 0.808924
Si Si5 0.047078 0.887754 0.131926
Si Si6 0.917192 0.246370 0.663305
Si Si7 0.160488 0.391160 0.777939
O O1 0.366761 0.650188 0.341876
O O2 0.482553 0.677427 0.178338
O O3 0.440665 0.748563 0.471617
O O4 0.385922 0.823446 0.284009
O O5 0.665304 0.500000 0.788770
O O6 0.726773 0.660478 0.773421
O O7 0.606344 0.638107 0.967770
O O8 0.553902 0.176966 0.240986
O O9 0.528660 0.000000 0.164461
O O10 0.500000 0.131554 0.000000
O O11 0.619012 0.105956 0.968629
O O12 0.839983 0.258463 0.720537
O O13 0.727907 0.160702 0.758701
O O14 0.750000 0.250000 0.000000
O O15 0.071649 0.857995 0.275461
O O16 0.032534 0.000000 0.128173
O O17 0.166904 0.500000 0.717471
#
# Coordination Sequence:
#
# PCOD9210984 Si02
#       7
#     8   8   8   8   8   8   8
#     4  11  24  40  62  94 135 167 209 266 332 389
#     4  10  22  41  68  97 128 173 221 266 319 385
#     4  10  21  39  65  92 119 161 214 261 310 374
#     4  11  21  40  64  94 128 168 216 270 316 384
#     4  11  23  41  66  93 125 172 223 269 321 384
#     4  12  24  40  62  96 133 169 207 268 331 387
#     4  10  22  40  63  89 123 168 214 260 312 381
#
# _framework density 21.822796
#
# number of rings (size 3 to 8) (size 9 to 14) (size 15 to 20)
#    0.000    1.286    2.857    3.000    0.000    7.429 
#    0.000    1.429    0.000    4.286    0.000    0.000 
#    0.000    0.000    0.000    0.000    0.000    0.000 
#
# Total GULP energy -156222.771148 kJ/mol
# GULP energy per Si atom -5579.384684 kJ/mol
# Density = 2.177313 g / cm^3
# Si number density = 21.822796 Si / 1000 Ang^3
#
#
#
# Elastic Constant Matrix: (Units=GPa)
#
#
# Indices 1 2 3 4 5 6 
#
# 1 144.5009 69.2459 37.5188 0.0000 11.5777 0.0000
# 2 69.2459 137.3888 27.6186 0.0000 5.9047 0.0000
# 3 37.5188 27.6186 61.9375 0.0000 7.4263 0.0000
# 4 0.0000 0.0000 0.0000 13.5654 0.0000 -1.8786
# 5 11.5777 5.9047 7.4263 0.0000 30.4940 0.0000
# 6 0.0000 0.0000 0.0000 -1.8786 0.0000 11.9003
#
#
#
# Elastic Compliance Matrix: (Units=1/GPa)
#
#
# Indices 1 2 3 4 5 6 
#
# 1 0.010151 -0.004220 -0.004021 0.000000 -0.002058 0.000000
# 2 -0.004220 0.009764 -0.001816 0.000000 0.000154 0.000000
# 3 -0.004021 -0.001816 0.019742 0.000000 -0.002930 0.000000
# 4 0.000000 0.000000 0.000000 0.075364 0.000000 0.011897
# 5 -0.002058 0.000154 -0.002930 0.000000 0.034258 0.000000
# 6 0.000000 0.000000 0.000000 0.011897 0.000000 0.085910
#
#
# Mechanical properties :
#
#
# Convention : Reuss Voigt Hill
#
# Bulk Modulus (GPa) = 51.16698 68.06596 59.61647
# Shear Modulus (GPa) = 19.09727 25.15487 22.12607
#
# Velocity S-wave (km/s) = 2.96143 3.39881 3.18763
# Velocity P-wave (km/s) = 5.93219 6.83085 6.39732
#
# Compressibility (1/GPa) = 0.01954386
#
# Stress axis : x y z
#
# Youngs Moduli (GPa) = 98.50906 102.41824 50.65327
#
# Poissons Ratio (x) = 0.43217 0.20367
# Poissons Ratio (y) = 0.41568 0.09200
# Poissons Ratio (z) = 0.39609 0.18601
#
# Static dielectric constant tensor:
#      x y z
#    x 1.837690 0.000000 -0.014360 
#    y 0.000000 1.805180 0.000000 
#    z -0.014360 0.000000 1.829470 
# 
# From -- ./inp_files/96235.got.cif
#   From: 2010.05.17/outbox.cif.g08.bks.cpg/sg12_49_cif.got.tgz:96235.got - 2010.06.03 13:09:07.
