data_PCOD9210372
_publ_section_title
;
Structure prediction by ZEFSAII (Michael W. Deem and Ramdas Pophale) SiO2 
 PCOD9210372
Probable space group: C 2/M
;
_chemical_formula_sum "Si O2"
_cell_formula_units_Z 56
_cell_length_a 25.700916
_cell_length_b 7.650146
_cell_length_c 14.800911
_cell_angle_alpha 90.000000
_cell_angle_beta 124.293916
_cell_angle_gamma 90.000000
_cell_volume 2404.196458
_symmetry_space_group_name_H-M "C 2/M"
_symmetry_group_IT_number 12
_symmetry_cell_setting 'monoclinic'
loop_
_space_group_symop_operation_xyz
x,y,z
-x,y,-z
-x,-y,-z
x,-y,z
1/2+x,1/2+y,z
1/2-x,1/2+y,-z
1/2-x,1/2-y,-z
1/2+x,1/2-y,z
loop_
_atom_site_type_symbol
_atom_site_label
_atom_site_fract_x
_atom_site_fract_y
_atom_site_fract_z
Si Si1 0.732544 0.214494 0.760859
Si Si2 0.016037 0.801386 0.419269
Si Si3 0.534379 0.205076 0.944324
Si Si4 0.425680 0.713134 0.699044
Si Si5 0.789655 0.209579 0.627917
Si Si6 0.616694 0.201611 0.756735
Si Si7 0.666014 0.299875 0.995197
O O1 0.756579 0.275061 0.686907
O O2 0.662684 0.266985 0.722712
O O3 0.733054 0.000000 0.761685
O O4 0.780735 0.272519 0.886359
O O5 0.948583 0.803236 0.302975
O O6 0.000000 0.717129 0.500000
O O7 0.064971 0.724854 0.395252
O O8 0.037127 0.000000 0.458762
O O9 0.484631 0.225099 0.815190
O O10 0.599976 0.293651 0.984132
O O11 0.548261 0.000000 0.971536
O O12 0.500000 0.274717 0.000000
O O13 0.426586 0.500000 0.698437
O O14 0.360820 0.772978 0.680901
O O15 0.750000 0.250000 0.500000
O O16 0.793536 0.000000 0.640843
O O17 0.653809 0.210013 0.887583
O O18 0.600436 0.000000 0.724211
O O19 0.682451 0.500000 0.990678
#
# Coordination Sequence:
#
# PCOD9210372 Si02
#       7
#     8   8   8   8   8   8   8
#     4   9  21  39  59  85 120 158 198 241 292 355
#     4  10  22  39  60  88 120 155 200 248 291 351
#     4  11  23  37  57  88 124 156 192 243 296 348
#     4  10  21  39  62  86 117 158 200 242 292 349
#     4  10  22  41  62  87 117 155 201 247 292 349
#     4  11  22  38  60  89 122 157 195 244 302 353
#     4  11  21  38  62  87 117 157 199 241 293 354
#
# _framework density 23.292605999999999
#
# number of rings (size 3 to 8) (size 9 to 14) (size 15 to 20)
#    0.000    1.714    1.429    2.571    2.000    3.143 
#    0.000    4.286    0.000    0.000    0.000    0.000 
#    0.000    0.000    0.000    0.000    0.000    0.000 
#
# Total GULP energy -156577.114740 kJ/mol
# GULP energy per Si atom -5592.039812 kJ/mol
# Density = 2.323959 g / cm^3
# Si number density = 23.292606 Si / 1000 Ang^3
#
#
#
# Elastic Constant Matrix: (Units=GPa)
#
#
# Indices 1 2 3 4 5 6 
#
# 1 135.9268 3.4039 3.9656 0.0000 -28.5820 0.0000
# 2 3.4039 55.7556 -4.3127 0.0000 -2.4472 0.0000
# 3 3.9656 -4.3127 53.0802 0.0000 -20.6866 0.0000
# 4 0.0000 0.0000 0.0000 18.1822 0.0000 -2.0913
# 5 -28.5820 -2.4472 -20.6866 0.0000 47.2764 0.0000
# 6 0.0000 0.0000 0.0000 -2.0913 0.0000 4.6218
#
#
#
# Elastic Compliance Matrix: (Units=1/GPa)
#
#
# Indices 1 2 3 4 5 6 
#
# 1 0.008549 -0.000137 0.001642 0.000000 0.005880 0.000000
# 2 -0.000137 0.018194 0.002198 0.000000 0.001821 0.000000
# 3 0.001642 0.002198 0.023300 0.000000 0.011302 0.000000
# 4 0.000000 0.000000 0.000000 0.058019 0.000000 0.026253
# 5 0.005880 0.001821 0.011302 0.000000 0.029746 0.000000
# 6 0.000000 0.000000 0.000000 0.026253 0.000000 0.228247
#
#
# Mechanical properties :
#
#
# Convention : Reuss Voigt Hill
#
# Bulk Modulus (GPa) = 17.40704 27.87513 22.64109
# Shear Modulus (GPa) = 13.23459 30.12977 21.68218
#
# Velocity S-wave (km/s) = 2.38626 3.60047 3.05431
# Velocity P-wave (km/s) = 3.88352 5.41091 4.70955
#
# Compressibility (1/GPa) = 0.05744801
#
# Stress axis : x y z
#
# Youngs Moduli (GPa) = 116.97597 54.96402 42.91873
#
# Poissons Ratio (x) = 0.00752 -0.07046
# Poissons Ratio (y) = 0.01601 -0.09434
# Poissons Ratio (z) = -0.19203 -0.12082
#
# Static dielectric constant tensor:
#      x y z
#    x 1.875670 0.000000 -0.029070 
#    y 0.000000 1.908460 0.000000 
#    z -0.029070 0.000000 1.855750 
# 
# From -- ./inp_files/238887.got.cif
#   From: 2010.05.17/outbox.cif.g08.bks.cpg/sg12_120_cif.got.tgz:238887.got - 2010.06.03 13:09:07.
