data_PCOD9210769
_publ_section_title
;
Structure prediction by ZEFSAII (Michael W. Deem and Ramdas Pophale) SiO2 
 PCOD9210769
Probable space group: C 2/M
;
_chemical_formula_sum "Si O2"
_cell_formula_units_Z 42
_cell_length_a 9.904169
_cell_length_b 9.980345
_cell_length_c 26.824753
_cell_angle_alpha 90.000000
_cell_angle_beta 126.032671
_cell_angle_gamma 90.000000
_cell_volume 2144.257524
_symmetry_space_group_name_H-M "C 2/M"
_symmetry_group_IT_number 12
_symmetry_cell_setting 'monoclinic'
loop_
_space_group_symop_operation_xyz
x,y,z
-x,y,-z
-x,-y,-z
x,-y,z
1/2+x,1/2+y,z
1/2-x,1/2+y,-z
1/2-x,1/2-y,-z
1/2+x,1/2-y,z
loop_
_atom_site_type_symbol
_atom_site_label
_atom_site_fract_x
_atom_site_fract_y
_atom_site_fract_z
Si Si1 0.500000 0.500000 0.500000
Si Si2 0.548928 0.158147 0.865768
Si Si3 0.936997 0.843376 0.930433
Si Si4 0.177102 0.654096 0.276423
Si Si5 0.714862 0.500000 0.448045
Si Si6 0.610299 0.000000 0.417424
Si Si7 0.943485 0.772069 0.647102
O O1 0.563488 0.500000 0.455341
O O2 0.302832 0.500000 0.440782
O O3 0.737209 0.173884 0.886933
O O4 0.519501 0.247361 0.907913
O O5 0.419658 0.198121 0.794322
O O6 0.524386 0.000000 0.871747
O O7 0.974976 0.000000 0.928106
O O8 0.000000 0.814655 0.000000
O O9 0.127541 0.500000 0.275113
O O10 0.375052 0.661718 0.311498
O O11 0.122131 0.737784 0.312447
O O12 0.688736 0.368035 0.409538
O O13 0.125110 0.500000 0.480769
O O14 0.534861 0.135674 0.379848
#
# Coordination Sequence:
#
# PCOD9210769 Si02
#       7
#     2   8   8   8   4   4   8
#     4   8  20  40  64  84 128 156 184 252 324 368
#     4  10  22  40  62  91 125 173 213 251 309 371
#     4  10  21  39  63  96 132 163 208 263 312 361
#     4  11  24  43  64  89 131 166 208 261 311 365
#     4  10  22  39  62  94 119 155 201 255 313 375
#     4  10  22  39  64  92 117 159 197 251 319 373
#     4  12  22  44  66  92 121 168 204 259 315 379
#
# _framework density 19.587198999999998
#
# number of rings (size 3 to 8) (size 9 to 14) (size 15 to 20)
#    0.571    0.952    1.905    3.429    0.000    1.905 
#    3.429    0.952    0.000    0.000    0.000    0.000 
#    0.000    0.000    0.000    0.000    0.000    0.000 
#
# Total GULP energy -117053.109336 kJ/mol
# GULP energy per Si atom -5573.957587 kJ/mol
# Density = 1.954262 g / cm^3
# Si number density = 19.587199 Si / 1000 Ang^3
#
#
#
# Elastic Constant Matrix: (Units=GPa)
#
#
# Indices 1 2 3 4 5 6 
#
# 1 53.5120 4.6777 -11.0431 0.0000 -18.5461 0.0000
# 2 4.6777 72.6787 6.3044 0.0000 -19.6357 0.0000
# 3 -11.0431 6.3044 44.6421 0.0000 2.1022 0.0000
# 4 0.0000 0.0000 0.0000 187.1893 0.0000 -0.1541
# 5 -18.5461 -19.6357 2.1022 0.0000 33.6668 0.0000
# 6 0.0000 0.0000 0.0000 -0.1541 0.0000 -8.5092
#
#
#
# Elastic Compliance Matrix: (Units=1/GPa)
#
#
# Indices 1 2 3 4 5 6 
#
# 1 0.024529 0.001828 0.005138 0.000000 0.014258 0.000000
# 2 0.001828 0.016816 -0.002439 0.000000 0.010967 0.000000
# 3 0.005138 -0.002439 0.024020 0.000000 -0.000092 0.000000
# 4 0.000000 0.000000 0.000000 0.005342 0.000000 -0.000097
# 5 0.014258 0.010967 -0.000092 0.000000 0.043959 0.000000
# 6 0.000000 0.000000 0.000000 -0.000097 0.000000 -0.117518
#
#
# Mechanical properties :
#
#
# Convention : Reuss Voigt Hill
#
# Bulk Modulus (GPa) = 13.43738 18.96785 16.20261
# Shear Modulus (GPa) = 387.55208 53.86230 220.70719
#
# Velocity S-wave (km/s) = 14.08153 5.24961 10.62657
# Velocity P-wave (km/s) = 16.47001 6.81538 12.60378
#
# Compressibility (1/GPa) = 0.07441929
#
# Stress axis : x y z
#
# Youngs Moduli (GPa) = 40.76737 59.46700 41.63155
#
# Poissons Ratio (x) = -0.10868 -0.21392
# Poissons Ratio (y) = -0.07450 0.10154
# Poissons Ratio (z) = -0.20948 0.14505
#
# Static dielectric constant tensor:
#      x y z
#    x 1.644110 0.000000 0.008710 
#    y 0.000000 1.675410 0.000000 
#    z 0.008710 0.000000 1.705810 
# 
# From -- ./inp_files/371887.got.cif
#   From: 2010.05.17/outbox.cif.g08.bks.cpg/sg12_186_cif.got.tgz:371887.got - 2010.06.03 13:09:07.
