data_PCOD9210945
_publ_section_title
;
Structure prediction by ZEFSAII (Michael W. Deem and Ramdas Pophale) SiO2 
 PCOD9210945
Probable space group: C 2/M
;
_chemical_formula_sum "Si O2"
_cell_formula_units_Z 56
_cell_length_a 17.438085
_cell_length_b 12.698017
_cell_length_c 11.966572
_cell_angle_alpha 90.000000
_cell_angle_beta 111.720771
_cell_angle_gamma 90.000000
_cell_volume 2461.611153
_symmetry_space_group_name_H-M "C 2/M"
_symmetry_group_IT_number 12
_symmetry_cell_setting 'monoclinic'
loop_
_space_group_symop_operation_xyz
x,y,z
-x,y,-z
-x,-y,-z
x,-y,z
1/2+x,1/2+y,z
1/2-x,1/2+y,-z
1/2-x,1/2-y,-z
1/2+x,1/2-y,z
loop_
_atom_site_type_symbol
_atom_site_label
_atom_site_fract_x
_atom_site_fract_y
_atom_site_fract_z
Si Si1 0.603299 0.189085 0.666280
Si Si2 0.647441 0.887067 0.211800
Si Si3 0.771265 0.205060 0.890123
Si Si4 0.542068 0.113176 0.853247
Si Si5 0.845781 0.285613 0.552632
Si Si6 0.494226 0.620290 0.664252
Si Si7 0.931423 0.156423 0.055380
O O1 0.688308 0.173733 0.780793
O O2 0.541179 0.128272 0.717227
O O3 0.623140 0.166170 0.548389
O O4 0.564062 0.307419 0.641524
O O5 0.690288 0.793304 0.170218
O O6 0.549083 0.887408 0.144162
O O7 0.653923 0.867918 0.346883
O O8 0.682709 0.000000 0.197826
O O9 0.750000 0.250000 0.000000
O O10 0.843793 0.122619 0.957638
O O11 0.579828 0.218910 0.923062
O O12 0.581956 0.000000 0.899302
O O13 0.750000 0.250000 0.500000
O O14 0.909270 0.188704 0.615816
O O15 0.483346 0.500000 0.618790
O O16 0.531994 0.614444 0.809605
O O17 0.000000 0.141032 0.000000
#
# Coordination Sequence:
#
# PCOD9210945 Si02
#       7
#     8   8   8   8   8   8   8
#     4  11  24  42  69 100 141 185 226 285 354 412
#     4  11  24  43  70 101 131 178 235 280 339 412
#     4  12  22  42  65 100 138 181 223 290 347 412
#     4  10  21  39  64  97 130 172 225 275 333 403
#     4  12  24  45  71  97 139 182 229 293 347 406
#     4  11  25  45  68 100 136 183 237 284 348 423
#     4  11  21  41  68  91 133 183 229 282 345 407
#
# _framework density 22.749328999999999
#
# number of rings (size 3 to 8) (size 9 to 14) (size 15 to 20)
#    0.000    0.857    8.571    0.429    0.000    4.000 
#    0.000    2.143    0.000    0.857    0.000    0.000 
#    0.000    0.000    0.000    0.000    0.000    0.000 
#
# Total GULP energy -156234.017602 kJ/mol
# GULP energy per Si atom -5579.786343 kJ/mol
# Density = 2.269755 g / cm^3
# Si number density = 22.749329 Si / 1000 Ang^3
#
#
#
# Elastic Constant Matrix: (Units=GPa)
#
#
# Indices 1 2 3 4 5 6 
#
# 1 108.3116 5.4314 29.1269 0.0000 4.5621 0.0000
# 2 5.4314 88.5129 4.6837 0.0000 9.3243 0.0000
# 3 29.1269 4.6837 119.3857 0.0000 -8.4942 0.0000
# 4 0.0000 0.0000 0.0000 -7.6212 0.0000 -0.5107
# 5 4.5621 9.3243 -8.4942 0.0000 65.8703 0.0000
# 6 0.0000 0.0000 0.0000 -0.5107 0.0000 2.0969
#
#
#
# Elastic Compliance Matrix: (Units=1/GPa)
#
#
# Indices 1 2 3 4 5 6 
#
# 1 0.009960 -0.000379 -0.002483 0.000000 -0.000956 0.000000
# 2 -0.000379 0.011522 -0.000478 0.000000 -0.001666 0.000000
# 3 -0.002483 -0.000478 0.009101 0.000000 0.001413 0.000000
# 4 0.000000 0.000000 0.000000 -0.129105 0.000000 -0.031442
# 5 -0.000956 -0.001666 0.001413 0.000000 0.015666 0.000000
# 6 0.000000 0.000000 0.000000 -0.031442 0.000000 0.469248
#
#
# Mechanical properties :
#
#
# Convention : Reuss Voigt Hill
#
# Bulk Modulus (GPa) = 41.83667 43.85492 42.84579
# Shear Modulus (GPa) = 12.46762 30.53372 21.50067
#
# Velocity S-wave (km/s) = 2.34357 3.66755 3.07760
# Velocity P-wave (km/s) = 5.07477 6.10360 5.61281
#
# Compressibility (1/GPa) = 0.02390247
#
# Stress axis : x y z
#
# Youngs Moduli (GPa) = 100.40512 86.79136 109.87411
#
# Poissons Ratio (x) = 0.03290 0.27282
# Poissons Ratio (y) = 0.03806 0.05253
# Poissons Ratio (z) = 0.24931 0.04150
#
# Static dielectric constant tensor:
#      x y z
#    x 1.880170 0.000000 0.070890 
#    y 0.000000 1.967690 0.000000 
#    z 0.070890 0.000000 1.941390 
# 
# From -- ./inp_files/156145.got.cif
#   From: 2010.05.17/outbox.cif.g08.bks.cpg/sg12_79_cif.got.tgz:156145.got - 2010.06.03 13:09:07.
