data_PCOD9210471
_publ_section_title
;
Structure prediction by ZEFSAII (Michael W. Deem and Ramdas Pophale) SiO2 
 PCOD9210471
Probable space group: C 2/M
;
_chemical_formula_sum "Si O2"
_cell_formula_units_Z 48
_cell_length_a 13.545773
_cell_length_b 13.085617
_cell_length_c 12.379073
_cell_angle_alpha 90.000000
_cell_angle_beta 90.157511
_cell_angle_gamma 90.000000
_cell_volume 2194.241786
_symmetry_space_group_name_H-M "C 2/M"
_symmetry_group_IT_number 12
_symmetry_cell_setting 'monoclinic'
loop_
_space_group_symop_operation_xyz
x,y,z
-x,y,-z
-x,-y,-z
x,-y,z
1/2+x,1/2+y,z
1/2-x,1/2+y,-z
1/2-x,1/2-y,-z
1/2+x,1/2-y,z
loop_
_atom_site_type_symbol
_atom_site_label
_atom_site_fract_x
_atom_site_fract_y
_atom_site_fract_z
Si Si1 0.906435 0.781620 0.940170
Si Si2 0.399461 0.881183 0.246766
Si Si3 0.951491 0.219733 0.710412
Si Si4 0.355439 0.382968 0.363395
Si Si5 0.793206 0.193456 0.136018
Si Si6 0.226550 0.120247 0.409526
O O1 0.945227 0.831566 0.829671
O O2 0.819129 0.708193 0.899567
O O3 0.854121 0.847946 0.033545
O O4 0.000000 0.732568 0.000000
O O5 0.508310 0.833993 0.265508
O O6 0.341151 0.805588 0.164378
O O7 0.334151 0.870689 0.356388
O O8 0.400416 0.000000 0.215815
O O9 0.849583 0.193082 0.653597
O O10 0.040954 0.175427 0.640467
O O11 0.381506 0.500000 0.375980
O O12 0.305429 0.365591 0.247303
O O13 0.285888 0.357006 0.464064
O O14 0.198171 0.000000 0.392510
#
# Coordination Sequence:
#
# PCOD9210471 Si02
#       6
#     8   8   8   8   8   8
#     4  11  20  40  62  86 122 164 201 257 305 364
#     4  10  21  39  62  90 123 164 209 250 303 369
#     4  11  21  37  64  91 122 162 206 254 308 363
#     4  10  21  39  62  93 124 155 203 257 307 366
#     4  10  22  39  64  84 121 164 206 248 312 367
#     4  10  21  40  65  92 126 163 203 254 311 369
#
# _framework density 21.875437000000002
#
# number of rings (size 3 to 8) (size 9 to 14) (size 15 to 20)
#    0.000    1.667    5.000    1.000    0.000    4.000 
#    3.000    8.333    0.000    8.000    0.000    0.000 
#    0.000    0.000    0.000    0.000    0.000    0.000 
#
# Total GULP energy -133843.999674 kJ/mol
# GULP energy per Si atom -5576.833320 kJ/mol
# Density = 2.182565 g / cm^3
# Si number density = 21.875437 Si / 1000 Ang^3
#
#
#
# Elastic Constant Matrix: (Units=GPa)
#
#
# Indices 1 2 3 4 5 6 
#
# 1 94.2245 19.4417 20.7364 0.0000 -5.6280 0.0000
# 2 19.4417 77.6520 10.8142 0.0000 -1.5285 0.0000
# 3 20.7364 10.8142 127.4907 0.0000 -16.2172 0.0000
# 4 0.0000 0.0000 0.0000 14.0398 0.0000 -5.0407
# 5 -5.6280 -1.5285 -16.2172 0.0000 31.0044 0.0000
# 6 0.0000 0.0000 0.0000 -5.0407 0.0000 15.7566
#
#
#
# Elastic Compliance Matrix: (Units=1/GPa)
#
#
# Indices 1 2 3 4 5 6 
#
# 1 0.011564 -0.002662 -0.001505 0.000000 0.001181 0.000000
# 2 -0.002662 0.013645 -0.000750 0.000000 -0.000203 0.000000
# 3 -0.001505 -0.000750 0.008691 0.000000 0.004236 0.000000
# 4 0.000000 0.000000 0.000000 0.080469 0.000000 0.025743
# 5 0.001181 -0.000203 0.004236 0.000000 0.034673 0.000000
# 6 0.000000 0.000000 0.000000 0.025743 0.000000 0.071701
#
#
# Mechanical properties :
#
#
# Convention : Reuss Voigt Hill
#
# Bulk Modulus (GPa) = 41.55421 44.59463 43.07442
# Shear Modulus (GPa) = 20.95564 28.71851 24.83707
#
# Velocity S-wave (km/s) = 3.09844 3.62722 3.37320
# Velocity P-wave (km/s) = 5.64247 6.16216 5.90803
#
# Compressibility (1/GPa) = 0.02406495
#
# Stress axis : x y z
#
# Youngs Moduli (GPa) = 86.47517 73.28666 115.06281
#
# Poissons Ratio (x) = 0.19512 0.17315
# Poissons Ratio (y) = 0.23024 0.08632
# Poissons Ratio (z) = 0.13013 0.05498
#
# Static dielectric constant tensor:
#      x y z
#    x 1.802940 0.000000 -0.036200 
#    y 0.000000 1.816370 0.000000 
#    z -0.036200 0.000000 1.855590 
# 
# From -- ./inp_files/142859.got.cif
#   From: 2010.05.17/outbox.cif.g08.bks.cpg/sg12_72_cif.got.tgz:142859.got - 2010.06.03 13:09:07.
