data_PCOD9210124
_publ_section_title
;
Structure prediction by ZEFSAII (Michael W. Deem and Ramdas Pophale) SiO2 
 PCOD9210124
Probable space group: C 2/M
;
_chemical_formula_sum "Si O2"
_cell_formula_units_Z 56
_cell_length_a 18.833592
_cell_length_b 8.998025
_cell_length_c 18.619677
_cell_angle_alpha 90.000000
_cell_angle_beta 68.094404
_cell_angle_gamma 90.000000
_cell_volume 2927.566577
_symmetry_space_group_name_H-M "C 2/M"
_symmetry_group_IT_number 12
_symmetry_cell_setting 'monoclinic'
loop_
_space_group_symop_operation_xyz
x,y,z
-x,y,-z
-x,-y,-z
x,-y,z
1/2+x,1/2+y,z
1/2-x,1/2+y,-z
1/2-x,1/2-y,-z
1/2+x,1/2-y,z
loop_
_atom_site_type_symbol
_atom_site_label
_atom_site_fract_x
_atom_site_fract_y
_atom_site_fract_z
Si Si1 0.132927 0.822190 0.843439
Si Si2 0.720711 0.820730 0.300472
Si Si3 0.031146 0.320893 0.124293
Si Si4 0.429770 0.178210 0.727056
Si Si5 0.175649 0.822333 0.990850
Si Si6 0.301949 0.669682 0.537876
Si Si7 0.523580 0.671017 0.567756
O O1 0.195539 0.777667 0.760090
O O2 0.052466 0.738773 0.865784
O O3 0.119136 0.000000 0.842524
O O4 0.171252 0.796681 0.906827
O O5 0.655047 0.777932 0.267824
O O6 0.700258 0.750562 0.384626
O O7 0.719794 0.000000 0.306995
O O8 0.033605 0.500000 0.116852
O O9 0.049534 0.278269 0.199932
O O10 0.098328 0.248171 0.052088
O O11 0.488932 0.244689 0.647806
O O12 0.433277 0.000000 0.722728
O O13 0.177008 0.000000 0.002151
O O14 0.250000 0.750000 0.000000
O O15 0.277548 0.500000 0.558321
O O16 0.250000 0.750000 0.500000
O O17 0.385700 0.668840 0.471143
O O18 0.500000 0.738780 0.500000
O O19 0.494573 0.500000 0.580737
#
# Coordination Sequence:
#
# PCOD9210124 Si02
#       7
#     8   8   8   8   8   8   8
#     4  10  23  42  63  89 125 163 202 248 303 362
#     4  10  21  40  62  85 117 159 201 247 302 358
#     4  11  24  41  62  94 129 160 202 252 299 357
#     4  10  22  39  61  88 120 158 202 251 300 357
#     4  11  23  42  68  95 125 163 204 248 300 360
#     4  11  24  40  59  85 119 156 199 251 304 361
#     4  10  21  39  60  85 117 154 199 253 303 354
#
# _framework density 19.128515
#
# number of rings (size 3 to 8) (size 9 to 14) (size 15 to 20)
#    0.000    1.571    1.429    2.571    2.000    8.286 
#    0.000    1.429    0.000    0.000    0.000    0.000 
#    0.000    0.000    0.000    0.000    0.000    0.000 
#
# Total GULP energy -156418.995619 kJ/mol
# GULP energy per Si atom -5586.392701 kJ/mol
# Density = 1.908498 g / cm^3
# Si number density = 19.128515 Si / 1000 Ang^3
#
#
#
# Elastic Constant Matrix: (Units=GPa)
#
#
# Indices 1 2 3 4 5 6 
#
# 1 111.3435 41.9176 20.2607 0.0000 -4.6392 0.0000
# 2 41.9176 41.4439 21.7439 -0.0001 -2.9869 -0.0001
# 3 20.2607 21.7439 69.9297 0.0000 -16.0723 0.0000
# 4 0.0000 -0.0001 0.0000 27.2096 0.0000 -0.5175
# 5 -4.6392 -2.9869 -16.0723 0.0000 34.4163 0.0000
# 6 0.0000 -0.0001 0.0000 -0.5175 0.0000 33.2955
#
#
#
# Elastic Compliance Matrix: (Units=1/GPa)
#
#
# Indices 1 2 3 4 5 6 
#
# 1 0.014544 -0.014992 0.000672 0.000000 0.000973 0.000000
# 2 -0.014992 0.044397 -0.010127 0.000000 -0.002897 0.000000
# 3 0.000672 -0.010127 0.019126 0.000000 0.008143 0.000000
# 4 0.000000 0.000000 0.000000 0.036763 0.000000 0.000571
# 5 0.000973 -0.002897 0.008143 0.000000 0.032739 0.000000
# 6 0.000000 0.000000 0.000000 0.000571 0.000000 0.030043
#
#
# Mechanical properties :
#
#
# Convention : Reuss Voigt Hill
#
# Bulk Modulus (GPa) = 34.27999 43.39573 38.83786
# Shear Modulus (GPa) = 21.16586 28.23728 24.70157
#
# Velocity S-wave (km/s) = 3.33003 3.84629 3.59743
# Velocity P-wave (km/s) = 5.72235 6.51620 6.13213
#
# Compressibility (1/GPa) = 0.02917154
#
# Stress axis : x y z
#
# Youngs Moduli (GPa) = 68.75849 22.52415 52.28483
#
# Poissons Ratio (x) = 0.33768 -0.03511
# Poissons Ratio (y) = 1.03083 0.52948
# Poissons Ratio (z) = -0.04617 0.22810
#
# Static dielectric constant tensor:
#      x y z
#    x 1.630900 0.000000 0.012310 
#    y 0.000000 1.654880 0.000000 
#    z 0.012310 0.000000 1.639740 
# 
# From -- ./inp_files/275284.got.cif
#   From: 2010.05.17/outbox.cif.g08.bks.cpg/sg12_138_cif.got.tgz:275284.got - 2010.06.03 13:09:07.
