data_PCOD9210458
_publ_section_title
;
Structure prediction by ZEFSAII (Michael W. Deem and Ramdas Pophale) SiO2 
 PCOD9210458
Probable space group: C 2/M
;
_chemical_formula_sum "Si O2"
_cell_formula_units_Z 56
_cell_length_a 23.033185
_cell_length_b 13.150135
_cell_length_c 8.509019
_cell_angle_alpha 90.000000
_cell_angle_beta 67.661366
_cell_angle_gamma 90.000000
_cell_volume 2383.876039
_symmetry_space_group_name_H-M "C 2/M"
_symmetry_group_IT_number 12
_symmetry_cell_setting 'monoclinic'
loop_
_space_group_symop_operation_xyz
x,y,z
-x,y,-z
-x,-y,-z
x,-y,z
1/2+x,1/2+y,z
1/2-x,1/2+y,-z
1/2-x,1/2-y,-z
1/2+x,1/2-y,z
loop_
_atom_site_type_symbol
_atom_site_label
_atom_site_fract_x
_atom_site_fract_y
_atom_site_fract_z
Si Si1 0.879594 0.112459 0.841234
Si Si2 0.435613 0.390593 0.463955
Si Si3 0.322553 0.877157 0.186584
Si Si4 0.236622 0.381397 0.080237
Si Si5 0.685371 0.883898 0.460300
Si Si6 0.457737 0.835188 0.387249
Si Si7 0.549924 0.210315 0.059306
O O1 0.880436 0.116136 0.650904
O O2 0.919876 0.206619 0.857918
O O3 0.905913 0.000000 0.854099
O O4 0.811315 0.118662 0.987113
O O5 0.500000 0.394661 0.500000
O O6 0.429803 0.500000 0.386278
O O7 0.439425 0.283614 0.374411
O O8 0.299992 0.839229 0.381397
O O9 0.318102 0.000000 0.196204
O O10 0.289419 0.840914 0.059406
O O11 0.394446 0.843618 0.090189
O O12 0.215637 0.500000 0.103661
O O13 0.211064 0.337306 0.270890
O O14 0.609438 0.886861 0.527591
O O15 0.709956 0.000000 0.438662
O O16 0.500000 0.841208 0.500000
O O17 0.506246 0.866760 0.202211
O O18 0.500000 0.264839 0.000000
#
# Coordination Sequence:
#
# PCOD9210458 Si02
#       7
#     8   8   8   8   8   8   8
#     4  10  21  40  64  90 121 163 206 254 312 367
#     4   9  17  33  58  83 111 152 202 250 299 357
#     4  10  22  41  63  90 126 166 206 254 310 367
#     4   9  20  40  66  92 120 161 212 255 306 368
#     4  10  21  39  62  89 126 162 200 257 307 362
#     4  11  20  35  58  87 119 155 204 254 299 365
#     4  12  23  37  58  90 127 157 204 253 307 367
#
# _framework density 23.491152
#
# number of rings (size 3 to 8) (size 9 to 14) (size 15 to 20)
#    0.000    1.857    4.286    0.857    0.000    2.000 
#    0.000    2.143    0.000    3.429    0.000    0.000 
#    0.000    0.000    0.000    0.000    0.000    0.000 
#
# Total GULP energy -156233.199639 kJ/mol
# GULP energy per Si atom -5579.757130 kJ/mol
# Density = 2.343769 g / cm^3
# Si number density = 23.491152 Si / 1000 Ang^3
#
#
#
# Elastic Constant Matrix: (Units=GPa)
#
#
# Indices 1 2 3 4 5 6 
#
# 1 48.6399 -9.9798 49.1389 0.0000 6.1381 0.0000
# 2 -9.9798 69.1256 13.5493 0.0000 0.7841 0.0000
# 3 49.1389 13.5493 202.4919 0.0000 -3.5210 0.0000
# 4 0.0000 0.0000 0.0000 7.6062 0.0000 8.1767
# 5 6.1381 0.7841 -3.5210 0.0000 35.8209 0.0000
# 6 0.0000 0.0000 0.0000 8.1767 0.0000 -0.4149
#
#
#
# Elastic Compliance Matrix: (Units=1/GPa)
#
#
# Indices 1 2 3 4 5 6 
#
# 1 0.030592 0.006042 -0.007935 0.000000 -0.006154 0.000000
# 2 0.006042 0.015858 -0.002556 0.000000 -0.001634 0.000000
# 3 -0.007935 -0.002556 0.007072 0.000000 0.002111 0.000000
# 4 0.000000 0.000000 0.000000 0.005926 0.000000 0.116785
# 5 -0.006154 -0.001634 0.002111 0.000000 0.029214 0.000000
# 6 0.000000 0.000000 0.000000 0.116785 0.000000 -0.108637
#
#
# Mechanical properties :
#
#
# Convention : Reuss Voigt Hill
#
# Bulk Modulus (GPa) = 22.40942 47.29714 34.85328
# Shear Modulus (GPa) = 1316.33887 26.43904 671.38896
#
# Velocity S-wave (km/s) = 23.69750 3.35847 16.92411
# Velocity P-wave (km/s) = 27.53765 5.93438 19.91908
#
# Compressibility (1/GPa) = 0.04462408
#
# Stress axis : x y z
#
# Youngs Moduli (GPa) = 32.68821 63.05901 141.40677
#
# Poissons Ratio (x) = -0.38099 1.12208
# Poissons Ratio (y) = -0.19750 0.36139
# Poissons Ratio (z) = 0.25938 0.16116
#
# Static dielectric constant tensor:
#      x y z
#    x 1.881560 0.000000 0.033790 
#    y 0.000000 1.906220 0.000000 
#    z 0.033790 0.000000 1.958120 
# 
# From -- ./inp_files/96791.got.cif
#   From: 2010.05.17/outbox.cif.g08.bks.cpg/sg12_49_cif.got.tgz:96791.got - 2010.06.03 13:09:07.
