data_PCOD9210961
_publ_section_title
;
Structure prediction by ZEFSAII (Michael W. Deem and Ramdas Pophale) SiO2 
 PCOD9210961
Probable space group: C 2/M
;
_chemical_formula_sum "Si O2"
_cell_formula_units_Z 40
_cell_length_a 23.945239
_cell_length_b 9.496269
_cell_length_c 9.284692
_cell_angle_alpha 90.000000
_cell_angle_beta 106.943966
_cell_angle_gamma 90.000000
_cell_volume 2019.601235
_symmetry_space_group_name_H-M "C 2/M"
_symmetry_group_IT_number 12
_symmetry_cell_setting 'monoclinic'
loop_
_space_group_symop_operation_xyz
x,y,z
-x,y,-z
-x,-y,-z
x,-y,z
1/2+x,1/2+y,z
1/2-x,1/2+y,-z
1/2-x,1/2-y,-z
1/2+x,1/2-y,z
loop_
_atom_site_type_symbol
_atom_site_label
_atom_site_fract_x
_atom_site_fract_y
_atom_site_fract_z
Si Si1 0.516446 0.500000 0.676795
Si Si2 0.206175 0.000000 0.756406
Si Si3 0.612331 0.735937 0.755131
Si Si4 0.317870 0.000000 0.679035
Si Si5 0.244393 0.000000 0.106022
Si Si6 0.438257 0.500000 0.872326
Si Si7 0.361273 0.000000 0.383986
Si Si8 0.150496 0.238791 0.099170
O O1 0.500000 0.500000 0.500000
O O2 0.556677 0.635969 0.737788
O O3 0.457264 0.500000 0.721937
O O4 0.163994 0.134477 0.736061
O O5 0.247710 0.000000 0.649725
O O6 0.245595 0.000000 0.932333
O O7 0.603767 0.860810 0.636224
O O8 0.632791 0.791047 0.926730
O O9 0.339399 0.137847 0.780582
O O10 0.339880 0.000000 0.532154
O O11 0.304057 0.000000 0.237831
O O12 0.207070 0.861632 0.121664
O O13 0.400464 0.634911 0.886181
O O14 0.500000 0.500000 0.000000
#
# Coordination Sequence:
#
# PCOD9210961 Si02
#       8
#     4   4   8   4   4   4   4   8
#     4  11  24  41  68  90 114 150 189 243 308 349
#     4   9  19  38  64  84 114 157 208 232 275 352
#     4  10  21  41  62  88 115 158 198 237 288 354
#     4  12  25  36  53  92 126 157 189 243 295 340
#     4   9  19  38  62  87 114 160 196 237 287 349
#     4  11  20  43  70  90 106 144 205 251 282 346
#     4  12  25  36  53  88 134 155 185 239 303 349
#     4  10  21  39  65  88 114 153 205 241 280 344
#
# _framework density 19.805890000000002
#
# number of rings (size 3 to 8) (size 9 to 14) (size 15 to 20)
#    0.000    1.600    2.000    4.200    2.800    6.400 
#    3.600    2.000    0.000    0.000    0.000    0.000 
#    0.000    0.000    0.000    0.000    0.000    0.000 
#
# Total GULP energy -111811.142916 kJ/mol
# GULP energy per Si atom -5590.557146 kJ/mol
# Density = 1.976081 g / cm^3
# Si number density = 19.805890 Si / 1000 Ang^3
#
#
#
# Elastic Constant Matrix: (Units=GPa)
#
#
# Indices 1 2 3 4 5 6 
#
# 1 69.2003 23.4513 6.2605 0.0000 -25.3495 0.0000
# 2 23.4513 108.2857 36.9174 0.0000 -22.1298 0.0000
# 3 6.2605 36.9174 78.2559 0.0000 -33.1591 0.0000
# 4 0.0000 0.0000 0.0000 -9.8770 0.0000 -28.7915
# 5 -25.3495 -22.1298 -33.1591 0.0000 42.3861 0.0000
# 6 0.0000 0.0000 0.0000 -28.7915 0.0000 -7.8685
#
#
#
# Elastic Compliance Matrix: (Units=1/GPa)
#
#
# Indices 1 2 3 4 5 6 
#
# 1 0.020877 -0.003574 0.006755 0.000000 0.015904 0.000000
# 2 -0.003574 0.011799 -0.005349 0.000000 -0.000161 0.000000
# 3 0.006755 -0.005349 0.022872 0.000000 0.019140 0.000000
# 4 0.000000 0.000000 0.000000 0.010474 0.000000 -0.038326
# 5 0.015904 -0.000161 0.019140 0.000000 0.047993 0.000000
# 6 0.000000 0.000000 0.000000 -0.038326 0.000000 0.013148
#
#
# Mechanical properties :
#
#
# Convention : Reuss Voigt Hill
#
# Bulk Modulus (GPa) = 19.52674 43.22226 31.37450
# Shear Modulus (GPa) = 33.65430 17.53565 25.59497
#
# Velocity S-wave (km/s) = 4.12662 2.97875 3.59874
# Velocity P-wave (km/s) = 5.70839 5.80525 5.75702
#
# Compressibility (1/GPa) = 0.05121183
#
# Stress axis : x y z
#
# Youngs Moduli (GPa) = 47.89996 84.74990 43.72232
#
# Poissons Ratio (x) = 0.30289 -0.29534
# Poissons Ratio (y) = 0.17119 0.23387
# Poissons Ratio (z) = -0.32356 0.45332
#
# Static dielectric constant tensor:
#      x y z
#    x 1.720820 0.000000 -0.020790 
#    y 0.000000 1.712360 0.000000 
#    z -0.020790 0.000000 1.711370 
# 
# From -- ./inp_files/93087.got.cif
#   From: 2010.05.17/outbox.cif.g08.bks.cpg/sg12_47_cif.got.tgz:93087.got - 2010.06.03 13:09:07.
