data_PCOD9210529
_publ_section_title
;
Structure prediction by ZEFSAII (Michael W. Deem and Ramdas Pophale) SiO2 
 PCOD9210529
Probable space group: C 2/M
;
_chemical_formula_sum "Si O2"
_cell_formula_units_Z 48
_cell_length_a 14.957583
_cell_length_b 19.043098
_cell_length_c 18.139232
_cell_angle_alpha 90.000000
_cell_angle_beta 154.410061
_cell_angle_gamma 90.000000
_cell_volume 2231.663225
_symmetry_space_group_name_H-M "C 2/M"
_symmetry_group_IT_number 12
_symmetry_cell_setting 'monoclinic'
loop_
_space_group_symop_operation_xyz
x,y,z
-x,y,-z
-x,-y,-z
x,-y,z
1/2+x,1/2+y,z
1/2-x,1/2+y,-z
1/2-x,1/2-y,-z
1/2+x,1/2-y,z
loop_
_atom_site_type_symbol
_atom_site_label
_atom_site_fract_x
_atom_site_fract_y
_atom_site_fract_z
Si Si1 0.521751 0.079329 0.190708
Si Si2 0.697812 0.673895 0.870875
Si Si3 0.988346 0.803428 0.107074
Si Si4 0.920371 0.831773 0.524493
Si Si5 0.239949 0.077527 0.123725
Si Si6 0.081377 0.685587 0.633629
O O1 0.704559 0.127370 0.360149
O O2 0.360006 0.071873 0.136334
O O3 0.589531 0.000000 0.219305
O O4 0.388390 0.121377 0.030663
O O5 0.553332 0.684820 0.836696
O O6 0.569261 0.648180 0.704099
O O7 0.810238 0.749925 0.946869
O O8 0.206380 0.777280 0.237424
O O9 0.963355 0.879164 0.050087
O O10 0.000000 0.844085 0.500000
O O11 0.923162 0.747203 0.537537
O O12 0.376209 0.128257 0.274801
O O13 0.213083 0.000000 0.134182
O O14 0.000000 0.648423 0.500000
#
# Coordination Sequence:
#
# PCOD9210529 Si02
#       6
#     8   8   8   8   8   8
#     4  10  24  44  65  94 129 166 213 266 322 382
#     4  10  21  41  67  90 126 170 216 260 318 373
#     4  10  21  39  62  94 123 168 216 258 306 379
#     4  11  24  40  64  98 127 166 215 267 316 377
#     4  10  22  41  63  90 128 169 207 256 316 378
#     4  11  23  36  59  96 131 162 209 257 309 374
#
# _framework density 21.508621999999999
#
# number of rings (size 3 to 8) (size 9 to 14) (size 15 to 20)
#    0.000    1.667    1.667    2.500    2.333    5.333 
#    0.000    0.833    0.000    0.000    0.000    0.000 
#    0.000    0.000    0.000    0.000    0.000    0.000 
#
# Total GULP energy -133800.002007 kJ/mol
# GULP energy per Si atom -5575.000084 kJ/mol
# Density = 2.145967 g / cm^3
# Si number density = 21.508622 Si / 1000 Ang^3
#
#
#
# Elastic Constant Matrix: (Units=GPa)
#
#
# Indices 1 2 3 4 5 6 
#
# 1 57.2051 19.4875 30.7055 0.0011 -18.0610 -0.0043
# 2 19.4875 143.0198 62.7031 -0.0049 -8.7921 -0.0155
# 3 30.7055 62.7031 137.1061 -0.0371 -33.3859 -0.0232
# 4 0.0011 -0.0049 -0.0371 5.6810 -0.0125 -1.7368
# 5 -18.0610 -8.7921 -33.3859 -0.0125 42.2497 -0.0075
# 6 -0.0043 -0.0155 -0.0232 -1.7368 -0.0075 21.1224
#
#
#
# Elastic Compliance Matrix: (Units=1/GPa)
#
#
# Indices 1 2 3 4 5 6 
#
# 1 0.021480 -0.001415 -0.002475 -0.000006 0.006932 0.000003
# 2 -0.001415 0.008934 -0.004289 -0.000025 -0.002135 -0.000001
# 3 -0.002475 -0.004289 0.011558 0.000094 0.007183 0.000019
# 4 -0.000006 -0.000025 0.000094 0.180565 0.000123 0.014847
# 5 0.006932 -0.002135 0.007183 0.000123 0.031864 0.000029
# 6 0.000003 -0.000001 0.000019 0.014847 0.000029 0.048564
#
#
# Mechanical properties :
#
#
# Convention : Reuss Voigt Hill
#
# Bulk Modulus (GPa) = 39.04138 62.56924 50.80531
# Shear Modulus (GPa) = 15.25031 28.77294 22.01163
#
# Velocity S-wave (km/s) = 2.66566 3.66148 3.20251
# Velocity P-wave (km/s) = 5.25977 6.85775 6.11122
#
# Compressibility (1/GPa) = 0.02561385
#
# Stress axis : x y z
#
# Youngs Moduli (GPa) = 46.55406 111.93331 86.51714
#
# Poissons Ratio (x) = 0.15844 0.21416
# Poissons Ratio (y) = 0.06590 0.37104
# Poissons Ratio (z) = 0.11524 0.48004
#
# Static dielectric constant tensor:
#      x y z
#    x 1.818220 0.000010 -0.002470 
#    y 0.000010 1.831820 -0.000030 
#    z -0.002470 -0.000030 1.828490 
# 
# From -- ./inp_files/317556.got.cif
#   From: 2010.05.17/outbox.cif.g08.bks.cpg/sg12_159_cif.got.tgz:317556.got - 2010.06.03 13:09:07.
