data_PCOD9210549
_publ_section_title
;
Structure prediction by ZEFSAII (Michael W. Deem and Ramdas Pophale) SiO2 
 PCOD9210549
Probable space group: C 2/M
;
_chemical_formula_sum "Si O2"
_cell_formula_units_Z 58
_cell_length_a 9.540003
_cell_length_b 17.748570
_cell_length_c 20.929856
_cell_angle_alpha 90.000000
_cell_angle_beta 56.100077
_cell_angle_gamma 90.000000
_cell_volume 2941.460576
_symmetry_space_group_name_H-M "C 2/M"
_symmetry_group_IT_number 12
_symmetry_cell_setting 'monoclinic'
loop_
_space_group_symop_operation_xyz
x,y,z
-x,y,-z
-x,-y,-z
x,-y,z
1/2+x,1/2+y,z
1/2-x,1/2+y,-z
1/2-x,1/2-y,-z
1/2+x,1/2-y,z
loop_
_atom_site_type_symbol
_atom_site_label
_atom_site_fract_x
_atom_site_fract_y
_atom_site_fract_z
Si Si1 0.454896 0.915252 0.703447
Si Si2 0.027686 0.680468 0.810851
Si Si3 0.013868 0.184013 0.601442
Si Si4 0.842075 0.150401 0.070870
Si Si5 0.607975 0.647033 0.790073
Si Si6 0.149188 0.089174 0.241518
Si Si7 0.000000 0.000000 0.000000
Si Si8 0.220712 0.333706 0.572150
O O1 0.495532 0.861547 0.752414
O O2 0.280351 0.886770 0.718153
O O3 0.613985 0.906710 0.617233
O O4 0.431759 0.000000 0.732121
O O5 0.093510 0.764224 0.781699
O O6 0.171099 0.631434 0.808647
O O7 0.843304 0.684269 0.889998
O O8 0.082852 0.266471 0.603092
O O9 0.172711 0.154705 0.519369
O O10 0.954456 0.132737 0.675771
O O11 0.855822 0.186838 0.592882
O O12 0.880353 0.138663 0.136413
O O13 0.000000 0.194988 0.000000
O O14 0.856785 0.067529 0.036831
O O15 0.454001 0.603773 0.797013
O O16 0.166116 0.000000 0.250586
#
# Coordination Sequence:
#
# PCOD9210549 Si02
#       8
#     8   8   8   8   8   8   2   8
#     4  11  23  38  63  89 119 166 215 251 303 368
#     4  11  22  40  64  89 123 161 205 249 295 365
#     4  10  22  39  59  90 120 167 205 258 309 368
#     4   9  22  40  71  86 121 161 208 233 294 367
#     4  11  24  42  62  89 125 164 201 250 302 364
#     4  12  25  36  58  94 129 152 196 262 317 348
#     4   8  20  40  68  94 120 160 202 248 286 376
#     4  10  21  39  63  84 122 163 215 253 308 367
#
# _framework density 19.718094000000001
#
# number of rings (size 3 to 8) (size 9 to 14) (size 15 to 20)
#    0.414    1.103    1.379    4.138    7.724    1.103 
#    0.000    2.069    0.000    3.310    0.000    0.000 
#    0.000    0.000    0.000    0.000    0.000    0.000 
#
# Total GULP energy -161524.218314 kJ/mol
# GULP energy per Si atom -5569.800632 kJ/mol
# Density = 1.967322 g / cm^3
# Si number density = 19.718094 Si / 1000 Ang^3
#
#
#
# Elastic Constant Matrix: (Units=GPa)
#
#
# Indices 1 2 3 4 5 6 
#
# 1 86.8468 -11.8334 27.0826 0.0000 -16.8708 0.0001
# 2 -11.8334 55.6731 2.6310 0.0000 -11.3690 0.0000
# 3 27.0826 2.6310 69.9253 0.0000 -25.2074 0.0000
# 4 0.0000 0.0000 0.0000 6.9465 0.0000 -11.2023
# 5 -16.8708 -11.3690 -25.2074 0.0000 24.6305 0.0000
# 6 0.0001 0.0000 0.0000 -11.2023 0.0000 16.8738
#
#
#
# Elastic Compliance Matrix: (Units=1/GPa)
#
#
# Indices 1 2 3 4 5 6 
#
# 1 0.014988 0.005435 -0.002225 0.000001 0.010497 0.000001
# 2 0.005435 0.022552 0.003393 0.000000 0.017604 0.000000
# 3 -0.002225 0.003393 0.023849 -0.000001 0.024449 -0.000001
# 4 0.000001 0.000000 -0.000001 -2.038551 -0.000005 -1.353361
# 5 0.010497 0.017604 0.024449 -0.000005 0.080938 -0.000003
# 6 0.000001 0.000000 -0.000001 -1.353361 -0.000003 -0.839211
#
#
# Mechanical properties :
#
#
# Convention : Reuss Voigt Hill
#
# Bulk Modulus (GPa) = 13.40614 27.57841 20.49227
# Shear Modulus (GPa) = -1.83569 22.66116 10.41274
#
# Velocity S-wave (km/s) = -0.96591 3.39375 2.30049
# Velocity P-wave (km/s) = 2.36002 5.41972 4.17990
#
# Compressibility (1/GPa) = 0.07459270
#
# Stress axis : x y z
#
# Youngs Moduli (GPa) = 66.71918 44.34248 41.93065
#
# Poissons Ratio (x) = -0.24098 0.09331
# Poissons Ratio (y) = -0.36259 -0.14226
# Poissons Ratio (z) = 0.14847 -0.15044
#
# Static dielectric constant tensor:
#      x y z
#    x 1.709760 0.000000 -0.028640 
#    y 0.000000 1.682700 0.000000 
#    z -0.028640 0.000000 1.780880 
# 
# From -- ./inp_files/301129.got.cif
#   From: 2010.05.17/outbox.cif.g08.bks.cpg/sg12_151_cif.got.tgz:301129.got - 2010.06.03 13:09:07.
