data_PCOD9210663
_publ_section_title
;
Structure prediction by ZEFSAII (Michael W. Deem and Ramdas Pophale) SiO2 
 PCOD9210663
Probable space group: C 2/M
;
_chemical_formula_sum "Si O2"
_cell_formula_units_Z 50
_cell_length_a 8.833860
_cell_length_b 19.000456
_cell_length_c 17.689724
_cell_angle_alpha 90.000000
_cell_angle_beta 119.967780
_cell_angle_gamma 90.000000
_cell_volume 2572.214225
_symmetry_space_group_name_H-M "C 2/M"
_symmetry_group_IT_number 12
_symmetry_cell_setting 'monoclinic'
loop_
_space_group_symop_operation_xyz
x,y,z
-x,y,-z
-x,-y,-z
x,-y,z
1/2+x,1/2+y,z
1/2-x,1/2+y,-z
1/2-x,1/2-y,-z
1/2+x,1/2-y,z
loop_
_atom_site_type_symbol
_atom_site_label
_atom_site_fract_x
_atom_site_fract_y
_atom_site_fract_z
Si Si1 0.995885 0.323138 0.315963
Si Si2 0.000000 0.000000 0.500000
Si Si3 0.487608 0.082129 0.169986
Si Si4 0.635957 0.323195 0.316028
Si Si5 0.647728 0.582121 0.829961
Si Si6 0.817623 0.327798 0.999964
Si Si7 0.832355 0.854132 0.499958
O O1 0.993021 0.385623 0.254508
O O2 0.031426 0.249949 0.281575
O O3 0.156957 0.334202 0.413002
O O4 0.815596 0.319270 0.315674
O O5 0.871037 0.062952 0.499943
O O6 0.681019 0.087479 0.181091
O O7 0.439042 0.000000 0.157415
O O8 0.359511 0.128069 0.085794
O O9 0.515958 0.385724 0.254636
O O10 0.669155 0.334226 0.413096
O O11 0.624431 0.500000 0.842626
O O12 0.687846 0.628123 0.914076
O O13 0.750000 0.250000 0.000000
O O14 0.000000 0.322682 0.000000
O O15 0.000000 0.818695 0.500000
#
# Coordination Sequence:
#
# PCOD9210663 Si02
#       7
#     8   2   8   8   8   8   8
#     4  12  25  41  62  92 125 164 208 255 306 363
#     4   8  24  40  70  92 120 162 208 240 320 364
#     4  10  22  40  64  90 124 163 205 252 308 368
#     4  12  25  41  62  92 125 164 208 255 306 363
#     4  10  22  40  64  90 124 163 205 252 308 368
#     4  10  21  39  63  91 121 160 205 254 304 364
#     4  10  22  42  66  90 122 161 204 246 304 362
#
# _framework density 19.438506
#
# number of rings (size 3 to 8) (size 9 to 14) (size 15 to 20)
#    0.480    0.960    0.000    5.280    2.240    6.400 
#    0.000    0.800    0.000    2.880    0.000    0.000 
#    0.000    0.000    0.000    0.000    0.000    0.000 
#
# Total GULP energy -139484.003572 kJ/mol
# GULP energy per Si atom -5579.360143 kJ/mol
# Density = 1.939426 g / cm^3
# Si number density = 19.438506 Si / 1000 Ang^3
#
#
#
# Elastic Constant Matrix: (Units=GPa)
#
#
# Indices 1 2 3 4 5 6 
#
# 1 91.0353 62.4725 61.2582 0.0000 -0.2432 0.0000
# 2 62.4725 161.4593 59.3297 0.0000 -0.3379 0.0000
# 3 61.2582 59.3297 141.9822 0.0000 -0.3139 0.0000
# 4 0.0000 0.0000 0.0000 6.2982 0.0000 0.1293
# 5 -0.2432 -0.3379 -0.3139 0.0000 2.1167 0.0000
# 6 0.0000 0.0000 0.0000 0.1293 0.0000 36.7917
#
#
#
# Elastic Compliance Matrix: (Units=1/GPa)
#
#
# Indices 1 2 3 4 5 6 
#
# 1 0.018297 -0.004936 -0.005830 0.000000 0.000450 0.000000
# 2 -0.004936 0.008650 -0.001483 0.000000 0.000594 0.000000
# 3 -0.005830 -0.001483 0.010180 0.000000 0.000603 0.000000
# 4 0.000000 0.000000 0.000000 0.158786 0.000000 -0.000558
# 5 0.000450 0.000594 0.000603 0.000000 0.472675 0.000000
# 6 0.000000 0.000000 0.000000 -0.000558 0.000000 0.027182
#
#
# Mechanical properties :
#
#
# Convention : Reuss Voigt Hill
#
# Bulk Modulus (GPa) = 79.19955 84.51084 81.85519
# Shear Modulus (GPa) = 6.90152 23.13575 15.01864
#
# Velocity S-wave (km/s) = 1.88631 3.45367 2.78263
# Velocity P-wave (km/s) = 6.75102 7.71195 7.24743
#
# Compressibility (1/GPa) = 0.01262633
#
# Stress axis : x y z
#
# Youngs Moduli (GPa) = 54.65493 115.61054 98.23246
#
# Poissons Ratio (x) = 0.57065 0.57274
# Poissons Ratio (y) = 0.26978 0.14573
# Poissons Ratio (z) = 0.31866 0.17151
#
# Static dielectric constant tensor:
#      x y z
#    x 1.660210 0.000000 0.000020 
#    y 0.000000 1.669820 0.000000 
#    z 0.000020 0.000000 1.666320 
# 
# From -- ./inp_files/257243.got.cif
#   From: 2010.05.17/outbox.cif.g08.bks.cpg/sg12_129_cif.got.tgz:257243.got - 2010.06.03 13:09:07.
