data_PCOD9210111
_publ_section_title
;
Structure prediction by ZEFSAII (Michael W. Deem and Ramdas Pophale) SiO2 
 PCOD9210111
Probable space group: C 2/M
;
_chemical_formula_sum "Si O2"
_cell_formula_units_Z 48
_cell_length_a 14.228236
_cell_length_b 8.587126
_cell_length_c 20.204122
_cell_angle_alpha 90.000000
_cell_angle_beta 107.302116
_cell_angle_gamma 90.000000
_cell_volume 2356.831105
_symmetry_space_group_name_H-M "C 2/M"
_symmetry_group_IT_number 12
_symmetry_cell_setting 'monoclinic'
loop_
_space_group_symop_operation_xyz
x,y,z
-x,y,-z
-x,-y,-z
x,-y,z
1/2+x,1/2+y,z
1/2-x,1/2+y,-z
1/2-x,1/2-y,-z
1/2+x,1/2-y,z
loop_
_atom_site_type_symbol
_atom_site_label
_atom_site_fract_x
_atom_site_fract_y
_atom_site_fract_z
Si Si1 0.546338 0.685934 0.607659
Si Si2 0.912944 0.181518 0.133814
Si Si3 0.882115 0.321495 0.990409
Si Si4 0.642632 0.813800 0.493568
Si Si5 0.129614 0.313457 0.158619
Si Si6 0.324783 0.816801 0.246675
O O1 0.539890 0.500000 0.605317
O O2 0.605657 0.744564 0.555594
O O3 0.437612 0.757776 0.576943
O O4 0.603028 0.743972 0.684030
O O5 0.028538 0.224833 0.152487
O O6 0.866653 0.219999 0.052242
O O7 0.869761 0.282987 0.183927
O O8 0.898826 0.000000 0.146058
O O9 0.854557 0.500000 0.999075
O O10 0.839012 0.273274 0.910587
O O11 0.000000 0.320206 0.000000
O O12 0.750000 0.750000 0.500000
O O13 0.642492 0.000000 0.497118
O O14 0.112669 0.500000 0.156529
O O15 0.217933 0.264240 0.224529
O O16 0.314347 0.000000 0.255694
#
# Coordination Sequence:
#
# PCOD9210111 Si02
#       6
#     8   8   8   8   8   8
#     4  11  23  42  64  92 126 158 195 243 292 344
#     4  11  22  37  58  85 116 154 199 247 300 357
#     4   8  16  33  56  80 110 149 195 248 300 350
#     4  11  22  41  68  98 126 159 198 236 283 340
#     4  10  21  39  60  84 115 153 198 249 302 356
#     4  12  25  41  60  86 120 159 199 243 296 353
#
# _framework density 20.366330000000001
#
# number of rings (size 3 to 8) (size 9 to 14) (size 15 to 20)
#    0.000    1.500    0.000    8.500    0.000    5.667 
#    0.000    6.667    0.000    0.000    0.000    0.000 
#    0.000    0.000    0.000    0.000    0.000    0.000 
#
# Total GULP energy -134246.604950 kJ/mol
# GULP energy per Si atom -5593.608540 kJ/mol
# Density = 2.031998 g / cm^3
# Si number density = 20.366330 Si / 1000 Ang^3
#
#
#
# Elastic Constant Matrix: (Units=GPa)
#
#
# Indices 1 2 3 4 5 6 
#
# 1 73.1990 5.4457 19.1601 0.0000 21.0386 0.0000
# 2 5.4457 95.8760 16.2101 0.0000 6.1483 0.0000
# 3 19.1601 16.2101 91.8684 0.0000 30.2070 0.0000
# 4 0.0000 0.0000 0.0000 35.9932 0.0000 0.9951
# 5 21.0386 6.1483 30.2070 0.0000 25.8718 0.0000
# 6 0.0000 0.0000 0.0000 0.9951 0.0000 31.3829
#
#
#
# Elastic Compliance Matrix: (Units=1/GPa)
#
#
# Indices 1 2 3 4 5 6 
#
# 1 0.018000 -0.000253 0.001759 0.000000 -0.016631 0.000000
# 2 -0.000253 0.010759 -0.001741 0.000000 -0.000318 0.000000
# 3 0.001759 -0.001741 0.018114 0.000000 -0.022165 0.000000
# 4 0.000000 0.000000 0.000000 0.027807 0.000000 -0.000882
# 5 -0.016631 -0.000318 -0.022165 0.000000 0.078131 0.000000
# 6 0.000000 0.000000 0.000000 -0.000882 0.000000 0.031892
#
#
# Mechanical properties :
#
#
# Convention : Reuss Voigt Hill
#
# Bulk Modulus (GPa) = 21.55087 38.06392 29.80740
# Shear Modulus (GPa) = 24.92007 33.32475 29.12241
#
# Velocity S-wave (km/s) = 3.50178 4.04947 3.78554
# Velocity P-wave (km/s) = 5.19178 6.37138 5.81158
#
# Compressibility (1/GPa) = 0.04640184
#
# Stress axis : x y z
#
# Youngs Moduli (GPa) = 55.55642 92.94292 55.20702
#
# Poissons Ratio (x) = 0.02354 -0.09710
# Poissons Ratio (y) = 0.01407 0.09612
# Poissons Ratio (z) = -0.09772 0.16182
#
# Static dielectric constant tensor:
#      x y z
#    x 1.746790 0.000000 0.016620 
#    y 0.000000 1.672560 0.000000 
#    z 0.016620 0.000000 1.723420 
# 
# From -- ./inp_files/308592.got.cif
#   From: 2010.05.17/outbox.cif.g08.bks.cpg/sg12_155_cif.got.tgz:308592.got - 2010.06.03 13:09:07.
