data_PCOD9210206
_publ_section_title
;
Structure prediction by ZEFSAII (Michael W. Deem and Ramdas Pophale) SiO2 
 PCOD9210206
Probable space group: C 2/M
;
_chemical_formula_sum "Si O2"
_cell_formula_units_Z 56
_cell_length_a 21.975037
_cell_length_b 27.134474
_cell_length_c 9.147901
_cell_angle_alpha 90.000000
_cell_angle_beta 147.981789
_cell_angle_gamma 90.000000
_cell_volume 2892.031462
_symmetry_space_group_name_H-M "C 2/M"
_symmetry_group_IT_number 12
_symmetry_cell_setting 'monoclinic'
loop_
_space_group_symop_operation_xyz
x,y,z
-x,y,-z
-x,-y,-z
x,-y,z
1/2+x,1/2+y,z
1/2-x,1/2+y,-z
1/2-x,1/2-y,-z
1/2+x,1/2-y,z
loop_
_atom_site_type_symbol
_atom_site_label
_atom_site_fract_x
_atom_site_fract_y
_atom_site_fract_z
Si Si1 0.768931 0.127825 0.300259
Si Si2 0.839053 0.694000 0.336345
Si Si3 0.481664 0.443736 0.788582
Si Si4 0.366837 0.139166 0.684299
Si Si5 0.621485 0.701907 0.704118
Si Si6 0.625830 0.908855 0.752275
Si Si7 0.763554 0.056859 0.765874
O O1 0.876296 0.092037 0.544736
O O2 0.709980 0.146364 0.328126
O O3 0.814104 0.171749 0.290415
O O4 0.675234 0.098694 0.013594
O O5 0.854327 0.682284 0.537956
O O6 0.898177 0.743340 0.398781
O O7 0.882913 0.645300 0.341407
O O8 0.706780 0.701315 0.016563
O O9 0.458310 0.500000 0.691488
O O10 0.500000 0.444826 0.000000
O O11 0.603415 0.427059 0.968937
O O12 0.314012 0.091003 0.496120
O O13 0.500000 0.133356 0.000000
O O14 0.500000 0.679411 0.500000
O O15 0.500000 0.931508 0.500000
O O16 0.713257 0.937474 0.825739
O O17 0.760508 0.000000 0.711777
#
# Coordination Sequence:
#
# PCOD9210206 Si02
#       7
#     8   8   8   8   8   8   8
#     4  11  23  35  62  95 117 154 205 250 307 355
#     4   9  21  41  60  84 122 161 203 235 306 360
#     4  10  21  39  61  84 121 158 192 248 314 367
#     4  11  23  40  62  87 123 163 200 249 301 368
#     4  10  22  38  64  91 119 157 200 255 293 354
#     4  10  21  39  61  84 121 162 199 248 299 363
#     4  10  22  40  61  86 118 162 205 250 305 359
#
# _framework density 19.363551000000001
#
# number of rings (size 3 to 8) (size 9 to 14) (size 15 to 20)
#    0.000    1.857    1.429    2.143    6.000    4.000 
#    0.000    3.571    0.000    0.000    0.000    0.000 
#    0.000    0.000    0.000    0.000    0.000    0.000 
#
# Total GULP energy -156320.239614 kJ/mol
# GULP energy per Si atom -5582.865700 kJ/mol
# Density = 1.931948 g / cm^3
# Si number density = 19.363551 Si / 1000 Ang^3
#
#
#
# Elastic Constant Matrix: (Units=GPa)
#
#
# Indices 1 2 3 4 5 6 
#
# 1 114.4263 7.9662 64.2837 0.0000 9.3968 0.0000
# 2 7.9662 49.0819 32.0682 0.0000 4.1123 0.0000
# 3 64.2837 32.0682 110.2238 0.0000 3.8495 0.0000
# 4 0.0000 0.0000 0.0000 -12.3697 0.0000 12.4147
# 5 9.3968 4.1123 3.8495 0.0000 36.0914 0.0000
# 6 0.0000 0.0000 0.0000 12.4147 0.0000 5.0246
#
#
#
# Elastic Compliance Matrix: (Units=1/GPa)
#
#
# Indices 1 2 3 4 5 6 
#
# 1 0.013838 0.003970 -0.009118 0.000000 -0.003083 0.000000
# 2 0.003970 0.026453 -0.009907 0.000000 -0.002991 0.000000
# 3 -0.009118 -0.009907 0.017214 0.000000 0.001667 0.000000
# 4 0.000000 0.000000 0.000000 -0.023232 0.000000 0.057402
# 5 -0.003083 -0.002991 0.001667 0.000000 0.028673 0.000000
# 6 0.000000 0.000000 0.000000 0.057402 0.000000 0.057194
#
#
# Mechanical properties :
#
#
# Convention : Reuss Voigt Hill
#
# Bulk Modulus (GPa) = 36.50255 53.59647 45.04951
# Shear Modulus (GPa) = 31.37103 17.04353 24.20728
#
# Velocity S-wave (km/s) = 4.02942 2.97001 3.53958
# Velocity P-wave (km/s) = 6.36714 6.28494 6.32617
#
# Compressibility (1/GPa) = 0.02739534
#
# Stress axis : x y z
#
# Youngs Moduli (GPa) = 72.26247 37.80262 58.09158
#
# Poissons Ratio (x) = -0.15006 0.52968
# Poissons Ratio (y) = -0.28685 0.57550
# Poissons Ratio (z) = 0.65889 0.37450
#
# Static dielectric constant tensor:
#      x y z
#    x 1.680730 0.000000 0.012150 
#    y 0.000000 1.681830 0.000000 
#    z 0.012150 0.000000 1.669800 
# 
# From -- ./inp_files/91616.got.cif
#   From: 2010.05.17/outbox.cif.g08.bks.cpg/sg12_46_cif.got.tgz:91616.got - 2010.06.03 13:09:07.
