data_PCOD9210655
_publ_section_title
;
Structure prediction by ZEFSAII (Michael W. Deem and Ramdas Pophale) SiO2 
 PCOD9210655
Probable space group: C 2/M
;
_chemical_formula_sum "Si O2"
_cell_formula_units_Z 48
_cell_length_a 24.820543
_cell_length_b 8.692855
_cell_length_c 20.078778
_cell_angle_alpha 90.000000
_cell_angle_beta 33.346094
_cell_angle_gamma 90.000000
_cell_volume 2381.402530
_symmetry_space_group_name_H-M "C 2/M"
_symmetry_group_IT_number 12
_symmetry_cell_setting 'monoclinic'
loop_
_space_group_symop_operation_xyz
x,y,z
-x,y,-z
-x,-y,-z
x,-y,z
1/2+x,1/2+y,z
1/2-x,1/2+y,-z
1/2-x,1/2-y,-z
1/2+x,1/2-y,z
loop_
_atom_site_type_symbol
_atom_site_label
_atom_site_fract_x
_atom_site_fract_y
_atom_site_fract_z
Si Si1 0.194201 0.683510 0.847733
Si Si2 0.875198 0.183140 0.212151
Si Si3 0.558346 0.814754 0.104841
Si Si4 0.093551 0.314870 0.358864
Si Si5 0.707302 0.683866 0.475228
Si Si6 0.010687 0.314312 0.301913
O O1 0.190408 0.500000 0.844983
O O2 0.124994 0.757087 0.863081
O O3 0.304649 0.740919 0.724559
O O4 0.152420 0.727795 0.963529
O O5 0.775307 0.247361 0.347481
O O6 0.963909 0.246268 0.165120
O O7 0.875700 0.000000 0.213047
O O8 0.558440 0.768281 0.182070
O O9 0.549350 0.000000 0.112377
O O10 0.102421 0.500000 0.355295
O O11 0.000000 0.268081 0.500000
O O12 0.071648 0.274396 0.304666
O O13 0.713648 0.500000 0.468826
O O14 0.750000 0.750000 0.500000
O O15 0.595954 0.738482 0.583304
O O16 0.998225 0.500000 0.314653
#
# Coordination Sequence:
#
# PCOD9210655 Si02
#       6
#     8   8   8   8   8   8
#     4  11  24  41  62  89 122 164 208 256 312 369
#     4  12  24  39  62  91 123 163 208 258 311 368
#     4  10  22  40  61  88 125 165 206 253 311 371
#     4  10  22  41  64  90 121 159 206 258 310 365
#     4  12  23  37  60  92 126 160 201 251 304 362
#     4  10  21  39  63  90 125 167 207 252 306 365
#
# _framework density 20.156191
#
# number of rings (size 3 to 8) (size 9 to 14) (size 15 to 20)
#    0.000    1.167    1.667    5.000    0.000    6.333 
#    0.000    0.000    0.000    0.000    0.000    0.000 
#    0.000    0.000    0.000    0.000    0.000    0.000 
#
# Total GULP energy -134249.329096 kJ/mol
# GULP energy per Si atom -5593.722046 kJ/mol
# Density = 2.011031 g / cm^3
# Si number density = 20.156191 Si / 1000 Ang^3
#
#
#
# Elastic Constant Matrix: (Units=GPa)
#
#
# Indices 1 2 3 4 5 6 
#
# 1 107.5505 22.6869 32.0182 -0.0007 16.5867 0.0001
# 2 22.6869 22.6890 21.5579 -0.0029 7.4673 0.0015
# 3 32.0182 21.5579 106.1631 -0.0011 19.7755 0.0008
# 4 -0.0007 -0.0029 -0.0011 23.9035 -0.0002 -5.4313
# 5 16.5867 7.4673 19.7755 -0.0002 30.2633 0.0002
# 6 0.0001 0.0015 0.0008 -5.4313 0.0002 27.5519
#
#
#
# Elastic Compliance Matrix: (Units=1/GPa)
#
#
# Indices 1 2 3 4 5 6 
#
# 1 0.012288 -0.010185 -0.000969 -0.000001 -0.003588 0.000000
# 2 -0.010185 0.064423 -0.009210 0.000007 -0.004295 -0.000002
# 3 -0.000969 -0.009210 0.012593 -0.000001 -0.005425 0.000000
# 4 -0.000001 0.000007 -0.000001 0.043797 -0.000001 0.008634
# 5 -0.003588 -0.004295 -0.005425 -0.000001 0.039615 0.000000
# 6 0.000000 -0.000002 0.000000 0.008634 0.000000 0.037997
#
#
# Mechanical properties :
#
#
# Convention : Reuss Voigt Hill
#
# Bulk Modulus (GPa) = 20.58684 43.21429 31.90057
# Shear Modulus (GPa) = 18.68223 27.01971 22.85097
#
# Velocity S-wave (km/s) = 3.04776 3.66528 3.37069
# Velocity P-wave (km/s) = 4.75615 6.27683 5.56864
#
# Compressibility (1/GPa) = 0.04857471
#
# Stress axis : x y z
#
# Youngs Moduli (GPa) = 81.37704 15.52233 79.41174
#
# Poissons Ratio (x) = 0.15810 0.07698
# Poissons Ratio (y) = 0.82885 0.73139
# Poissons Ratio (z) = 0.07889 0.14296
#
# Static dielectric constant tensor:
#      x y z
#    x 1.686790 0.000000 0.027050 
#    y 0.000000 1.674280 0.000000 
#    z 0.027050 0.000000 1.706470 
# 
# From -- ./inp_files/327180.got.cif
#   From: 2010.05.17/outbox.cif.g08.bks.cpg/sg12_164_cif.got.tgz:327180.got - 2010.06.03 13:09:07.
