data_PCOD9210995
_publ_section_title
;
Structure prediction by ZEFSAII (Michael W. Deem and Ramdas Pophale) SiO2 
 PCOD9210995
Probable space group: C 2/M
;
_chemical_formula_sum "Si O2"
_cell_formula_units_Z 44
_cell_length_a 14.544410
_cell_length_b 14.904441
_cell_length_c 9.156916
_cell_angle_alpha 90.000000
_cell_angle_beta 106.230964
_cell_angle_gamma 90.000000
_cell_volume 1905.885684
_symmetry_space_group_name_H-M "C 2/M"
_symmetry_group_IT_number 12
_symmetry_cell_setting 'monoclinic'
loop_
_space_group_symop_operation_xyz
x,y,z
-x,y,-z
-x,-y,-z
x,-y,z
1/2+x,1/2+y,z
1/2-x,1/2+y,-z
1/2-x,1/2-y,-z
1/2+x,1/2-y,z
loop_
_atom_site_type_symbol
_atom_site_label
_atom_site_fract_x
_atom_site_fract_y
_atom_site_fract_z
Si Si1 0.308260 0.500000 0.269921
Si Si2 0.763740 0.000000 0.879655
Si Si3 0.042916 0.500000 0.857225
Si Si4 0.016789 0.803778 0.180981
Si Si5 0.490813 0.500000 0.818043
Si Si6 0.279600 0.000000 0.474920
Si Si7 0.303320 0.336408 0.088561
Si Si8 0.561545 0.853806 0.383054
O O1 0.411684 0.500000 0.236654
O O2 0.302427 0.500000 0.439732
O O3 0.261630 0.405642 0.192226
O O4 0.656867 0.000000 0.899274
O O5 0.812036 0.090902 0.961023
O O6 0.754440 0.000000 0.704340
O O7 0.004105 0.415114 0.751041
O O8 0.000000 0.500000 0.000000
O O9 0.080836 0.733022 0.293847
O O10 0.053077 0.903460 0.230896
O O11 0.906568 0.802296 0.188309
O O12 0.000000 0.787239 0.000000
O O13 0.500000 0.500000 0.000000
O O14 0.348047 0.913817 0.532089
O O15 0.250000 0.250000 0.000000
O O16 0.500000 0.832203 0.500000
#
# Coordination Sequence:
#
# PCOD9210995 Si02
#       8
#     4   4   4   8   4   4   8   8
#     4   9  21  38  61  95 129 164 214 272 324 392
#     4  11  22  42  61  92 132 173 216 268 337 381
#     4  11  21  35  61  92 125 170 219 264 320 390
#     4  10  21  39  65  93 122 169 230 272 315 373
#     4   8  17  40  66  85 117 164 218 280 308 361
#     4  11  23  40  62  97 141 175 204 260 351 404
#     4  10  22  37  64  93 127 167 220 275 317 375
#     4  11  22  38  60  95 137 174 211 260 330 405
#
# _framework density 23.086379000000001
#
# number of rings (size 3 to 8) (size 9 to 14) (size 15 to 20)
#    0.000    1.818    1.818    2.727    7.636    0.000 
#    0.000    5.000    0.000    0.000    0.000    0.000 
#    0.000    0.000    0.000    0.000    0.000    0.000 
#
# Total GULP energy -122833.713871 kJ/mol
# GULP energy per Si atom -5583.350631 kJ/mol
# Density = 2.303383 g / cm^3
# Si number density = 23.086379 Si / 1000 Ang^3
#
#
#
# Elastic Constant Matrix: (Units=GPa)
#
#
# Indices 1 2 3 4 5 6 
#
# 1 73.0076 2.4718 20.3464 0.0000 -13.6710 0.0000
# 2 2.4718 171.3267 42.5283 0.0000 0.6853 0.0000
# 3 20.3464 42.5283 144.4096 0.0000 -26.7151 0.0000
# 4 0.0000 0.0000 0.0000 13.0843 0.0000 -8.0007
# 5 -13.6710 0.6853 -26.7151 0.0000 37.4014 0.0000
# 6 0.0000 0.0000 0.0000 -8.0007 0.0000 2.7970
#
#
#
# Elastic Compliance Matrix: (Units=1/GPa)
#
#
# Indices 1 2 3 4 5 6 
#
# 1 0.014900 0.000087 -0.001288 0.000000 0.004525 0.000000
# 2 0.000087 0.006388 -0.002200 0.000000 -0.001657 0.000000
# 3 -0.001288 -0.002200 0.008843 0.000000 0.005886 0.000000
# 4 0.000000 0.000000 0.000000 -0.102025 0.000000 -0.291839
# 5 0.004525 -0.001657 0.005886 0.000000 0.032626 0.000000
# 6 0.000000 0.000000 0.000000 -0.291839 0.000000 -0.477269
#
#
# Mechanical properties :
#
#
# Convention : Reuss Voigt Hill
#
# Bulk Modulus (GPa) = 42.86458 57.71521 50.28990
# Shear Modulus (GPa) = -9.96100 32.21635 11.12768
#
# Velocity S-wave (km/s) = -2.07943 3.73965 2.19784
# Velocity P-wave (km/s) = 3.58357 6.61064 5.31708
#
# Compressibility (1/GPa) = 0.02332928
#
# Stress axis : x y z
#
# Youngs Moduli (GPa) = 67.11185 156.53624 113.08411
#
# Poissons Ratio (x) = -0.01355 0.14563
# Poissons Ratio (y) = -0.00581 0.24879
# Poissons Ratio (z) = 0.08643 0.34439
#
# Static dielectric constant tensor:
#      x y z
#    x 1.939520 0.000000 -0.017030 
#    y 0.000000 1.914990 0.000000 
#    z -0.017030 0.000000 1.838310 
# 
# From -- ./inp_files/73244.got.cif
#   From: 2010.05.17/outbox.cif.g08.bks.cpg/sg12_37_cif.got.tgz:73244.got - 2010.06.03 13:09:07.
