data_PCOD9210333
_publ_section_title
;
Structure prediction by ZEFSAII (Michael W. Deem and Ramdas Pophale) SiO2 
 PCOD9210333
Probable space group: C 2/M
;
_chemical_formula_sum "Si O2"
_cell_formula_units_Z 58
_cell_length_a 22.209485
_cell_length_b 26.205922
_cell_length_c 7.553376
_cell_angle_alpha 90.000000
_cell_angle_beta 141.257488
_cell_angle_gamma 90.000000
_cell_volume 2751.246769
_symmetry_space_group_name_H-M "C 2/M"
_symmetry_group_IT_number 12
_symmetry_cell_setting 'monoclinic'
loop_
_space_group_symop_operation_xyz
x,y,z
-x,y,-z
-x,-y,-z
x,-y,z
1/2+x,1/2+y,z
1/2-x,1/2+y,-z
1/2-x,1/2-y,-z
1/2+x,1/2-y,z
loop_
_atom_site_type_symbol
_atom_site_label
_atom_site_fract_x
_atom_site_fract_y
_atom_site_fract_z
Si Si1 0.884494 0.296352 0.389700
Si Si2 0.452791 0.270372 0.083286
Si Si3 0.791613 0.114249 0.364913
Si Si4 0.850730 0.412141 0.275732
Si Si5 0.303889 0.560451 0.774954
Si Si6 0.000000 0.500000 0.500000
Si Si7 0.995154 0.115930 0.204114
Si Si8 0.764066 0.730339 0.760160
O O1 0.895798 0.356828 0.420361
O O2 0.810455 0.274530 0.364724
O O3 0.983567 0.268190 0.656486
O O4 0.830723 0.279774 0.087353
O O5 0.462147 0.327280 0.182283
O O6 0.500000 0.272354 0.000000
O O7 0.344193 0.251666 0.812854
O O8 0.785852 0.086955 0.542232
O O9 0.782958 0.175128 0.378549
O O10 0.893623 0.105456 0.498840
O O11 0.708878 0.095036 0.043835
O O12 0.775010 0.424349 0.259391
O O13 0.929927 0.455306 0.427739
O O14 0.301459 0.500000 0.745798
O O15 0.411825 0.578164 0.075237
O O16 0.000000 0.114018 0.000000
#
# Coordination Sequence:
#
# PCOD9210333 Si02
#       8
#     8   8   8   8   8   2   8   8
#     4  10  22  40  64  92 126 170 222 269 338 408
#     4  11  22  35  60  96 132 175 212 269 343 408
#     4  10  23  43  70  98 135 181 225 277 353 406
#     4  11  26  47  68  98 129 183 226 288 343 392
#     4  11  24  45  70 100 133 176 237 285 335 412
#     4  12  28  52  70  90 152 170 232 308 332 386
#     4   9  20  41  63  98 141 172 216 283 344 403
#     4  10  21  39  61  94 132 171 219 277 330 414
#
# _framework density 21.081351000000002
#
# number of rings (size 3 to 8) (size 9 to 14) (size 15 to 20)
#    0.000    1.655    2.069    1.241    6.759    3.586 
#    2.483    2.069    0.000    0.000    0.000    0.000 
#    0.000    0.000    0.000    0.000    0.000    0.000 
#
# Total GULP energy -161827.689420 kJ/mol
# GULP energy per Si atom -5580.265152 kJ/mol
# Density = 2.103337 g / cm^3
# Si number density = 21.081351 Si / 1000 Ang^3
#
#
#
# Elastic Constant Matrix: (Units=GPa)
#
#
# Indices 1 2 3 4 5 6 
#
# 1 114.2209 29.7859 21.5673 0.0000 17.2844 0.0000
# 2 29.7859 115.7687 24.5689 0.0000 0.7706 0.0000
# 3 21.5673 24.5689 44.5265 0.0000 7.8270 0.0000
# 4 0.0000 0.0000 0.0000 31.2210 0.0000 40.7327
# 5 17.2844 0.7706 7.8270 0.0000 35.5334 0.0000
# 6 0.0000 0.0000 0.0000 40.7327 0.0000 75.1503
#
#
#
# Elastic Compliance Matrix: (Units=1/GPa)
#
#
# Indices 1 2 3 4 5 6 
#
# 1 0.010549 -0.001998 -0.003238 0.000000 -0.004375 0.000000
# 2 -0.001998 0.010197 -0.004984 0.000000 0.001848 0.000000
# 3 -0.003238 -0.004984 0.027548 0.000000 -0.004385 0.000000
# 4 0.000000 0.000000 0.000000 0.109372 0.000000 -0.059281
# 5 -0.004375 0.001848 -0.004385 0.000000 0.031196 0.000000
# 6 0.000000 0.000000 0.000000 -0.059281 0.000000 0.045438
#
#
# Mechanical properties :
#
#
# Convention : Reuss Voigt Hill
#
# Bulk Modulus (GPa) = 35.90111 47.37338 41.63724
# Shear Modulus (GPa) = 18.93750 41.62054 30.27902
#
# Velocity S-wave (km/s) = 3.00043 4.44811 3.79396
# Velocity P-wave (km/s) = 5.39168 6.99295 6.24386
#
# Compressibility (1/GPa) = 0.02785429
#
# Stress axis : x y z
#
# Youngs Moduli (GPa) = 94.79157 98.06465 36.30034
#
# Poissons Ratio (x) = 0.19592 0.11756
# Poissons Ratio (y) = 0.18938 0.18092
# Poissons Ratio (z) = 0.30698 0.48875
#
# Static dielectric constant tensor:
#      x y z
#    x 1.842030 0.000000 -0.006590 
#    y 0.000000 1.712880 0.000000 
#    z -0.006590 0.000000 1.808190 
# 
# From -- ./inp_files/100085.got.cif
#   From: 2010.05.17/outbox.cif.g08.bks.cpg/sg12_51_cif.got.tgz:100085.got - 2010.06.03 13:09:07.
