data_PCOD9210283
_publ_section_title
;
Structure prediction by ZEFSAII (Michael W. Deem and Ramdas Pophale) SiO2 
 PCOD9210283
Probable space group: C 2/M
;
_chemical_formula_sum "Si O2"
_cell_formula_units_Z 48
_cell_length_a 27.450405
_cell_length_b 8.842202
_cell_length_c 22.339501
_cell_angle_alpha 90.000000
_cell_angle_beta 26.392070
_cell_angle_gamma 90.000000
_cell_volume 2410.268188
_symmetry_space_group_name_H-M "C 2/M"
_symmetry_group_IT_number 12
_symmetry_cell_setting 'monoclinic'
loop_
_space_group_symop_operation_xyz
x,y,z
-x,y,-z
-x,-y,-z
x,-y,z
1/2+x,1/2+y,z
1/2-x,1/2+y,-z
1/2-x,1/2-y,-z
1/2+x,1/2-y,z
loop_
_atom_site_type_symbol
_atom_site_label
_atom_site_fract_x
_atom_site_fract_y
_atom_site_fract_z
Si Si1 0.628904 0.680184 0.629901
Si Si2 0.327873 0.180024 0.099603
Si Si3 0.558508 0.679323 0.842926
Si Si4 0.776920 0.682163 0.674078
Si Si5 0.479735 0.181876 0.367530
Si Si6 0.716125 0.681367 0.100952
O O1 0.634809 0.500000 0.612345
O O2 0.750000 0.750000 0.500000
O O3 0.574422 0.703312 0.754579
O O4 0.563441 0.761393 0.649190
O O5 0.240206 0.248891 0.241919
O O6 0.298505 0.224305 0.063874
O O7 0.325302 0.000000 0.106376
O O8 0.448024 0.239554 0.984357
O O9 0.545816 0.500000 0.867776
O O10 0.670213 0.728669 0.752604
O O11 0.775813 0.500000 0.679048
O O12 0.887488 0.725509 0.517757
O O13 0.596638 0.257001 0.249759
O O14 0.489320 0.000000 0.356502
O O15 0.713940 0.500000 0.098473
O O16 0.750000 0.750000 0.000000
#
# Coordination Sequence:
#
# PCOD9210283 Si02
#       6
#     8   8   8   8   8   8
#     4  11  21  36  60  91 126 162 202 250 306 362
#     4  11  25  41  60  90 123 158 205 258 307 361
#     4  10  21  39  61  88 124 164 205 249 301 365
#     4  10  22  41  62  88 124 164 204 249 305 371
#     4  11  23  41  64  93 126 161 208 256 305 367
#     4  11  25  45  66  91 123 160 204 256 311 367
#
# _framework density 19.914795999999999
#
# number of rings (size 3 to 8) (size 9 to 14) (size 15 to 20)
#    0.000    1.333    1.667    3.500    0.000   11.333 
#    0.000    3.333    0.000    0.000    0.000    0.000 
#    0.000    0.000    0.000    0.000    0.000    0.000 
#
# Total GULP energy -134231.846860 kJ/mol
# GULP energy per Si atom -5592.993619 kJ/mol
# Density = 1.986947 g / cm^3
# Si number density = 19.914796 Si / 1000 Ang^3
#
#
#
# Elastic Constant Matrix: (Units=GPa)
#
#
# Indices 1 2 3 4 5 6 
#
# 1 73.0951 26.2786 47.4985 0.0031 5.2712 -0.0014
# 2 26.2786 34.3729 40.5516 0.0075 8.3991 -0.0044
# 3 47.4985 40.5516 125.8243 0.0046 2.2321 -0.0037
# 4 0.0031 0.0075 0.0046 34.9885 -0.0024 -0.1564
# 5 5.2712 8.3991 2.2321 -0.0024 37.3592 0.0015
# 6 -0.0014 -0.0044 -0.0037 -0.1564 0.0015 32.1704
#
#
#
# Elastic Compliance Matrix: (Units=1/GPa)
#
#
# Indices 1 2 3 4 5 6 
#
# 1 0.020198 -0.010301 -0.004300 0.000001 -0.000277 -0.000001
# 2 -0.010301 0.055955 -0.013962 -0.000010 -0.010292 0.000006
# 3 -0.004300 -0.013962 0.014019 0.000002 0.002908 -0.000001
# 4 0.000001 -0.000010 0.000002 0.028581 0.000004 0.000139
# 5 -0.000277 -0.010292 0.002908 0.000004 0.028946 -0.000002
# 6 -0.000001 0.000006 -0.000001 0.000139 -0.000002 0.031085
#
#
# Mechanical properties :
#
#
# Convention : Reuss Voigt Hill
#
# Bulk Modulus (GPa) = 30.26136 51.32775 40.79455
# Shear Modulus (GPa) = 20.24879 28.83454 24.54166
#
# Velocity S-wave (km/s) = 3.19214 3.80925 3.51427
# Velocity P-wave (km/s) = 5.36794 6.72137 6.08242
#
# Compressibility (1/GPa) = 0.03304544
#
# Stress axis : x y z
#
# Youngs Moduli (GPa) = 49.50876 17.87141 71.33115
#
# Poissons Ratio (x) = 0.18410 0.30672
# Poissons Ratio (y) = 0.51001 0.99595
# Poissons Ratio (z) = 0.21289 0.24953
#
# Static dielectric constant tensor:
#      x y z
#    x 1.716560 0.000000 0.001740 
#    y 0.000000 1.666340 0.000000 
#    z 0.001740 0.000000 1.684810 
# 
# From -- ./inp_files/327148.got.cif
#   From: 2010.05.17/outbox.cif.g08.bks.cpg/sg12_164_cif.got.tgz:327148.got - 2010.06.03 13:09:07.
