data_PCOD9210840
_publ_section_title
;
Structure prediction by ZEFSAII (Michael W. Deem and Ramdas Pophale) SiO2 
 PCOD9210840
Probable space group: C 2/M
;
_chemical_formula_sum "Si O2"
_cell_formula_units_Z 64
_cell_length_a 18.638488
_cell_length_b 14.280068
_cell_length_c 25.159017
_cell_angle_alpha 90.000000
_cell_angle_beta 151.558848
_cell_angle_gamma 90.000000
_cell_volume 3189.150217
_symmetry_space_group_name_H-M "C 2/M"
_symmetry_group_IT_number 12
_symmetry_cell_setting 'monoclinic'
loop_
_space_group_symop_operation_xyz
x,y,z
-x,y,-z
-x,-y,-z
x,-y,z
1/2+x,1/2+y,z
1/2-x,1/2+y,-z
1/2-x,1/2-y,-z
1/2+x,1/2-y,z
loop_
_atom_site_type_symbol
_atom_site_label
_atom_site_fract_x
_atom_site_fract_y
_atom_site_fract_z
Si Si1 0.939585 0.608879 0.306929
Si Si2 0.425416 0.387551 0.758469
Si Si3 0.731047 0.889050 0.008340
Si Si4 0.231071 0.781058 0.250552
Si Si5 0.989762 0.388339 0.767064
Si Si6 0.469024 0.893456 0.917677
Si Si7 0.791610 0.703556 0.470965
Si Si8 0.149894 0.163208 0.579430
O O1 0.895241 0.500000 0.275539
O O2 0.814275 0.669060 0.255936
O O3 0.982739 0.643500 0.275605
O O4 0.091193 0.621481 0.440035
O O5 0.410463 0.500000 0.742754
O O6 0.599773 0.357789 0.872234
O O7 0.364794 0.354414 0.776628
O O8 0.337369 0.335863 0.652726
O O9 0.746437 0.000000 0.007857
O O10 0.625520 0.851512 0.892206
O O11 0.627861 0.877836 0.992456
O O12 0.139137 0.690720 0.170070
O O13 0.338415 0.739831 0.366361
O O14 0.002651 0.500000 0.773335
O O15 0.822915 0.373025 0.683834
O O16 0.416122 0.000000 0.868245
O O17 0.500000 0.891992 0.000000
O O18 0.750000 0.750000 0.500000
O O19 0.872715 0.786424 0.491495
O O20 0.000000 0.106835 0.500000
#
# Coordination Sequence:
#
# PCOD9210840 Si02
#       8
#     8   8   8   8   8   8   8   8
#     4  11  23  40  65  95 132 176 219 273 342 401
#     4  10  23  41  64  96 132 174 224 275 332 396
#     4   9  19  40  64  87 124 170 218 269 328 397
#     4  11  23  39  63  95 127 172 218 276 325 396
#     4  10  21  39  64  91 124 170 216 269 334 398
#     4  10  22  41  63  91 129 171 219 274 336 398
#     4  11  22  39  61  91 129 171 219 274 325 392
#     4  11  21  38  60  90 124 166 215 267 327 387
#
# _framework density 20.06804
#
# number of rings (size 3 to 8) (size 9 to 14) (size 15 to 20)
#    0.000    1.625    3.750    0.750    0.000    2.750 
#    0.000    1.875    0.000    4.500    0.000    0.000 
#    0.000    0.000    0.000    0.000    0.000    0.000 
#
# Total GULP energy -178267.992877 kJ/mol
# GULP energy per Si atom -5570.874777 kJ/mol
# Density = 2.002236 g / cm^3
# Si number density = 20.068040 Si / 1000 Ang^3
#
#
#
# Elastic Constant Matrix: (Units=GPa)
#
#
# Indices 1 2 3 4 5 6 
#
# 1 165.0171 63.5899 92.4281 0.0005 1.5041 0.0001
# 2 63.5899 100.4009 30.1217 0.0004 11.0656 0.0000
# 3 92.4281 30.1217 119.2069 0.0027 11.2293 0.0003
# 4 0.0005 0.0004 0.0027 19.4021 0.0009 -12.3203
# 5 1.5041 11.0656 11.2293 0.0009 31.0693 0.0003
# 6 0.0001 0.0000 0.0003 -12.3203 0.0003 16.1985
#
#
#
# Elastic Compliance Matrix: (Units=1/GPa)
#
#
# Indices 1 2 3 4 5 6 
#
# 1 0.013900 -0.006480 -0.009621 0.000002 0.005113 0.000001
# 2 -0.006480 0.014067 0.001980 0.000000 -0.005412 0.000000
# 3 -0.009621 0.001980 0.015913 -0.000003 -0.005991 -0.000003
# 4 0.000002 0.000000 -0.000003 0.099687 -0.000002 0.075821
# 5 0.005113 -0.005412 -0.005991 -0.000002 0.036031 -0.000002
# 6 0.000001 0.000000 -0.000003 0.075821 -0.000002 0.119402
#
#
# Mechanical properties :
#
#
# Convention : Reuss Voigt Hill
#
# Bulk Modulus (GPa) = 63.95575 84.10050 74.02812
# Shear Modulus (GPa) = 15.03961 26.56630 20.80295
#
# Velocity S-wave (km/s) = 2.74054 3.64237 3.22315
# Velocity P-wave (km/s) = 6.47709 7.72579 7.12883
#
# Compressibility (1/GPa) = 0.01563581
#
# Stress axis : x y z
#
# Youngs Moduli (GPa) = 71.94425 71.08858 62.84260
#
# Poissons Ratio (x) = 0.46068 0.60463
# Poissons Ratio (y) = 0.46623 -0.12443
# Poissons Ratio (z) = 0.69220 -0.14075
#
# Static dielectric constant tensor:
#      x y z
#    x 1.720970 0.000000 0.025620 
#    y 0.000000 1.741490 0.000000 
#    z 0.025620 0.000000 1.751900 
# 
# From -- ./inp_files/344088.got.cif
#   From: 2010.05.17/outbox.cif.g08.bks.cpg/sg12_173_cif.got.tgz:344088.got - 2010.06.03 13:09:07.
