data_PCOD9210666
_publ_section_title
;
Structure prediction by ZEFSAII (Michael W. Deem and Ramdas Pophale) SiO2 
 PCOD9210666
Probable space group: C 2/M
;
_chemical_formula_sum "Si O2"
_cell_formula_units_Z 56
_cell_length_a 20.391317
_cell_length_b 8.890553
_cell_length_c 25.862726
_cell_angle_alpha 90.000000
_cell_angle_beta 140.026606
_cell_angle_gamma 90.000000
_cell_volume 3012.141660
_symmetry_space_group_name_H-M "C 2/M"
_symmetry_group_IT_number 12
_symmetry_cell_setting 'monoclinic'
loop_
_space_group_symop_operation_xyz
x,y,z
-x,y,-z
-x,-y,-z
x,-y,z
1/2+x,1/2+y,z
1/2-x,1/2+y,-z
1/2-x,1/2-y,-z
1/2+x,1/2-y,z
loop_
_atom_site_type_symbol
_atom_site_label
_atom_site_fract_x
_atom_site_fract_y
_atom_site_fract_z
Si Si1 0.064665 0.680847 0.988154
Si Si2 0.229886 0.678761 0.734314
Si Si3 0.772454 0.679159 0.145559
Si Si4 0.638084 0.319291 0.435177
Si Si5 0.427761 0.179961 0.805750
Si Si6 0.990844 0.180641 0.250897
Si Si7 0.018268 0.819644 0.571132
O O1 0.076918 0.500000 0.997677
O O2 0.174981 0.756902 0.056605
O O3 0.001722 0.718623 0.898620
O O4 0.000000 0.726349 0.000000
O O5 0.238504 0.500000 0.731982
O O6 0.245184 0.711884 0.804308
O O7 0.315796 0.762730 0.753352
O O8 0.118480 0.735821 0.651335
O O9 0.779947 0.500000 0.143503
O O10 0.878365 0.754481 0.193043
O O11 0.647446 0.500000 0.439873
O O12 0.750000 0.250000 0.500000
O O13 0.566495 0.274674 0.343543
O O14 0.577629 0.277325 0.450923
O O15 0.466261 0.256391 0.776804
O O16 0.427469 0.000000 0.799665
O O17 0.986204 0.000000 0.246944
O O18 0.000000 0.787312 0.500000
O O19 0.033596 0.000000 0.586161
#
# Coordination Sequence:
#
# PCOD9210666 Si02
#       7
#     8   8   8   8   8   8   8
#     4  10  21  39  63  91 122 160 205 253 308 363
#     4  11  23  39  62  93 126 162 204 252 305 361
#     4  11  23  39  64  93 123 163 206 251 304 363
#     4  10  23  41  62  89 123 162 201 247 304 362
#     4  11  24  41  64  92 124 162 206 254 305 364
#     4  11  24  43  64  89 125 165 206 251 303 365
#     4  10  22  41  64  92 122 159 206 252 303 361
#
# _framework density 18.591424
#
# number of rings (size 3 to 8) (size 9 to 14) (size 15 to 20)
#    0.000    1.429    2.857    1.714    2.000    5.143 
#    0.000    0.000    0.000    0.000    0.000    0.000 
#    0.000    0.000    0.000    0.000    0.000    0.000 
#
# Total GULP energy -156536.152184 kJ/mol
# GULP energy per Si atom -5590.576864 kJ/mol
# Density = 1.854911 g / cm^3
# Si number density = 18.591424 Si / 1000 Ang^3
#
#
#
# Elastic Constant Matrix: (Units=GPa)
#
#
# Indices 1 2 3 4 5 6 
#
# 1 164.1221 49.4837 73.1829 0.0000 11.4310 0.0000
# 2 49.4837 26.8030 34.2681 0.0000 3.7545 0.0001
# 3 73.1829 34.2681 113.3697 0.0000 21.3264 0.0000
# 4 0.0000 0.0000 0.0000 34.6124 0.0000 5.2582
# 5 11.4310 3.7545 21.3264 0.0000 37.7717 0.0000
# 6 0.0000 0.0001 0.0000 5.2582 0.0000 34.3276
#
#
#
# Elastic Compliance Matrix: (Units=1/GPa)
#
#
# Indices 1 2 3 4 5 6 
#
# 1 0.014042 -0.023513 -0.001787 0.000000 -0.000903 0.000000
# 2 -0.023513 0.100985 -0.016555 0.000000 0.006425 0.000000
# 3 -0.001787 -0.016555 0.016298 0.000000 -0.007016 0.000000
# 4 0.000000 0.000000 0.000000 0.029580 0.000000 -0.004531
# 5 -0.000903 0.006425 -0.007016 0.000000 0.030071 0.000000
# 6 0.000000 0.000000 0.000000 -0.004531 0.000000 0.029825
#
#
# Mechanical properties :
#
#
# Convention : Reuss Voigt Hill
#
# Bulk Modulus (GPa) = 21.00198 68.68492 44.84345
# Shear Modulus (GPa) = 15.60630 31.16634 23.38632
#
# Velocity S-wave (km/s) = 2.90044 4.09881 3.55055
# Velocity P-wave (km/s) = 4.74741 7.70876 6.40167
#
# Compressibility (1/GPa) = 0.04761457
#
# Stress axis : x y z
#
# Youngs Moduli (GPa) = 71.21354 9.90247 61.35585
#
# Poissons Ratio (x) = 0.23284 0.10967
# Poissons Ratio (y) = 1.67445 1.01575
# Poissons Ratio (z) = 0.12729 0.16394
#
# Static dielectric constant tensor:
#      x y z
#    x 1.619240 0.000000 -0.015310 
#    y 0.000000 1.622980 0.000000 
#    z -0.015310 0.000000 1.611480 
# 
# From -- ./inp_files/363181.got.cif
#   From: 2010.05.17/outbox.cif.g08.bks.cpg/sg12_182_cif.got.tgz:363181.got - 2010.06.03 13:09:07.
