data_PCOD9210693
_publ_section_title
;
Structure prediction by ZEFSAII (Michael W. Deem and Ramdas Pophale) SiO2 
 PCOD9210693
Probable space group: C 2/M
;
_chemical_formula_sum "Si O2"
_cell_formula_units_Z 40
_cell_length_a 17.319945
_cell_length_b 11.768813
_cell_length_c 18.033907
_cell_angle_alpha 90.000000
_cell_angle_beta 148.948298
_cell_angle_gamma 90.000000
_cell_volume 1896.094107
_symmetry_space_group_name_H-M "C 2/M"
_symmetry_group_IT_number 12
_symmetry_cell_setting 'monoclinic'
loop_
_space_group_symop_operation_xyz
x,y,z
-x,y,-z
-x,-y,-z
x,-y,z
1/2+x,1/2+y,z
1/2-x,1/2+y,-z
1/2-x,1/2-y,-z
1/2+x,1/2-y,z
loop_
_atom_site_type_symbol
_atom_site_label
_atom_site_fract_x
_atom_site_fract_y
_atom_site_fract_z
Si Si1 0.057727 0.206570 0.628115
Si Si2 0.667972 0.374262 0.439133
Si Si3 0.983340 0.785023 0.157877
Si Si4 0.673479 0.132492 0.848733
Si Si5 0.368666 0.124781 0.831164
O O1 0.102544 0.310098 0.718142
O O2 0.209810 0.137134 0.740103
O O3 0.000000 0.241185 0.500000
O O4 0.932456 0.136597 0.569613
O O5 0.744703 0.500000 0.502789
O O6 0.750000 0.250000 0.500000
O O7 0.559866 0.370184 0.278412
O O8 0.905344 0.689483 0.145071
O O9 0.103784 0.723736 0.205125
O O10 0.849801 0.839317 0.000540
O O11 0.650462 0.000000 0.829989
O O12 0.379245 0.000000 0.804374
O O13 0.500000 0.132809 0.000000
#
# Coordination Sequence:
#
# PCOD9210693 Si02
#       5
#     8   8   8   8   8
#     4  11  24  42  64  96 134 168 217 272 332 390
#     4  11  25  44  70  98 132 175 223 275 334 397
#     4  10  21  40  64  93 126 166 221 271 327 388
#     4  10  21  39  63  91 127 172 218 268 326 390
#     4  11  22  39  65  96 131 170 219 274 328 388
#
# _framework density 21.096
#
# number of rings (size 3 to 8) (size 9 to 14) (size 15 to 20)
#    0.000    1.400    2.000    3.000    0.000    7.600 
#    0.000    5.000    0.000    0.000    0.000    0.000 
#    0.000    0.000    0.000    0.000    0.000    0.000 
#
# Total GULP energy -111744.860013 kJ/mol
# GULP energy per Si atom -5587.243001 kJ/mol
# Density = 2.104798 g / cm^3
# Si number density = 21.096000 Si / 1000 Ang^3
#
#
#
# Elastic Constant Matrix: (Units=GPa)
#
#
# Indices 1 2 3 4 5 6 
#
# 1 92.5900 26.9158 16.1731 0.0000 6.6795 0.0000
# 2 26.9158 153.6976 36.1927 -0.0001 -5.4284 0.0000
# 3 16.1731 36.1927 91.4746 -0.0001 -8.6673 -0.0001
# 4 0.0000 -0.0001 -0.0001 0.2360 -0.0001 9.8268
# 5 6.6795 -5.4284 -8.6673 -0.0001 39.9101 0.0000
# 6 0.0000 0.0000 -0.0001 9.8268 0.0000 3.8963
#
#
#
# Elastic Compliance Matrix: (Units=1/GPa)
#
#
# Indices 1 2 3 4 5 6 
#
# 1 0.011784 -0.001772 -0.001626 0.000000 -0.002566 0.000000
# 2 -0.001772 0.007446 -0.002562 0.000000 0.000753 0.000000
# 3 -0.001626 -0.002562 0.012483 0.000000 0.002635 0.000000
# 4 0.000000 0.000000 0.000000 -0.040736 0.000000 0.102740
# 5 -0.002566 0.000753 0.002635 0.000000 0.026160 0.000000
# 6 0.000000 0.000000 0.000000 0.102740 0.000000 -0.002467
#
#
# Mechanical properties :
#
#
# Convention : Reuss Voigt Hill
#
# Bulk Modulus (GPa) = 50.51661 55.14724 52.83193
# Shear Modulus (GPa) = 150.66437 26.04053 88.35245
#
# Velocity S-wave (km/s) = 8.46011 3.51719 6.47858
# Velocity P-wave (km/s) = 10.92837 6.53391 9.00337
#
# Compressibility (1/GPa) = 0.01979547
#
# Stress axis : x y z
#
# Youngs Moduli (GPa) = 84.85803 134.29451 80.11153
#
# Poissons Ratio (x) = 0.23790 0.13024
# Poissons Ratio (y) = 0.15033 0.20522
# Poissons Ratio (z) = 0.13796 0.34401
#
# Static dielectric constant tensor:
#      x y z
#    x 1.741150 0.000000 0.023560 
#    y 0.000000 1.752260 0.000000 
#    z 0.023560 0.000000 1.802430 
# 
# From -- ./inp_files/71205.got.cif
#   From: 2010.05.17/outbox.cif.g08.bks.cpg/sg12_36_cif.got.tgz:71205.got - 2010.06.03 13:09:07.
