data_PCOD9210057
_publ_section_title
;
Structure prediction by ZEFSAII (Michael W. Deem and Ramdas Pophale) SiO2 
 PCOD9210057
Probable space group: C 2/M
;
_chemical_formula_sum "Si O2"
_cell_formula_units_Z 48
_cell_length_a 19.673501
_cell_length_b 17.247745
_cell_length_c 14.746198
_cell_angle_alpha 90.000000
_cell_angle_beta 148.798679
_cell_angle_gamma 90.000000
_cell_volume 2592.166970
_symmetry_space_group_name_H-M "C 2/M"
_symmetry_group_IT_number 12
_symmetry_cell_setting 'monoclinic'
loop_
_space_group_symop_operation_xyz
x,y,z
-x,y,-z
-x,-y,-z
x,-y,z
1/2+x,1/2+y,z
1/2-x,1/2+y,-z
1/2-x,1/2-y,-z
1/2+x,1/2-y,z
loop_
_atom_site_type_symbol
_atom_site_label
_atom_site_fract_x
_atom_site_fract_y
_atom_site_fract_z
Si Si1 0.104073 0.187239 0.542920
Si Si2 0.121386 0.374014 0.574925
Si Si3 0.148878 0.636766 0.405387
Si Si4 0.403677 0.587672 0.975876
Si Si5 0.141809 0.411833 0.195597
Si Si6 0.443500 0.692400 0.717632
O O1 0.126028 0.279787 0.575701
O O2 0.242038 0.143205 0.705717
O O3 0.048749 0.170910 0.379325
O O4 0.000000 0.163634 0.500000
O O5 0.107742 0.399319 0.454321
O O6 0.000000 0.396314 0.500000
O O7 0.256366 0.402711 0.772231
O O8 0.142591 0.588938 0.306016
O O9 0.301054 0.663141 0.590292
O O10 0.064789 0.714561 0.289611
O O11 0.422825 0.500000 0.033634
O O12 0.445615 0.651609 0.096934
O O13 0.500000 0.596962 0.000000
O O14 0.161459 0.500000 0.185968
O O15 0.000000 0.384490 0.000000
#
# Coordination Sequence:
#
# PCOD9210057 Si02
#       6
#     8   8   8   8   8   8
#     4   9  20  39  60  84 112 150 190 235 284 334
#     4  10  21  39  59  87 118 150 191 229 288 349
#     4   9  18  35  58  82 111 149 186 233 280 329
#     4  11  23  36  57  87 116 149 192 240 284 340
#     4  10  22  36  55  84 111 147 193 234 284 337
#     4   9  18  34  58  86 109 143 194 230 278 334
#
# _framework density 18.517326000000001
#
# number of rings (size 3 to 8) (size 9 to 14) (size 15 to 20)
#    0.000    2.333    1.667    1.000    2.333    4.000 
#    3.000    2.500    0.000    0.000    0.000    0.000 
#    0.000    0.000    0.000    0.000    0.000    0.000 
#
# Total GULP energy -133918.090629 kJ/mol
# GULP energy per Si atom -5579.920443 kJ/mol
# Density = 1.847518 g / cm^3
# Si number density = 18.517326 Si / 1000 Ang^3
#
#
#
# Elastic Constant Matrix: (Units=GPa)
#
#
# Indices 1 2 3 4 5 6 
#
# 1 115.3395 21.6922 28.8288 0.0000 19.5747 0.0000
# 2 21.6922 45.5848 30.5056 0.0000 0.5895 0.0000
# 3 28.8288 30.5056 89.9232 0.0000 9.4657 0.0000
# 4 0.0000 0.0000 0.0000 44.4759 0.0000 -17.4489
# 5 19.5747 0.5895 9.4657 0.0000 22.4948 0.0000
# 6 0.0000 0.0000 0.0000 -17.4489 0.0000 13.7684
#
#
#
# Elastic Compliance Matrix: (Units=1/GPa)
#
#
# Indices 1 2 3 4 5 6 
#
# 1 0.011388 -0.004543 -0.001129 0.000000 -0.009315 0.000000
# 2 -0.004543 0.030452 -0.009633 0.000000 0.007209 0.000000
# 3 -0.001129 -0.009633 0.015298 0.000000 -0.005202 0.000000
# 4 0.000000 0.000000 0.000000 0.044718 0.000000 0.056671
# 5 -0.009315 0.007209 -0.005202 0.000000 0.054561 0.000000
# 6 0.000000 0.000000 0.000000 0.056671 0.000000 0.144451
#
#
# Mechanical properties :
#
#
# Convention : Reuss Voigt Hill
#
# Bulk Modulus (GPa) = 37.69620 45.87786 41.78703
# Shear Modulus (GPa) = 14.69209 27.46921 21.08065
#
# Velocity S-wave (km/s) = 2.81983 3.85571 3.37772
# Velocity P-wave (km/s) = 5.56807 6.68218 6.15040
#
# Compressibility (1/GPa) = 0.02652787
#
# Stress axis : x y z
#
# Youngs Moduli (GPa) = 87.81503 32.83842 65.36749
#
# Poissons Ratio (x) = 0.14918 0.07381
# Poissons Ratio (y) = 0.39893 0.62969
# Poissons Ratio (z) = 0.09915 0.31633
#
# Static dielectric constant tensor:
#      x y z
#    x 1.637970 0.000000 -0.007390 
#    y 0.000000 1.654210 0.000000 
#    z -0.007390 0.000000 1.603690 
# 
# From -- ./inp_files/77264.got.cif
#   From: 2010.05.17/outbox.cif.g08.bks.cpg/sg12_39_cif.got.tgz:77264.got - 2010.06.03 13:09:07.
