data_PCOD9210089
_publ_section_title
;
Structure prediction by ZEFSAII (Michael W. Deem and Ramdas Pophale) SiO2 
 PCOD9210089
Probable space group: C 2/M
;
_chemical_formula_sum "Si O2"
_cell_formula_units_Z 64
_cell_length_a 29.088119
_cell_length_b 8.757090
_cell_length_c 24.832865
_cell_angle_alpha 90.000000
_cell_angle_beta 32.401549
_cell_angle_gamma 90.000000
_cell_volume 3389.574682
_symmetry_space_group_name_H-M "C 2/M"
_symmetry_group_IT_number 12
_symmetry_cell_setting 'monoclinic'
loop_
_space_group_symop_operation_xyz
x,y,z
-x,y,-z
-x,-y,-z
x,-y,z
1/2+x,1/2+y,z
1/2-x,1/2+y,-z
1/2-x,1/2-y,-z
1/2+x,1/2-y,z
loop_
_atom_site_type_symbol
_atom_site_label
_atom_site_fract_x
_atom_site_fract_y
_atom_site_fract_z
Si Si1 0.727586 0.319131 0.265323
Si Si2 0.990956 0.685713 0.675743
Si Si3 0.349416 0.815540 0.551861
Si Si4 0.092676 0.179810 0.928403
Si Si5 0.535201 0.818021 0.752518
Si Si6 0.306237 0.185007 0.818715
Si Si7 0.784120 0.182640 0.409918
Si Si8 0.880388 0.179356 0.970186
O O1 0.721526 0.500000 0.267732
O O2 0.672996 0.256651 0.369013
O O3 0.826657 0.268943 0.175234
O O4 0.698919 0.245780 0.237033
O O5 0.990064 0.500000 0.677225
O O6 0.894214 0.735939 0.759381
O O7 0.058565 0.731653 0.563195
O O8 0.024594 0.733359 0.700967
O O9 0.278159 0.772695 0.577588
O O10 0.348317 0.000000 0.557985
O O11 0.101986 0.000000 0.905187
O O12 0.097772 0.191993 0.987971
O O13 0.000000 0.232607 0.000000
O O14 0.619045 0.739369 0.694266
O O15 0.448785 0.773385 0.868864
O O16 0.547602 0.000000 0.740983
O O17 0.304760 0.000000 0.817711
O O18 0.218776 0.230785 0.935844
O O19 0.750000 0.250000 0.500000
O O20 0.782068 0.000000 0.415728
O O21 0.886505 0.000000 0.949471
#
# Coordination Sequence:
#
# PCOD9210089 Si02
#       8
#     8   8   8   8   8   8   8   8
#     4  11  23  37  55  85 120 146 183 238 294 338
#     4   9  19  38  62  85 108 148 200 239 273 336
#     4  10  21  39  60  82 113 154 197 231 275 343
#     4   9  19  37  59  80 108 150 195 233 277 342
#     4  11  22  37  57  86 120 153 191 235 285 338
#     4   9  19  40  65  82 108 151 197 237 280 340
#     4  11  22  38  60  84 116 154 191 236 283 337
#     4   9  19  35  55  84 114 147 190 235 283 338
#
# _framework density 18.881425
#
# number of rings (size 3 to 8) (size 9 to 14) (size 15 to 20)
#    0.000    2.125    1.250    2.625    1.750    4.250 
#    0.000    4.375    0.000    0.000    0.000    0.000 
#    0.000    0.000    0.000    0.000    0.000    0.000 
#
# Total GULP energy -178685.262858 kJ/mol
# GULP energy per Si atom -5583.914464 kJ/mol
# Density = 1.883845 g / cm^3
# Si number density = 18.881425 Si / 1000 Ang^3
#
#
#
# Elastic Constant Matrix: (Units=GPa)
#
#
# Indices 1 2 3 4 5 6 
#
# 1 26.5743 1.4855 6.1634 0.0003 -26.5372 -0.0002
# 2 1.4855 23.2465 12.6441 0.0141 -0.6666 -0.0080
# 3 6.1634 12.6441 94.3794 0.0060 -12.1743 -0.0038
# 4 0.0003 0.0141 0.0060 30.0744 -0.0030 2.0474
# 5 -26.5372 -0.6666 -12.1743 -0.0030 34.0371 0.0012
# 6 -0.0002 -0.0080 -0.0038 2.0474 0.0012 16.0269
#
#
#
# Elastic Compliance Matrix: (Units=1/GPa)
#
#
# Indices 1 2 3 4 5 6 
#
# 1 0.176458 -0.011678 0.008133 0.000017 0.140257 -0.000014
# 2 -0.011678 0.047233 -0.006941 -0.000023 -0.010662 0.000026
# 3 0.008133 -0.006941 0.012365 0.000002 0.010628 -0.000001
# 4 0.000017 -0.000023 0.000002 0.033543 0.000017 -0.004285
# 5 0.140257 -0.010662 0.010628 0.000017 0.142324 -0.000013
# 6 -0.000014 0.000026 -0.000001 -0.004285 -0.000013 0.062942
#
#
# Mechanical properties :
#
#
# Convention : Reuss Voigt Hill
#
# Bulk Modulus (GPa) = 4.64930 20.53181 12.59055
# Shear Modulus (GPa) = 8.81010 24.28818 16.54914
#
# Velocity S-wave (km/s) = 2.16244 3.59047 2.96375
# Velocity P-wave (km/s) = 2.95001 5.29965 4.28887
#
# Compressibility (1/GPa) = 0.21508605
#
# Stress axis : x y z
#
# Youngs Moduli (GPa) = 5.66707 21.17169 80.87243
#
# Poissons Ratio (x) = 0.24723 -0.65774
# Poissons Ratio (y) = 0.06618 0.56130
# Poissons Ratio (z) = -0.04609 0.14694
#
# Static dielectric constant tensor:
#      x y z
#    x 1.642510 0.000000 -0.019230 
#    y 0.000000 1.637780 0.000000 
#    z -0.019230 0.000000 1.648640 
# 
# From -- ./inp_files/353267.got.cif
#   From: 2010.05.17/outbox.cif.g08.bks.cpg/sg12_177_cif.got.tgz:353267.got - 2010.06.03 13:09:07.
