data_PCOD9210454
_publ_section_title
;
Structure prediction by ZEFSAII (Michael W. Deem and Ramdas Pophale) SiO2 
 PCOD9210454
Probable space group: C 2/M
;
_chemical_formula_sum "Si O2"
_cell_formula_units_Z 64
_cell_length_a 28.409168
_cell_length_b 12.160277
_cell_length_c 16.950982
_cell_angle_alpha 90.000000
_cell_angle_beta 147.788630
_cell_angle_gamma 90.000000
_cell_volume 3121.476413
_symmetry_space_group_name_H-M "C 2/M"
_symmetry_group_IT_number 12
_symmetry_cell_setting 'monoclinic'
loop_
_space_group_symop_operation_xyz
x,y,z
-x,y,-z
-x,-y,-z
x,-y,z
1/2+x,1/2+y,z
1/2-x,1/2+y,-z
1/2-x,1/2-y,-z
1/2+x,1/2-y,z
loop_
_atom_site_type_symbol
_atom_site_label
_atom_site_fract_x
_atom_site_fract_y
_atom_site_fract_z
Si Si1 0.903137 0.773764 0.851743
Si Si2 0.998668 0.625321 0.269397
Si Si3 0.165529 0.123437 0.689282
Si Si4 0.915888 0.372379 0.437737
Si Si5 0.936347 0.827312 0.729584
Si Si6 0.628528 0.620398 0.022653
Si Si7 0.238353 0.121467 0.616120
Si Si8 0.700475 0.206006 0.006436
O O1 0.916404 0.847773 0.793082
O O2 0.818478 0.701550 0.711978
O O3 0.882438 0.832184 0.905040
O O4 0.000000 0.718116 0.000000
O O5 0.997430 0.500000 0.241476
O O6 0.055406 0.635161 0.429805
O O7 0.039727 0.701718 0.259646
O O8 0.898156 0.660729 0.147379
O O9 0.122260 0.247404 0.634276
O O10 0.214326 0.127631 0.674267
O O11 0.236053 0.121414 0.859614
O O12 0.118940 0.000000 0.624176
O O13 0.875559 0.500000 0.372051
O O14 0.000000 0.377844 0.500000
O O15 0.852188 0.858554 0.559140
O O16 0.030234 0.883177 0.845830
O O17 0.666238 0.500000 0.080970
O O18 0.686478 0.696776 0.049810
O O19 0.269790 0.000000 0.641504
O O20 0.750000 0.250000 0.000000
#
# Coordination Sequence:
#
# PCOD9210454 Si02
#       8
#     8   8   8   8   8   8   8   8
#     4  10  22  41  62  91 124 159 211 264 316 386
#     4  10  21  39  62  89 124 164 213 267 316 377
#     4  11  23  40  63  93 131 169 210 264 325 386
#     4  10  21  40  65  92 126 170 216 266 324 384
#     4  10  21  39  63  90 124 162 211 261 320 386
#     4  10  22  40  63  90 122 165 214 267 322 380
#     4  11  22  39  61  88 126 165 202 254 320 383
#     4  11  23  41  63  90 127 168 216 266 322 389
#
# _framework density 20.503118000000001
#
# number of rings (size 3 to 8) (size 9 to 14) (size 15 to 20)
#    0.000    1.625    2.500    1.875    0.000    5.250 
#    0.000    0.625    0.000    0.000    0.000    0.000 
#    0.000    0.000    0.000    0.000    0.000    0.000 
#
# Total GULP energy -178175.492288 kJ/mol
# GULP energy per Si atom -5567.984134 kJ/mol
# Density = 2.045645 g / cm^3
# Si number density = 20.503118 Si / 1000 Ang^3
#
#
#
# Elastic Constant Matrix: (Units=GPa)
#
#
# Indices 1 2 3 4 5 6 
#
# 1 85.8331 31.3258 6.6364 0.0000 -18.0249 0.0000
# 2 31.3258 150.0646 17.8968 0.0000 14.2925 0.0000
# 3 6.6364 17.8968 73.5953 0.0000 -5.8929 0.0000
# 4 0.0000 0.0000 0.0000 -0.6019 0.0000 -12.8064
# 5 -18.0249 14.2925 -5.8929 0.0000 18.8826 0.0000
# 6 0.0000 0.0000 0.0000 -12.8064 0.0000 -13.6627
#
#
#
# Elastic Compliance Matrix: (Units=1/GPa)
#
#
# Indices 1 2 3 4 5 6 
#
# 1 0.018678 -0.006305 0.001701 0.000000 0.023133 0.000000
# 2 -0.006305 0.009688 -0.002930 0.000000 -0.014266 0.000000
# 3 0.001701 -0.002930 0.014825 0.000000 0.008468 0.000000
# 4 0.000000 0.000000 0.000000 0.087705 0.000000 -0.082208
# 5 0.023133 -0.014266 0.008468 0.000000 0.088482 0.000000
# 6 0.000000 0.000000 0.000000 -0.082208 0.000000 0.003864
#
#
# Mechanical properties :
#
#
# Convention : Reuss Voigt Hill
#
# Bulk Modulus (GPa) = 35.55686 46.80120 41.17903
# Shear Modulus (GPa) = 20.18707 17.83253 19.00980
#
# Velocity S-wave (km/s) = 3.14121 2.95235 3.04824
# Velocity P-wave (km/s) = 5.52595 5.87348 5.70236
#
# Compressibility (1/GPa) = 0.02812396
#
# Stress axis : x y z
#
# Youngs Moduli (GPa) = 53.53885 103.21916 67.45405
#
# Poissons Ratio (x) = 0.65081 -0.11476
# Poissons Ratio (y) = 0.33757 0.19762
# Poissons Ratio (z) = -0.09109 0.30240
#
# Static dielectric constant tensor:
#      x y z
#    x 1.691350 0.000000 0.003930 
#    y 0.000000 1.864520 0.000000 
#    z 0.003930 0.000000 1.762110 
# 
# From -- ./inp_files/296506.got.cif
#   From: 2010.05.17/outbox.cif.g08.bks.cpg/sg12_149_cif.got.tgz:296506.got - 2010.06.03 13:09:07.
