data_PCOD9210712
_publ_section_title
;
Structure prediction by ZEFSAII (Michael W. Deem and Ramdas Pophale) SiO2 
 PCOD9210712
Probable space group: C 2/M
;
_chemical_formula_sum "Si O2"
_cell_formula_units_Z 34
_cell_length_a 10.387289
_cell_length_b 7.663553
_cell_length_c 29.773357
_cell_angle_alpha 90.000000
_cell_angle_beta 140.824672
_cell_angle_gamma 90.000000
_cell_volume 1497.159259
_symmetry_space_group_name_H-M "C 2/M"
_symmetry_group_IT_number 12
_symmetry_cell_setting 'monoclinic'
loop_
_space_group_symop_operation_xyz
x,y,z
-x,y,-z
-x,-y,-z
x,-y,z
1/2+x,1/2+y,z
1/2-x,1/2+y,-z
1/2-x,1/2-y,-z
1/2+x,1/2-y,z
loop_
_atom_site_type_symbol
_atom_site_label
_atom_site_fract_x
_atom_site_fract_y
_atom_site_fract_z
Si Si1 0.025239 0.709798 0.456201
Si Si2 0.863348 0.790411 0.703505
Si Si3 0.202000 0.707754 0.211865
Si Si4 0.500000 0.000000 0.000000
Si Si5 0.011144 0.199393 0.936500
O O1 0.005417 0.500000 0.452166
O O2 0.250000 0.750000 0.500000
O O3 0.000000 0.776331 0.500000
O O4 0.845076 0.776709 0.375256
O O5 0.874381 0.745235 0.758874
O O6 0.064678 0.730186 0.731630
O O7 0.860522 0.000000 0.699609
O O8 0.195879 0.500000 0.203717
O O9 0.072396 0.787772 0.136483
O O10 0.583601 0.845023 0.056878
O O11 0.985290 0.000000 0.944622
O O12 0.250000 0.250000 0.000000
#
# Coordination Sequence:
#
# PCOD9210712 Si02
#       5
#     8   8   8   2   8
#     4  10  21  39  63  92 127 170 216 271 331 396
#     4  10  23  41  63  93 131 170 218 273 338 404
#     4  11  24  43  66  96 132 174 222 278 339 406
#     4  12  26  48  72 100 136 180 234 278 358 402
#     4  12  26  46  71 101 137 181 231 289 341 413
#
# _framework density 22.709674
#
# number of rings (size 3 to 8) (size 9 to 14) (size 15 to 20)
#    0.000    1.176    2.353    2.471    3.294    5.176 
#    0.000    0.000    0.000    0.000    0.000    0.000 
#    0.000    0.000    0.000    0.000    0.000    0.000 
#
# Total GULP energy -94883.935355 kJ/mol
# GULP energy per Si atom -5581.407962 kJ/mol
# Density = 2.265799 g / cm^3
# Si number density = 22.709674 Si / 1000 Ang^3
#
#
#
# Elastic Constant Matrix: (Units=GPa)
#
#
# Indices 1 2 3 4 5 6 
#
# 1 69.1197 0.6228 -5.6405 0.0000 -6.1728 0.0000
# 2 0.6228 133.0619 14.6827 0.0000 -5.4046 0.0000
# 3 -5.6405 14.6827 102.9089 0.0000 -4.8510 0.0000
# 4 0.0000 0.0000 0.0000 19.2130 0.0000 -1.7144
# 5 -6.1728 -5.4046 -4.8510 0.0000 45.4675 0.0000
# 6 0.0000 0.0000 0.0000 -1.7144 0.0000 21.7927
#
#
#
# Elastic Compliance Matrix: (Units=1/GPa)
#
#
# Indices 1 2 3 4 5 6 
#
# 1 0.014730 -0.000085 0.000918 0.000000 0.002088 0.000000
# 2 -0.000085 0.007665 -0.001061 0.000000 0.000786 0.000000
# 3 0.000918 -0.001061 0.009969 0.000000 0.001062 0.000000
# 4 0.000000 0.000000 0.000000 0.052416 0.000000 0.004123
# 5 0.002088 0.000786 0.001062 0.000000 0.022484 0.000000
# 6 0.000000 0.000000 0.000000 0.004123 0.000000 0.046211
#
#
# Mechanical properties :
#
#
# Convention : Reuss Voigt Hill
#
# Bulk Modulus (GPa) = 31.34187 36.04674 33.69431
# Shear Modulus (GPa) = 30.38263 36.98966 33.68614
#
# Velocity S-wave (km/s) = 3.66166 4.04023 3.85559
# Velocity P-wave (km/s) = 5.63099 6.13774 5.88982
#
# Compressibility (1/GPa) = 0.03190620
#
# Stress axis : x y z
#
# Youngs Moduli (GPa) = 67.88979 130.46767 100.30972
#
# Poissons Ratio (x) = 0.01115 -0.09208
# Poissons Ratio (y) = 0.00580 0.10645
# Poissons Ratio (z) = -0.06232 0.13845
#
# Static dielectric constant tensor:
#      x y z
#    x 1.881860 0.000000 0.044240 
#    y 0.000000 1.842840 0.000000 
#    z 0.044240 0.000000 1.842740 
# 
# From -- ./inp_files/357389.got.cif
#   From: 2010.05.17/outbox.cif.g08.bks.cpg/sg12_179_cif.got.tgz:357389.got - 2010.06.03 13:09:07.
