data_PCOD9210894
_publ_section_title
;
Structure prediction by ZEFSAII (Michael W. Deem and Ramdas Pophale) SiO2 
 PCOD9210894
Probable space group: C 2/M
;
_chemical_formula_sum "Si O2"
_cell_formula_units_Z 48
_cell_length_a 19.417731
_cell_length_b 8.439592
_cell_length_c 25.292231
_cell_angle_alpha 90.000000
_cell_angle_beta 149.742178
_cell_angle_gamma 90.000000
_cell_volume 2088.547955
_symmetry_space_group_name_H-M "C 2/M"
_symmetry_group_IT_number 12
_symmetry_cell_setting 'monoclinic'
loop_
_space_group_symop_operation_xyz
x,y,z
-x,y,-z
-x,-y,-z
x,-y,z
1/2+x,1/2+y,z
1/2-x,1/2+y,-z
1/2-x,1/2-y,-z
1/2+x,1/2-y,z
loop_
_atom_site_type_symbol
_atom_site_label
_atom_site_fract_x
_atom_site_fract_y
_atom_site_fract_z
Si Si1 0.557311 0.316840 0.157897
Si Si2 0.074727 0.189130 0.493896
Si Si3 0.195820 0.190673 0.740620
Si Si4 0.677514 0.685314 0.399484
Si Si5 0.324356 0.814911 0.937716
Si Si6 0.075195 0.317995 0.826250
O O1 0.554757 0.500000 0.171353
O O2 0.706934 0.264107 0.239281
O O3 0.496163 0.215876 0.165266
O O4 0.456470 0.283075 0.041840
O O5 0.212495 0.283351 0.574115
O O6 0.000000 0.217936 0.500000
O O7 0.961324 0.231255 0.374519
O O8 0.104863 0.000000 0.510810
O O9 0.254778 0.236410 0.836683
O O10 0.204741 0.000000 0.742323
O O11 0.647266 0.500000 0.384989
O O12 0.750000 0.750000 0.500000
O O13 0.539426 0.775463 0.293045
O O14 0.207381 0.789493 0.904063
O O15 0.361862 0.000000 0.958760
O O16 0.117362 0.500000 0.850250
#
# Coordination Sequence:
#
# PCOD9210894 Si02
#       6
#     8   8   8   8   8   8
#     4  12  25  41  63  92 126 163 208 258 309 369
#     4  10  21  39  64  93 126 164 207 257 313 368
#     4  10  22  40  63  91 125 165 207 255 311 369
#     4  12  25  42  65  94 128 165 208 255 307 366
#     4  11  23  41  64  91 126 165 208 257 313 373
#     4  12  25  43  66  92 125 163 207 257 312 370
#
# _framework density 22.982474
#
# number of rings (size 3 to 8) (size 9 to 14) (size 15 to 20)
#    0.000    0.833    0.000    8.000    0.000    7.000 
#    0.000    0.000    0.000    0.000    0.000    0.000 
#    0.000    0.000    0.000    0.000    0.000    0.000 
#
# Total GULP energy -134514.673779 kJ/mol
# GULP energy per Si atom -5604.778074 kJ/mol
# Density = 2.293016 g / cm^3
# Si number density = 22.982474 Si / 1000 Ang^3
#
#
#
# Elastic Constant Matrix: (Units=GPa)
#
#
# Indices 1 2 3 4 5 6 
#
# 1 62.8567 -2.2037 -11.7510 0.0001 1.7612 0.0000
# 2 -2.2037 36.6031 3.9979 0.0002 -2.4273 0.0001
# 3 -11.7510 3.9979 73.2212 0.0003 1.5350 0.0001
# 4 0.0001 0.0002 0.0003 31.8055 0.0000 4.4560
# 5 1.7612 -2.4273 1.5350 0.0000 42.8633 0.0000
# 6 0.0000 0.0001 0.0001 4.4560 0.0000 29.7841
#
#
#
# Elastic Compliance Matrix: (Units=1/GPa)
#
#
# Indices 1 2 3 4 5 6 
#
# 1 0.016442 0.000655 0.002618 0.000000 -0.000732 0.000000
# 2 0.000655 0.027622 -0.001436 0.000000 0.001589 0.000000
# 3 0.002618 -0.001436 0.014170 0.000000 -0.000696 0.000000
# 4 0.000000 0.000000 0.000000 0.032114 0.000000 -0.004805
# 5 -0.000732 0.001589 -0.000696 0.000000 0.023475 0.000000
# 6 0.000000 0.000000 0.000000 -0.004805 0.000000 0.034294
#
#
# Mechanical properties :
#
#
# Convention : Reuss Voigt Hill
#
# Bulk Modulus (GPa) = 16.15268 16.97416 16.56342
# Shear Modulus (GPa) = 30.28852 33.06644 31.67748
#
# Velocity S-wave (km/s) = 3.63422 3.79722 3.71662
# Velocity P-wave (km/s) = 4.96524 5.16013 5.06362
#
# Compressibility (1/GPa) = 0.06190922
#
# Stress axis : x y z
#
# Youngs Moduli (GPa) = 60.81919 36.20327 70.56925
#
# Poissons Ratio (x) = -0.02373 -0.18477
# Poissons Ratio (y) = -0.03986 0.10136
# Poissons Ratio (z) = -0.15924 0.05200
#
# Static dielectric constant tensor:
#      x y z
#    x 1.875420 0.000000 -0.048560 
#    y 0.000000 1.769310 0.000000 
#    z -0.048560 0.000000 1.855050 
# 
# From -- ./inp_files/365540.got.cif
#   From: 2010.05.17/outbox.cif.g08.bks.cpg/sg12_183_cif.got.tgz:365540.got - 2010.06.03 13:09:07.
