data_PCOD9210536
_publ_section_title
;
Structure prediction by ZEFSAII (Michael W. Deem and Ramdas Pophale) SiO2 
 PCOD9210536
Probable space group: C 2/M
;
_chemical_formula_sum "Si O2"
_cell_formula_units_Z 40
_cell_length_a 5.683760
_cell_length_b 23.295101
_cell_length_c 11.490745
_cell_angle_alpha 90.000000
_cell_angle_beta 90.817776
_cell_angle_gamma 90.000000
_cell_volume 1521.262915
_symmetry_space_group_name_H-M "C 2/M"
_symmetry_group_IT_number 12
_symmetry_cell_setting 'monoclinic'
loop_
_space_group_symop_operation_xyz
x,y,z
-x,y,-z
-x,-y,-z
x,-y,z
1/2+x,1/2+y,z
1/2-x,1/2+y,-z
1/2-x,1/2-y,-z
1/2+x,1/2-y,z
loop_
_atom_site_type_symbol
_atom_site_label
_atom_site_fract_x
_atom_site_fract_y
_atom_site_fract_z
Si Si1 0.386033 0.184905 0.118904
Si Si2 0.251937 0.068863 0.439916
Si Si3 0.623301 0.267529 0.659366
Si Si4 0.907431 0.438302 0.866969
Si Si5 0.512816 0.380445 0.224370
O O1 0.384701 0.231502 0.219528
O O2 0.533764 0.128549 0.154626
O O3 0.127365 0.156821 0.121479
O O4 0.500000 0.206282 0.000000
O O5 0.500000 0.089281 0.500000
O O6 0.213120 0.093475 0.310761
O O7 0.000000 0.082428 0.500000
O O8 0.265374 0.000000 0.439068
O O9 0.869164 0.248492 0.605278
O O10 0.614777 0.334245 0.692698
O O11 0.983749 0.500000 0.814111
O O12 0.633454 0.432352 0.830973
O O13 0.000000 0.442225 0.000000
#
# Coordination Sequence:
#
# PCOD9210536 Si02
#       5
#     8   8   8   8   8
#     4  10  23  41  61  97 138 189 239 279 337 413
#     4  10  24  45  74 107 135 175 239 303 361 424
#     4  10  21  39  62  94 134 181 232 284 333 404
#     4  10  22  40  60  93 137 181 230 278 344 422
#     4  11  23  41  69  98 140 183 233 294 360 410
#
# _framework density 26.293939999999999
#
# number of rings (size 3 to 8) (size 9 to 14) (size 15 to 20)
#    0.000    1.800    2.000    0.600    2.800    8.000 
#    0.000    5.000    0.000   14.400    0.000    0.000 
#    0.000    0.000    0.000    0.000    0.000    0.000 
#
# Total GULP energy -111512.862708 kJ/mol
# GULP energy per Si atom -5575.643135 kJ/mol
# Density = 2.623409 g / cm^3
# Si number density = 26.293940 Si / 1000 Ang^3
#
#
#
# Elastic Constant Matrix: (Units=GPa)
#
#
# Indices 1 2 3 4 5 6 
#
# 1 162.1313 31.7596 79.2695 0.0000 23.0877 0.0000
# 2 31.7596 129.3440 26.8066 0.0000 21.2572 0.0000
# 3 79.2695 26.8066 129.4956 0.0000 23.1456 0.0000
# 4 0.0000 0.0000 0.0000 -13.2667 0.0000 4.4300
# 5 23.0877 21.2572 23.1456 0.0000 54.3645 0.0000
# 6 0.0000 0.0000 0.0000 4.4300 0.0000 48.4615
#
#
#
# Elastic Compliance Matrix: (Units=1/GPa)
#
#
# Indices 1 2 3 4 5 6 
#
# 1 0.009032 -0.000948 -0.005101 0.000000 -0.001293 0.000000
# 2 -0.000948 0.008546 -0.000718 0.000000 -0.002633 0.000000
# 3 -0.005101 -0.000718 0.011426 0.000000 -0.002417 0.000000
# 4 0.000000 0.000000 0.000000 -0.073144 0.000000 0.006686
# 5 -0.001293 -0.002633 -0.002417 0.000000 0.021002 0.000000
# 6 0.000000 0.000000 0.000000 0.006686 0.000000 0.020024
#
#
# Mechanical properties :
#
#
# Convention : Reuss Voigt Hill
#
# Bulk Modulus (GPa) = 64.64808 77.40473 71.02641
# Shear Modulus (GPa) = 321.00365 36.78753 178.89559
#
# Velocity S-wave (km/s) = 11.06109 3.74450 8.25739
# Velocity P-wave (km/s) = 13.70294 6.94242 10.86203
#
# Compressibility (1/GPa) = 0.01546836
#
# Stress axis : x y z
#
# Youngs Moduli (GPa) = 110.71915 117.01845 87.52155
#
# Poissons Ratio (x) = 0.11093 0.44648
# Poissons Ratio (y) = 0.10495 0.06285
# Poissons Ratio (z) = 0.56482 0.08403
#
# Static dielectric constant tensor:
#      x y z
#    x 6.592030 0.000000 -1.062790 
#    y 0.000000 1.974840 0.000000 
#    z -1.062790 0.000000 2.339360 
# 
# From -- ./inp_files/115537.got.cif
#   From: 2010.05.17/outbox.cif.g08.bks.cpg/sg12_58_cif.got.tgz:115537.got - 2010.06.03 13:09:07.
