data_PCOD9210109
_publ_section_title
;
Structure prediction by ZEFSAII (Michael W. Deem and Ramdas Pophale) SiO2 
 PCOD9210109
Probable space group: C 2/M
;
_chemical_formula_sum "Si O2"
_cell_formula_units_Z 56
_cell_length_a 14.622271
_cell_length_b 8.597518
_cell_length_c 28.721004
_cell_angle_alpha 90.000000
_cell_angle_beta 122.441610
_cell_angle_gamma 90.000000
_cell_volume 3047.181863
_symmetry_space_group_name_H-M "C 2/M"
_symmetry_group_IT_number 12
_symmetry_cell_setting 'monoclinic'
loop_
_space_group_symop_operation_xyz
x,y,z
-x,y,-z
-x,-y,-z
x,-y,z
1/2+x,1/2+y,z
1/2-x,1/2+y,-z
1/2-x,1/2-y,-z
1/2+x,1/2-y,z
loop_
_atom_site_type_symbol
_atom_site_label
_atom_site_fract_x
_atom_site_fract_y
_atom_site_fract_z
Si Si1 0.411264 0.813933 0.644131
Si Si2 0.506569 0.314736 0.765097
Si Si3 0.486406 0.312274 0.572186
Si Si4 0.054190 0.686879 0.152412
Si Si5 0.743013 0.813054 0.849742
Si Si6 0.326656 0.688385 0.450143
Si Si7 0.688393 0.186953 0.938504
O O1 0.447247 0.739866 0.702262
O O2 0.488793 0.765493 0.622916
O O3 0.292469 0.756513 0.595320
O O4 0.408728 0.000000 0.648499
O O5 0.509400 0.500000 0.768511
O O6 0.448756 0.248155 0.795494
O O7 0.629311 0.249723 0.798869
O O8 0.482035 0.500000 0.575912
O O9 0.589472 0.274310 0.568264
O O10 0.381686 0.258578 0.513381
O O11 0.057754 0.500000 0.154330
O O12 0.154712 0.750213 0.150562
O O13 0.937939 0.735265 0.098755
O O14 0.743095 0.765679 0.904368
O O15 0.741438 0.000000 0.847248
O O16 0.323025 0.500000 0.452063
O O17 0.690107 0.000000 0.940588
O O18 0.750000 0.250000 0.000000
#
# Coordination Sequence:
#
# PCOD9210109 Si02
#       7
#     8   8   8   8   8   8   8
#     4  11  21  34  52  78 108 138 173 223 279 329
#     4  11  23  39  57  79 107 145 188 234 280 327
#     4   9  17  34  55  76 101 136 179 217 261 328
#     4  10  21  39  60  84 113 149 187 228 276 329
#     4  10  21  39  60  84 112 147 187 230 277 329
#     4   8  17  33  54  75 102 138 174 214 266 326
#     4   9  20  36  56  84 119 151 186 228 269 316
#
# _framework density 18.377635999999999
#
# number of rings (size 3 to 8) (size 9 to 14) (size 15 to 20)
#    0.000    2.286    0.000    4.714    0.000    5.143 
#    0.000   10.714    0.000    0.000    0.000    0.000 
#    0.000    0.000    0.000    0.000    0.000    0.000 
#
# Total GULP energy -156297.927848 kJ/mol
# GULP energy per Si atom -5582.068852 kJ/mol
# Density = 1.833581 g / cm^3
# Si number density = 18.377636 Si / 1000 Ang^3
#
#
#
# Elastic Constant Matrix: (Units=GPa)
#
#
# Indices 1 2 3 4 5 6 
#
# 1 133.5818 37.3916 60.8398 0.0000 -7.9480 0.0000
# 2 37.3916 62.1185 29.7116 0.0000 -4.1912 0.0000
# 3 60.8398 29.7116 111.9981 0.0000 -18.1731 0.0000
# 4 0.0000 0.0000 0.0000 29.7177 0.0000 -3.1300
# 5 -7.9480 -4.1912 -18.1731 0.0000 11.6136 0.0000
# 6 0.0000 0.0000 0.0000 -3.1300 0.0000 28.0588
#
#
#
# Elastic Compliance Matrix: (Units=1/GPa)
#
#
# Indices 1 2 3 4 5 6 
#
# 1 0.010884 -0.004240 -0.005130 0.000000 -0.002108 0.000000
# 2 -0.004240 0.020105 -0.003115 0.000000 -0.000520 0.000000
# 3 -0.005130 -0.003115 0.015802 0.000000 0.020092 0.000000
# 4 0.000000 0.000000 0.000000 0.034050 0.000000 0.003798
# 5 -0.002108 -0.000520 0.020092 0.000000 0.115916 0.000000
# 6 0.000000 0.000000 0.000000 0.003798 0.000000 0.036063
#
#
# Mechanical properties :
#
#
# Convention : Reuss Voigt Hill
#
# Bulk Modulus (GPa) = 45.82551 62.62052 54.22301
# Shear Modulus (GPa) = 18.86346 25.86170 22.36258
#
# Velocity S-wave (km/s) = 3.20728 3.75539 3.49210
# Velocity P-wave (km/s) = 6.22134 7.27682 6.76969
#
# Compressibility (1/GPa) = 0.02182191
#
# Stress axis : x y z
#
# Youngs Moduli (GPa) = 91.88030 49.73824 63.28425
#
# Poissons Ratio (x) = 0.21090 0.32462
# Poissons Ratio (y) = 0.38958 0.19711
# Poissons Ratio (z) = 0.47131 0.15492
#
# Static dielectric constant tensor:
#      x y z
#    x 1.621730 0.000000 0.009810 
#    y 0.000000 1.621440 0.000000 
#    z 0.009810 0.000000 1.617140 
# 
# From -- ./inp_files/375122.got.cif
#   From: 2010.05.17/outbox.cif.g08.bks.cpg/sg12_188_cif.got.tgz:375122.got - 2010.06.03 13:09:07.
