data_PCOD9210047
_publ_section_title
;
Structure prediction by ZEFSAII (Michael W. Deem and Ramdas Pophale) SiO2 
 PCOD9210047
Probable space group: C 2/M
;
_chemical_formula_sum "Si O2"
_cell_formula_units_Z 54
_cell_length_a 14.374546
_cell_length_b 29.696934
_cell_length_c 14.822992
_cell_angle_alpha 90.000000
_cell_angle_beta 29.478675
_cell_angle_gamma 90.000000
_cell_volume 3113.828043
_symmetry_space_group_name_H-M "C 2/M"
_symmetry_group_IT_number 12
_symmetry_cell_setting 'monoclinic'
loop_
_space_group_symop_operation_xyz
x,y,z
-x,y,-z
-x,-y,-z
x,-y,z
1/2+x,1/2+y,z
1/2-x,1/2+y,-z
1/2-x,1/2-y,-z
1/2+x,1/2-y,z
loop_
_atom_site_type_symbol
_atom_site_label
_atom_site_fract_x
_atom_site_fract_y
_atom_site_fract_z
Si Si1 0.509299 0.092426 0.392616
Si Si2 0.837884 0.857104 0.377959
Si Si3 0.744557 0.754277 0.110660
Si Si4 0.500000 0.817759 0.000000
Si Si5 0.500000 0.000000 0.500000
Si Si6 0.196792 0.827987 0.388050
Si Si7 0.369562 0.356202 0.024010
Si Si8 0.129599 0.269907 0.476979
O O1 0.500000 0.115082 0.500000
O O2 0.308831 0.102719 0.517157
O O3 0.539222 0.040361 0.391687
O O4 0.676636 0.115875 0.196450
O O5 0.841848 0.849179 0.481667
O O6 0.747153 0.811894 0.411203
O O7 0.025430 0.864454 0.159892
O O8 0.524233 0.754240 0.321039
O O9 0.750000 0.750000 0.000000
O O10 0.825508 0.803075 0.069449
O O11 0.854152 0.714350 0.068482
O O12 0.370724 0.845299 0.180236
O O13 0.248061 0.774810 0.356604
O O14 0.000000 0.829546 0.500000
O O15 0.500000 0.368877 0.000000
O O16 0.000000 0.280842 0.500000
#
# Coordination Sequence:
#
# PCOD9210047 Si02
#       8
#     8   8   8   4   2   8   8   8
#     4  10  21  39  59  86 115 144 179 228 292 365
#     4  12  22  35  56  82 109 152 195 237 287 345
#     4  12  22  32  50  73 103 151 203 242 277 325
#     4  12  22  38  50  70 108 164 202 248 294 316
#     4   8  20  44  62  84 130 144 170 244 306 360
#     4  11  24  37  50  72 113 157 203 249 279 324
#     4  12  21  34  56  81 110 147 191 235 283 344
#     4  11  19  36  47  71 110 146 192 243 281 323
#
# _framework density 17.341999000000001
#
# number of rings (size 3 to 8) (size 9 to 14) (size 15 to 20)
#    0.444    0.296    6.667    4.444    0.000    0.000 
#    0.000    3.333    0.000    0.000    0.000    0.519 
#    0.000    1.778    0.000    0.000    0.000    0.000 
#
# Total GULP energy -150494.781954 kJ/mol
# GULP energy per Si atom -5573.880813 kJ/mol
# Density = 1.730253 g / cm^3
# Si number density = 17.341999 Si / 1000 Ang^3
#
#
#
# Elastic Constant Matrix: (Units=GPa)
#
#
# Indices 1 2 3 4 5 6 
#
# 1 69.0286 16.4990 24.1476 0.0000 26.3403 0.0003
# 2 16.4990 41.4128 17.0664 0.0001 4.5042 -0.0001
# 3 24.1476 17.0664 145.9160 -0.0002 24.0647 0.0003
# 4 0.0000 0.0001 -0.0002 4.1110 0.0000 3.8958
# 5 26.3403 4.5042 24.0647 0.0000 30.5374 -0.0002
# 6 0.0003 -0.0001 0.0003 3.8958 -0.0002 8.8497
#
#
#
# Elastic Compliance Matrix: (Units=1/GPa)
#
#
# Indices 1 2 3 4 5 6 
#
# 1 0.023586 -0.007352 0.000153 0.000002 -0.019380 -0.000002
# 2 -0.007352 0.027731 -0.002756 -0.000003 0.004423 0.000002
# 3 0.000153 -0.002756 0.008166 0.000001 -0.006161 -0.000001
# 4 0.000002 -0.000003 0.000001 0.417369 -0.000004 -0.183733
# 5 -0.019380 0.004423 -0.006161 -0.000004 0.053666 0.000004
# 6 -0.000002 0.000002 -0.000001 -0.183733 0.000004 0.193880
#
#
# Mechanical properties :
#
#
# Convention : Reuss Voigt Hill
#
# Bulk Modulus (GPa) = 25.27005 41.30928 33.28967
# Shear Modulus (GPa) = 6.60067 21.94258 14.27162
#
# Velocity S-wave (km/s) = 1.95306 3.56094 2.87183
# Velocity P-wave (km/s) = 4.43724 6.38586 5.49856
#
# Compressibility (1/GPa) = 0.03957254
#
# Stress axis : x y z
#
# Youngs Moduli (GPa) = 42.39882 36.06090 122.45339
#
# Poissons Ratio (x) = 0.26511 -0.01872
# Poissons Ratio (y) = 0.31171 0.33751
# Poissons Ratio (z) = -0.00648 0.09939
#
# Static dielectric constant tensor:
#      x y z
#    x 1.661660 0.000000 0.048480 
#    y 0.000000 1.560530 0.000000 
#    z 0.048480 0.000000 1.713120 
# 
# From -- ./inp_files/219357.got.cif
#   From: 2010.05.17/outbox.cif.g08.bks.cpg/sg12_110_cif.got.tgz:219357.got - 2010.06.03 13:09:07.
