data_PCOD9210310
_publ_section_title
;
Structure prediction by ZEFSAII (Michael W. Deem and Ramdas Pophale) SiO2 
 PCOD9210310
Probable space group: C 2/M
;
_chemical_formula_sum "Si O2"
_cell_formula_units_Z 40
_cell_length_a 8.987003
_cell_length_b 18.549182
_cell_length_c 12.846005
_cell_angle_alpha 90.000000
_cell_angle_beta 96.686966
_cell_angle_gamma 90.000000
_cell_volume 2126.881075
_symmetry_space_group_name_H-M "C 2/M"
_symmetry_group_IT_number 12
_symmetry_cell_setting 'monoclinic'
loop_
_space_group_symop_operation_xyz
x,y,z
-x,y,-z
-x,-y,-z
x,-y,z
1/2+x,1/2+y,z
1/2-x,1/2+y,-z
1/2-x,1/2-y,-z
1/2+x,1/2-y,z
loop_
_atom_site_type_symbol
_atom_site_label
_atom_site_fract_x
_atom_site_fract_y
_atom_site_fract_z
Si Si1 0.375223 0.792859 0.573080
Si Si2 0.251710 0.584349 0.291966
Si Si3 0.758442 0.787613 0.887225
Si Si4 0.466582 0.919843 0.119463
Si Si5 0.473140 0.307780 0.239116
O O1 0.500000 0.815262 0.500000
O O2 0.250000 0.750000 0.500000
O O3 0.303844 0.862451 0.621967
O O4 0.447443 0.737936 0.663457
O O5 0.258513 0.500000 0.320109
O O6 0.413435 0.613986 0.267728
O O7 0.122166 0.592162 0.193076
O O8 0.655652 0.858546 0.872756
O O9 0.679906 0.732661 0.802100
O O10 0.921581 0.804934 0.854351
O O11 0.750000 0.750000 0.000000
O O12 0.411785 0.000000 0.144112
O O13 0.500000 0.918807 0.000000
#
# Coordination Sequence:
#
# PCOD9210310 Si02
#       5
#     8   8   8   8   8
#     4  12  23  42  68  90 121 169 214 269 327 383
#     4  11  24  43  66  97 132 167 214 274 330 387
#     4  12  22  36  64  97 128 167 220 259 310 390
#     4  10  21  39  61  90 132 173 207 258 324 381
#     4  12  22  40  62  93 128 166 213 264 320 379
#
# _framework density 18.806882000000002
#
# number of rings (size 3 to 8) (size 9 to 14) (size 15 to 20)
#    0.000    0.600    6.000    3.000    0.000    1.200 
#    0.000    2.000    0.000    6.000    0.000    0.000 
#    0.000    0.000    0.000    0.000    0.000    0.000 
#
# Total GULP energy -111692.372886 kJ/mol
# GULP energy per Si atom -5584.618644 kJ/mol
# Density = 1.876408 g / cm^3
# Si number density = 18.806882 Si / 1000 Ang^3
#
#
#
# Elastic Constant Matrix: (Units=GPa)
#
#
# Indices 1 2 3 4 5 6 
#
# 1 101.6203 57.6908 34.7383 0.0000 -22.3908 0.0000
# 2 57.6908 159.0173 50.5246 0.0000 -1.9667 0.0000
# 3 34.7383 50.5246 104.2435 0.0000 -2.4280 0.0000
# 4 0.0000 0.0000 0.0000 24.1826 0.0000 -0.6169
# 5 -22.3908 -1.9667 -2.4280 0.0000 36.3359 0.0000
# 6 0.0000 0.0000 0.0000 -0.6169 0.0000 41.7157
#
#
#
# Elastic Compliance Matrix: (Units=1/GPa)
#
#
# Indices 1 2 3 4 5 6 
#
# 1 0.015365 -0.004613 -0.002674 0.000000 0.009040 0.000000
# 2 -0.004613 0.008819 -0.002797 0.000000 -0.002552 0.000000
# 3 -0.002674 -0.002797 0.011816 0.000000 -0.001010 0.000000
# 4 0.000000 0.000000 0.000000 0.041368 0.000000 0.000612
# 5 0.009040 -0.002552 -0.001010 0.000000 0.032886 0.000000
# 6 0.000000 0.000000 0.000000 0.000612 0.000000 0.023981
#
#
# Mechanical properties :
#
#
# Convention : Reuss Voigt Hill
#
# Bulk Modulus (GPa) = 63.15859 72.30984 67.73421
# Shear Modulus (GPa) = 31.31256 35.24200 33.27728
#
# Velocity S-wave (km/s) = 4.08481 4.33354 4.21101
# Velocity P-wave (km/s) = 7.47684 7.97317 7.72899
#
# Compressibility (1/GPa) = 0.01583316
#
# Stress axis : x y z
#
# Youngs Moduli (GPa) = 65.08137 113.38831 84.63122
#
# Poissons Ratio (x) = 0.52307 0.22630
# Poissons Ratio (y) = 0.30023 0.23669
# Poissons Ratio (z) = 0.17403 0.31711
#
# Static dielectric constant tensor:
#      x y z
#    x 1.662290 0.000000 -0.018140 
#    y 0.000000 1.770430 0.000000 
#    z -0.018140 0.000000 1.657040 
# 
# From -- ./inp_files/118886.got.cif
#   From: 2010.05.17/outbox.cif.g08.bks.cpg/sg12_60_cif.got.tgz:118886.got - 2010.06.03 13:09:07.
