data_PCOD9210017
_publ_section_title
;
Structure prediction by ZEFSAII (Michael W. Deem and Ramdas Pophale) SiO2 
 PCOD9210017
Probable space group: C 2/M
;
_chemical_formula_sum "Si O2"
_cell_formula_units_Z 64
_cell_length_a 31.373088
_cell_length_b 8.720858
_cell_length_c 20.531453
_cell_angle_alpha 90.000000
_cell_angle_beta 144.171722
_cell_angle_gamma 90.000000
_cell_volume 3288.195659
_symmetry_space_group_name_H-M "C 2/M"
_symmetry_group_IT_number 12
_symmetry_cell_setting 'monoclinic'
loop_
_space_group_symop_operation_xyz
x,y,z
-x,y,-z
-x,-y,-z
x,-y,z
1/2+x,1/2+y,z
1/2-x,1/2+y,-z
1/2-x,1/2-y,-z
1/2+x,1/2-y,z
loop_
_atom_site_type_symbol
_atom_site_label
_atom_site_fract_x
_atom_site_fract_y
_atom_site_fract_z
Si Si1 0.924756 0.182374 0.805373
Si Si2 0.582305 0.314950 0.586031
Si Si3 0.672778 0.816369 0.427777
Si Si4 0.326849 0.316489 0.808823
Si Si5 0.819123 0.184807 0.170805
Si Si6 0.154177 0.315048 0.933607
Si Si7 0.422766 0.181865 0.033589
Si Si8 0.838177 0.316059 0.437640
O O1 0.887422 0.263655 0.697917
O O2 0.880248 0.224001 0.815161
O O3 0.008343 0.231710 0.910809
O O4 0.918605 0.000000 0.790250
O O5 0.500000 0.265478 0.500000
O O6 0.583592 0.500000 0.587606
O O7 0.638485 0.261979 0.712190
O O8 0.608158 0.257151 0.548015
O O9 0.750000 0.750000 0.500000
O O10 0.654183 0.764768 0.478103
O O11 0.678542 0.000000 0.435796
O O12 0.332669 0.500000 0.827364
O O13 0.244526 0.281416 0.686680
O O14 0.353077 0.225041 0.904070
O O15 0.856004 0.244240 0.150106
O O16 0.820308 0.000000 0.172306
O O17 0.734353 0.232764 0.059573
O O18 0.154595 0.500000 0.928846
O O19 0.094617 0.272027 0.913695
O O20 0.435363 0.000000 0.047253
O O21 0.846995 0.500000 0.446978
#
# Coordination Sequence:
#
# PCOD9210017 Si02
#       8
#     8   8   8   8   8   8   8   8
#     4  11  23  40  59  83 117 157 197 244 295 346
#     4  10  22  39  58  85 119 151 190 242 295 349
#     4  11  22  40  63  89 120 154 197 248 294 348
#     4  10  21  39  59  82 115 153 194 243 294 348
#     4   9  18  35  58  81 108 144 188 235 284 342
#     4   9  19  35  55  80 111 144 184 235 286 342
#     4  11  23  37  55  86 121 153 193 239 292 356
#     4  10  22  40  62  88 117 153 199 244 294 353
#
# _framework density 19.463562
#
# number of rings (size 3 to 8) (size 9 to 14) (size 15 to 20)
#    0.000    1.875    1.250    2.250    0.000    7.750 
#    0.000    5.000    0.000    0.000    0.000    0.000 
#    0.000    0.000    0.000    0.000    0.000    0.000 
#
# Total GULP energy -178780.611866 kJ/mol
# GULP energy per Si atom -5586.894121 kJ/mol
# Density = 1.941926 g / cm^3
# Si number density = 19.463562 Si / 1000 Ang^3
#
#
#
# Elastic Constant Matrix: (Units=GPa)
#
#
# Indices 1 2 3 4 5 6 
#
# 1 126.2230 21.7180 10.1796 0.0000 -17.2641 0.0000
# 2 21.7180 12.9547 6.6638 0.0000 -5.5018 0.0000
# 3 10.1796 6.6638 46.3030 0.0000 -21.4626 0.0000
# 4 0.0000 0.0000 0.0000 27.6853 0.0000 -1.1377
# 5 -17.2641 -5.5018 -21.4626 0.0000 28.1294 0.0000
# 6 0.0000 0.0000 0.0000 -1.1377 0.0000 30.7412
#
#
#
# Elastic Compliance Matrix: (Units=1/GPa)
#
#
# Indices 1 2 3 4 5 6 
#
# 1 0.011664 -0.018569 0.002697 0.000000 0.005584 0.000000
# 2 -0.018569 0.115214 -0.011351 0.000000 0.002477 0.000000
# 3 0.002697 -0.011351 0.034619 0.000000 0.025849 0.000000
# 4 0.000000 0.000000 0.000000 0.036175 0.000000 0.001339
# 5 0.005584 0.002477 0.025849 0.000000 0.059184 0.000000
# 6 0.000000 0.000000 0.000000 0.001339 0.000000 0.032579
#
#
# Mechanical properties :
#
#
# Convention : Reuss Voigt Hill
#
# Bulk Modulus (GPa) = 9.34143 29.17818 19.25981
# Shear Modulus (GPa) = 13.17292 27.10581 20.13937
#
# Velocity S-wave (km/s) = 2.60436 3.73586 3.22020
# Velocity P-wave (km/s) = 3.72202 5.79936 4.87268
#
# Compressibility (1/GPa) = 0.10704994
#
# Stress axis : x y z
#
# Youngs Moduli (GPa) = 85.73506 8.67951 28.88556
#
# Poissons Ratio (x) = 0.16117 -0.07789
# Poissons Ratio (y) = 1.59206 0.32787
# Poissons Ratio (z) = -0.23119 0.09852
#
# Static dielectric constant tensor:
#      x y z
#    x 1.674410 0.000000 0.009000 
#    y 0.000000 1.621400 0.000000 
#    z 0.009000 0.000000 1.683230 
# 
# From -- ./inp_files/295666.got.cif
#   From: 2010.05.17/outbox.cif.g08.bks.cpg/sg12_148_cif.got.tgz:295666.got - 2010.06.03 13:09:07.
