data_PCOD9210602
_publ_section_title
;
Structure prediction by ZEFSAII (Michael W. Deem and Ramdas Pophale) SiO2 
 PCOD9210602
Probable space group: C 2/M
;
_chemical_formula_sum "Si O2"
_cell_formula_units_Z 36
_cell_length_a 12.060295
_cell_length_b 25.322152
_cell_length_c 5.205880
_cell_angle_alpha 90.000000
_cell_angle_beta 96.006222
_cell_angle_gamma 90.000000
_cell_volume 1581.109998
_symmetry_space_group_name_H-M "C 2/M"
_symmetry_group_IT_number 12
_symmetry_cell_setting 'monoclinic'
loop_
_space_group_symop_operation_xyz
x,y,z
-x,y,-z
-x,-y,-z
x,-y,z
1/2+x,1/2+y,z
1/2-x,1/2+y,-z
1/2-x,1/2-y,-z
1/2+x,1/2-y,z
loop_
_atom_site_type_symbol
_atom_site_label
_atom_site_fract_x
_atom_site_fract_y
_atom_site_fract_z
Si Si1 0.765086 0.562417 0.484551
Si Si2 0.623783 0.436701 0.965466
Si Si3 0.284651 0.282755 0.252682
Si Si4 0.094220 0.355788 0.224714
Si Si5 0.000000 0.744582 0.500000
O O1 0.792644 0.500000 0.477941
O O2 0.710966 0.581387 0.204862
O O3 0.874237 0.597186 0.574885
O O4 0.672210 0.568034 0.689193
O O5 0.617334 0.500000 0.007536
O O6 0.500000 0.415318 0.000000
O O7 0.250000 0.250000 0.500000
O O8 0.219873 0.336792 0.189282
O O9 0.416569 0.281874 0.323634
O O10 0.250000 0.250000 0.000000
O O11 0.050425 0.299255 0.318313
O O12 0.000000 0.372665 0.000000
#
# Coordination Sequence:
#
# PCOD9210602 Si02
#       5
#     8   8   8   8   4
#     4  10  22  37  59  93 127 160 206 247 292 365
#     4   9  18  37  61  83 119 165 203 252 302 341
#     4  10  21  39  63  89 113 151 205 250 304 359
#     4  11  23  39  66  86 125 167 203 247 311 362
#     4  10  22  42  65  88 121 158 202 264 310 360
#
# _framework density 22.768813999999999
#
# number of rings (size 3 to 8) (size 9 to 14) (size 15 to 20)
#    0.000    2.000    2.222    0.667    3.111    3.111 
#    4.000    0.556    0.000    0.000    0.000    0.000 
#    0.000    0.000    0.000    0.000    0.000    0.000 
#
# Total GULP energy -100235.812664 kJ/mol
# GULP energy per Si atom -5568.656259 kJ/mol
# Density = 2.271699 g / cm^3
# Si number density = 22.768814 Si / 1000 Ang^3
#
#
#
# Elastic Constant Matrix: (Units=GPa)
#
#
# Indices 1 2 3 4 5 6 
#
# 1 83.2840 35.6068 33.0572 0.0000 33.1686 0.0000
# 2 35.6068 62.0401 17.4030 0.0000 8.4846 0.0000
# 3 33.0572 17.4030 135.3944 0.0000 16.3456 0.0000
# 4 0.0000 0.0000 0.0000 24.5728 0.0000 -4.8692
# 5 33.1686 8.4846 16.3456 0.0000 39.0809 0.0000
# 6 0.0000 0.0000 0.0000 -4.8692 0.0000 -25.6275
#
#
#
# Elastic Compliance Matrix: (Units=1/GPa)
#
#
# Indices 1 2 3 4 5 6 
#
# 1 0.024720 -0.011091 -0.002494 0.000000 -0.017529 0.000000
# 2 -0.011091 0.022010 -0.000717 0.000000 0.004934 0.000000
# 3 -0.002494 -0.000717 0.008228 0.000000 -0.001169 0.000000
# 4 0.000000 0.000000 0.000000 0.039219 0.000000 -0.007451
# 5 -0.017529 0.004934 -0.001169 0.000000 0.039883 0.000000
# 6 0.000000 0.000000 0.000000 -0.007451 0.000000 -0.037605
#
#
# Mechanical properties :
#
#
# Convention : Reuss Voigt Hill
#
# Bulk Modulus (GPa) = 37.94289 50.31696 44.12992
# Shear Modulus (GPa) = 37.35729 20.58202 28.96965
#
# Velocity S-wave (km/s) = 4.05498 3.00985 3.57086
# Velocity P-wave (km/s) = 6.21485 5.85030 6.03533
#
# Compressibility (1/GPa) = 0.02635540
#
# Stress axis : x y z
#
# Youngs Moduli (GPa) = 40.45353 45.43349 121.53651
#
# Poissons Ratio (x) = 0.50389 0.30307
# Poissons Ratio (y) = 0.44866 0.08714
# Poissons Ratio (z) = 0.10088 0.03257
#
# Static dielectric constant tensor:
#      x y z
#    x 2.262910 0.000000 -0.144710 
#    y 0.000000 1.892980 0.000000 
#    z -0.144710 0.000000 1.847410 
# 
# From -- ./inp_files/6916.got.cif
#   From: 2010.05.17/outbox.cif.g08.bks.cpg/sg12_4_cif.got.tgz:6916.got - 2010.06.03 13:09:07.
