data_PCOD9210185
_publ_section_title
;
Structure prediction by ZEFSAII (Michael W. Deem and Ramdas Pophale) SiO2 
 PCOD9210185
Probable space group: C 2/M
;
_chemical_formula_sum "Si O2"
_cell_formula_units_Z 56
_cell_length_a 7.565767
_cell_length_b 13.473979
_cell_length_c 23.083407
_cell_angle_alpha 90.000000
_cell_angle_beta 89.266793
_cell_angle_gamma 90.000000
_cell_volume 2352.952589
_symmetry_space_group_name_H-M "C 2/M"
_symmetry_group_IT_number 12
_symmetry_cell_setting 'monoclinic'
loop_
_space_group_symop_operation_xyz
x,y,z
-x,y,-z
-x,-y,-z
x,-y,z
1/2+x,1/2+y,z
1/2-x,1/2+y,-z
1/2-x,1/2-y,-z
1/2+x,1/2-y,z
loop_
_atom_site_type_symbol
_atom_site_label
_atom_site_fract_x
_atom_site_fract_y
_atom_site_fract_z
Si Si1 0.079428 0.181152 0.225981
Si Si2 0.020384 0.611516 0.753991
Si Si3 0.905225 0.611275 0.380632
Si Si4 0.120959 0.698254 0.046028
Si Si5 0.493645 0.613166 0.346902
Si Si6 0.616296 0.703418 0.545814
Si Si7 0.431512 0.387285 0.108422
O O1 0.088108 0.299394 0.217126
O O2 0.978828 0.172513 0.287817
O O3 0.976003 0.127023 0.175550
O O4 0.273213 0.133403 0.231854
O O5 0.973293 0.500000 0.772419
O O6 0.010650 0.614848 0.683764
O O7 0.928620 0.500000 0.403940
O O8 0.692803 0.627929 0.371476
O O9 0.966567 0.698485 0.422549
O O10 0.230167 0.631126 0.089592
O O11 0.032063 0.792548 0.078934
O O12 0.250000 0.750000 0.000000
O O13 0.000000 0.640501 0.000000
O O14 0.479945 0.500000 0.329786
O O15 0.354927 0.637932 0.397683
O O16 0.500000 0.642723 0.500000
O O17 0.750000 0.750000 0.500000
O O18 0.484459 0.500000 0.090709
#
# Coordination Sequence:
#
# PCOD9210185 Si02
#       7
#     8   8   8   8   8   8   8
#     4  11  21  39  67  94 128 161 207 263 317 378
#     4  10  21  39  64  88 121 166 202 248 320 382
#     4   9  19  38  59  79 107 148 191 240 307 375
#     4   9  21  41  63  93 133 173 217 256 304 360
#     4  10  21  39  61  82 113 158 198 243 314 386
#     4  12  23  36  57  82 111 144 196 252 307 367
#     4  11  22  39  65  97 130 170 216 266 312 365
#
# _framework density 23.799883000000001
#
# number of rings (size 3 to 8) (size 9 to 14) (size 15 to 20)
#    0.000    1.714    2.857    3.000    0.000    4.000 
#    0.000    6.429    0.000    0.000    0.000    0.000 
#    0.000    0.000    0.000    0.000    0.000    0.000 
#
# Total GULP energy -156271.696451 kJ/mol
# GULP energy per Si atom -5581.132016 kJ/mol
# Density = 2.374571 g / cm^3
# Si number density = 23.799883 Si / 1000 Ang^3
#
#
#
# Elastic Constant Matrix: (Units=GPa)
#
#
# Indices 1 2 3 4 5 6 
#
# 1 26.8925 -1.1164 21.6456 0.0000 14.6200 0.0000
# 2 -1.1164 142.1907 21.1561 0.0000 14.4125 0.0000
# 3 21.6456 21.1561 112.2251 0.0000 25.5320 0.0000
# 4 0.0000 0.0000 0.0000 8.4652 0.0000 -0.3358
# 5 14.6200 14.4125 25.5320 0.0000 33.8999 0.0000
# 6 0.0000 0.0000 0.0000 -0.3358 0.0000 26.7862
#
#
#
# Elastic Compliance Matrix: (Units=1/GPa)
#
#
# Indices 1 2 3 4 5 6 
#
# 1 0.053094 0.003349 -0.006442 0.000000 -0.019469 0.000000
# 2 0.003349 0.007623 -0.001227 0.000000 -0.003761 0.000000
# 3 -0.006442 -0.001227 0.011626 0.000000 -0.005456 0.000000
# 4 0.000000 0.000000 0.000000 0.118189 0.000000 0.001482
# 5 -0.019469 -0.003761 -0.005456 0.000000 0.043603 0.000000
# 6 0.000000 0.000000 0.000000 0.001482 0.000000 0.037351
#
#
# Mechanical properties :
#
#
# Convention : Reuss Voigt Hill
#
# Bulk Modulus (GPa) = 15.69837 40.51987 28.10912
# Shear Modulus (GPa) = 16.59133 29.80512 23.19823
#
# Velocity S-wave (km/s) = 2.64316 3.54266 3.12544
# Velocity P-wave (km/s) = 3.99066 5.81344 4.98605
#
# Compressibility (1/GPa) = 0.06370089
#
# Stress axis : x y z
#
# Youngs Moduli (GPa) = 18.83450 131.18363 86.01485
#
# Poissons Ratio (x) = -0.43931 0.55415
# Poissons Ratio (y) = -0.06307 0.10557
# Poissons Ratio (z) = 0.12134 0.16101
#
# Static dielectric constant tensor:
#      x y z
#    x 1.825210 0.000000 0.129980 
#    y 0.000000 1.875120 0.000000 
#    z 0.129980 0.000000 1.925540 
# 
# From -- ./inp_files/300128.got.cif
#   From: 2010.05.17/outbox.cif.g08.bks.cpg/sg12_151_cif.got.tgz:300128.got - 2010.06.03 13:09:07.
