data_PCOD9210167
_publ_section_title
;
Structure prediction by ZEFSAII (Michael W. Deem and Ramdas Pophale) SiO2 
 PCOD9210167
Probable space group: C 2/M
;
_chemical_formula_sum "Si O2"
_cell_formula_units_Z 58
_cell_length_a 24.407803
_cell_length_b 11.679686
_cell_length_c 9.564593
_cell_angle_alpha 90.000000
_cell_angle_beta 83.470757
_cell_angle_gamma 90.000000
_cell_volume 2708.945825
_symmetry_space_group_name_H-M "C 2/M"
_symmetry_group_IT_number 12
_symmetry_cell_setting 'monoclinic'
loop_
_space_group_symop_operation_xyz
x,y,z
-x,y,-z
-x,-y,-z
x,-y,z
1/2+x,1/2+y,z
1/2-x,1/2+y,-z
1/2-x,1/2-y,-z
1/2+x,1/2-y,z
loop_
_atom_site_type_symbol
_atom_site_label
_atom_site_fract_x
_atom_site_fract_y
_atom_site_fract_z
Si Si1 0.365967 0.878246 0.517572
Si Si2 0.158504 0.871873 0.864479
Si Si3 0.924347 0.192132 0.672506
Si Si4 0.693764 0.625728 0.167314
Si Si5 0.753922 0.694186 0.651805
Si Si6 0.500000 0.500000 0.500000
Si Si7 0.384630 0.871552 0.205786
Si Si8 0.989950 0.370806 0.838018
O O1 0.402491 0.772394 0.553724
O O2 0.310401 0.876422 0.624098
O O3 0.350483 0.869724 0.359063
O O4 0.394889 0.000000 0.530331
O O5 0.199674 0.869571 0.720144
O O6 0.126000 0.749914 0.867430
O O7 0.130401 0.000000 0.872082
O O8 0.191314 0.866335 0.000991
O O9 0.868897 0.141717 0.758996
O O10 0.953494 0.275436 0.775779
O O11 0.965675 0.099347 0.598479
O O12 0.713112 0.500000 0.201828
O O13 0.733213 0.713738 0.231962
O O14 0.750000 0.750000 0.500000
O O15 0.448006 0.869465 0.237824
O O16 0.376523 0.000000 0.141114
O O17 0.967061 0.500000 0.829131
O O18 0.000000 0.350638 0.000000
#
# Coordination Sequence:
#
# PCOD9210167 Si02
#       8
#     8   8   8   8   8   2   8   8
#     4  10  21  39  63  90 123 159 206 265 321 381
#     4  11  23  42  64  96 130 171 217 265 321 395
#     4  11  22  41  62  91 126 168 215 265 320 382
#     4  10  23  42  64  89 132 171 214 264 326 385
#     4  11  22  40  63  95 126 163 214 262 324 388
#     4  12  24  40  64  88 132 164 224 260 316 388
#     4  10  21  39  60  91 128 167 211 260 322 381
#     4  10  21  39  64  92 123 162 213 266 322 386
#
# _framework density 21.410542
#
# number of rings (size 3 to 8) (size 9 to 14) (size 15 to 20)
#    0.000    1.517    2.069    2.897    0.000    1.655 
#    4.966    6.552    0.000    0.000    0.000    0.000 
#    0.000    0.000    0.000    0.000    0.000    0.000 
#
# Total GULP energy -161476.535610 kJ/mol
# GULP energy per Si atom -5568.156400 kJ/mol
# Density = 2.136181 g / cm^3
# Si number density = 21.410542 Si / 1000 Ang^3
#
#
#
# Elastic Constant Matrix: (Units=GPa)
#
#
# Indices 1 2 3 4 5 6 
#
# 1 31.7833 20.3167 0.5449 0.0000 -3.9849 0.0000
# 2 20.3167 182.2085 29.6421 0.0000 19.1861 0.0000
# 3 0.5449 29.6421 65.2769 0.0000 -6.0684 0.0000
# 4 0.0000 0.0000 0.0000 16.8525 0.0000 4.8226
# 5 -3.9849 19.1861 -6.0684 0.0000 29.7691 0.0000
# 6 0.0000 0.0000 0.0000 4.8226 0.0000 -17.6256
#
#
#
# Elastic Compliance Matrix: (Units=1/GPa)
#
#
# Indices 1 2 3 4 5 6 
#
# 1 0.036014 -0.005446 0.003004 0.000000 0.008943 0.000000
# 2 -0.005446 0.007391 -0.003895 0.000000 -0.006287 0.000000
# 3 0.003004 -0.003895 0.017669 0.000000 0.006514 0.000000
# 4 0.000000 0.000000 0.000000 0.055030 0.000000 0.015057
# 5 0.008943 -0.006287 0.006514 0.000000 0.040169 0.000000
# 6 0.000000 0.000000 0.000000 0.015057 0.000000 -0.052616
#
#
# Mechanical properties :
#
#
# Convention : Reuss Voigt Hill
#
# Bulk Modulus (GPa) = 20.66161 42.25291 31.45726
# Shear Modulus (GPa) = 37.74600 21.05019 29.39810
#
# Velocity S-wave (km/s) = 4.20332 3.13895 3.70951
# Velocity P-wave (km/s) = 5.76440 5.73715 5.75079
#
# Compressibility (1/GPa) = 0.04839895
#
# Stress axis : x y z
#
# Youngs Moduli (GPa) = 27.76694 135.29746 56.59716
#
# Poissons Ratio (x) = 0.73683 -0.17001
# Poissons Ratio (y) = 0.15122 0.22046
# Poissons Ratio (z) = -0.08341 0.52702
#
# Static dielectric constant tensor:
#      x y z
#    x 1.820290 0.000000 -0.053550 
#    y 0.000000 1.824520 0.000000 
#    z -0.053550 0.000000 1.785310 
# 
# From -- ./inp_files/103222.got.cif
#   From: 2010.05.17/outbox.cif.g08.bks.cpg/sg12_52_cif.got.tgz:103222.got - 2010.06.03 13:09:07.
