data_PCOD9210816
_publ_section_title
;
Structure prediction by ZEFSAII (Michael W. Deem and Ramdas Pophale) SiO2 
 PCOD9210816
Probable space group: C 2/M
;
_chemical_formula_sum "Si O2"
_cell_formula_units_Z 64
_cell_length_a 34.046346
_cell_length_b 17.495276
_cell_length_c 9.083669
_cell_angle_alpha 90.000000
_cell_angle_beta 144.837185
_cell_angle_gamma 90.000000
_cell_volume 3116.026151
_symmetry_space_group_name_H-M "C 2/M"
_symmetry_group_IT_number 12
_symmetry_cell_setting 'monoclinic'
loop_
_space_group_symop_operation_xyz
x,y,z
-x,y,-z
-x,-y,-z
x,-y,z
1/2+x,1/2+y,z
1/2-x,1/2+y,-z
1/2-x,1/2-y,-z
1/2+x,1/2-y,z
loop_
_atom_site_type_symbol
_atom_site_label
_atom_site_fract_x
_atom_site_fract_y
_atom_site_fract_z
Si Si1 0.524358 0.413042 0.910612
Si Si2 0.736582 0.330314 0.879950
Si Si3 0.702346 0.200480 0.247399
Si Si4 0.510182 0.906986 0.363580
Si Si5 0.872315 0.591560 0.779223
Si Si6 0.621370 0.585743 0.686690
Si Si7 0.358842 0.908835 0.406179
Si Si8 0.424239 0.687667 0.190708
O O1 0.554927 0.500000 0.013286
O O2 0.454834 0.420415 0.606319
O O3 0.565626 0.351561 0.939257
O O4 0.500000 0.390275 0.000000
O O5 0.789660 0.388882 0.114629
O O6 0.750000 0.250000 0.000000
O O7 0.755321 0.319563 0.768176
O O8 0.663569 0.362928 0.701654
O O9 0.750000 0.250000 0.500000
O O10 0.681370 0.125291 0.272284
O O11 0.630625 0.243541 0.989657
O O12 0.500000 0.882006 0.500000
O O13 0.579232 0.877495 0.502272
O O14 0.513080 0.000000 0.376211
O O15 0.447052 0.886367 0.066913
O O16 0.868979 0.500000 0.768312
O O17 0.860843 0.620934 0.578915
O O18 0.650309 0.500000 0.788003
O O19 0.614003 0.627030 0.820489
O O20 0.367660 0.000000 0.442108
O O21 0.500000 0.702726 0.500000
#
# Coordination Sequence:
#
# PCOD9210816 Si02
#       8
#     8   8   8   8   8   8   8   8
#     4   9  19  38  66  99 127 157 210 273 325 381
#     4  12  24  41  61  87 128 169 210 259 317 390
#     4  12  27  44  63  93 137 174 212 263 332 393
#     4   9  17  33  59  89 119 155 206 269 320 365
#     4  10  22  41  62  90 125 166 219 268 318 383
#     4  10  21  40  67  95 123 167 216 266 324 386
#     4  10  21  39  64  90 120 163 216 268 315 373
#     4  10  22  43  67  94 127 171 217 269 324 393
#
# _framework density 20.538981
#
# number of rings (size 3 to 8) (size 9 to 14) (size 15 to 20)
#    0.000    1.750    1.250    2.625    1.750    6.500 
#    0.000    0.625    0.000    0.000    0.000    0.000 
#    0.000    0.000    0.000    0.000    0.000    0.000 
#
# Total GULP energy -178640.411581 kJ/mol
# GULP energy per Si atom -5582.512862 kJ/mol
# Density = 2.049223 g / cm^3
# Si number density = 20.538981 Si / 1000 Ang^3
#
#
#
# Elastic Constant Matrix: (Units=GPa)
#
#
# Indices 1 2 3 4 5 6 
#
# 1 140.1105 26.2440 6.1278 0.0000 -19.2636 0.0000
# 2 26.2440 45.5051 -0.7174 0.0000 1.7389 0.0000
# 3 6.1278 -0.7174 43.4243 0.0000 -9.8849 0.0000
# 4 0.0000 0.0000 0.0000 21.3621 0.0000 -0.3297
# 5 -19.2636 1.7389 -9.8849 0.0000 40.1540 0.0000
# 6 0.0000 0.0000 0.0000 -0.3297 0.0000 24.1460
#
#
#
# Elastic Compliance Matrix: (Units=1/GPa)
#
#
# Indices 1 2 3 4 5 6 
#
# 1 0.008721 -0.005200 -0.000331 0.000000 0.004327 0.000000
# 2 -0.005200 0.025114 0.000353 0.000000 -0.003495 0.000000
# 3 -0.000331 0.000353 0.024409 0.000000 0.005835 0.000000
# 4 0.000000 0.000000 0.000000 0.046822 0.000000 0.000639
# 5 0.004327 -0.003495 0.005835 0.000000 0.028568 0.000000
# 6 0.000000 0.000000 0.000000 0.000639 0.000000 0.041424
#
#
# Mechanical properties :
#
#
# Convention : Reuss Voigt Hill
#
# Bulk Modulus (GPa) = 20.88257 32.48318 26.68287
# Shear Modulus (GPa) = 24.82918 30.29145 27.56032
#
# Velocity S-wave (km/s) = 3.48067 3.84451 3.66711
# Velocity P-wave (km/s) = 5.13252 5.96295 5.56325
#
# Compressibility (1/GPa) = 0.04788682
#
# Stress axis : x y z
#
# Youngs Moduli (GPa) = 114.66995 39.81894 40.96787
#
# Poissons Ratio (x) = 0.20706 0.01358
# Poissons Ratio (y) = 0.59629 -0.01446
# Poissons Ratio (z) = 0.03801 -0.01406
#
# Static dielectric constant tensor:
#      x y z
#    x 1.746720 0.000000 0.001750 
#    y 0.000000 1.834050 0.000000 
#    z 0.001750 0.000000 1.719440 
# 
# From -- ./inp_files/112912.got.cif
#   From: 2010.05.17/outbox.cif.g08.bks.cpg/sg12_57_cif.got.tgz:112912.got - 2010.06.03 13:09:07.
