data_PCOD9210007
_publ_section_title
;
Structure prediction by ZEFSAII (Michael W. Deem and Ramdas Pophale) SiO2 
 PCOD9210007
Probable space group: C 2/M
;
_chemical_formula_sum "Si O2"
_cell_formula_units_Z 64
_cell_length_a 19.959899
_cell_length_b 9.074045
_cell_length_c 31.837262
_cell_angle_alpha 90.000000
_cell_angle_beta 141.687205
_cell_angle_gamma 90.000000
_cell_volume 3574.823746
_symmetry_space_group_name_H-M "C 2/M"
_symmetry_group_IT_number 12
_symmetry_cell_setting 'monoclinic'
loop_
_space_group_symop_operation_xyz
x,y,z
-x,y,-z
-x,-y,-z
x,-y,z
1/2+x,1/2+y,z
1/2-x,1/2+y,-z
1/2-x,1/2-y,-z
1/2+x,1/2-y,z
loop_
_atom_site_type_symbol
_atom_site_label
_atom_site_fract_x
_atom_site_fract_y
_atom_site_fract_z
Si Si1 0.070378 0.674842 0.794230
Si Si2 0.407000 0.177101 0.643293
Si Si3 0.589118 0.175854 0.206524
Si Si4 0.810084 0.323472 0.432001
Si Si5 0.582522 0.329717 0.931610
Si Si6 0.754489 0.829893 0.068593
Si Si7 0.174316 0.173319 0.647762
Si Si8 0.556654 0.326288 0.427663
O O1 0.090189 0.500000 0.806480
O O2 0.178839 0.757857 0.860721
O O3 0.016581 0.708801 0.723118
O O4 0.979092 0.709187 0.784639
O O5 0.308990 0.257223 0.618709
O O6 0.411946 0.241896 0.599161
O O7 0.390559 0.000000 0.635304
O O8 0.526833 0.253197 0.137828
O O9 0.713165 0.218135 0.275197
O O10 0.584356 0.000000 0.198035
O O11 0.811197 0.500000 0.435778
O O12 0.845107 0.269322 0.403238
O O13 0.884195 0.249298 0.503995
O O14 0.564441 0.500000 0.932193
O O15 0.663769 0.321006 0.931305
O O16 0.646363 0.251930 0.000709
O O17 0.732196 0.000000 0.065824
O O18 0.071455 0.184484 0.627247
O O19 0.185339 0.000000 0.640653
O O20 0.585864 0.500000 0.439596
#
# Coordination Sequence:
#
# PCOD9210007 Si02
#       8
#     8   8   8   8   8   8   8   8
#     4   9  17  30  50  72  99 135 172 214 260 313
#     4  11  22  39  59  80 109 143 181 222 272 324
#     4   9  16  30  50  72  99 134 174 212 259 313
#     4  12  24  38  59  83 108 138 179 226 272 323
#     4   9  16  25  39  65 100 135 170 209 256 305
#     4   9  16  25  40  65  99 135 170 210 255 306
#     4  10  21  39  59  80 108 144 180 220 271 325
#     4  11  24  40  58  80 109 142 180 223 271 324
#
# _framework density 17.902979999999999
#
# number of rings (size 3 to 8) (size 9 to 14) (size 15 to 20)
#    0.000    2.000    1.250    3.375    0.000    7.000 
#    0.000    0.000    0.000    0.000    0.000    0.875 
#    0.000    7.000    0.000    0.000    0.000    0.000 
#
# Total GULP energy -178599.259064 kJ/mol
# GULP energy per Si atom -5581.226846 kJ/mol
# Density = 1.786223 g / cm^3
# Si number density = 17.902980 Si / 1000 Ang^3
#
#
#
# Elastic Constant Matrix: (Units=GPa)
#
#
# Indices 1 2 3 4 5 6 
#
# 1 12.9695 1.9949 -16.9109 0.0000 -1.7618 0.0000
# 2 1.9949 68.1134 31.6564 0.0000 2.4695 0.0001
# 3 -16.9109 31.6564 93.2134 0.0000 2.3859 0.0000
# 4 0.0000 0.0000 0.0000 33.4115 0.0000 -3.3549
# 5 -1.7618 2.4695 2.3859 0.0000 -2.8081 0.0000
# 6 0.0000 0.0001 0.0000 -3.3549 0.0000 18.1496
#
#
#
# Elastic Compliance Matrix: (Units=1/GPa)
#
#
# Indices 1 2 3 4 5 6 
#
# 1 0.103260 -0.012340 0.024331 0.000000 -0.054966 0.000000
# 2 -0.012340 0.018621 -0.008984 0.000000 0.016484 0.000000
# 3 0.024331 -0.008984 0.018387 0.000000 -0.007544 0.000000
# 4 0.000000 0.000000 0.000000 0.030496 0.000000 0.005637
# 5 -0.054966 0.016484 -0.007544 0.000000 -0.313541 0.000000
# 6 0.000000 0.000000 0.000000 0.005637 0.000000 0.056139
#
#
# Mechanical properties :
#
#
# Convention : Reuss Voigt Hill
#
# Bulk Modulus (GPa) = 6.83610 23.08633 14.96121
# Shear Modulus (GPa) = -113.91748 20.25433 -46.83158
#
# Velocity S-wave (km/s) = -7.98552 3.36719 -5.12009
# Velocity P-wave (km/s) = 9.01100 5.29533 5.15546
#
# Compressibility (1/GPa) = 0.14628226
#
# Stress axis : x y z
#
# Youngs Moduli (GPa) = 9.68425 53.70339 54.38735
#
# Poissons Ratio (x) = 0.66268 -1.32331
# Poissons Ratio (y) = 0.11950 0.48864
# Poissons Ratio (z) = -0.23563 0.48250
#
# Static dielectric constant tensor:
#      x y z
#    x 1.584990 0.000000 0.007110 
#    y 0.000000 1.598890 0.000000 
#    z 0.007110 0.000000 1.615820 
# 
# From -- ./inp_files/378395.got.cif
#   From: 2010.05.17/outbox.cif.g08.bks.cpg/sg12_190_cif.got.tgz:378395.got - 2010.06.03 13:09:07.
