data_PCOD9210496
_publ_section_title
;
Structure prediction by ZEFSAII (Michael W. Deem and Ramdas Pophale) SiO2 
 PCOD9210496
Probable space group: C 2/M
;
_chemical_formula_sum "Si O2"
_cell_formula_units_Z 56
_cell_length_a 22.261432
_cell_length_b 14.717097
_cell_length_c 21.878550
_cell_angle_alpha 90.000000
_cell_angle_beta 19.075557
_cell_angle_gamma 90.000000
_cell_volume 2342.585369
_symmetry_space_group_name_H-M "C 2/M"
_symmetry_group_IT_number 12
_symmetry_cell_setting 'monoclinic'
loop_
_space_group_symop_operation_xyz
x,y,z
-x,y,-z
-x,-y,-z
x,-y,z
1/2+x,1/2+y,z
1/2-x,1/2+y,-z
1/2-x,1/2-y,-z
1/2+x,1/2-y,z
loop_
_atom_site_type_symbol
_atom_site_label
_atom_site_fract_x
_atom_site_fract_y
_atom_site_fract_z
Si Si1 0.218168 0.102698 0.452407
Si Si2 0.244226 0.706561 0.372238
Si Si3 0.200294 0.903253 0.277159
Si Si4 0.825086 0.799671 0.023826
Si Si5 0.295169 0.701033 0.191757
Si Si6 0.007152 0.604737 0.700926
Si Si7 0.690744 0.400004 0.139298
O O1 0.226816 0.184310 0.396208
O O2 0.382334 0.114978 0.342386
O O3 0.022180 0.109401 0.675721
O O4 0.228260 0.000000 0.417258
O O5 0.193590 0.674598 0.352208
O O6 0.117215 0.664234 0.545950
O O7 0.457879 0.683258 0.180202
O O8 0.304009 0.810383 0.189876
O O9 0.177824 0.906515 0.225690
O O10 0.000000 0.896703 0.500000
O O11 0.283566 0.000000 0.216712
O O12 0.741761 0.813950 0.172811
O O13 0.703968 0.862955 0.096722
O O14 0.792833 0.695671 0.034407
O O15 0.500000 0.662059 0.000000
O O16 0.016365 0.500000 0.674014
O O17 0.763355 0.500000 0.048871
#
# Coordination Sequence:
#
# PCOD9210496 Si02
#       7
#     8   8   8   8   8   8   8
#     4  10  21  39  62  91 125 158 197 244 292 357
#     4  11  22  39  65  89 121 158 199 242 305 359
#     4   9  16  25  44  76 111 151 190 221 271 344
#     4  10  22  39  62  89 124 157 197 246 298 354
#     4   9  20  35  53  86 117 150 191 241 290 355
#     4  11  25  44  62  85 117 156 208 259 302 347
#     4   9  17  32  54  83 121 156 188 232 284 346
#
# _framework density 23.905211999999999
#
# number of rings (size 3 to 8) (size 9 to 14) (size 15 to 20)
#    0.000    2.143    1.429    1.286    2.000    3.714 
#    0.000    4.286    0.000    2.571    0.000    0.000 
#    0.000    0.000    0.000    0.000    0.000    0.000 
#
# Total GULP energy -156472.938311 kJ/mol
# GULP energy per Si atom -5588.319225 kJ/mol
# Density = 2.385080 g / cm^3
# Si number density = 23.905212 Si / 1000 Ang^3
#
#
#
# Elastic Constant Matrix: (Units=GPa)
#
#
# Indices 1 2 3 4 5 6 
#
# 1 86.6934 28.1346 16.4472 0.0042 -5.0695 -0.0062
# 2 28.1346 52.7856 7.1321 -0.0381 -6.3547 -0.0062
# 3 16.4472 7.1321 81.0072 -0.0444 -19.5909 0.0115
# 4 0.0042 -0.0381 -0.0444 4.2778 0.0050 -12.1839
# 5 -5.0695 -6.3547 -19.5909 0.0050 31.0243 0.0022
# 6 -0.0062 -0.0062 0.0115 -12.1839 0.0022 17.6569
#
#
#
# Elastic Compliance Matrix: (Units=1/GPa)
#
#
# Indices 1 2 3 4 5 6 
#
# 1 0.014360 -0.007410 -0.002435 0.000096 -0.000709 0.000071
# 2 -0.007410 0.023301 0.000371 -0.000236 0.003796 -0.000158
# 3 -0.002435 0.000371 0.015023 -0.000122 0.009164 -0.000096
# 4 0.000096 -0.000236 -0.000122 -0.242157 -0.000059 -0.167097
# 5 -0.000709 0.003796 0.009164 -0.000059 0.038682 -0.000050
# 6 0.000071 -0.000158 -0.000096 -0.167097 -0.000050 -0.058668
#
#
# Mechanical properties :
#
#
# Convention : Reuss Voigt Hill
#
# Bulk Modulus (GPa) = 29.64181 35.99043 32.81612
# Shear Modulus (GPa) = -27.89134 21.84331 -3.02401
#
# Velocity S-wave (km/s) = -3.41947 3.02610 -1.12594
# Velocity P-wave (km/s) = 1.77869 5.22474 3.47377
#
# Compressibility (1/GPa) = 0.03373613
#
# Stress axis : x y z
#
# Youngs Moduli (GPa) = 69.63700 42.91677 66.56679
#
# Poissons Ratio (x) = 0.31802 0.16206
# Poissons Ratio (y) = 0.51603 -0.02470
# Poissons Ratio (z) = 0.16953 -0.01592
#
# Static dielectric constant tensor:
#      x y z
#    x 1.940200 -0.000010 0.023590 
#    y -0.000010 1.869170 0.000020 
#    z 0.023590 0.000020 1.966100 
# 
# From -- ./inp_files/349749.got.cif
#   From: 2010.05.17/outbox.cif.g08.bks.cpg/sg12_175_cif.got.tgz:349749.got - 2010.06.03 13:09:07.
