data_PCOD9210440
_publ_section_title
;
Structure prediction by ZEFSAII (Michael W. Deem and Ramdas Pophale) SiO2 
 PCOD9210440
Probable space group: C 2/M
;
_chemical_formula_sum "Si O2"
_cell_formula_units_Z 40
_cell_length_a 9.591050
_cell_length_b 26.586946
_cell_length_c 8.362786
_cell_angle_alpha 90.000000
_cell_angle_beta 83.158253
_cell_angle_gamma 90.000000
_cell_volume 2117.297600
_symmetry_space_group_name_H-M "C 2/M"
_symmetry_group_IT_number 12
_symmetry_cell_setting 'monoclinic'
loop_
_space_group_symop_operation_xyz
x,y,z
-x,y,-z
-x,-y,-z
x,-y,z
1/2+x,1/2+y,z
1/2-x,1/2+y,-z
1/2-x,1/2-y,-z
1/2+x,1/2-y,z
loop_
_atom_site_type_symbol
_atom_site_label
_atom_site_fract_x
_atom_site_fract_y
_atom_site_fract_z
Si Si1 0.567902 0.500000 0.732041
Si Si2 0.230643 0.000000 0.040701
Si Si3 0.645755 0.597370 0.515919
Si Si4 0.835845 0.400037 0.176518
Si Si5 0.906681 0.357873 0.664994
Si Si6 0.655972 0.201526 0.029564
O O1 0.412502 0.500000 0.831562
O O2 0.594818 0.547690 0.615922
O O3 0.676397 0.500000 0.865941
O O4 0.317168 0.050328 0.071856
O O5 0.500000 0.626595 0.500000
O O6 0.726145 0.592547 0.336463
O O7 0.765739 0.618174 0.615822
O O8 0.988836 0.392041 0.238825
O O9 0.806111 0.348822 0.079419
O O10 0.855658 0.313839 0.785133
O O11 0.000000 0.342476 0.500000
O O12 0.500000 0.215462 0.000000
O O13 0.750000 0.250000 0.000000
#
# Coordination Sequence:
#
# PCOD9210440 Si02
#       6
#     4   4   8   8   8   8
#     4  11  22  34  53  88 131 162 202 256 292 346
#     4  11  21  37  60  88 127 166 202 247 306 358
#     4  11  20  36  57  85 123 163 201 247 297 354
#     4  10  21  39  62  89 121 160 202 248 302 362
#     4   9  21  40  62  86 121 154 201 254 299 359
#     4  10  22  43  64  91 121 155 200 256 304 362
#
# _framework density 18.892007
#
# number of rings (size 3 to 8) (size 9 to 14) (size 15 to 20)
#    0.000    1.800    2.000    2.100    0.000    2.400 
#    3.600   18.500    0.000    0.000    0.000    0.000 
#    0.000    0.000    0.000    0.000    0.000    0.000 
#
# Total GULP energy -111489.083367 kJ/mol
# GULP energy per Si atom -5574.454168 kJ/mol
# Density = 1.884901 g / cm^3
# Si number density = 18.892007 Si / 1000 Ang^3
#
#
#
# Elastic Constant Matrix: (Units=GPa)
#
#
# Indices 1 2 3 4 5 6 
#
# 1 109.8125 71.9623 65.5702 0.0000 3.6693 0.0000
# 2 71.9623 128.4196 80.7089 0.0000 8.1545 0.0000
# 3 65.5702 80.7089 132.6706 0.0000 5.5116 0.0000
# 4 0.0000 0.0000 0.0000 31.0732 0.0000 -6.4721
# 5 3.6693 8.1545 5.5116 0.0000 32.3413 0.0000
# 6 0.0000 0.0000 0.0000 -6.4721 0.0000 34.3958
#
#
#
# Elastic Compliance Matrix: (Units=1/GPa)
#
#
# Indices 1 2 3 4 5 6 
#
# 1 0.015527 -0.006308 -0.003857 0.000000 0.000486 0.000000
# 2 -0.006308 0.015285 -0.006094 0.000000 -0.002100 0.000000
# 3 -0.003857 -0.006094 0.013162 0.000000 -0.000269 0.000000
# 4 0.000000 0.000000 0.000000 0.033495 0.000000 0.006303
# 5 0.000486 -0.002100 -0.000269 0.000000 0.031440 0.000000
# 6 0.000000 0.000000 0.000000 0.006303 0.000000 0.030259
#
#
# Mechanical properties :
#
#
# Convention : Reuss Voigt Hill
#
# Bulk Modulus (GPa) = 87.28267 89.70951 88.49609
# Shear Modulus (GPa) = 28.48967 29.73947 29.11457
#
# Velocity S-wave (km/s) = 3.88755 3.97190 3.92995
# Velocity P-wave (km/s) = 8.15180 8.28391 8.21812
#
# Compressibility (1/GPa) = 0.01145703
#
# Stress axis : x y z
#
# Youngs Moduli (GPa) = 64.40560 65.42553 75.97757
#
# Poissons Ratio (x) = 0.41268 0.29303
# Poissons Ratio (y) = 0.40624 0.46298
# Poissons Ratio (z) = 0.24840 0.39868
#
# Static dielectric constant tensor:
#      x y z
#    x 1.584570 0.000000 -0.062190 
#    y 0.000000 1.657040 0.000000 
#    z -0.062190 0.000000 1.612640 
# 
# From -- ./inp_files/40434.got.cif
#   From: 2010.05.17/outbox.cif.g08.bks.cpg/sg12_21_cif.got.tgz:40434.got - 2010.06.03 13:09:07.
