data_PCOD9210406
_publ_section_title
;
Structure prediction by ZEFSAII (Michael W. Deem and Ramdas Pophale) SiO2 
 PCOD9210406
Probable space group: C 2/M
;
_chemical_formula_sum "Si O2"
_cell_formula_units_Z 64
_cell_length_a 19.608678
_cell_length_b 14.173743
_cell_length_c 11.660835
_cell_angle_alpha 90.000000
_cell_angle_beta 84.941435
_cell_angle_gamma 90.000000
_cell_volume 3228.253858
_symmetry_space_group_name_H-M "C 2/M"
_symmetry_group_IT_number 12
_symmetry_cell_setting 'monoclinic'
loop_
_space_group_symop_operation_xyz
x,y,z
-x,y,-z
-x,-y,-z
x,-y,z
1/2+x,1/2+y,z
1/2-x,1/2+y,-z
1/2-x,1/2-y,-z
1/2+x,1/2-y,z
loop_
_atom_site_type_symbol
_atom_site_label
_atom_site_fract_x
_atom_site_fract_y
_atom_site_fract_z
Si Si1 0.325960 0.757654 0.539419
Si Si2 0.647752 0.611598 0.287846
Si Si3 0.393076 0.231828 0.299933
Si Si4 0.259270 0.100766 0.952436
Si Si5 0.370188 0.894343 0.736991
Si Si6 0.225955 0.710891 0.851159
Si Si7 0.497055 0.113835 0.135043
Si Si8 0.007063 0.111193 0.635116
O O1 0.250000 0.750000 0.500000
O O2 0.339682 0.652828 0.586615
O O3 0.376847 0.793439 0.433212
O O4 0.341795 0.826982 0.642721
O O5 0.663260 0.500000 0.275521
O O6 0.698607 0.672896 0.198975
O O7 0.565958 0.624567 0.289621
O O8 0.319066 0.233922 0.251622
O O9 0.436001 0.161366 0.214679
O O10 0.435717 0.328214 0.308457
O O11 0.311474 0.097310 0.840566
O O12 0.217349 0.194289 0.928507
O O13 0.223247 0.000000 0.967633
O O14 0.298455 0.125428 0.064061
O O15 0.435899 0.860560 0.799300
O O16 0.384777 0.000000 0.689557
O O17 0.491886 0.000000 0.136416
O O18 0.500000 0.143013 0.000000
O O19 0.000000 0.138613 0.500000
O O20 0.023135 0.000000 0.633266
#
# Coordination Sequence:
#
# PCOD9210406 Si02
#       8
#     8   8   8   8   8   8   8   8
#     4  12  23  40  58  93 132 163 212 263 329 389
#     4  11  22  39  62  89 125 168 213 261 317 385
#     4  12  24  38  67  95 130 165 210 271 316 385
#     4  10  21  40  66  90 123 167 215 266 319 379
#     4  10  21  39  62  87 124 169 209 259 320 386
#     4  11  23  40  63  96 124 164 220 269 320 378
#     4  10  23  42  64  93 128 170 215 261 324 390
#     4  10  22  40  63  91 123 169 214 252 312 384
#
# _framework density 19.824957999999999
#
# number of rings (size 3 to 8) (size 9 to 14) (size 15 to 20)
#    0.000    1.250    3.750    1.875    0.000    3.500 
#    0.000    1.250    0.000    0.375    0.000    0.000 
#    0.000    0.000    0.000    0.000    0.000    0.000 
#
# Total GULP energy -178209.235168 kJ/mol
# GULP energy per Si atom -5569.038599 kJ/mol
# Density = 1.977984 g / cm^3
# Si number density = 19.824958 Si / 1000 Ang^3
#
#
#
# Elastic Constant Matrix: (Units=GPa)
#
#
# Indices 1 2 3 4 5 6 
#
# 1 68.7565 33.6180 43.0685 0.0000 3.9305 0.0000
# 2 33.6180 97.5609 56.4441 0.0000 2.7026 0.0000
# 3 43.0685 56.4441 129.4390 0.0000 -2.3000 0.0000
# 4 0.0000 0.0000 0.0000 20.3030 0.0000 -2.1806
# 5 3.9305 2.7026 -2.3000 0.0000 21.0534 0.0000
# 6 0.0000 0.0000 0.0000 -2.1806 0.0000 18.4582
#
#
#
# Elastic Compliance Matrix: (Units=1/GPa)
#
#
# Indices 1 2 3 4 5 6 
#
# 1 0.019739 -0.003825 -0.004966 0.000000 -0.003737 0.000000
# 2 -0.003825 0.014574 -0.005113 0.000000 -0.001715 0.000000
# 3 -0.004966 -0.005113 0.011658 0.000000 0.002857 0.000000
# 4 0.000000 0.000000 0.000000 0.049887 0.000000 0.005894
# 5 -0.003737 -0.001715 0.002857 0.000000 0.048728 0.000000
# 6 0.000000 0.000000 0.000000 0.005894 0.000000 0.054873
#
#
# Mechanical properties :
#
#
# Convention : Reuss Voigt Hill
#
# Bulk Modulus (GPa) = 55.05792 62.44638 58.75215
# Shear Modulus (GPa) = 21.42974 22.80462 22.11718
#
# Velocity S-wave (km/s) = 3.29134 3.39528 3.34372
# Velocity P-wave (km/s) = 6.50202 6.85112 6.67885
#
# Compressibility (1/GPa) = 0.01816269
#
# Stress axis : x y z
#
# Youngs Moduli (GPa) = 50.66212 68.61721 85.77538
#
# Poissons Ratio (x) = 0.26246 0.42597
# Poissons Ratio (y) = 0.19378 0.43856
# Poissons Ratio (z) = 0.25159 0.35083
#
# Static dielectric constant tensor:
#      x y z
#    x 1.781230 0.000000 0.013090 
#    y 0.000000 1.808920 0.000000 
#    z 0.013090 0.000000 1.759520 
# 
# From -- ./inp_files/156640.got.cif
#   From: 2010.05.17/outbox.cif.g08.bks.cpg/sg12_79_cif.got.tgz:156640.got - 2010.06.03 13:09:07.
