data_PCOD9210279
_publ_section_title
;
Structure prediction by ZEFSAII (Michael W. Deem and Ramdas Pophale) SiO2 
 PCOD9210279
Probable space group: C 2/M
;
_chemical_formula_sum "Si O2"
_cell_formula_units_Z 64
_cell_length_a 29.713459
_cell_length_b 18.535401
_cell_length_c 9.585819
_cell_angle_alpha 90.000000
_cell_angle_beta 40.487596
_cell_angle_gamma 90.000000
_cell_volume 3427.825696
_symmetry_space_group_name_H-M "C 2/M"
_symmetry_group_IT_number 12
_symmetry_cell_setting 'monoclinic'
loop_
_space_group_symop_operation_xyz
x,y,z
-x,y,-z
-x,-y,-z
x,-y,z
1/2+x,1/2+y,z
1/2-x,1/2+y,-z
1/2-x,1/2-y,-z
1/2+x,1/2-y,z
loop_
_atom_site_type_symbol
_atom_site_label
_atom_site_fract_x
_atom_site_fract_y
_atom_site_fract_z
Si Si1 0.303811 0.583025 0.558217
Si Si2 0.059089 0.297670 0.621129
Si Si3 0.659349 0.084305 0.436908
Si Si4 0.711782 0.828962 0.573879
Si Si5 0.099906 0.267766 0.020360
Si Si6 0.170322 0.769510 0.143658
Si Si7 0.222698 0.918911 0.066259
Si Si8 0.425531 0.679155 0.181465
O O1 0.321357 0.500000 0.498784
O O2 0.257818 0.612535 0.542518
O O3 0.371427 0.631975 0.392422
O O4 0.266254 0.591916 0.795047
O O5 0.085101 0.379198 0.583110
O O6 0.114759 0.262169 0.383936
O O7 0.064796 0.252561 0.751986
O O8 0.979436 0.289381 0.760921
O O9 0.696202 0.140000 0.457853
O O10 0.706555 0.086488 0.187104
O O11 0.656481 0.000000 0.489151
O O12 0.750000 0.750000 0.500000
O O13 0.640312 0.824044 0.827730
O O14 0.146043 0.256145 0.048582
O O15 0.096892 0.198612 0.923033
O O16 0.250000 0.750000 0.000000
O O17 0.171028 0.856329 0.141389
O O18 0.195165 0.000000 0.110576
O O19 0.500000 0.642556 0.000000
#
# Coordination Sequence:
#
# PCOD9210279 Si02
#       8
#     8   8   8   8   8   8   8   8
#     4  11  22  38  59  89 123 161 204 254 308 369
#     4  11  22  41  63  92 123 162 208 257 303 367
#     4  11  23  40  61  90 126 165 204 255 318 373
#     4  12  22  38  62  91 122 159 210 258 309 364
#     4  11  24  38  63  92 126 154 208 262 308 361
#     4  12  22  38  66  96 118 163 216 253 310 369
#     4  10  22  38  59  89 126 159 201 258 311 362
#     4  10  21  39  61  88 122 160 203 254 307 368
#
# _framework density 18.670729000000001
#
# number of rings (size 3 to 8) (size 9 to 14) (size 15 to 20)
#    0.000    1.000    5.000    2.250    0.000    0.250 
#    0.000    1.875    0.000    4.500    0.000    0.000 
#    0.000    0.000    0.000    0.000    0.000    0.000 
#
# Total GULP energy -178486.201998 kJ/mol
# GULP energy per Si atom -5577.693812 kJ/mol
# Density = 1.862823 g / cm^3
# Si number density = 18.670729 Si / 1000 Ang^3
#
#
#
# Elastic Constant Matrix: (Units=GPa)
#
#
# Indices 1 2 3 4 5 6 
#
# 1 106.7973 27.7722 46.0346 0.0000 0.9053 0.0000
# 2 27.7722 88.4967 23.7085 0.0000 -6.4757 0.0000
# 3 46.0346 23.7085 104.3012 0.0000 -4.3616 0.0000
# 4 0.0000 0.0000 0.0000 18.7839 0.0000 10.3574
# 5 0.9053 -6.4757 -4.3616 0.0000 31.7254 0.0000
# 6 0.0000 0.0000 0.0000 10.3574 0.0000 16.4181
#
#
#
# Elastic Compliance Matrix: (Units=1/GPa)
#
#
# Indices 1 2 3 4 5 6 
#
# 1 0.012141 -0.002630 -0.004825 0.000000 -0.001547 0.000000
# 2 -0.002630 0.012742 -0.001633 0.000000 0.002451 0.000000
# 3 -0.004825 -0.001633 0.012150 0.000000 0.001475 0.000000
# 4 0.000000 0.000000 0.000000 0.081633 0.000000 -0.051498
# 5 -0.001547 0.002451 0.001475 0.000000 0.032268 0.000000
# 6 0.000000 0.000000 0.000000 -0.051498 0.000000 0.093397
#
#
# Mechanical properties :
#
#
# Convention : Reuss Voigt Hill
#
# Bulk Modulus (GPa) = 53.03400 54.95841 53.99621
# Shear Modulus (GPa) = 18.60170 26.85747 22.72958
#
# Velocity S-wave (km/s) = 3.15985 3.79684 3.49290
# Velocity P-wave (km/s) = 6.46370 6.98003 6.72682
#
# Compressibility (1/GPa) = 0.01885583
#
# Stress axis : x y z
#
# Youngs Moduli (GPa) = 82.36867 78.47937 82.30395
#
# Poissons Ratio (x) = 0.20644 0.39713
# Poissons Ratio (y) = 0.21667 0.13439
# Poissons Ratio (z) = 0.39744 0.12815
#
# Static dielectric constant tensor:
#      x y z
#    x 1.694280 0.000000 -0.017610 
#    y 0.000000 1.668800 0.000000 
#    z -0.017610 0.000000 1.671430 
# 
# From -- ./inp_files/112828.got.cif
#   From: 2010.05.17/outbox.cif.g08.bks.cpg/sg12_57_cif.got.tgz:112828.got - 2010.06.03 13:09:07.
