data_PCOD9210966
_publ_section_title
;
Structure prediction by ZEFSAII (Michael W. Deem and Ramdas Pophale) SiO2 
 PCOD9210966
Probable space group: C 2/M
;
_chemical_formula_sum "Si O2"
_cell_formula_units_Z 48
_cell_length_a 17.919883
_cell_length_b 15.159012
_cell_length_c 17.858661
_cell_angle_alpha 90.000000
_cell_angle_beta 29.665723
_cell_angle_gamma 90.000000
_cell_volume 2401.079666
_symmetry_space_group_name_H-M "C 2/M"
_symmetry_group_IT_number 12
_symmetry_cell_setting 'monoclinic'
loop_
_space_group_symop_operation_xyz
x,y,z
-x,y,-z
-x,-y,-z
x,-y,z
1/2+x,1/2+y,z
1/2-x,1/2+y,-z
1/2-x,1/2-y,-z
1/2+x,1/2-y,z
loop_
_atom_site_type_symbol
_atom_site_label
_atom_site_fract_x
_atom_site_fract_y
_atom_site_fract_z
Si Si1 0.074679 0.675748 0.151846
Si Si2 0.876220 0.099075 0.240988
Si Si3 0.321780 0.762078 0.669394
Si Si4 0.775508 0.397394 0.335333
Si Si5 0.693360 0.320691 0.939254
Si Si6 0.113751 0.180448 0.610406
O O1 0.200941 0.629120 0.092076
O O2 0.930666 0.623222 0.246053
O O3 0.023637 0.754113 0.253500
O O4 0.143839 0.728790 0.021870
O O5 0.751563 0.168781 0.324323
O O6 0.887656 0.111611 0.320455
O O7 0.836271 0.000000 0.255476
O O8 0.036943 0.126856 0.066045
O O9 0.500000 0.756404 0.500000
O O10 0.243269 0.668562 0.718148
O O11 0.275818 0.799435 0.790204
O O12 0.768696 0.500000 0.322551
O O13 0.640361 0.368516 0.509497
O O14 0.250000 0.250000 0.500000
#
# Coordination Sequence:
#
# PCOD9210966 Si02
#       6
#     8   8   8   8   8   8
#     4   9  19  38  65  90 116 166 215 251 312 368
#     4  11  23  40  64  93 125 162 209 262 318 369
#     4  12  25  41  62  90 130 169 209 258 319 374
#     4  11  22  38  64  96 130 166 209 260 316 374
#     4  10  21  39  65  89 125 164 207 259 310 377
#     4   9  16  36  63  89 122 162 200 253 308 366
#
# _framework density 19.991005999999999
#
# number of rings (size 3 to 8) (size 9 to 14) (size 15 to 20)
#    0.000    1.667    5.000    2.000    2.333    2.667 
#    0.000    1.667    0.000    1.000    0.000    0.000 
#    0.000    0.000    0.000    0.000    0.000    0.000 
#
# Total GULP energy -133843.424758 kJ/mol
# GULP energy per Si atom -5576.809365 kJ/mol
# Density = 1.994551 g / cm^3
# Si number density = 19.991006 Si / 1000 Ang^3
#
#
#
# Elastic Constant Matrix: (Units=GPa)
#
#
# Indices 1 2 3 4 5 6 
#
# 1 36.0749 2.8329 8.8216 -0.0001 -14.0998 0.0000
# 2 2.8329 104.4466 8.6597 0.0001 -20.2209 -0.0001
# 3 8.8216 8.6597 73.6624 0.0003 -6.2295 -0.0001
# 4 -0.0001 0.0001 0.0003 11.4864 0.0000 0.4792
# 5 -14.0998 -20.2209 -6.2295 0.0000 40.5717 0.0000
# 6 0.0000 -0.0001 -0.0001 0.4792 0.0000 1.5859
#
#
#
# Elastic Compliance Matrix: (Units=1/GPa)
#
#
# Indices 1 2 3 4 5 6 
#
# 1 0.032971 0.001651 -0.003145 0.000000 0.011798 0.000000
# 2 0.001651 0.010727 -0.000971 0.000000 0.005771 0.000001
# 3 -0.003145 -0.000971 0.014116 0.000000 0.000591 0.000001
# 4 0.000000 0.000000 0.000000 0.088171 0.000000 -0.026640
# 5 0.011798 0.005771 0.000591 0.000000 0.031715 0.000001
# 6 0.000000 0.000001 0.000001 -0.026640 0.000001 0.638612
#
#
# Mechanical properties :
#
#
# Convention : Reuss Voigt Hill
#
# Bulk Modulus (GPa) = 18.90920 28.31247 23.61083
# Shear Modulus (GPa) = 5.96040 23.65344 14.80692
#
# Velocity S-wave (km/s) = 1.72859 3.44351 2.72449
# Velocity P-wave (km/s) = 3.66925 5.47756 4.66192
#
# Compressibility (1/GPa) = 0.05288431
#
# Stress axis : x y z
#
# Youngs Moduli (GPa) = 30.32993 93.22044 70.84090
#
# Poissons Ratio (x) = -0.15387 0.22278
# Poissons Ratio (y) = -0.05006 0.06877
# Poissons Ratio (z) = 0.09538 0.09049
#
# Static dielectric constant tensor:
#      x y z
#    x 1.773120 0.000000 -0.017910 
#    y 0.000000 1.689740 0.000000 
#    z -0.017910 0.000000 1.762980 
# 
# From -- ./inp_files/278046.got.cif
#   From: 2010.05.17/outbox.cif.g08.bks.cpg/sg12_140_cif.got.tgz:278046.got - 2010.06.03 13:09:07.
