data_PCOD9210921
_publ_section_title
;
Structure prediction by ZEFSAII (Michael W. Deem and Ramdas Pophale) SiO2 
 PCOD9210921
Probable space group: C 2/M
;
_chemical_formula_sum "Si O2"
_cell_formula_units_Z 64
_cell_length_a 15.739293
_cell_length_b 8.666925
_cell_length_c 31.217389
_cell_angle_alpha 90.000000
_cell_angle_beta 131.346665
_cell_angle_gamma 90.000000
_cell_volume 3196.895859
_symmetry_space_group_name_H-M "C 2/M"
_symmetry_group_IT_number 12
_symmetry_cell_setting 'monoclinic'
loop_
_space_group_symop_operation_xyz
x,y,z
-x,y,-z
-x,-y,-z
x,-y,z
1/2+x,1/2+y,z
1/2-x,1/2+y,-z
1/2-x,1/2-y,-z
1/2+x,1/2-y,z
loop_
_atom_site_type_symbol
_atom_site_label
_atom_site_fract_x
_atom_site_fract_y
_atom_site_fract_z
Si Si1 0.220135 0.315791 0.423617
Si Si2 0.931533 0.184194 0.555407
Si Si3 0.540675 0.318962 0.062114
Si Si4 0.794781 0.317058 0.748609
Si Si5 0.678966 0.182343 0.627249
Si Si6 0.458253 0.317649 0.178490
Si Si7 0.644198 0.181701 0.939136
Si Si8 0.738361 0.315245 0.827129
O O1 0.207756 0.500000 0.420030
O O2 0.115433 0.241844 0.414388
O O3 0.333225 0.275036 0.488591
O O4 0.243223 0.257564 0.383606
O O5 0.050472 0.257065 0.581974
O O6 0.943478 0.000000 0.560085
O O7 0.523091 0.500000 0.066582
O O8 0.465601 0.214886 0.068433
O O9 0.669897 0.273228 0.113537
O O10 0.500000 0.294671 0.000000
O O11 0.777121 0.500000 0.737743
O O12 0.726411 0.229345 0.689310
O O13 0.757137 0.272965 0.784005
O O14 0.926589 0.276261 0.787332
O O15 0.680804 0.000000 0.622272
O O16 0.483442 0.500000 0.184813
O O17 0.377715 0.270437 0.112284
O O18 0.387241 0.284374 0.197594
O O19 0.659145 0.000000 0.936533
O O20 0.750000 0.250000 0.000000
O O21 0.758001 0.500000 0.838086
#
# Coordination Sequence:
#
# PCOD9210921 Si02
#       8
#     8   8   8   8   8   8   8   8
#     4  10  21  39  64  95 131 171 215 266 324 383
#     4  10  21  39  64  95 132 171 213 266 325 383
#     4  11  23  38  60  91 124 157 198 249 306 370
#     4  11  24  44  65  89 123 167 214 264 318 375
#     4  12  25  40  62  92 128 172 220 267 320 378
#     4  11  23  42  66  93 123 159 203 253 314 377
#     4  12  24  39  60  89 124 161 201 249 308 368
#     4  10  23  42  65  90 120 159 200 250 312 373
#
# _framework density 20.01942
#
# number of rings (size 3 to 8) (size 9 to 14) (size 15 to 20)
#    0.000    1.125    1.250    5.250    0.000    8.500 
#    0.000    3.750    0.000    0.000    0.000    0.000 
#    0.000    0.000    0.000    0.000    0.000    0.000 
#
# Total GULP energy -179030.180031 kJ/mol
# GULP energy per Si atom -5594.693126 kJ/mol
# Density = 1.997385 g / cm^3
# Si number density = 20.019420 Si / 1000 Ang^3
#
#
#
# Elastic Constant Matrix: (Units=GPa)
#
#
# Indices 1 2 3 4 5 6 
#
# 1 81.5243 4.0394 -2.8809 0.0000 -17.1108 0.0000
# 2 4.0394 29.8433 1.1005 0.0000 -9.3301 0.0000
# 3 -2.8809 1.1005 31.1159 0.0000 -16.0584 0.0000
# 4 0.0000 0.0000 0.0000 28.4842 0.0000 3.9846
# 5 -17.1108 -9.3301 -16.0584 0.0000 23.4037 0.0000
# 6 0.0000 0.0000 0.0000 3.9846 0.0000 35.1345
#
#
#
# Elastic Compliance Matrix: (Units=1/GPa)
#
#
# Indices 1 2 3 4 5 6 
#
# 1 0.017670 0.004744 0.014106 0.000000 0.024489 0.000000
# 2 0.004744 0.041718 0.014456 0.000000 0.030019 0.000000
# 3 0.014106 0.014456 0.063833 0.000000 0.059876 0.000000
# 4 0.000000 0.000000 0.000000 0.035673 0.000000 -0.004046
# 5 0.024489 0.030019 0.059876 0.000000 0.113683 0.000000
# 6 0.000000 0.000000 0.000000 -0.004046 0.000000 0.028921
#
#
# Mechanical properties :
#
#
# Convention : Reuss Voigt Hill
#
# Bulk Modulus (GPa) = 5.26774 16.33350 10.80062
# Shear Modulus (GPa) = 16.76935 26.75278 21.76106
#
# Velocity S-wave (km/s) = 2.89737 3.65957 3.30054
# Velocity P-wave (km/s) = 3.71887 5.10226 4.46448
#
# Compressibility (1/GPa) = 0.18983483
#
# Stress axis : x y z
#
# Youngs Moduli (GPa) = 56.59445 23.97040 15.66578
#
# Poissons Ratio (x) = -0.11372 -0.22099
# Poissons Ratio (y) = -0.26850 -0.22647
# Poissons Ratio (z) = -0.79835 -0.34652
#
# Static dielectric constant tensor:
#      x y z
#    x 1.696070 0.000000 0.000460 
#    y 0.000000 1.669960 0.000000 
#    z 0.000460 0.000000 1.698280 
# 
# From -- ./inp_files/375680.got.cif
#   From: 2010.05.17/outbox.cif.g08.bks.cpg/sg12_188_cif.got.tgz:375680.got - 2010.06.03 13:09:07.
