data_PCOD9210467
_publ_section_title
;
Structure prediction by ZEFSAII (Michael W. Deem and Ramdas Pophale) SiO2 
 PCOD9210467
Probable space group: C 2/M
;
_chemical_formula_sum "Si O2"
_cell_formula_units_Z 48
_cell_length_a 18.448096
_cell_length_b 18.309666
_cell_length_c 12.479126
_cell_angle_alpha 90.000000
_cell_angle_beta 28.662466
_cell_angle_gamma 90.000000
_cell_volume 2021.806036
_symmetry_space_group_name_H-M "C 2/M"
_symmetry_group_IT_number 12
_symmetry_cell_setting 'monoclinic'
loop_
_space_group_symop_operation_xyz
x,y,z
-x,y,-z
-x,-y,-z
x,-y,z
1/2+x,1/2+y,z
1/2-x,1/2+y,-z
1/2-x,1/2-y,-z
1/2+x,1/2-y,z
loop_
_atom_site_type_symbol
_atom_site_label
_atom_site_fract_x
_atom_site_fract_y
_atom_site_fract_z
Si Si1 0.342333 0.878493 0.266161
Si Si2 0.887012 0.217109 0.246296
Si Si3 0.161564 0.584338 0.150096
Si Si4 0.321401 0.366125 0.722197
Si Si5 0.691745 0.719742 0.960670
Si Si6 0.178019 0.419376 0.473827
O O1 0.304656 0.796248 0.358345
O O2 0.222742 0.902502 0.332806
O O3 0.356447 0.924238 0.354459
O O4 0.500000 0.879899 0.000000
O O5 0.797148 0.146166 0.321129
O O6 0.000000 0.228519 0.000000
O O7 0.011612 0.212418 0.180847
O O8 0.181089 0.500000 0.153413
O O9 0.240913 0.598572 0.930796
O O10 0.235718 0.639798 0.138135
O O11 0.982956 0.599551 0.370375
O O12 0.500000 0.365028 0.500000
O O13 0.256712 0.283065 0.800232
O O14 0.750000 0.750000 0.000000
O O15 0.228426 0.500000 0.371013
#
# Coordination Sequence:
#
# PCOD9210467 Si02
#       6
#     8   8   8   8   8   8
#     4  11  20  40  65  93 124 161 207 263 318 371
#     4  11  23  42  67  94 122 162 216 267 312 365
#     4  10  23  42  60  88 130 169 205 250 314 380
#     4  11  23  37  62  96 125 159 207 260 312 373
#     4  10  21  39  62  90 122 161 208 257 307 366
#     4  11  25  41  63  93 128 170 209 255 316 380
#
# _framework density 23.741150000000001
#
# number of rings (size 3 to 8) (size 9 to 14) (size 15 to 20)
#    0.000    1.333    5.000    1.500    7.000    2.333 
#    0.000    0.000    0.000    2.500    0.000    0.000 
#    0.000    0.000    0.000    0.000    0.000    0.000 
#
# Total GULP energy -134099.351435 kJ/mol
# GULP energy per Si atom -5587.472976 kJ/mol
# Density = 2.368711 g / cm^3
# Si number density = 23.741150 Si / 1000 Ang^3
#
#
#
# Elastic Constant Matrix: (Units=GPa)
#
#
# Indices 1 2 3 4 5 6 
#
# 1 79.4770 12.4887 18.2273 0.0003 -30.8942 -0.0002
# 2 12.4887 131.5690 40.5716 0.0008 -27.1504 -0.0004
# 3 18.2273 40.5716 82.2000 0.0018 -58.4570 -0.0010
# 4 0.0003 0.0008 0.0018 7.1830 -0.0006 11.2878
# 5 -30.8942 -27.1504 -58.4570 -0.0006 41.5726 0.0002
# 6 -0.0002 -0.0004 -0.0010 11.2878 0.0002 -10.7969
#
#
#
# Elastic Compliance Matrix: (Units=1/GPa)
#
#
# Indices 1 2 3 4 5 6 
#
# 1 0.000078 0.000841 -0.039741 0.000000 -0.055275 0.000003
# 2 0.000841 0.008858 -0.000816 0.000000 0.005263 0.000000
# 3 -0.039741 -0.000816 -0.088832 0.000000 -0.154976 0.000007
# 4 0.000000 0.000000 0.000000 0.052676 0.000001 0.055071
# 5 -0.055275 0.005263 -0.154976 0.000001 -0.231504 0.000013
# 6 0.000003 0.000000 0.000007 0.055071 0.000013 -0.035044
#
#
# Mechanical properties :
#
#
# Convention : Reuss Voigt Hill
#
# Bulk Modulus (GPa) = -6.27640 48.42456 21.07408
# Shear Modulus (GPa) = -18.69546 22.38896 1.84675
#
# Velocity S-wave (km/s) = -2.80924 3.07423 0.88292
# Velocity P-wave (km/s) = 3.62930 5.74825 3.15203
#
# Compressibility (1/GPa) = -0.15932689
#
# Stress axis : x y z
#
# Youngs Moduli (GPa) = 12802.14141 112.88706 -11.25723
#
# Poissons Ratio (x) = -0.09495 -0.44738
# Poissons Ratio (y) = -10.76775 -0.00918
# Poissons Ratio (z) = 508.77347 0.09207
#
# Static dielectric constant tensor:
#      x y z
#    x 1.954380 0.000000 0.060880 
#    y 0.000000 1.914510 0.000000 
#    z 0.060880 0.000000 1.984680 
# 
# From -- ./inp_files/290527.got.cif
#   From: 2010.05.17/outbox.cif.g08.bks.cpg/sg12_146_cif.got.tgz:290527.got - 2010.06.03 13:09:07.
