data_PCOD9210863
_publ_section_title
;
Structure prediction by ZEFSAII (Michael W. Deem and Ramdas Pophale) SiO2 
 PCOD9210863
Probable space group: C 2/M
;
_chemical_formula_sum "Si O2"
_cell_formula_units_Z 56
_cell_length_a 18.873057
_cell_length_b 8.736270
_cell_length_c 27.623781
_cell_angle_alpha 90.000000
_cell_angle_beta 141.722525
_cell_angle_gamma 90.000000
_cell_volume 2821.447824
_symmetry_space_group_name_H-M "C 2/M"
_symmetry_group_IT_number 12
_symmetry_cell_setting 'monoclinic'
loop_
_space_group_symop_operation_xyz
x,y,z
-x,y,-z
-x,-y,-z
x,-y,z
1/2+x,1/2+y,z
1/2-x,1/2+y,-z
1/2-x,1/2-y,-z
1/2+x,1/2-y,z
loop_
_atom_site_type_symbol
_atom_site_label
_atom_site_fract_x
_atom_site_fract_y
_atom_site_fract_z
Si Si1 0.172166 0.816759 0.798756
Si Si2 0.623137 0.319915 0.930768
Si Si3 0.151234 0.684594 0.481533
Si Si4 0.231368 0.684834 0.631556
Si Si5 0.514543 0.182175 0.232299
Si Si6 0.389818 0.815053 0.333376
Si Si7 0.895137 0.677180 0.980367
O O1 0.058565 0.750408 0.762647
O O2 0.180687 0.752810 0.749159
O O3 0.279971 0.774701 0.890516
O O4 0.167035 0.000000 0.794683
O O5 0.626375 0.500000 0.922479
O O6 0.549184 0.237579 0.850318
O O7 0.750000 0.250000 0.000000
O O8 0.577432 0.283006 0.959543
O O9 0.155415 0.500000 0.480436
O O10 0.250000 0.750000 0.500000
O O11 0.173402 0.726861 0.549463
O O12 0.022432 0.733459 0.399189
O O13 0.240356 0.500000 0.637416
O O14 0.357255 0.755282 0.699621
O O15 0.160416 0.730592 0.641264
O O16 0.514232 0.000000 0.235323
O O17 0.386371 0.000000 0.329103
O O18 0.879077 0.500000 0.988271
O O19 0.000000 0.679325 0.000000
#
# Coordination Sequence:
#
# PCOD9210863 Si02
#       7
#     8   8   8   8   8   8   8
#     4  11  23  40  62  89 124 163 205 255 311 366
#     4  12  24  41  65  93 123 161 208 257 309 364
#     4  10  21  39  64  92 124 164 205 249 304 364
#     4  10  22  41  64  92 125 162 205 254 306 364
#     4  12  25  41  63  90 124 163 207 256 308 367
#     4  10  22  40  63  91 126 164 205 251 306 368
#     4  10  23  42  63  89 124 164 206 256 312 366
#
# _framework density 19.847964999999999
#
# number of rings (size 3 to 8) (size 9 to 14) (size 15 to 20)
#    0.000    1.286    1.429    4.286    2.000    6.571 
#    0.000    0.000    0.000    2.571    0.000    0.000 
#    0.000    0.000    0.000    0.000    0.000    0.000 
#
# Total GULP energy -156586.043464 kJ/mol
# GULP energy per Si atom -5592.358695 kJ/mol
# Density = 1.980279 g / cm^3
# Si number density = 19.847965 Si / 1000 Ang^3
#
#
#
# Elastic Constant Matrix: (Units=GPa)
#
#
# Indices 1 2 3 4 5 6 
#
# 1 106.0923 20.5495 12.9610 0.0000 -12.7915 0.0000
# 2 20.5495 24.4721 12.3692 0.0000 -6.1046 0.0000
# 3 12.9610 12.3692 71.5367 0.0000 -13.0687 0.0000
# 4 0.0000 0.0000 0.0000 27.5238 0.0000 -3.7111
# 5 -12.7915 -6.1046 -13.0687 0.0000 39.1033 0.0000
# 6 0.0000 0.0000 0.0000 -3.7111 0.0000 24.7669
#
#
#
# Elastic Compliance Matrix: (Units=1/GPa)
#
#
# Indices 1 2 3 4 5 6 
#
# 1 0.011459 -0.008996 -0.000098 0.000000 0.002311 0.000000
# 2 -0.008996 0.052660 -0.006935 0.000000 0.002961 0.000000
# 3 -0.000098 -0.006935 0.015967 0.000000 0.004222 0.000000
# 4 0.000000 0.000000 0.000000 0.037081 0.000000 0.005556
# 5 0.002311 0.002961 0.004222 0.000000 0.028202 0.000000
# 6 0.000000 0.000000 0.000000 0.005556 0.000000 0.041209
#
#
# Mechanical properties :
#
#
# Convention : Reuss Voigt Hill
#
# Bulk Modulus (GPa) = 20.82103 32.65118 26.73610
# Shear Modulus (GPa) = 21.30868 28.69357 25.00112
#
# Velocity S-wave (km/s) = 3.28013 3.80632 3.55298
# Velocity P-wave (km/s) = 4.98585 5.98363 5.50738
#
# Compressibility (1/GPa) = 0.04802836
#
# Stress axis : x y z
#
# Youngs Moduli (GPa) = 87.26852 18.98960 62.62951
#
# Poissons Ratio (x) = 0.17083 0.00617
# Poissons Ratio (y) = 0.78506 0.43431
# Poissons Ratio (z) = 0.00859 0.13168
#
# Static dielectric constant tensor:
#      x y z
#    x 1.718190 0.000000 -0.011640 
#    y 0.000000 1.677340 0.000000 
#    z -0.011640 0.000000 1.684310 
# 
# From -- ./inp_files/363185.got.cif
#   From: 2010.05.17/outbox.cif.g08.bks.cpg/sg12_182_cif.got.tgz:363185.got - 2010.06.03 13:09:07.
