data_PCOD9210714
_publ_section_title
;
Structure prediction by ZEFSAII (Michael W. Deem and Ramdas Pophale) SiO2 
 PCOD9210714
Probable space group: C 2/M
;
_chemical_formula_sum "Si O2"
_cell_formula_units_Z 32
_cell_length_a 7.696757
_cell_length_b 24.625587
_cell_length_c 10.174535
_cell_angle_alpha 90.000000
_cell_angle_beta 127.746422
_cell_angle_gamma 90.000000
_cell_volume 1524.880978
_symmetry_space_group_name_H-M "C 2/M"
_symmetry_group_IT_number 12
_symmetry_cell_setting 'monoclinic'
loop_
_space_group_symop_operation_xyz
x,y,z
-x,y,-z
-x,-y,-z
x,-y,z
1/2+x,1/2+y,z
1/2-x,1/2+y,-z
1/2-x,1/2-y,-z
1/2+x,1/2-y,z
loop_
_atom_site_type_symbol
_atom_site_label
_atom_site_fract_x
_atom_site_fract_y
_atom_site_fract_z
Si Si1 0.563395 0.616329 0.836006
Si Si2 0.786430 0.560759 0.175262
Si Si3 0.741012 0.189269 0.550336
Si Si4 0.768109 0.091238 0.362846
O O1 0.355982 0.575332 0.762238
O O2 0.436587 0.672411 0.742450
O O3 0.718591 0.601639 0.786272
O O4 0.707291 0.606024 0.032858
O O5 0.733472 0.500000 0.103860
O O6 0.046227 0.563665 0.306700
O O7 0.500000 0.180316 0.500000
O O8 0.750000 0.250000 0.500000
O O9 0.771668 0.147664 0.444501
O O10 0.000000 0.063078 0.500000
#
# Coordination Sequence:
#
# PCOD9210714 Si02
#       4
#     8   8   8   8
#     4  10  21  39  63  92 128 167 213 259 309 386
#     4  11  23  41  65  91 134 177 207 262 318 367
#     4  11  21  41  67  91 124 166 209 265 325 372
#     4  10  22  39  62  94 129 165 217 267 308 378
#
# _framework density 20.985244000000002
#
# number of rings (size 3 to 8) (size 9 to 14) (size 15 to 20)
#    0.000    1.500    2.500    4.500    0.000    3.500 
#    0.000   13.750    5.500    0.000    0.000    0.000 
#    0.000    0.000    0.000    0.000    0.000    0.000 
#
# Total GULP energy -89185.401240 kJ/mol
# GULP energy per Si atom -5574.087577 kJ/mol
# Density = 2.093748 g / cm^3
# Si number density = 20.985244 Si / 1000 Ang^3
#
#
#
# Elastic Constant Matrix: (Units=GPa)
#
#
# Indices 1 2 3 4 5 6 
#
# 1 151.2481 15.9834 14.2628 0.0000 14.8476 0.0000
# 2 15.9834 110.6136 39.2222 0.0000 2.2897 0.0000
# 3 14.2628 39.2222 59.1935 0.0000 9.1732 0.0000
# 4 0.0000 0.0000 0.0000 -31.0351 0.0000 31.0725
# 5 14.8476 2.2897 9.1732 0.0000 50.2993 0.0000
# 6 0.0000 0.0000 0.0000 31.0725 0.0000 -21.9781
#
#
#
# Elastic Compliance Matrix: (Units=1/GPa)
#
#
# Indices 1 2 3 4 5 6 
#
# 1 0.006950 -0.000619 -0.000979 0.000000 -0.001845 0.000000
# 2 -0.000619 0.011913 -0.007913 0.000000 0.001083 0.000000
# 3 -0.000979 -0.007913 0.022920 0.000000 -0.003531 0.000000
# 4 0.000000 0.000000 0.000000 0.077549 0.000000 0.109639
# 5 -0.001845 0.001083 -0.003531 0.000000 0.021020 0.000000
# 6 0.000000 0.000000 0.000000 0.109639 0.000000 0.109506
#
#
# Mechanical properties :
#
#
# Convention : Reuss Voigt Hill
#
# Bulk Modulus (GPa) = 43.93127 51.11024 47.52076
# Shear Modulus (GPa) = 18.08532 16.22968 17.15750
#
# Velocity S-wave (km/s) = 2.93885 2.78400 2.86247
# Velocity P-wave (km/s) = 5.70049 5.89427 5.79819
#
# Compressibility (1/GPa) = 0.02276283
#
# Stress axis : x y z
#
# Youngs Moduli (GPa) = 143.87489 83.94051 43.63078
#
# Poissons Ratio (x) = 0.05197 0.04270
# Poissons Ratio (y) = 0.08908 0.34523
# Poissons Ratio (z) = 0.14079 0.66418
#
# Static dielectric constant tensor:
#      x y z
#    x 1.776980 0.000000 0.009070 
#    y 0.000000 1.729550 0.000000 
#    z 0.009070 0.000000 1.824020 
# 
# From -- ./inp_files/38486.got.cif
#   From: 2010.05.17/outbox.cif.g08.bks.cpg/sg12_20_cif.got.tgz:38486.got - 2010.06.03 13:09:07.
