data_PCOD9210035
_publ_section_title
;
Structure prediction by ZEFSAII (Michael W. Deem and Ramdas Pophale) SiO2 
 PCOD9210035
Probable space group: C 2/M
;
_chemical_formula_sum "Si O2"
_cell_formula_units_Z 48
_cell_length_a 17.879599
_cell_length_b 18.422709
_cell_length_c 18.334485
_cell_angle_alpha 90.000000
_cell_angle_beta 22.864971
_cell_angle_gamma 90.000000
_cell_volume 2346.598803
_symmetry_space_group_name_H-M "C 2/M"
_symmetry_group_IT_number 12
_symmetry_cell_setting 'monoclinic'
loop_
_space_group_symop_operation_xyz
x,y,z
-x,y,-z
-x,-y,-z
x,-y,z
1/2+x,1/2+y,z
1/2-x,1/2+y,-z
1/2-x,1/2-y,-z
1/2+x,1/2-y,z
loop_
_atom_site_type_symbol
_atom_site_label
_atom_site_fract_x
_atom_site_fract_y
_atom_site_fract_z
Si Si1 0.509233 0.500000 0.124474
Si Si2 0.590719 0.653798 0.995134
Si Si3 0.927484 0.255536 0.748717
Si Si4 0.000000 0.631204 0.500000
Si Si5 0.450514 0.000000 0.435913
Si Si6 0.216694 0.238312 0.672613
Si Si7 0.077365 0.657706 0.096068
Si Si8 0.878119 0.500000 0.881933
O O1 0.568625 0.569076 0.023756
O O2 0.283009 0.500000 0.346302
O O3 0.650479 0.500000 0.067082
O O4 0.464085 0.684251 0.176987
O O5 0.500000 0.676961 0.000000
O O6 0.796652 0.689360 0.819418
O O7 0.956206 0.298651 0.798027
O O8 0.129405 0.243562 0.527787
O O9 0.788150 0.185647 0.881362
O O10 0.977362 0.571932 0.585943
O O11 0.163060 0.687555 0.379864
O O12 0.517043 0.000000 0.291955
O O13 0.095482 0.311378 0.799863
O O14 0.072722 0.573163 0.118607
#
# Coordination Sequence:
#
# PCOD9210035 Si02
#       8
#     4   8   8   4   4   8   8   4
#     4  12  24  35  56  88 133 175 199 239 310 374
#     4  11  23  35  55  90 126 167 205 244 305 379
#     4  10  21  39  59  84 118 163 214 260 307 363
#     4  11  22  38  60  95 132 162 208 249 308 382
#     4  11  26  38  58  98 135 174 204 238 319 393
#     4  11  22  38  62  84 123 166 209 260 305 371
#     4  10  23  39  60  87 114 163 220 261 309 361
#     4  12  25  43  65  89 131 170 208 264 309 374
#
# _framework density 20.455137000000001
#
# number of rings (size 3 to 8) (size 9 to 14) (size 15 to 20)
#    0.000    1.167    3.333    2.750    2.333    1.333 
#    0.000    0.000    0.000    0.500    0.000   19.833 
#    0.000    0.000    0.000    0.000    0.000    0.000 
#
# Total GULP energy -133776.758983 kJ/mol
# GULP energy per Si atom -5574.031624 kJ/mol
# Density = 2.040858 g / cm^3
# Si number density = 20.455137 Si / 1000 Ang^3
#
#
#
# Elastic Constant Matrix: (Units=GPa)
#
#
# Indices 1 2 3 4 5 6 
#
# 1 62.7454 59.2176 13.3402 -0.0095 -13.2659 0.0020
# 2 59.2176 178.5221 53.4019 -0.0314 -3.0003 0.0031
# 3 13.3402 53.4019 146.0983 -0.0608 2.8001 0.0140
# 4 -0.0095 -0.0314 -0.0608 3.8314 0.0128 0.0640
# 5 -13.2659 -3.0003 2.8001 0.0128 22.4815 0.0018
# 6 0.0020 0.0031 0.0140 0.0640 0.0018 37.2472
#
#
#
# Elastic Compliance Matrix: (Units=1/GPa)
#
#
# Indices 1 2 3 4 5 6 
#
# 1 0.027513 -0.009024 0.000499 -0.000048 0.014968 -0.000002
# 2 -0.009024 0.009278 -0.002495 0.000027 -0.003776 0.000001
# 3 0.000499 -0.002495 0.007730 0.000107 -0.001001 -0.000003
# 4 -0.000048 0.000027 0.000107 0.261008 -0.000186 -0.000448
# 5 0.014968 -0.003776 -0.001001 -0.000186 0.052934 -0.000002
# 6 -0.000002 0.000001 -0.000003 -0.000448 -0.000002 0.026848
#
#
# Mechanical properties :
#
#
# Convention : Reuss Voigt Hill
#
# Bulk Modulus (GPa) = 44.48082 71.03169 57.75625
# Shear Modulus (GPa) = 12.05273 30.13911 21.09592
#
# Velocity S-wave (km/s) = 2.43003 3.84269 3.21491
# Velocity P-wave (km/s) = 5.44667 7.38169 6.48674
#
# Compressibility (1/GPa) = 0.02248160
#
# Stress axis : x y z
#
# Youngs Moduli (GPa) = 36.34711 107.78488 129.36187
#
# Poissons Ratio (x) = 0.97265 -0.06460
# Poissons Ratio (y) = 0.32800 0.32274
# Poissons Ratio (z) = -0.01815 0.26891
#
# Static dielectric constant tensor:
#      x y z
#    x 1.866510 0.000000 -0.006100 
#    y 0.000000 1.757830 0.000010 
#    z -0.006100 0.000010 1.847340 
# 
# From -- ./inp_files/322562.got.cif
#   From: 2010.05.17/outbox.cif.g08.bks.cpg/sg12_162_cif.got.tgz:322562.got - 2010.06.03 13:09:07.
