data_PCOD9210972
_publ_section_title
;
Structure prediction by ZEFSAII (Michael W. Deem and Ramdas Pophale) SiO2 
 PCOD9210972
Probable space group: C 2/M
;
_chemical_formula_sum "Si O2"
_cell_formula_units_Z 40
_cell_length_a 20.020764
_cell_length_b 17.706025
_cell_length_c 17.125933
_cell_angle_alpha 90.000000
_cell_angle_beta 158.840841
_cell_angle_gamma 90.000000
_cell_volume 2191.366045
_symmetry_space_group_name_H-M "C 2/M"
_symmetry_group_IT_number 12
_symmetry_cell_setting 'monoclinic'
loop_
_space_group_symop_operation_xyz
x,y,z
-x,y,-z
-x,-y,-z
x,-y,z
1/2+x,1/2+y,z
1/2-x,1/2+y,-z
1/2-x,1/2-y,-z
1/2+x,1/2-y,z
loop_
_atom_site_type_symbol
_atom_site_label
_atom_site_fract_x
_atom_site_fract_y
_atom_site_fract_z
Si Si1 0.055279 0.656795 0.175384
Si Si2 0.121161 0.411783 0.709296
Si Si3 0.711915 0.409197 0.711239
Si Si4 0.341066 0.088580 0.546978
Si Si5 0.002668 0.834559 0.910463
O O1 0.210967 0.625899 0.285177
O O2 0.107338 0.634048 0.319364
O O3 0.036624 0.746227 0.144152
O O4 0.860374 0.619249 0.936988
O O5 0.179747 0.500000 0.768049
O O6 0.000000 0.395885 0.500000
O O7 0.996273 0.402508 0.649505
O O8 0.297310 0.358309 0.902465
O O9 0.500000 0.387876 0.500000
O O10 0.721193 0.500000 0.716414
O O11 0.152229 0.118146 0.303304
O O12 0.326582 0.000000 0.550690
O O13 0.000000 0.851652 0.000000
#
# Coordination Sequence:
#
# PCOD9210972 Si02
#       5
#     8   8   8   8   8
#     4  11  23  41  61  94 129 159 200 256 314 364
#     4  10  22  39  61  89 121 163 210 253 301 360
#     4  10  21  39  65  90 122 168 208 246 299 368
#     4  11  24  41  64  90 124 164 208 259 302 361
#     4  12  23  39  63  92 123 164 207 251 312 368
#
# _framework density 18.253454000000001
#
# number of rings (size 3 to 8) (size 9 to 14) (size 15 to 20)
#    0.000    1.200    4.000    3.600    0.000    5.600 
#    0.000    2.000    0.000    0.000    0.000    0.000 
#    0.000    0.000    0.000    0.000    0.000    0.000 
#
# Total GULP energy -111790.433914 kJ/mol
# GULP energy per Si atom -5589.521696 kJ/mol
# Density = 1.821191 g / cm^3
# Si number density = 18.253454 Si / 1000 Ang^3
#
#
#
# Elastic Constant Matrix: (Units=GPa)
#
#
# Indices 1 2 3 4 5 6 
#
# 1 76.2841 0.9078 52.1933 -0.0073 -16.4754 0.0595
# 2 0.9078 -10.5734 10.4658 -0.0137 16.0934 0.0804
# 3 52.1933 10.4658 95.0144 -0.0089 7.9598 0.0740
# 4 -0.0073 -0.0137 -0.0089 26.8811 -0.0024 -6.1121
# 5 -16.4754 16.0934 7.9598 -0.0024 41.1962 0.0249
# 6 0.0595 0.0804 0.0740 -6.1121 0.0249 83.7122
#
#
#
# Elastic Compliance Matrix: (Units=1/GPa)
#
#
# Indices 1 2 3 4 5 6 
#
# 1 0.026738 0.004578 -0.016200 0.000003 0.012035 -0.000012
# 2 0.004578 -0.056558 0.001739 -0.000016 0.023589 0.000041
# 3 -0.016200 0.001739 0.020158 0.000001 -0.011053 -0.000005
# 4 0.000003 -0.000016 0.000001 0.037829 0.000007 0.002762
# 5 0.012035 0.023589 -0.011053 0.000007 0.022007 -0.000027
# 6 -0.000012 0.000041 -0.000005 0.002762 -0.000027 0.012147
#
#
# Mechanical properties :
#
#
# Convention : Reuss Voigt Hill
#
# Bulk Modulus (GPa) = -33.98056 31.98434 -0.99811
# Shear Modulus (GPa) = 69.17757 36.83511 53.00634
#
# Velocity S-wave (km/s) = 6.16284 4.49707 5.39464
# Velocity P-wave (km/s) = 5.65548 6.67272 6.18505
#
# Compressibility (1/GPa) = -0.02942859
#
# Stress axis : x y z
#
# Youngs Moduli (GPa) = 37.40060 -17.68093 49.60786
#
# Poissons Ratio (x) = 0.08094 0.80364
# Poissons Ratio (y) = -0.17122 -0.08626
# Poissons Ratio (z) = 0.60589 0.03074
#
# Static dielectric constant tensor:
#      x y z
#    x 1.603280 0.000000 0.001690 
#    y 0.000000 1.614800 0.000000 
#    z 0.001690 0.000000 1.602160 
# 
# From -- ./inp_files/284634.got.cif
#   From: 2010.05.17/outbox.cif.g08.bks.cpg/sg12_143_cif.got.tgz:284634.got - 2010.06.03 13:09:07.
