data_PCOD9210027
_publ_section_title
;
Structure prediction by ZEFSAII (Michael W. Deem and Ramdas Pophale) SiO2 
 PCOD9210027
Probable space group: C 2/M
;
_chemical_formula_sum "Si O2"
_cell_formula_units_Z 36
_cell_length_a 17.995415
_cell_length_b 17.478045
_cell_length_c 6.278000
_cell_angle_alpha 90.000000
_cell_angle_beta 118.672569
_cell_angle_gamma 90.000000
_cell_volume 1732.454229
_symmetry_space_group_name_H-M "C 2/M"
_symmetry_group_IT_number 12
_symmetry_cell_setting 'monoclinic'
loop_
_space_group_symop_operation_xyz
x,y,z
-x,y,-z
-x,-y,-z
x,-y,z
1/2+x,1/2+y,z
1/2-x,1/2+y,-z
1/2-x,1/2-y,-z
1/2+x,1/2-y,z
loop_
_atom_site_type_symbol
_atom_site_label
_atom_site_fract_x
_atom_site_fract_y
_atom_site_fract_z
Si Si1 0.500000 0.296672 0.000000
Si Si2 0.573105 0.411077 0.425950
Si Si3 0.729161 0.189590 0.656618
Si Si4 0.863653 0.276606 0.087182
Si Si5 0.768629 0.412484 0.717389
O O1 0.561220 0.353065 0.215343
O O2 0.548078 0.244726 0.895341
O O3 0.500000 0.395495 0.500000
O O4 0.562659 0.500000 0.344624
O O5 0.669249 0.403762 0.640012
O O6 0.750000 0.250000 0.500000
O O7 0.802717 0.206263 0.928951
O O8 0.725670 0.110622 0.525450
O O9 0.645169 0.210958 0.673001
O O10 0.826031 0.353189 0.926356
O O11 0.793084 0.500000 0.785776
#
# Coordination Sequence:
#
# PCOD9210027 Si02
#       5
#     4   8   8   8   8
#     4  12  23  36  61  86 116 152 192 244 291 336
#     4  10  23  37  55  86 122 155 188 232 288 350
#     4   9  19  37  58  82 112 150 197 236 279 335
#     4  10  22  36  59  87 113 150 195 242 284 342
#     4  10  21  39  59  83 117 156 194 233 288 351
#
# _framework density 20.779769999999999
#
# number of rings (size 3 to 8) (size 9 to 14) (size 15 to 20)
#    0.000    2.000    2.222    0.333    9.333    0.889 
#    0.000    0.556    0.000    1.333    0.000    0.000 
#    0.000    0.000    0.000    0.000    0.000    0.000 
#
# Total GULP energy -100482.871662 kJ/mol
# GULP energy per Si atom -5582.381759 kJ/mol
# Density = 2.073247 g / cm^3
# Si number density = 20.779770 Si / 1000 Ang^3
#
#
#
# Elastic Constant Matrix: (Units=GPa)
#
#
# Indices 1 2 3 4 5 6 
#
# 1 119.4142 41.0307 27.4873 0.0000 -36.4777 0.0000
# 2 41.0307 129.1446 45.2484 0.0000 -5.0765 0.0000
# 3 27.4873 45.2484 59.0767 0.0000 -18.3527 0.0000
# 4 0.0000 0.0000 0.0000 25.0670 0.0000 5.3169
# 5 -36.4777 -5.0765 -18.3527 0.0000 35.4529 0.0000
# 6 0.0000 0.0000 0.0000 5.3169 0.0000 25.1282
#
#
#
# Elastic Compliance Matrix: (Units=1/GPa)
#
#
# Indices 1 2 3 4 5 6 
#
# 1 0.013968 -0.004324 0.001293 0.000000 0.014422 0.000000
# 2 -0.004324 0.012234 -0.009768 0.000000 -0.007753 0.000000
# 3 0.001293 -0.009768 0.028344 0.000000 0.014604 0.000000
# 4 0.000000 0.000000 0.000000 0.041768 0.000000 -0.008838
# 5 0.014422 -0.007753 0.014604 0.000000 0.049495 0.000000
# 6 0.000000 0.000000 0.000000 -0.008838 0.000000 0.041666
#
#
# Mechanical properties :
#
#
# Convention : Reuss Voigt Hill
#
# Bulk Modulus (GPa) = 34.54320 59.46313 47.00316
# Shear Modulus (GPa) = 22.44964 30.05422 26.25193
#
# Velocity S-wave (km/s) = 3.29045 3.80718 3.55821
# Velocity P-wave (km/s) = 5.57635 6.92850 6.28887
#
# Compressibility (1/GPa) = 0.02894926
#
# Stress axis : x y z
#
# Youngs Moduli (GPa) = 71.59392 81.73633 35.28117
#
# Poissons Ratio (x) = 0.35341 -0.04562
# Poissons Ratio (y) = 0.30956 0.34461
# Poissons Ratio (z) = -0.09258 0.79836
#
# Static dielectric constant tensor:
#      x y z
#    x 1.816230 0.000000 -0.013590 
#    y 0.000000 1.740500 0.000000 
#    z -0.013590 0.000000 1.792100 
# 
# From -- ./inp_files/15355.got.cif
#   From: 2010.05.17/outbox.cif.g08.bks.cpg/sg12_8_cif.got.tgz:15355.got - 2010.06.03 13:09:07.
