data_PCOD9210493
_publ_section_title
;
Structure prediction by ZEFSAII (Michael W. Deem and Ramdas Pophale) SiO2 
 PCOD9210493
Probable space group: C 2/M
;
_chemical_formula_sum "Si O2"
_cell_formula_units_Z 48
_cell_length_a 16.652843
_cell_length_b 30.146972
_cell_length_c 9.344698
_cell_angle_alpha 90.000000
_cell_angle_beta 149.386351
_cell_angle_gamma 90.000000
_cell_volume 2389.050684
_symmetry_space_group_name_H-M "C 2/M"
_symmetry_group_IT_number 12
_symmetry_cell_setting 'monoclinic'
loop_
_space_group_symop_operation_xyz
x,y,z
-x,y,-z
-x,-y,-z
x,-y,z
1/2+x,1/2+y,z
1/2-x,1/2+y,-z
1/2-x,1/2-y,-z
1/2+x,1/2-y,z
loop_
_atom_site_type_symbol
_atom_site_label
_atom_site_fract_x
_atom_site_fract_y
_atom_site_fract_z
Si Si1 0.354664 0.500000 0.882880
Si Si2 0.032723 0.167104 0.383317
Si Si3 0.512563 0.089218 0.350192
Si Si4 0.437460 0.252928 0.760287
Si Si5 0.475182 0.000000 0.790536
Si Si6 0.102555 0.656920 0.030015
Si Si7 0.127583 0.902857 0.067633
O O1 0.204126 0.500000 0.546052
O O2 0.363008 0.453514 0.978463
O O3 0.500000 0.500000 0.000000
O O4 0.012553 0.217067 0.295224
O O5 0.000000 0.163585 0.500000
O O6 0.218509 0.158668 0.644402
O O7 0.927050 0.132932 0.131523
O O8 0.500000 0.081484 0.500000
O O9 0.408545 0.129178 0.131650
O O10 0.694815 0.103515 0.602162
O O11 0.463397 0.045306 0.187305
O O12 0.250000 0.250000 0.500000
O O13 0.522828 0.205183 0.884146
O O14 0.500000 0.276310 0.000000
O O15 0.500000 0.000000 0.000000
O O16 0.000000 0.635098 0.000000
O O17 0.000000 0.901706 0.000000
#
# Coordination Sequence:
#
# PCOD9210493 Si02
#       7
#     4   8   8   8   4   8   8
#     4   8  18  37  59  91 117 152 212 246 290 353
#     4  12  25  40  61  94 126 157 203 259 311 359
#     4  11  23  39  61  92 127 162 203 256 311 357
#     4  11  23  44  66  89 119 163 207 251 303 370
#     4  10  21  39  62  91 123 166 207 252 298 365
#     4  11  23  41  62  89 122 159 211 251 299 373
#     4  10  21  39  65  87 120 168 206 247 298 373
#
# _framework density 20.091660999999998
#
# number of rings (size 3 to 8) (size 9 to 14) (size 15 to 20)
#    0.000    1.333    3.333    3.250    2.333    4.000 
#    0.000    0.417    0.000    0.000    0.000    0.000 
#    0.000    0.000    0.000    0.000    0.000    0.000 
#
# Total GULP energy -133903.751770 kJ/mol
# GULP energy per Si atom -5579.322990 kJ/mol
# Density = 2.004593 g / cm^3
# Si number density = 20.091661 Si / 1000 Ang^3
#
#
#
# Elastic Constant Matrix: (Units=GPa)
#
#
# Indices 1 2 3 4 5 6 
#
# 1 70.4635 12.7502 11.7644 0.0000 -22.6550 0.0000
# 2 12.7502 112.4300 38.3633 0.0000 -24.9835 0.0000
# 3 11.7644 38.3633 70.5375 0.0000 -6.0401 0.0000
# 4 0.0000 0.0000 0.0000 32.8002 0.0000 -10.9790
# 5 -22.6550 -24.9835 -6.0401 0.0000 46.3140 0.0000
# 6 0.0000 0.0000 0.0000 -10.9790 0.0000 14.4403
#
#
#
# Elastic Compliance Matrix: (Units=1/GPa)
#
#
# Indices 1 2 3 4 5 6 
#
# 1 0.017217 0.000827 -0.002591 0.000000 0.008530 0.000000
# 2 0.000827 0.012342 -0.006316 0.000000 0.006239 0.000000
# 3 -0.002591 -0.006316 0.017843 0.000000 -0.002348 0.000000
# 4 0.000000 0.000000 0.000000 0.040895 0.000000 0.031093
# 5 0.008530 0.006239 -0.002348 0.000000 0.028824 0.000000
# 6 0.000000 0.000000 0.000000 0.031093 0.000000 0.092891
#
#
# Mechanical properties :
#
#
# Convention : Reuss Voigt Hill
#
# Bulk Modulus (GPa) = 32.00777 42.13187 37.06982
# Shear Modulus (GPa) = 21.13395 31.41443 26.27419
#
# Velocity S-wave (km/s) = 3.24678 3.95847 3.62016
# Velocity P-wave (km/s) = 5.47914 6.47364 5.99704
#
# Compressibility (1/GPa) = 0.03124242
#
# Stress axis : x y z
#
# Youngs Moduli (GPa) = 58.08118 81.02303 56.04384
#
# Poissons Ratio (x) = -0.06701 0.14521
# Poissons Ratio (y) = -0.04804 0.35399
# Poissons Ratio (z) = 0.15048 0.51176
#
# Static dielectric constant tensor:
#      x y z
#    x 1.754590 0.000000 0.049170 
#    y 0.000000 1.748250 0.000000 
#    z 0.049170 0.000000 1.713980 
# 
# From -- ./inp_files/80887.got.cif
#   From: 2010.05.17/outbox.cif.g08.bks.cpg/sg12_41_cif.got.tgz:80887.got - 2010.06.03 13:09:07.
