data_PCOD9210722
_publ_section_title
;
Structure prediction by ZEFSAII (Michael W. Deem and Ramdas Pophale) SiO2 
 PCOD9210722
Probable space group: C 2/M
;
_chemical_formula_sum "Si O2"
_cell_formula_units_Z 48
_cell_length_a 21.062897
_cell_length_b 15.130277
_cell_length_c 12.747605
_cell_angle_alpha 90.000000
_cell_angle_beta 141.817613
_cell_angle_gamma 90.000000
_cell_volume 2511.303781
_symmetry_space_group_name_H-M "C 2/M"
_symmetry_group_IT_number 12
_symmetry_cell_setting 'monoclinic'
loop_
_space_group_symop_operation_xyz
x,y,z
-x,y,-z
-x,-y,-z
x,-y,z
1/2+x,1/2+y,z
1/2-x,1/2+y,-z
1/2-x,1/2-y,-z
1/2+x,1/2-y,z
loop_
_atom_site_type_symbol
_atom_site_label
_atom_site_fract_x
_atom_site_fract_y
_atom_site_fract_z
Si Si1 0.258689 0.797067 0.861979
Si Si2 0.613367 0.101918 0.143872
Si Si3 0.557620 0.500000 0.905636
Si Si4 0.929931 0.708293 0.498966
Si Si5 0.341275 0.500000 0.744005
Si Si6 0.298384 0.156158 0.522314
Si Si7 0.100484 0.831825 0.818807
O O1 0.315166 0.850364 0.845931
O O2 0.174418 0.735190 0.696220
O O3 0.189131 0.855336 0.849923
O O4 0.343298 0.742602 0.037194
O O5 0.659649 0.110460 0.318988
O O6 0.604092 0.000000 0.100595
O O7 0.500000 0.143043 0.000000
O O8 0.448342 0.500000 0.821134
O O9 0.569316 0.413657 0.849339
O O10 0.639584 0.500000 0.106611
O O11 0.889223 0.666692 0.554465
O O12 0.000000 0.661029 0.500000
O O13 0.002936 0.789403 0.632015
O O14 0.282975 0.589422 0.634950
O O15 0.250000 0.250000 0.500000
#
# Coordination Sequence:
#
# PCOD9210722 Si02
#       7
#     8   8   4   8   4   8   8
#     4  10  21  41  63  90 123 164 204 255 308 374
#     4  11  24  39  61  91 123 158 210 257 300 367
#     4  11  24  40  60  93 127 159 200 266 310 363
#     4  10  21  39  63  93 121 162 212 254 305 372
#     4  11  26  42  59  94 127 158 220 252 301 385
#     4  12  22  41  67  88 125 169 200 253 318 360
#     4  10  22  40  64  93 125 159 210 253 313 379
#
# _framework density 19.113575999999998
#
# number of rings (size 3 to 8) (size 9 to 14) (size 15 to 20)
#    0.000    1.333    2.500    3.000    1.167    0.000 
#    0.000    1.667    0.000    0.000    0.000    0.000 
#    0.000    0.000    0.000    0.000    0.000    0.000 
#
# Total GULP energy -133902.580108 kJ/mol
# GULP energy per Si atom -5579.274171 kJ/mol
# Density = 1.907007 g / cm^3
# Si number density = 19.113576 Si / 1000 Ang^3
#
#
#
# Elastic Constant Matrix: (Units=GPa)
#
#
# Indices 1 2 3 4 5 6 
#
# 1 162.1114 26.4321 8.6378 0.0000 -11.9716 0.0000
# 2 26.4321 40.1232 1.2263 0.0000 4.3356 0.0000
# 3 8.6378 1.2263 80.3653 0.0000 -2.1592 0.0000
# 4 0.0000 0.0000 0.0000 8.2165 0.0000 15.3703
# 5 -11.9716 4.3356 -2.1592 0.0000 32.4414 0.0000
# 6 0.0000 0.0000 0.0000 15.3703 0.0000 10.9424
#
#
#
# Elastic Compliance Matrix: (Units=1/GPa)
#
#
# Indices 1 2 3 4 5 6 
#
# 1 0.007286 -0.005141 -0.000615 0.000000 0.003335 0.000000
# 2 -0.005141 0.028935 -0.000044 0.000000 -0.005767 0.000000
# 3 -0.000615 -0.000044 0.012526 0.000000 0.000613 0.000000
# 4 0.000000 0.000000 0.000000 -0.074775 0.000000 0.105033
# 5 0.003335 -0.005767 0.000613 0.000000 0.032867 0.000000
# 6 0.000000 0.000000 0.000000 0.105033 0.000000 -0.056147
#
#
# Mechanical properties :
#
#
# Convention : Reuss Voigt Hill
#
# Bulk Modulus (GPa) = 26.92041 39.46583 33.19312
# Shear Modulus (GPa) = -197.42978 26.74032 -85.34473
#
# Velocity S-wave (km/s) = -10.17434 3.74441 -6.68942
# Velocity P-wave (km/s) = 11.13139 6.27591 6.50080
#
# Compressibility (1/GPa) = 0.03714654
#
# Stress axis : x y z
#
# Youngs Moduli (GPa) = 137.25085 34.56057 79.83134
#
# Poissons Ratio (x) = 0.17769 0.04910
# Poissons Ratio (y) = 0.70565 0.00350
# Poissons Ratio (z) = 0.08442 0.00152
#
# Static dielectric constant tensor:
#      x y z
#    x 1.687430 0.000000 -0.000640 
#    y 0.000000 1.640400 0.000000 
#    z -0.000640 0.000000 1.673670 
# 
# From -- ./inp_files/143915.got.cif
#   From: 2010.05.17/outbox.cif.g08.bks.cpg/sg12_72_cif.got.tgz:143915.got - 2010.06.03 13:09:07.
