data_PCOD9210504
_publ_section_title
;
Structure prediction by ZEFSAII (Michael W. Deem and Ramdas Pophale) SiO2 
 PCOD9210504
Probable space group: C 2/M
;
_chemical_formula_sum "Si O2"
_cell_formula_units_Z 58
_cell_length_a 16.109217
_cell_length_b 19.670514
_cell_length_c 16.744495
_cell_angle_alpha 90.000000
_cell_angle_beta 33.372361
_cell_angle_gamma 90.000000
_cell_volume 2918.679668
_symmetry_space_group_name_H-M "C 2/M"
_symmetry_group_IT_number 12
_symmetry_cell_setting 'monoclinic'
loop_
_space_group_symop_operation_xyz
x,y,z
-x,y,-z
-x,-y,-z
x,-y,z
1/2+x,1/2+y,z
1/2-x,1/2+y,-z
1/2-x,1/2-y,-z
1/2+x,1/2-y,z
loop_
_atom_site_type_symbol
_atom_site_label
_atom_site_fract_x
_atom_site_fract_y
_atom_site_fract_z
Si Si1 0.215373 0.922077 0.041660
Si Si2 0.056704 0.299014 0.136740
Si Si3 0.776821 0.748332 0.839142
Si Si4 0.282966 0.714355 0.558365
Si Si5 0.500000 0.500000 0.500000
Si Si6 0.433764 0.618002 0.676245
Si Si7 0.335113 0.835154 0.637455
Si Si8 0.459036 0.419133 0.124449
O O1 0.112659 0.914737 0.202482
O O2 0.105254 0.901254 0.058563
O O3 0.264186 0.000000 0.992020
O O4 0.352661 0.869752 0.936802
O O5 0.110183 0.261492 0.175653
O O6 0.879404 0.308658 0.279074
O O7 0.116381 0.257164 0.011966
O O8 0.819847 0.818322 0.759893
O O9 0.800792 0.690430 0.754843
O O10 0.250000 0.750000 0.500000
O O11 0.401705 0.653424 0.454743
O O12 0.344963 0.771061 0.569595
O O13 0.428301 0.560266 0.614861
O O14 0.500000 0.869414 0.500000
O O15 0.191613 0.880117 0.728698
O O16 0.434286 0.500000 0.153472
O O17 0.500000 0.405374 0.000000
#
# Coordination Sequence:
#
# PCOD9210504 Si02
#       8
#     8   8   8   8   2   8   8   8
#     4  10  21  42  64  89 123 170 210 260 311 387
#     4  10  22  38  65  91 125 162 208 266 319 371
#     4  10  21  39  62  92 122 164 204 261 319 376
#     4  12  23  39  63  96 126 162 210 271 319 377
#     4  12  24  40  64  94 118 188 208 266 300 400
#     4  11  21  40  64  87 126 164 220 250 317 379
#     4  12  23  37  60  91 127 162 199 264 316 374
#     4  10  23  39  61  89 121 162 209 249 313 392
#
# _framework density 19.872001000000001
#
# number of rings (size 3 to 8) (size 9 to 14) (size 15 to 20)
#    0.000    1.241    3.448    2.483    5.793    0.276 
#    1.241    0.000    0.000    6.621    0.000    0.000 
#    0.000    0.000    0.000    0.000    0.000    0.000 
#
# Total GULP energy -161813.206084 kJ/mol
# GULP energy per Si atom -5579.765727 kJ/mol
# Density = 1.982677 g / cm^3
# Si number density = 19.872001 Si / 1000 Ang^3
#
#
#
# Elastic Constant Matrix: (Units=GPa)
#
#
# Indices 1 2 3 4 5 6 
#
# 1 26.2871 -7.9546 16.7220 -0.0012 11.6447 0.0014
# 2 -7.9546 83.9090 31.2585 -0.0064 -4.7881 0.0044
# 3 16.7220 31.2585 107.9542 -0.0048 -10.9567 0.0048
# 4 -0.0012 -0.0064 -0.0048 32.4465 0.0029 4.4097
# 5 11.6447 -4.7881 -10.9567 0.0029 37.1789 -0.0031
# 6 0.0014 0.0044 0.0048 4.4097 -0.0031 16.6338
#
#
#
# Elastic Compliance Matrix: (Units=1/GPa)
#
#
# Indices 1 2 3 4 5 6 
#
# 1 0.059625 0.009726 -0.014246 0.000005 -0.021621 -0.000009
# 2 0.009726 0.014958 -0.006135 0.000003 -0.002928 -0.000004
# 3 -0.014246 -0.006135 0.014039 0.000000 0.007809 0.000000
# 4 0.000005 0.000003 0.000000 0.031972 -0.000004 -0.008476
# 5 -0.021621 -0.002928 0.007809 -0.000004 0.035593 0.000008
# 6 -0.000009 -0.000004 0.000000 -0.008476 0.000008 0.062366
#
#
# Mechanical properties :
#
#
# Convention : Reuss Voigt Hill
#
# Bulk Modulus (GPa) = 14.85645 33.13357 23.99501
# Shear Modulus (GPa) = 19.06217 29.12679 24.09448
#
# Velocity S-wave (km/s) = 3.10053 3.83263 3.48585
# Velocity P-wave (km/s) = 4.50667 6.02454 5.32001
#
# Compressibility (1/GPa) = 0.06731082
#
# Stress axis : x y z
#
# Youngs Moduli (GPa) = 16.77163 66.85381 71.23080
#
# Poissons Ratio (x) = -0.65021 1.01477
# Poissons Ratio (y) = -0.16312 0.43699
# Poissons Ratio (z) = 0.23893 0.41014
#
# Static dielectric constant tensor:
#      x y z
#    x 1.705680 0.000000 0.005190 
#    y 0.000000 1.711050 0.000000 
#    z 0.005190 0.000000 1.700870 
# 
# From -- ./inp_files/278805.got.cif
#   From: 2010.05.17/outbox.cif.g08.bks.cpg/sg12_140_cif.got.tgz:278805.got - 2010.06.03 13:09:07.
