data_PCOD9210263
_publ_section_title
;
Structure prediction by ZEFSAII (Michael W. Deem and Ramdas Pophale) SiO2 
 PCOD9210263
Probable space group: C 2/M
;
_chemical_formula_sum "Si O2"
_cell_formula_units_Z 56
_cell_length_a 9.415463
_cell_length_b 18.221994
_cell_length_c 18.377262
_cell_angle_alpha 90.000000
_cell_angle_beta 62.846154
_cell_angle_gamma 90.000000
_cell_volume 2805.453814
_symmetry_space_group_name_H-M "C 2/M"
_symmetry_group_IT_number 12
_symmetry_cell_setting 'monoclinic'
loop_
_space_group_symop_operation_xyz
x,y,z
-x,y,-z
-x,-y,-z
x,-y,z
1/2+x,1/2+y,z
1/2-x,1/2+y,-z
1/2-x,1/2-y,-z
1/2+x,1/2-y,z
loop_
_atom_site_type_symbol
_atom_site_label
_atom_site_fract_x
_atom_site_fract_y
_atom_site_fract_z
Si Si1 0.597129 0.088380 0.665078
Si Si2 0.329318 0.327421 0.999592
Si Si3 0.020244 0.086361 0.166781
Si Si4 0.181955 0.415342 0.162169
Si Si5 0.462506 0.200893 0.593935
Si Si6 0.453066 0.586587 0.588811
Si Si7 0.593211 0.672499 0.670379
O O1 0.465563 0.111254 0.754991
O O2 0.552634 0.127757 0.600361
O O3 0.773763 0.111699 0.648892
O O4 0.589531 0.000000 0.659711
O O5 0.364597 0.378510 0.921152
O O6 0.500000 0.316853 0.000000
O O7 0.250000 0.250000 0.000000
O O8 0.215975 0.368996 0.082876
O O9 0.842753 0.085978 0.173049
O O10 0.007591 0.142124 0.237769
O O11 0.058264 0.000000 0.175188
O O12 0.152110 0.500000 0.149179
O O13 0.500000 0.214629 0.500000
O O14 0.521426 0.262971 0.636835
O O15 0.273268 0.191531 0.648043
O O16 0.500000 0.618129 0.500000
O O17 0.441256 0.500000 0.585057
O O18 0.585533 0.605009 0.616252
#
# Coordination Sequence:
#
# PCOD9210263 Si02
#       7
#     8   8   8   8   8   8   8
#     4  10  21  39  63  90 121 161 210 260 313 372
#     4  10  22  39  64  93 128 162 199 247 306 366
#     4  10  21  39  65  95 122 160 212 256 305 367
#     4   9  18  38  64  90 122 161 208 252 302 365
#     4  12  25  40  60  89 125 165 209 260 319 373
#     4  10  21  39  61  87 121 162 207 257 314 369
#     4  12  24  39  61  86 124 163 209 258 308 376
#
# _framework density 19.961120000000001
#
# number of rings (size 3 to 8) (size 9 to 14) (size 15 to 20)
#    0.000    1.571    1.429    3.429    2.000    2.571 
#    2.571    0.000    0.000    0.857    0.000    0.000 
#    0.000    0.000    0.000    0.000    0.000    0.000 
#
# Total GULP energy -156274.457061 kJ/mol
# GULP energy per Si atom -5581.230609 kJ/mol
# Density = 1.991569 g / cm^3
# Si number density = 19.961120 Si / 1000 Ang^3
#
#
#
# Elastic Constant Matrix: (Units=GPa)
#
#
# Indices 1 2 3 4 5 6 
#
# 1 50.8233 25.0786 5.0844 0.0000 -3.8063 0.0000
# 2 25.0786 78.9446 57.9615 0.0000 -2.6034 0.0000
# 3 5.0844 57.9615 103.1689 0.0000 4.6259 0.0000
# 4 0.0000 0.0000 0.0000 34.1418 0.0000 14.1230
# 5 -3.8063 -2.6034 4.6259 0.0000 28.2583 0.0000
# 6 0.0000 0.0000 0.0000 14.1230 0.0000 15.4072
#
#
#
# Elastic Compliance Matrix: (Units=1/GPa)
#
#
# Indices 1 2 3 4 5 6 
#
# 1 0.025101 -0.011868 0.005368 0.000000 0.001409 0.000000
# 2 -0.011868 0.027630 -0.015091 0.000000 0.003417 0.000000
# 3 0.005368 -0.015091 0.018069 0.000000 -0.003625 0.000000
# 4 0.000000 0.000000 0.000000 0.047179 0.000000 -0.043246
# 5 0.001409 0.003417 -0.003625 0.000000 0.036486 0.000000
# 6 0.000000 0.000000 0.000000 -0.043246 0.000000 0.104547
#
#
# Mechanical properties :
#
#
# Convention : Reuss Voigt Hill
#
# Bulk Modulus (GPa) = 36.21044 45.46507 40.83776
# Shear Modulus (GPa) = 16.05646 25.21561 20.63604
#
# Velocity S-wave (km/s) = 2.83925 3.55806 3.21878
# Velocity P-wave (km/s) = 5.37850 6.30127 5.85808
#
# Compressibility (1/GPa) = 0.02761634
#
# Stress axis : x y z
#
# Youngs Moduli (GPa) = 39.83918 36.19236 55.34240
#
# Poissons Ratio (x) = 0.42954 -0.29705
# Poissons Ratio (y) = 0.47282 0.83519
# Poissons Ratio (z) = -0.21384 0.54619
#
# Static dielectric constant tensor:
#      x y z
#    x 1.683510 0.000000 -0.001930 
#    y 0.000000 1.745410 0.000000 
#    z -0.001930 0.000000 1.712220 
# 
# From -- ./inp_files/257015.got.cif
#   From: 2010.05.17/outbox.cif.g08.bks.cpg/sg12_129_cif.got.tgz:257015.got - 2010.06.03 13:09:07.
