data_PCOD9210376
_publ_section_title
;
Structure prediction by ZEFSAII (Michael W. Deem and Ramdas Pophale) SiO2 
 PCOD9210376
Probable space group: C 2/M
;
_chemical_formula_sum "Si O2"
_cell_formula_units_Z 40
_cell_length_a 5.390582
_cell_length_b 19.663914
_cell_length_c 15.370267
_cell_angle_alpha 90.000000
_cell_angle_beta 79.800350
_cell_angle_gamma 90.000000
_cell_volume 1603.499891
_symmetry_space_group_name_H-M "C 2/M"
_symmetry_group_IT_number 12
_symmetry_cell_setting 'monoclinic'
loop_
_space_group_symop_operation_xyz
x,y,z
-x,y,-z
-x,-y,-z
x,-y,z
1/2+x,1/2+y,z
1/2-x,1/2+y,-z
1/2-x,1/2-y,-z
1/2+x,1/2-y,z
loop_
_atom_site_type_symbol
_atom_site_label
_atom_site_fract_x
_atom_site_fract_y
_atom_site_fract_z
Si Si1 0.026381 0.575511 0.146683
Si Si2 0.048887 0.923770 0.393891
Si Si3 0.548635 0.840894 0.395136
Si Si4 0.328914 0.215639 0.779704
Si Si5 0.761054 0.134867 0.973511
O O1 0.014435 0.500000 0.184000
O O2 0.760543 0.601363 0.120264
O O3 0.129794 0.637186 0.197415
O O4 0.205910 0.576609 0.050017
O O5 0.798412 0.887612 0.375182
O O6 0.000000 0.929550 0.500000
O O7 0.304296 0.880440 0.373191
O O8 0.077880 0.000000 0.356393
O O9 0.500000 0.823502 0.500000
O O10 0.608767 0.779464 0.327017
O O11 0.547655 0.258569 0.812822
O O12 0.500000 0.176172 0.000000
O O13 0.000000 0.169539 0.000000
#
# Coordination Sequence:
#
# PCOD9210376 Si02
#       5
#     8   8   8   8   8
#     4   9  22  41  69  98 128 169 215 256 310 382
#     4   9  17  32  58  92 124 151 195 266 330 374
#     4  10  21  39  62  86 118 171 225 262 311 382
#     4  12  28  46  62  91 136 171 208 273 331 374
#     4   8  18  37  66  99 128 161 210 261 300 367
#
# _framework density 24.945433999999999
#
# number of rings (size 3 to 8) (size 9 to 14) (size 15 to 20)
#    1.200    1.000    0.000    3.000    2.800    6.400 
#    0.000    4.000    0.000    0.000    0.000    0.000 
#    0.000    0.000    0.000    0.000    0.000    0.000 
#
# Total GULP energy -111538.045416 kJ/mol
# GULP energy per Si atom -5576.902271 kJ/mol
# Density = 2.488866 g / cm^3
# Si number density = 24.945434 Si / 1000 Ang^3
#
#
#
# Elastic Constant Matrix: (Units=GPa)
#
#
# Indices 1 2 3 4 5 6 
#
# 1 167.8961 40.3605 -4.6772 0.0000 30.8355 0.0000
# 2 40.3605 125.7430 23.5819 0.0000 19.3085 0.0000
# 3 -4.6772 23.5819 63.3530 0.0000 10.0202 0.0000
# 4 0.0000 0.0000 0.0000 14.1211 0.0000 -5.6614
# 5 30.8355 19.3085 10.0202 0.0000 26.9723 0.0000
# 6 0.0000 0.0000 0.0000 -5.6614 0.0000 1.1770
#
#
#
# Elastic Compliance Matrix: (Units=1/GPa)
#
#
# Indices 1 2 3 4 5 6 
#
# 1 0.008099 -0.001714 0.002663 0.000000 -0.009022 0.000000
# 2 -0.001714 0.009673 -0.003125 0.000000 -0.003804 0.000000
# 3 0.002663 -0.003125 0.018350 0.000000 -0.007624 0.000000
# 4 0.000000 0.000000 0.000000 -0.076279 0.000000 -0.366898
# 5 -0.009022 -0.003804 -0.007624 0.000000 0.052945 0.000000
# 6 0.000000 0.000000 0.000000 -0.366898 0.000000 -0.915152
#
#
# Mechanical properties :
#
#
# Convention : Reuss Voigt Hill
#
# Bulk Modulus (GPa) = 31.47645 52.83584 42.15614
# Shear Modulus (GPa) = -5.63430 28.30254 11.33412
#
# Velocity S-wave (km/s) = -1.50451 3.37200 2.13388
# Velocity P-wave (km/s) = 3.10281 6.03217 4.79659
#
# Compressibility (1/GPa) = 0.03176978
#
# Stress axis : x y z
#
# Youngs Moduli (GPa) = 123.47105 103.37942 54.49488
#
# Poissons Ratio (x) = 0.17716 -0.14510
# Poissons Ratio (y) = 0.21159 0.17032
# Poissons Ratio (z) = -0.32877 0.32310
#
# Static dielectric constant tensor:
#      x y z
#    x 1.477150 0.000000 -0.191450 
#    y 0.000000 1.908570 0.000000 
#    z -0.191450 0.000000 1.990290 
# 
# From -- ./inp_files/191496.got.cif
#   From: 2010.05.17/outbox.cif.g08.bks.cpg/sg12_96_cif.got.tgz:191496.got - 2010.06.03 13:09:07.
