data_PCOD9210034
_publ_section_title
;
Structure prediction by ZEFSAII (Michael W. Deem and Ramdas Pophale) SiO2 
 PCOD9210034
Probable space group: C 2/M
;
_chemical_formula_sum "Si O2"
_cell_formula_units_Z 48
_cell_length_a 20.479960
_cell_length_b 8.721956
_cell_length_c 21.681052
_cell_angle_alpha 90.000000
_cell_angle_beta 40.678658
_cell_angle_gamma 90.000000
_cell_volume 2524.342844
_symmetry_space_group_name_H-M "C 2/M"
_symmetry_group_IT_number 12
_symmetry_cell_setting 'monoclinic'
loop_
_space_group_symop_operation_xyz
x,y,z
-x,y,-z
-x,-y,-z
x,-y,z
1/2+x,1/2+y,z
1/2-x,1/2+y,-z
1/2-x,1/2-y,-z
1/2+x,1/2-y,z
loop_
_atom_site_type_symbol
_atom_site_label
_atom_site_fract_x
_atom_site_fract_y
_atom_site_fract_z
Si Si1 0.523985 0.682513 0.576375
Si Si2 0.148874 0.316662 0.819182
Si Si3 0.444885 0.815941 0.753819
Si Si4 0.945218 0.315836 0.895507
Si Si5 0.346401 0.816947 0.619190
Si Si6 0.711378 0.682705 0.903768
O O1 0.526399 0.500000 0.568641
O O2 0.513306 0.733460 0.654529
O O3 0.425841 0.747227 0.611157
O O4 0.617107 0.755551 0.473124
O O5 0.159974 0.500000 0.808059
O O6 0.237098 0.239007 0.716720
O O7 0.162297 0.262736 0.879707
O O8 0.040929 0.276163 0.868753
O O9 0.465222 0.775118 0.810156
O O10 0.328620 0.776987 0.823675
O O11 0.455779 0.000000 0.739019
O O12 0.930279 0.500000 0.908705
O O13 0.848067 0.235440 0.993230
O O14 0.353232 0.000000 0.616729
O O15 0.704400 0.500000 0.901681
#
# Coordination Sequence:
#
# PCOD9210034 Si02
#       6
#     8   8   8   8   8   8
#     4  11  21  35  59  89 116 147 188 235 283 339
#     4  11  22  38  59  85 116 152 195 239 285 338
#     4  10  21  39  59  84 117 154 193 235 288 338
#     4  10  23  40  58  81 117 158 194 237 285 339
#     4  11  21  36  59  86 116 149 187 236 287 338
#     4  11  22  36  59  86 114 151 197 243 285 338
#
# _framework density 19.014849000000002
#
# number of rings (size 3 to 8) (size 9 to 14) (size 15 to 20)
#    0.000    1.333    1.667    6.000    0.000    4.667 
#    0.000    0.833    0.000    0.000    0.000    0.000 
#    0.000    0.000    0.000    0.000    0.000    0.000 
#
# Total GULP energy -134196.656202 kJ/mol
# GULP energy per Si atom -5591.527342 kJ/mol
# Density = 1.897157 g / cm^3
# Si number density = 19.014849 Si / 1000 Ang^3
#
#
#
# Elastic Constant Matrix: (Units=GPa)
#
#
# Indices 1 2 3 4 5 6 
#
# 1 51.6260 12.3566 -4.2959 0.0004 18.8644 0.0000
# 2 12.3566 61.2710 21.5113 0.0007 5.4995 0.0001
# 3 -4.2959 21.5113 88.4604 0.0003 15.6933 0.0000
# 4 0.0004 0.0007 0.0003 -67.8664 -0.0002 14.9890
# 5 18.8644 5.4995 15.6933 -0.0002 23.1565 0.0000
# 6 0.0000 0.0001 0.0000 14.9890 0.0000 17.9537
#
#
#
# Elastic Compliance Matrix: (Units=1/GPa)
#
#
# Indices 1 2 3 4 5 6 
#
# 1 0.033303 -0.007018 0.008913 0.000000 -0.031504 0.000000
# 2 -0.007018 0.019368 -0.005966 0.000000 0.005160 0.000000
# 3 0.008913 -0.005966 0.016169 0.000000 -0.016801 0.000000
# 4 0.000000 0.000000 0.000000 -0.012441 0.000000 0.010387
# 5 -0.031504 0.005160 -0.016801 0.000000 0.079010 0.000000
# 6 0.000000 0.000000 0.000000 0.010387 0.000000 0.047027
#
#
# Mechanical properties :
#
#
# Convention : Reuss Voigt Hill
#
# Bulk Modulus (GPa) = 16.47516 28.94459 22.70988
# Shear Modulus (GPa) = 23.71804 6.10112 14.90958
#
# Velocity S-wave (km/s) = 3.53561 1.79320 2.80322
# Velocity P-wave (km/s) = 5.03493 4.42070 4.73778
#
# Compressibility (1/GPa) = 0.06069742
#
# Stress axis : x y z
#
# Youngs Moduli (GPa) = 30.02731 51.63267 61.84774
#
# Poissons Ratio (x) = 0.36234 -0.55123
# Poissons Ratio (y) = 0.21072 0.36898
# Poissons Ratio (z) = -0.26762 0.30804
#
# Static dielectric constant tensor:
#      x y z
#    x 1.648430 0.000000 0.014630 
#    y 0.000000 1.637220 0.000000 
#    z 0.014630 0.000000 1.650690 
# 
# From -- ./inp_files/249383.got.cif
#   From: 2010.05.17/outbox.cif.g08.bks.cpg/sg12_125_cif.got.tgz:249383.got - 2010.06.03 13:09:07.
