data_PCOD9210843
_publ_section_title
;
Structure prediction by ZEFSAII (Michael W. Deem and Ramdas Pophale) SiO2 
 PCOD9210843
Probable space group: C 2/M
;
_chemical_formula_sum "Si O2"
_cell_formula_units_Z 56
_cell_length_a 10.033056
_cell_length_b 29.395339
_cell_length_c 9.058166
_cell_angle_alpha 90.000000
_cell_angle_beta 116.802820
_cell_angle_gamma 90.000000
_cell_volume 2384.466191
_symmetry_space_group_name_H-M "C 2/M"
_symmetry_group_IT_number 12
_symmetry_cell_setting 'monoclinic'
loop_
_space_group_symop_operation_xyz
x,y,z
-x,y,-z
-x,-y,-z
x,-y,z
1/2+x,1/2+y,z
1/2-x,1/2+y,-z
1/2-x,1/2-y,-z
1/2+x,1/2-y,z
loop_
_atom_site_type_symbol
_atom_site_label
_atom_site_fract_x
_atom_site_fract_y
_atom_site_fract_z
Si Si1 0.607512 0.877258 0.672594
Si Si2 0.221647 0.946819 0.459348
Si Si3 0.217441 0.278393 0.341620
Si Si4 0.573327 0.452254 0.875558
Si Si5 0.334879 0.877321 0.730324
Si Si6 0.216196 0.855745 0.978819
Si Si7 0.903512 0.766197 0.154962
O O1 0.500000 0.853314 0.500000
O O2 0.682423 0.918031 0.615501
O O3 0.496632 0.892159 0.750322
O O4 0.721789 0.847932 0.825546
O O5 0.235056 0.919238 0.620435
O O6 0.055454 0.946837 0.310312
O O7 0.268428 0.000000 0.494268
O O8 0.250000 0.250000 0.500000
O O9 0.216968 0.331749 0.379347
O O10 0.351067 0.267334 0.297007
O O11 0.051980 0.262805 0.202138
O O12 0.655537 0.500000 0.887261
O O13 0.665739 0.407271 0.939645
O O14 0.500000 0.456145 0.000000
O O15 0.326437 0.856594 0.891500
O O16 0.086815 0.819280 0.884665
O O17 0.750000 0.750000 0.000000
#
# Coordination Sequence:
#
# PCOD9210843 Si02
#       7
#     8   8   8   8   8   8   8
#     4  10  21  39  64  91 126 171 212 264 329 391
#     4  10  22  41  64  95 131 170 221 273 323 393
#     4  11  25  45  67  96 136 177 225 282 340 404
#     4  10  21  39  64  93 128 169 219 276 326 385
#     4  10  24  41  63  94 133 170 211 272 339 390
#     4  11  23  41  66  95 130 170 224 271 335 401
#     4  11  25  44  67  99 134 177 226 282 338 406
#
# _framework density 23.485340000000001
#
# number of rings (size 3 to 8) (size 9 to 14) (size 15 to 20)
#    0.000    1.571    1.429    2.143    2.000   12.857 
#    0.000    1.429    0.000    5.143    0.000    0.000 
#    0.000    0.000    0.000    0.000    0.000    0.000 
#
# Total GULP energy -156160.450388 kJ/mol
# GULP energy per Si atom -5577.158942 kJ/mol
# Density = 2.343189 g / cm^3
# Si number density = 23.485340 Si / 1000 Ang^3
#
#
#
# Elastic Constant Matrix: (Units=GPa)
#
#
# Indices 1 2 3 4 5 6 
#
# 1 65.2692 8.8975 -1.2466 0.0000 -12.9222 0.0000
# 2 8.8975 114.6938 23.4754 0.0000 -4.5809 0.0000
# 3 -1.2466 23.4754 111.3154 0.0000 -3.7422 0.0000
# 4 0.0000 0.0000 0.0000 37.3005 0.0000 -3.0074
# 5 -12.9222 -4.5809 -3.7422 0.0000 31.9382 0.0000
# 6 0.0000 0.0000 0.0000 -3.0074 0.0000 22.4074
#
#
#
# Elastic Compliance Matrix: (Units=1/GPa)
#
#
# Indices 1 2 3 4 5 6 
#
# 1 0.016823 -0.001172 0.000661 0.000000 0.006716 0.000000
# 2 -0.001172 0.009232 -0.001939 0.000000 0.000623 0.000000
# 3 0.000661 -0.001939 0.009437 0.000000 0.001095 0.000000
# 4 0.000000 0.000000 0.000000 0.027103 0.000000 0.003638
# 5 0.006716 0.000623 0.001095 0.000000 0.034245 0.000000
# 6 0.000000 0.000000 0.000000 0.003638 0.000000 0.045116
#
#
# Mechanical properties :
#
#
# Convention : Reuss Voigt Hill
#
# Bulk Modulus (GPa) = 32.68863 39.28122 35.98493
# Shear Modulus (GPa) = 31.83643 35.67267 33.75455
#
# Velocity S-wave (km/s) = 3.68582 3.90158 3.79523
# Velocity P-wave (km/s) = 5.66239 6.08758 5.87883
#
# Compressibility (1/GPa) = 0.03059168
#
# Stress axis : x y z
#
# Youngs Moduli (GPa) = 59.44158 108.32410 105.96998
#
# Poissons Ratio (x) = 0.12698 -0.07009
# Poissons Ratio (y) = 0.06968 0.20548
# Poissons Ratio (z) = -0.03931 0.21005
#
# Static dielectric constant tensor:
#      x y z
#    x 1.051740 0.000000 1.260650 
#    y 0.000000 1.970900 0.000000 
#    z 1.260650 0.000000 0.165940 
# 
# From -- ./inp_files/54801.got.cif
#   From: 2010.05.17/outbox.cif.g08.bks.cpg/sg12_28_cif.got.tgz:54801.got - 2010.06.03 13:09:07.
