data_PCOD9210464
_publ_section_title
;
Structure prediction by ZEFSAII (Michael W. Deem and Ramdas Pophale) SiO2 
 PCOD9210464
Probable space group: C 2/M
;
_chemical_formula_sum "Si O2"
_cell_formula_units_Z 40
_cell_length_a 22.161090
_cell_length_b 15.807234
_cell_length_c 18.563876
_cell_angle_alpha 90.000000
_cell_angle_beta 161.803914
_cell_angle_gamma 90.000000
_cell_volume 2030.700866
_symmetry_space_group_name_H-M "C 2/M"
_symmetry_group_IT_number 12
_symmetry_cell_setting 'monoclinic'
loop_
_space_group_symop_operation_xyz
x,y,z
-x,y,-z
-x,-y,-z
x,-y,z
1/2+x,1/2+y,z
1/2-x,1/2+y,-z
1/2-x,1/2-y,-z
1/2+x,1/2-y,z
loop_
_atom_site_type_symbol
_atom_site_label
_atom_site_fract_x
_atom_site_fract_y
_atom_site_fract_z
Si Si1 0.382475 0.244472 0.555150
Si Si2 0.388602 0.904031 0.111631
Si Si3 0.990237 0.907585 0.219139
Si Si4 0.023800 0.172364 0.947050
Si Si5 0.653018 0.697693 0.731566
O O1 0.459186 0.164660 0.687796
O O2 0.396103 0.328715 0.618561
O O3 0.168217 0.227577 0.284907
O O4 0.529122 0.259037 0.655019
O O5 0.460862 0.000000 0.187090
O O6 0.217568 0.903991 0.977296
O O7 0.288269 0.870835 0.924593
O O8 0.967462 0.893532 0.108368
O O9 0.074313 0.000000 0.330232
O O10 0.000000 0.135995 0.000000
O O11 0.209549 0.232866 0.149681
O O12 0.500000 0.663269 0.500000
#
# Coordination Sequence:
#
# PCOD9210464 Si02
#       5
#     8   8   8   8   8
#     4  11  21  40  66  86 119 163 202 251 300 349
#     4  10  21  39  66  92 117 160 205 247 302 354
#     4  10  21  39  62  90 121 154 203 251 295 357
#     4  12  23  37  63  90 120 163 203 240 308 360
#     4  11  21  40  62  87 126 159 196 252 300 354
#
# _framework density 19.697633
#
# number of rings (size 3 to 8) (size 9 to 14) (size 15 to 20)
#    0.000    1.200    6.000    1.800    0.000    1.600 
#    0.000    0.000    0.000    4.800    0.000    0.000 
#    0.000    0.000    0.000    0.000    0.000    0.000 
#
# Total GULP energy -111736.632800 kJ/mol
# GULP energy per Si atom -5586.831640 kJ/mol
# Density = 1.965280 g / cm^3
# Si number density = 19.697633 Si / 1000 Ang^3
#
#
#
# Elastic Constant Matrix: (Units=GPa)
#
#
# Indices 1 2 3 4 5 6 
#
# 1 104.3513 20.2464 23.8260 -0.0022 -10.6244 -0.0024
# 2 20.2464 101.0285 16.3404 -0.0001 -8.9409 0.0019
# 3 23.8260 16.3404 74.4866 -0.0014 -6.0905 0.0016
# 4 -0.0022 -0.0001 -0.0014 -23.7821 0.0009 -9.3929
# 5 -10.6244 -8.9409 -6.0905 0.0009 38.8488 0.0016
# 6 -0.0024 0.0019 0.0016 -9.3929 0.0016 7.4913
#
#
#
# Elastic Compliance Matrix: (Units=1/GPa)
#
#
# Indices 1 2 3 4 5 6 
#
# 1 0.010762 -0.001492 -0.002940 -0.000002 0.002139 0.000002
# 2 -0.001492 0.010630 -0.001710 0.000001 0.001770 -0.000002
# 3 -0.002940 -0.001710 0.014833 0.000001 0.001128 -0.000003
# 4 -0.000002 0.000001 0.000001 -0.028122 0.000002 -0.035261
# 5 0.002139 0.001770 0.001128 0.000002 0.026910 -0.000003
# 6 0.000002 -0.000002 -0.000003 -0.035261 -0.000003 0.089277
#
#
# Mechanical properties :
#
#
# Convention : Reuss Voigt Hill
#
# Bulk Modulus (GPa) = 41.76947 44.52134 43.14541
# Shear Modulus (GPa) = 34.58911 19.14186 26.86548
#
# Velocity S-wave (km/s) = 4.19502 3.12073 3.69710
# Velocity P-wave (km/s) = 6.68697 5.96965 6.33846
#
# Compressibility (1/GPa) = 0.02394093
#
# Stress axis : x y z
#
# Youngs Moduli (GPa) = 92.92363 94.06956 67.41702
#
# Poissons Ratio (x) = 0.14033 0.19822
# Poissons Ratio (y) = 0.13863 0.11529
# Poissons Ratio (z) = 0.27321 0.16087
#
# Static dielectric constant tensor:
#      x y z
#    x 1.717640 0.000000 0.010380 
#    y 0.000000 1.679160 0.000000 
#    z 0.010380 0.000000 1.669710 
# 
# From -- ./inp_files/59113.got.cif
#   From: 2010.05.17/outbox.cif.g08.bks.cpg/sg12_30_cif.got.tgz:59113.got - 2010.06.03 13:09:07.
