data_PCOD9210641
_publ_section_title
;
Structure prediction by ZEFSAII (Michael W. Deem and Ramdas Pophale) SiO2 
 PCOD9210641
Probable space group: C 2/M
;
_chemical_formula_sum "Si O2"
_cell_formula_units_Z 56
_cell_length_a 18.808186
_cell_length_b 7.819597
_cell_length_c 18.177452
_cell_angle_alpha 90.000000
_cell_angle_beta 69.847131
_cell_angle_gamma 90.000000
_cell_volume 2509.727743
_symmetry_space_group_name_H-M "C 2/M"
_symmetry_group_IT_number 12
_symmetry_cell_setting 'monoclinic'
loop_
_space_group_symop_operation_xyz
x,y,z
-x,y,-z
-x,-y,-z
x,-y,z
1/2+x,1/2+y,z
1/2-x,1/2+y,-z
1/2-x,1/2-y,-z
1/2+x,1/2-y,z
loop_
_atom_site_type_symbol
_atom_site_label
_atom_site_fract_x
_atom_site_fract_y
_atom_site_fract_z
Si Si1 0.784634 0.797870 0.196413
Si Si2 0.176001 0.204175 0.981693
Si Si3 0.859240 0.206995 0.672266
Si Si4 0.080642 0.300254 0.756361
Si Si5 0.823336 0.206302 0.522484
Si Si6 0.015924 0.301197 0.074208
Si Si7 0.031700 0.198013 0.615665
O O1 0.813656 0.735407 0.106458
O O2 0.696351 0.765139 0.242992
O O3 0.834602 0.714434 0.242869
O O4 0.798029 0.000000 0.194427
O O5 0.165176 0.000000 0.984438
O O6 0.250000 0.250000 0.000000
O O7 0.105433 0.288375 0.047814
O O8 0.822619 0.262737 0.607563
O O9 0.946278 0.269382 0.644668
O O10 0.860381 0.000000 0.674310
O O11 0.062644 0.500000 0.750295
O O12 0.064051 0.207343 0.686515
O O13 0.028266 0.227920 0.840831
O O14 0.750000 0.250000 0.500000
O O15 0.901841 0.273203 0.458817
O O16 0.827110 0.000000 0.521495
O O17 0.991492 0.500000 0.079400
O O18 0.000000 0.220690 0.000000
O O19 0.023443 0.000000 0.595552
#
# Coordination Sequence:
#
# PCOD9210641 Si02
#       7
#     8   8   8   8   8   8   8
#     4  11  24  41  60  87 121 157 199 249 299 352
#     4  11  25  41  61  87 120 159 201 249 301 357
#     4  10  22  40  63  89 120 160 201 242 295 354
#     4  11  23  39  62  89 120 157 200 248 298 358
#     4  10  21  39  63  90 121 157 199 243 291 351
#     4  10  21  40  63  87 117 156 200 249 301 351
#     4  10  22  40  62  90 123 158 197 245 297 351
#
# _framework density 22.313175999999999
#
# number of rings (size 3 to 8) (size 9 to 14) (size 15 to 20)
#    0.000    1.571    1.429    2.571    2.000    8.857 
#    0.000    0.000    0.000    2.571    0.000    0.000 
#    0.000    0.000    0.000    0.000    0.000    0.000 
#
# Total GULP energy -156495.342854 kJ/mol
# GULP energy per Si atom -5589.119388 kJ/mol
# Density = 2.226239 g / cm^3
# Si number density = 22.313176 Si / 1000 Ang^3
#
#
#
# Elastic Constant Matrix: (Units=GPa)
#
#
# Indices 1 2 3 4 5 6 
#
# 1 97.2886 -8.9483 6.1838 0.0000 -16.1656 -0.0003
# 2 -8.9483 40.6084 1.3565 -0.0001 -0.2977 -0.0014
# 3 6.1838 1.3565 86.8954 0.0000 -21.7144 0.0001
# 4 0.0000 -0.0001 0.0000 22.3582 0.0000 24.6998
# 5 -16.1656 -0.2977 -21.7144 0.0000 44.2278 -0.0002
# 6 -0.0003 -0.0014 0.0001 24.6998 -0.0002 212.2033
#
#
#
# Elastic Compliance Matrix: (Units=1/GPa)
#
#
# Indices 1 2 3 4 5 6 
#
# 1 0.011194 0.002490 0.000218 0.000000 0.004215 0.000000
# 2 0.002490 0.025192 -0.000343 0.000000 0.000912 0.000000
# 3 0.000218 -0.000343 0.013128 0.000000 0.006523 0.000000
# 4 0.000000 0.000000 0.000000 0.051326 0.000000 -0.005974
# 5 0.004215 0.000912 0.006523 0.000000 0.027360 0.000000
# 6 0.000000 0.000000 0.000000 -0.005974 0.000000 0.005408
#
#
# Mechanical properties :
#
#
# Convention : Reuss Voigt Hill
#
# Bulk Modulus (GPa) = 18.43466 24.66403 21.54935
# Shear Modulus (GPa) = 34.02311 70.83790 52.43050
#
# Velocity S-wave (km/s) = 3.90910 5.64057 4.85269
# Velocity P-wave (km/s) = 5.35299 7.31430 6.40911
#
# Compressibility (1/GPa) = 0.05424564
#
# Stress axis : x y z
#
# Youngs Moduli (GPa) = 89.33092 39.69461 76.17365
#
# Poissons Ratio (x) = -0.09885 -0.01660
# Poissons Ratio (y) = -0.22247 0.02611
# Poissons Ratio (z) = -0.01946 0.01360
#
# Static dielectric constant tensor:
#      x y z
#    x 1.840320 0.000000 -0.023220 
#    y 0.000000 1.821630 0.000000 
#    z -0.023220 0.000000 1.868680 
# 
# From -- ./inp_files/275191.got.cif
#   From: 2010.05.17/outbox.cif.g08.bks.cpg/sg12_138_cif.got.tgz:275191.got - 2010.06.03 13:09:07.
