data_PCOD9210361
_publ_section_title
;
Structure prediction by ZEFSAII (Michael W. Deem and Ramdas Pophale) SiO2 
 PCOD9210361
Probable space group: C 2/M
;
_chemical_formula_sum "Si O2"
_cell_formula_units_Z 40
_cell_length_a 27.899748
_cell_length_b 8.737248
_cell_length_c 9.135917
_cell_angle_alpha 90.000000
_cell_angle_beta 70.929014
_cell_angle_gamma 90.000000
_cell_volume 2104.803275
_symmetry_space_group_name_H-M "C 2/M"
_symmetry_group_IT_number 12
_symmetry_cell_setting 'monoclinic'
loop_
_space_group_symop_operation_xyz
x,y,z
-x,y,-z
-x,-y,-z
x,-y,z
1/2+x,1/2+y,z
1/2-x,1/2+y,-z
1/2-x,1/2-y,-z
1/2+x,1/2-y,z
loop_
_atom_site_type_symbol
_atom_site_label
_atom_site_fract_x
_atom_site_fract_y
_atom_site_fract_z
Si Si1 0.899631 0.815457 0.440513
Si Si2 0.900700 0.316867 0.765173
Si Si3 0.202020 0.316020 0.961184
Si Si4 0.202027 0.184074 0.634626
Si Si5 0.501699 0.684990 0.168105
O O1 0.898800 0.744935 0.602213
O O2 0.849510 0.773496 0.399435
O O3 0.950263 0.768989 0.302759
O O4 0.900390 0.000000 0.453237
O O5 0.903636 0.500000 0.759592
O O6 0.949526 0.251130 0.799283
O O7 0.849543 0.272825 0.902543
O O8 0.205390 0.500000 0.952714
O O9 0.201078 0.250057 0.798797
O O10 0.250000 0.250000 0.000000
O O11 0.250000 0.250000 0.500000
O O12 0.205231 0.000000 0.637142
O O13 0.504661 0.500000 0.168944
O O14 0.500000 0.732394 0.000000
#
# Coordination Sequence:
#
# PCOD9210361 Si02
#       5
#     8   8   8   8   8
#     4  10  22  39  60  86 116 154 197 239 287 349
#     4  11  24  39  58  87 120 153 191 241 296 345
#     4  11  24  41  61  87 119 156 199 244 294 352
#     4  11  23  40  63  90 120 155 196 243 295 349
#     4  10  21  39  62  86 114 152 197 240 286 347
#
# _framework density 19.004149999999999
#
# number of rings (size 3 to 8) (size 9 to 14) (size 15 to 20)
#    0.000    1.400    0.000    4.800    0.000   13.200 
#    0.000    0.000    0.000    0.000    0.000    0.000 
#    0.000    0.000    0.000    0.000    0.000    0.000 
#
# Total GULP energy -111882.957904 kJ/mol
# GULP energy per Si atom -5594.147895 kJ/mol
# Density = 1.896090 g / cm^3
# Si number density = 19.004150 Si / 1000 Ang^3
#
#
#
# Elastic Constant Matrix: (Units=GPa)
#
#
# Indices 1 2 3 4 5 6 
#
# 1 239.5154 67.4046 149.1076 0.0000 -0.9858 0.0000
# 2 67.4046 39.2732 63.5663 0.0000 -2.0778 0.0000
# 3 149.1076 63.5663 244.4622 0.0000 0.6773 0.0000
# 4 0.0000 0.0000 0.0000 35.3763 0.0000 0.3593
# 5 -0.9858 -2.0778 0.6773 0.0000 44.4988 0.0000
# 6 0.0000 0.0000 0.0000 0.3593 0.0000 31.8754
#
#
#
# Elastic Compliance Matrix: (Units=1/GPa)
#
#
# Indices 1 2 3 4 5 6 
#
# 1 0.008891 -0.011221 -0.002504 0.000000 -0.000289 0.000000
# 2 -0.011221 0.058351 -0.008336 0.000000 0.002603 0.000000
# 3 -0.002504 -0.008336 0.007787 0.000000 -0.000563 0.000000
# 4 0.000000 0.000000 0.000000 0.028271 0.000000 -0.000319
# 5 -0.000289 0.002603 -0.000563 0.000000 0.022596 0.000000
# 6 0.000000 0.000000 0.000000 -0.000319 0.000000 0.031376
#
#
# Mechanical properties :
#
#
# Convention : Reuss Voigt Hill
#
# Bulk Modulus (GPa) = 32.35539 120.37865 76.36702
# Shear Modulus (GPa) = 23.61872 38.56161 31.09017
#
# Velocity S-wave (km/s) = 3.52919 4.50946 4.04910
# Velocity P-wave (km/s) = 5.80252 9.51811 7.88238
#
# Compressibility (1/GPa) = 0.03090675
#
# Stress axis : x y z
#
# Youngs Moduli (GPa) = 112.47594 17.13759 128.41726
#
# Poissons Ratio (x) = 0.19230 0.32159
# Poissons Ratio (y) = 1.26212 1.07045
# Poissons Ratio (z) = 0.28167 0.14285
#
# Static dielectric constant tensor:
#      x y z
#    x 1.625170 0.000000 -0.013190 
#    y 0.000000 1.640000 0.000000 
#    z -0.013190 0.000000 1.620960 
# 
# From -- ./inp_files/92746.got.cif
#   From: 2010.05.17/outbox.cif.g08.bks.cpg/sg12_47_cif.got.tgz:92746.got - 2010.06.03 13:09:07.
