data_PCOD9210204
_publ_section_title
;
Structure prediction by ZEFSAII (Michael W. Deem and Ramdas Pophale) SiO2 
 PCOD9210204
Probable space group: C 2/M
;
_chemical_formula_sum "Si O2"
_cell_formula_units_Z 28
_cell_length_a 14.088407
_cell_length_b 11.505807
_cell_length_c 7.312239
_cell_angle_alpha 90.000000
_cell_angle_beta 60.783542
_cell_angle_gamma 90.000000
_cell_volume 1034.510936
_symmetry_space_group_name_H-M "C 2/M"
_symmetry_group_IT_number 12
_symmetry_cell_setting 'monoclinic'
loop_
_space_group_symop_operation_xyz
x,y,z
-x,y,-z
-x,-y,-z
x,-y,z
1/2+x,1/2+y,z
1/2-x,1/2+y,-z
1/2-x,1/2-y,-z
1/2+x,1/2-y,z
loop_
_atom_site_type_symbol
_atom_site_label
_atom_site_fract_x
_atom_site_fract_y
_atom_site_fract_z
Si Si1 0.910356 0.500000 0.926361
Si Si2 0.599656 0.729723 0.133301
Si Si3 0.648266 0.000000 0.445688
Si Si4 0.129014 0.000000 0.902637
Si Si5 0.370568 0.245877 0.461630
O O1 0.876133 0.356608 0.977507
O O2 0.886339 0.500000 0.731154
O O3 0.000000 0.500000 0.000000
O O4 0.655294 0.619916 0.984832
O O5 0.627063 0.727100 0.324763
O O6 0.469588 0.698095 0.259198
O O7 0.597444 0.111282 0.583150
O O8 0.779347 0.000000 0.342620
O O9 0.000000 0.000000 0.000000
O O10 0.250000 0.250000 0.500000
#
# Coordination Sequence:
#
# PCOD9210204 Si02
#       5
#     4   8   4   4   8
#     4  10  21  39  61  84 118 161 201 244 296 357
#     4  10  23  39  61  90 120 157 204 246 297 360
#     4  10  23  39  61  90 120 157 204 246 297 360
#     4  12  24  39  60  93 129 154 191 256 309 345
#     4  10  21  39  61  84 118 161 201 244 296 357
#
# _framework density 27.065929000000001
#
# number of rings (size 3 to 8) (size 9 to 14) (size 15 to 20)
#    0.000    1.714    0.000    3.429    0.000   13.714 
#    0.000    0.000    0.000    1.714    0.000    0.000 
#    0.000    0.000    0.000    0.000    0.000    0.000 
#
# Total GULP energy -78108.498948 kJ/mol
# GULP energy per Si atom -5579.178496 kJ/mol
# Density = 2.700433 g / cm^3
# Si number density = 27.065929 Si / 1000 Ang^3
#
#
#
# Elastic Constant Matrix: (Units=GPa)
#
#
# Indices 1 2 3 4 5 6 
#
# 1 187.8374 -1.9248 22.9558 0.0000 -21.3597 0.0000
# 2 -1.9248 184.6144 38.5504 0.0000 16.3420 0.0000
# 3 22.9558 38.5504 84.6671 0.0000 -9.2240 0.0000
# 4 0.0000 0.0000 0.0000 46.0081 0.0000 6.4149
# 5 -21.3597 16.3420 -9.2240 0.0000 53.4024 0.0000
# 6 0.0000 0.0000 0.0000 6.4149 0.0000 13.4787
#
#
#
# Elastic Compliance Matrix: (Units=1/GPa)
#
#
# Indices 1 2 3 4 5 6 
#
# 1 0.005725 0.000179 -0.001417 0.000000 0.001990 0.000000
# 2 0.000179 0.006295 -0.003177 0.000000 -0.002403 0.000000
# 3 -0.001417 -0.003177 0.013948 0.000000 0.002814 0.000000
# 4 0.000000 0.000000 0.000000 0.023280 0.000000 -0.011080
# 5 0.001990 -0.002403 0.002814 0.000000 0.020743 0.000000
# 6 0.000000 0.000000 0.000000 -0.011080 0.000000 0.079465
#
#
# Mechanical properties :
#
#
# Convention : Reuss Voigt Hill
#
# Bulk Modulus (GPa) = 58.34499 64.03133 61.18816
# Shear Modulus (GPa) = 30.48830 49.08034 39.78432
#
# Velocity S-wave (km/s) = 3.35990 4.26298 3.83809
# Velocity P-wave (km/s) = 6.05436 6.92384 6.50365
#
# Compressibility (1/GPa) = 0.01713943
#
# Stress axis : x y z
#
# Youngs Moduli (GPa) = 174.66955 158.86644 71.69422
#
# Poissons Ratio (x) = -0.02851 0.10160
# Poissons Ratio (y) = -0.03134 0.22774
# Poissons Ratio (z) = 0.24753 0.50464
#
# Static dielectric constant tensor:
#      x y z
#    x 2.212940 0.000000 -0.090440 
#    y 0.000000 2.134440 0.000000 
#    z -0.090440 0.000000 2.128650 
# 
# From -- ./inp_files/56331.got.cif
#   From: 2010.05.17/outbox.cif.g08.bks.cpg/sg12_29_cif.got.tgz:56331.got - 2010.06.03 13:09:07.
