data_PCOD9210638
_publ_section_title
;
Structure prediction by ZEFSAII (Michael W. Deem and Ramdas Pophale) SiO2 
 PCOD9210638
Probable space group: C 2/M
;
_chemical_formula_sum "Si O2"
_cell_formula_units_Z 64
_cell_length_a 34.736065
_cell_length_b 9.144515
_cell_length_c 15.408013
_cell_angle_alpha 90.000000
_cell_angle_beta 43.332008
_cell_angle_gamma 90.000000
_cell_volume 3358.569570
_symmetry_space_group_name_H-M "C 2/M"
_symmetry_group_IT_number 12
_symmetry_cell_setting 'monoclinic'
loop_
_space_group_symop_operation_xyz
x,y,z
-x,y,-z
-x,-y,-z
x,-y,z
1/2+x,1/2+y,z
1/2-x,1/2+y,-z
1/2-x,1/2-y,-z
1/2+x,1/2-y,z
loop_
_atom_site_type_symbol
_atom_site_label
_atom_site_fract_x
_atom_site_fract_y
_atom_site_fract_z
Si Si1 0.648405 0.174071 0.245853
Si Si2 0.747218 0.325762 0.175259
Si Si3 0.544606 0.827621 0.849610
Si Si4 0.012216 0.175025 0.220817
Si Si5 0.545294 0.674278 0.500780
Si Si6 0.373603 0.174857 0.919161
Si Si7 0.760744 0.826652 0.613676
Si Si8 0.838346 0.173333 0.325123
O O1 0.708319 0.241515 0.171737
O O2 0.601923 0.241169 0.385785
O O3 0.630775 0.209598 0.176096
O O4 0.650493 0.000000 0.250249
O O5 0.741684 0.500000 0.169262
O O6 0.727665 0.292674 0.305309
O O7 0.812926 0.289733 0.058797
O O8 0.520963 0.747240 0.803660
O O9 0.603548 0.756857 0.779369
O O10 0.551611 0.000000 0.821215
O O11 0.500000 0.809875 0.000000
O O12 0.074871 0.239298 0.123855
O O13 0.981177 0.209617 0.362659
O O14 0.013763 0.000000 0.208906
O O15 0.500000 0.708144 0.500000
O O16 0.556334 0.500000 0.479827
O O17 0.382798 0.000000 0.913534
O O18 0.812517 0.800919 0.463825
O O19 0.708384 0.735303 0.663637
O O20 0.746961 0.000000 0.630984
O O21 0.845606 0.000000 0.301695
#
# Coordination Sequence:
#
# PCOD9210638 Si02
#       8
#     8   8   8   8   8   8   8   8
#     4  11  23  37  58  90 124 158 204 256 298 346
#     4  10  22  39  61  85 118 162 204 245 297 364
#     4  11  26  45  65  89 124 166 201 243 305 372
#     4  11  24  41  65  93 121 158 205 256 304 359
#     4  10  21  40  63  88 121 164 205 245 305 370
#     4  10  22  40  60  86 123 164 202 246 303 360
#     4   9  20  39  62  88 117 156 199 243 302 363
#     4  10  21  39  63  90 121 153 195 250 299 350
#
# _framework density 19.055731999999999
#
# number of rings (size 3 to 8) (size 9 to 14) (size 15 to 20)
#    0.000    1.750    1.250    1.875    3.500    4.250 
#    0.000    0.000    0.000    0.000    0.000    0.000 
#    0.000    0.000    0.000    0.000    0.000    0.000 
#
# Total GULP energy -178872.784147 kJ/mol
# GULP energy per Si atom -5589.774505 kJ/mol
# Density = 1.901236 g / cm^3
# Si number density = 19.055732 Si / 1000 Ang^3
#
#
#
# Elastic Constant Matrix: (Units=GPa)
#
#
# Indices 1 2 3 4 5 6 
#
# 1 28.2916 25.5588 8.3227 0.0000 -3.8728 0.0000
# 2 25.5588 46.4628 32.9929 0.0000 -5.8014 0.0000
# 3 8.3227 32.9929 44.1943 0.0000 -11.5460 0.0000
# 4 0.0000 0.0000 0.0000 25.2785 0.0000 -5.5264
# 5 -3.8728 -5.8014 -11.5460 0.0000 30.0121 0.0000
# 6 0.0000 0.0000 0.0000 -5.5264 0.0000 38.5432
#
#
#
# Elastic Compliance Matrix: (Units=1/GPa)
#
#
# Indices 1 2 3 4 5 6 
#
# 1 0.112093 -0.101605 0.059357 0.000000 0.017659 0.000000
# 2 -0.101605 0.138529 -0.089731 0.000000 -0.020854 0.000000
# 3 0.059357 -0.089731 0.084389 0.000000 0.022779 0.000000
# 4 0.000000 0.000000 0.000000 0.040840 0.000000 0.005856
# 5 0.017659 -0.020854 0.022779 0.000000 0.040331 0.000000
# 6 0.000000 0.000000 0.000000 0.005856 0.000000 0.026785
#
#
# Mechanical properties :
#
#
# Convention : Reuss Voigt Hill
#
# Bulk Modulus (GPa) = 14.07447 28.07753 21.07600
# Shear Modulus (GPa) = 6.84361 22.23837 14.54099
#
# Velocity S-wave (km/s) = 1.89715 3.41987 2.76538
# Velocity P-wave (km/s) = 3.49297 5.51003 4.61310
#
# Compressibility (1/GPa) = 0.07105064
#
# Stress axis : x y z
#
# Youngs Moduli (GPa) = 8.92116 7.21873 11.84995
#
# Poissons Ratio (x) = 0.73346 -0.70337
# Poissons Ratio (y) = 0.90644 1.06331
# Poissons Ratio (z) = -0.52953 0.64775
#
# Static dielectric constant tensor:
#      x y z
#    x 1.628050 0.000000 0.008350 
#    y 0.000000 1.630610 0.000000 
#    z 0.008350 0.000000 1.660220 
# 
# From -- ./inp_files/249822.got.cif
#   From: 2010.05.17/outbox.cif.g08.bks.cpg/sg12_125_cif.got.tgz:249822.got - 2010.06.03 13:09:07.
