data_PCOD9210998
_publ_section_title
;
Structure prediction by ZEFSAII (Michael W. Deem and Ramdas Pophale) SiO2 
 PCOD9210998
Probable space group: C 2/M
;
_chemical_formula_sum "Si O2"
_cell_formula_units_Z 44
_cell_length_a 8.649054
_cell_length_b 20.162711
_cell_length_c 16.648359
_cell_angle_alpha 90.000000
_cell_angle_beta 52.435843
_cell_angle_gamma 90.000000
_cell_volume 2301.346621
_symmetry_space_group_name_H-M "C 2/M"
_symmetry_group_IT_number 12
_symmetry_cell_setting 'monoclinic'
loop_
_space_group_symop_operation_xyz
x,y,z
-x,y,-z
-x,-y,-z
x,-y,z
1/2+x,1/2+y,z
1/2-x,1/2+y,-z
1/2-x,1/2-y,-z
1/2+x,1/2-y,z
loop_
_atom_site_type_symbol
_atom_site_label
_atom_site_fract_x
_atom_site_fract_y
_atom_site_fract_z
Si Si1 0.088826 0.926501 0.562144
Si Si2 0.243030 0.677493 0.276243
Si Si3 0.561058 0.073453 0.888490
Si Si4 0.191360 0.923550 0.889026
Si Si5 0.617002 0.677951 0.259572
Si Si6 0.000000 0.384063 0.500000
O O1 0.321952 0.920330 0.507807
O O2 0.000000 0.923971 0.500000
O O3 0.990230 0.865107 0.638177
O O4 0.033907 0.000000 0.610619
O O5 0.249275 0.622850 0.203952
O O6 0.463919 0.683262 0.236314
O O7 0.172009 0.748783 0.269331
O O8 0.110558 0.655814 0.394199
O O9 0.370909 0.076214 0.893443
O O10 0.700579 0.133542 0.822823
O O11 0.652317 0.000000 0.847784
O O12 0.500000 0.078059 0.000000
O O13 0.156005 0.000000 0.873097
O O14 0.000000 0.901915 0.000000
#
# Coordination Sequence:
#
# PCOD9210998 Si02
#       6
#     8   8   8   8   8   4
#     4  10  23  40  64  92 124 165 212 267 318 378
#     4  11  25  41  64  92 126 173 210 263 318 378
#     4  10  21  39  65  93 125 163 206 261 318 377
#     4  10  22  41  66  95 127 163 207 260 319 381
#     4  11  24  40  61  90 126 164 213 258 313 380
#     4  10  25  42  64  92 131 172 216 270 319 384
#
# _framework density 19.119242
#
# number of rings (size 3 to 8) (size 9 to 14) (size 15 to 20)
#    0.000    1.636    0.000    3.000    6.364    8.000 
#    0.000    3.636    0.000    0.000    0.000    0.000 
#    0.000    0.000    0.000    0.000    0.000    0.000 
#
# Total GULP energy -122705.924116 kJ/mol
# GULP energy per Si atom -5577.542005 kJ/mol
# Density = 1.907573 g / cm^3
# Si number density = 19.119242 Si / 1000 Ang^3
#
#
#
# Elastic Constant Matrix: (Units=GPa)
#
#
# Indices 1 2 3 4 5 6 
#
# 1 130.3450 55.6835 49.0798 0.0000 8.3018 0.0000
# 2 55.6835 141.0747 72.1497 0.0000 9.2539 0.0000
# 3 49.0798 72.1497 107.6054 0.0000 -1.2615 0.0000
# 4 0.0000 0.0000 0.0000 23.1481 0.0000 -3.8671
# 5 8.3018 9.2539 -1.2615 0.0000 29.0289 0.0000
# 6 0.0000 0.0000 0.0000 -3.8671 0.0000 23.3942
#
#
#
# Elastic Compliance Matrix: (Units=1/GPa)
#
#
# Indices 1 2 3 4 5 6 
#
# 1 0.009911 -0.002188 -0.003080 0.000000 -0.002271 0.000000
# 2 -0.002188 0.011696 -0.006884 0.000000 -0.003402 0.000000
# 3 -0.003080 -0.006884 0.015358 0.000000 0.003743 0.000000
# 4 0.000000 0.000000 0.000000 0.044427 0.000000 0.007344
# 5 -0.002271 -0.003402 0.003743 0.000000 0.036345 0.000000
# 6 0.000000 0.000000 0.000000 0.007344 0.000000 0.043960
#
#
# Mechanical properties :
#
#
# Convention : Reuss Voigt Hill
#
# Bulk Modulus (GPa) = 78.98573 81.42789 80.20681
# Shear Modulus (GPa) = 26.28525 28.58837 27.43681
#
# Velocity S-wave (km/s) = 3.71186 3.87106 3.79230
# Velocity P-wave (km/s) = 7.73126 7.91594 7.82415
#
# Compressibility (1/GPa) = 0.01266051
#
# Stress axis : x y z
#
# Youngs Moduli (GPa) = 100.89802 85.50047 65.11309
#
# Poissons Ratio (x) = 0.18705 0.20057
# Poissons Ratio (y) = 0.22073 0.44825
# Poissons Ratio (z) = 0.31080 0.58860
#
# Static dielectric constant tensor:
#      x y z
#    x 1.668100 0.000000 -0.010980 
#    y 0.000000 1.668740 0.000000 
#    z -0.010980 0.000000 1.620390 
# 
# From -- ./inp_files/195390.got.cif
#   From: 2010.05.17/outbox.cif.g08.bks.cpg/sg12_98_cif.got.tgz:195390.got - 2010.06.03 13:09:07.
