data_PCOD9210220
_publ_section_title
;
Structure prediction by ZEFSAII (Michael W. Deem and Ramdas Pophale) SiO2 
 PCOD9210220
Probable space group: C 2/M
;
_chemical_formula_sum "Si O2"
_cell_formula_units_Z 56
_cell_length_a 19.464377
_cell_length_b 8.866925
_cell_length_c 19.577961
_cell_angle_alpha 90.000000
_cell_angle_beta 114.950340
_cell_angle_gamma 90.000000
_cell_volume 3063.599857
_symmetry_space_group_name_H-M "C 2/M"
_symmetry_group_IT_number 12
_symmetry_cell_setting 'monoclinic'
loop_
_space_group_symop_operation_xyz
x,y,z
-x,y,-z
-x,-y,-z
x,-y,z
1/2+x,1/2+y,z
1/2-x,1/2+y,-z
1/2-x,1/2-y,-z
1/2+x,1/2-y,z
loop_
_atom_site_type_symbol
_atom_site_label
_atom_site_fract_x
_atom_site_fract_y
_atom_site_fract_z
Si Si1 0.629109 0.682835 0.256956
Si Si2 0.465259 0.175063 0.557390
Si Si3 0.585156 0.666569 0.688412
Si Si4 0.748568 0.821629 0.204162
Si Si5 0.044729 0.828619 0.831001
Si Si6 0.322784 0.679974 0.568329
Si Si7 0.200662 0.320214 0.918786
O O1 0.630231 0.500000 0.256763
O O2 0.681906 0.748164 0.219822
O O3 0.541759 0.728424 0.205778
O O4 0.659259 0.729241 0.345391
O O5 0.500000 0.223088 0.500000
O O6 0.534689 0.202285 0.637314
O O7 0.395564 0.272105 0.554715
O O8 0.442774 0.000000 0.544205
O O9 0.565313 0.500000 0.651291
O O10 0.674252 0.692420 0.719261
O O11 0.566845 0.659947 0.760688
O O12 0.766662 0.743173 0.139420
O O13 0.735861 0.000000 0.187384
O O14 0.112868 0.731179 0.890433
O O15 0.046489 0.000000 0.860112
O O16 0.314490 0.500000 0.566126
O O17 0.250000 0.750000 0.500000
O O18 0.205291 0.500000 0.920720
O O19 0.250000 0.250000 0.000000
#
# Coordination Sequence:
#
# PCOD9210220 Si02
#       7
#     8   8   8   8   8   8   8
#     4  10  21  39  61  85 119 157 196 243 297 353
#     4  11  24  38  54  80 112 149 196 249 298 350
#     4   9  18  36  57  79 108 149 193 240 292 345
#     4  10  22  38  59  89 121 153 195 240 288 347
#     4   9  18  37  61  86 116 152 192 237 291 349
#     4  11  24  42  60  83 116 157 201 249 305 358
#     4  11  22  39  64  93 123 157 193 237 288 344
#
# _framework density 18.279149
#
# number of rings (size 3 to 8) (size 9 to 14) (size 15 to 20)
#    0.000    1.857    1.429    3.429    2.000    5.714 
#    0.000    0.714    0.000    4.286    0.000    0.000 
#    0.000    0.000    0.000    0.000    0.000    0.000 
#
# Total GULP energy -156166.009551 kJ/mol
# GULP energy per Si atom -5577.357484 kJ/mol
# Density = 1.823754 g / cm^3
# Si number density = 18.279149 Si / 1000 Ang^3
#
#
#
# Elastic Constant Matrix: (Units=GPa)
#
#
# Indices 1 2 3 4 5 6 
#
# 1 152.3567 49.0772 58.5393 0.0000 15.4805 0.0000
# 2 49.0772 66.7487 47.6779 0.0000 8.9505 0.0000
# 3 58.5393 47.6779 89.5793 0.0000 16.4947 0.0000
# 4 0.0000 0.0000 0.0000 29.3197 0.0000 5.4597
# 5 15.4805 8.9505 16.4947 0.0000 21.5709 0.0000
# 6 0.0000 0.0000 0.0000 5.4597 0.0000 17.3574
#
#
#
# Elastic Compliance Matrix: (Units=1/GPa)
#
#
# Indices 1 2 3 4 5 6 
#
# 1 0.009507 -0.004108 -0.003589 0.000000 -0.002374 0.000000
# 2 -0.004108 0.025947 -0.011273 0.000000 0.000802 0.000000
# 3 -0.003589 -0.011273 0.021151 0.000000 -0.008920 0.000000
# 4 0.000000 0.000000 0.000000 0.036229 0.000000 -0.011396
# 5 -0.002374 0.000802 -0.008920 0.000000 0.054551 0.000000
# 6 0.000000 0.000000 0.000000 -0.011396 0.000000 0.061197
#
#
# Mechanical properties :
#
#
# Convention : Reuss Voigt Hill
#
# Bulk Modulus (GPa) = 53.57777 68.80816 61.19297
# Shear Modulus (GPa) = 19.78289 23.87561 21.82925
#
# Velocity S-wave (km/s) = 3.29335 3.61801 3.45949
# Velocity P-wave (km/s) = 6.62088 7.42819 7.03612
#
# Compressibility (1/GPa) = 0.01866446
#
# Stress axis : x y z
#
# Youngs Moduli (GPa) = 105.18465 38.54062 47.27824
#
# Poissons Ratio (x) = 0.15833 0.16969
# Poissons Ratio (y) = 0.43211 0.53297
# Poissons Ratio (z) = 0.37753 0.43447
#
# Static dielectric constant tensor:
#      x y z
#    x 1.570230 0.000000 0.094600 
#    y 0.000000 1.640520 0.000000 
#    z 0.094600 0.000000 1.527630 
# 
# From -- ./inp_files/275513.got.cif
#   From: 2010.05.17/outbox.cif.g08.bks.cpg/sg12_138_cif.got.tgz:275513.got - 2010.06.03 13:09:07.
