data_PCOD9210871
_publ_section_title
;
Structure prediction by ZEFSAII (Michael W. Deem and Ramdas Pophale) SiO2 
 PCOD9210871
Probable space group: C 2/M
;
_chemical_formula_sum "Si O2"
_cell_formula_units_Z 50
_cell_length_a 23.389888
_cell_length_b 10.097243
_cell_length_c 11.474047
_cell_angle_alpha 90.000000
_cell_angle_beta 114.334014
_cell_angle_gamma 90.000000
_cell_volume 2469.116930
_symmetry_space_group_name_H-M "C 2/M"
_symmetry_group_IT_number 12
_symmetry_cell_setting 'monoclinic'
loop_
_space_group_symop_operation_xyz
x,y,z
-x,y,-z
-x,-y,-z
x,-y,z
1/2+x,1/2+y,z
1/2-x,1/2+y,-z
1/2-x,1/2-y,-z
1/2+x,1/2-y,z
loop_
_atom_site_type_symbol
_atom_site_label
_atom_site_fract_x
_atom_site_fract_y
_atom_site_fract_z
Si Si1 0.063150 0.652950 0.476402
Si Si2 0.105396 0.277598 0.142100
Si Si3 0.728098 0.150022 0.382017
Si Si4 0.524610 0.354601 0.246556
Si Si5 0.000000 0.500000 0.000000
Si Si6 0.657254 0.655151 0.692945
Si Si7 0.124528 0.847491 0.923869
O O1 0.082859 0.500000 0.471821
O O2 0.045866 0.734061 0.346016
O O3 0.112891 0.742361 0.587667
O O4 0.000000 0.648444 0.500000
O O5 0.158877 0.321023 0.276973
O O6 0.066634 0.156843 0.166472
O O7 0.137611 0.239699 0.047360
O O8 0.052868 0.386455 0.074101
O O9 0.750000 0.250000 0.500000
O O10 0.775966 0.160506 0.313898
O O11 0.731786 0.000000 0.430251
O O12 0.534364 0.500000 0.309745
O O13 0.450874 0.340291 0.159322
O O14 0.635011 0.500000 0.667056
O O15 0.656395 0.691064 0.828701
O O16 0.140885 0.000000 0.961575
#
# Coordination Sequence:
#
# PCOD9210871 Si02
#       7
#     8   8   8   8   2   8   8
#     4  11  23  37  59  93 131 170 217 279 340 397
#     4  12  24  42  67  99 136 175 223 274 344 400
#     4  11  26  46  70  96 133 177 229 276 330 407
#     4  11  22  37  63  95 127 170 220 274 331 397
#     4  12  24  40  66 100 138 184 212 278 346 402
#     4  10  22  43  65  92 127 175 224 272 329 400
#     4  10  21  39  64  92 126 164 216 277 330 393
#
# _framework density 20.250154999999999
#
# number of rings (size 3 to 8) (size 9 to 14) (size 15 to 20)
#    0.000    1.120    4.000    1.920    1.120    7.040 
#    1.440    0.000    0.000    0.000    0.000    0.000 
#    0.000    0.000    0.000    0.000    0.000    0.000 
#
# Total GULP energy -139424.159379 kJ/mol
# GULP energy per Si atom -5576.966375 kJ/mol
# Density = 2.020406 g / cm^3
# Si number density = 20.250155 Si / 1000 Ang^3
#
#
#
# Elastic Constant Matrix: (Units=GPa)
#
#
# Indices 1 2 3 4 5 6 
#
# 1 84.3035 30.4789 26.6451 0.0000 -1.3074 0.0000
# 2 30.4789 129.3468 58.5021 0.0000 4.0244 0.0000
# 3 26.6451 58.5021 95.8776 0.0000 0.6250 0.0000
# 4 0.0000 0.0000 0.0000 -13.4282 0.0000 14.8632
# 5 -1.3074 4.0244 0.6250 0.0000 33.6245 0.0000
# 6 0.0000 0.0000 0.0000 14.8632 0.0000 0.5010
#
#
#
# Elastic Compliance Matrix: (Units=1/GPa)
#
#
# Indices 1 2 3 4 5 6 
#
# 1 0.013402 -0.002067 -0.002469 0.000000 0.000814 0.000000
# 2 -0.002067 0.011042 -0.006155 0.000000 -0.001288 0.000000
# 3 -0.002469 -0.006155 0.014869 0.000000 0.000364 0.000000
# 4 0.000000 0.000000 0.000000 -0.002201 0.000000 0.065292
# 5 0.000814 -0.001288 0.000364 0.000000 0.029919 0.000000
# 6 0.000000 0.000000 0.000000 0.065292 0.000000 0.058988
#
#
# Mechanical properties :
#
#
# Convention : Reuss Voigt Hill
#
# Bulk Modulus (GPa) = 55.76438 60.08666 57.92552
# Shear Modulus (GPa) = 32.59918 17.06624 24.83271
#
# Velocity S-wave (km/s) = 4.01661 2.90620 3.50565
# Velocity P-wave (km/s) = 7.00774 6.40296 6.71217
#
# Compressibility (1/GPa) = 0.01793259
#
# Stress axis : x y z
#
# Youngs Moduli (GPa) = 74.61556 90.56380 67.25340
#
# Poissons Ratio (x) = 0.18717 0.16603
# Poissons Ratio (y) = 0.15421 0.41393
# Poissons Ratio (z) = 0.18421 0.55740
#
# Static dielectric constant tensor:
#      x y z
#    x 1.722680 0.000000 -0.028350 
#    y 0.000000 1.707580 0.000000 
#    z -0.028350 0.000000 1.716100 
# 
# From -- ./inp_files/181211.got.cif
#   From: 2010.05.17/outbox.cif.g08.bks.cpg/sg12_91_cif.got.tgz:181211.got - 2010.06.03 13:09:07.
