data_PCOD9210516
_publ_section_title
;
Structure prediction by ZEFSAII (Michael W. Deem and Ramdas Pophale) SiO2 
 PCOD9210516
Probable space group: C 2/M
;
_chemical_formula_sum "Si O2"
_cell_formula_units_Z 56
_cell_length_a 16.270084
_cell_length_b 8.851589
_cell_length_c 20.234805
_cell_angle_alpha 90.000000
_cell_angle_beta 78.094490
_cell_angle_gamma 90.000000
_cell_volume 2851.452055
_symmetry_space_group_name_H-M "C 2/M"
_symmetry_group_IT_number 12
_symmetry_cell_setting 'monoclinic'
loop_
_space_group_symop_operation_xyz
x,y,z
-x,y,-z
-x,-y,-z
x,-y,z
1/2+x,1/2+y,z
1/2-x,1/2+y,-z
1/2-x,1/2-y,-z
1/2+x,1/2-y,z
loop_
_atom_site_type_symbol
_atom_site_label
_atom_site_fract_x
_atom_site_fract_y
_atom_site_fract_z
Si Si1 0.337389 0.321123 0.791904
Si Si2 0.367890 0.180766 0.346958
Si Si3 0.198722 0.680910 0.339253
Si Si4 0.487182 0.178673 0.208185
Si Si5 0.952559 0.824166 0.074296
Si Si6 0.756893 0.824806 0.070432
Si Si7 0.984338 0.684034 0.577820
O O1 0.329517 0.500000 0.788463
O O2 0.294187 0.243858 0.736188
O O3 0.433889 0.269106 0.776534
O O4 0.297585 0.262421 0.866529
O O5 0.277985 0.259188 0.367190
O O6 0.407327 0.210143 0.267890
O O7 0.439036 0.231076 0.387409
O O8 0.357265 0.000000 0.355529
O O9 0.199745 0.500000 0.337754
O O10 0.107782 0.731754 0.381925
O O11 0.473313 0.227989 0.135291
O O12 0.505043 0.000000 0.209918
O O13 0.853661 0.819433 0.076789
O O14 0.977336 0.000000 0.082181
O O15 0.000000 0.773195 0.000000
O O16 0.730345 0.000000 0.071924
O O17 0.750000 0.750000 0.000000
O O18 0.983947 0.500000 0.579678
O O19 0.000000 0.731476 0.500000
#
# Coordination Sequence:
#
# PCOD9210516 Si02
#       7
#     8   8   8   8   8   8   8
#     4  12  24  39  61  87 120 162 207 258 315 370
#     4  10  21  39  62  92 127 164 208 257 315 380
#     4  11  22  39  63  94 126 163 213 261 312 376
#     4  11  22  38  61  88 118 156 203 257 313 373
#     4  10  22  39  57  82 116 154 197 248 306 369
#     4  11  23  39  60  87 121 159 203 255 311 372
#     4   9  19  39  65  91 127 171 209 254 316 382
#
# _framework density 19.639116999999999
#
# number of rings (size 3 to 8) (size 9 to 14) (size 15 to 20)
#    0.000    1.429    1.429    4.286    0.000    6.571 
#    0.000    0.000    0.000    3.000    0.000    0.000 
#    0.000    0.000    0.000    0.000    0.000    0.000 
#
# Total GULP energy -156538.358348 kJ/mol
# GULP energy per Si atom -5590.655655 kJ/mol
# Density = 1.959442 g / cm^3
# Si number density = 19.639117 Si / 1000 Ang^3
#
#
#
# Elastic Constant Matrix: (Units=GPa)
#
#
# Indices 1 2 3 4 5 6 
#
# 1 130.4006 45.6008 52.3140 0.0000 7.7054 0.0000
# 2 45.6008 67.4636 33.6212 0.0000 0.4496 0.0000
# 3 52.3140 33.6212 118.5992 0.0000 3.4053 0.0000
# 4 0.0000 0.0000 0.0000 15.5847 0.0000 4.0108
# 5 7.7054 0.4496 3.4053 0.0000 22.9403 0.0000
# 6 0.0000 0.0000 0.0000 4.0108 0.0000 23.0448
#
#
#
# Elastic Compliance Matrix: (Units=1/GPa)
#
#
# Indices 1 2 3 4 5 6 
#
# 1 0.011218 -0.005987 -0.003160 0.000000 -0.003182 0.000000
# 2 -0.005987 0.020460 -0.003219 0.000000 0.002088 0.000000
# 3 -0.003160 -0.003219 0.010752 0.000000 -0.000472 0.000000
# 4 0.000000 0.000000 0.000000 0.067174 0.000000 -0.011691
# 5 -0.003182 0.002088 -0.000472 0.000000 0.044689 0.000000
# 6 0.000000 0.000000 0.000000 -0.011691 0.000000 0.045428
#
#
# Mechanical properties :
#
#
# Convention : Reuss Voigt Hill
#
# Bulk Modulus (GPa) = 56.50341 64.39282 60.44811
# Shear Modulus (GPa) = 21.70593 24.64245 23.17419
#
# Velocity S-wave (km/s) = 3.32812 3.54611 3.43884
# Velocity P-wave (km/s) = 6.60317 7.04455 6.82743
#
# Compressibility (1/GPa) = 0.01769805
#
# Stress axis : x y z
#
# Youngs Moduli (GPa) = 89.14423 48.87630 93.00881
#
# Poissons Ratio (x) = 0.29260 0.29388
# Poissons Ratio (y) = 0.53367 0.29943
# Poissons Ratio (z) = 0.28167 0.15735
#
# Static dielectric constant tensor:
#      x y z
#    x 1.691530 0.000000 -0.001930 
#    y 0.000000 1.667250 0.000000 
#    z -0.001930 0.000000 1.670220 
# 
# From -- ./inp_files/308944.got.cif
#   From: 2010.05.17/outbox.cif.g08.bks.cpg/sg12_155_cif.got.tgz:308944.got - 2010.06.03 13:09:07.
