data_PCOD9210919
_publ_section_title
;
Structure prediction by ZEFSAII (Michael W. Deem and Ramdas Pophale) SiO2 
 PCOD9210919
Probable space group: C 2/M
;
_chemical_formula_sum "Si O2"
_cell_formula_units_Z 64
_cell_length_a 29.679174
_cell_length_b 14.068048
_cell_length_c 9.230849
_cell_angle_alpha 90.000000
_cell_angle_beta 49.075507
_cell_angle_gamma 90.000000
_cell_volume 2912.084824
_symmetry_space_group_name_H-M "C 2/M"
_symmetry_group_IT_number 12
_symmetry_cell_setting 'monoclinic'
loop_
_space_group_symop_operation_xyz
x,y,z
-x,y,-z
-x,-y,-z
x,-y,z
1/2+x,1/2+y,z
1/2-x,1/2+y,-z
1/2-x,1/2-y,-z
1/2+x,1/2-y,z
loop_
_atom_site_type_symbol
_atom_site_label
_atom_site_fract_x
_atom_site_fract_y
_atom_site_fract_z
Si Si1 0.567891 0.386589 0.891937
Si Si2 0.751168 0.608275 0.877533
Si Si3 0.100297 0.611648 0.936221
Si Si4 0.789961 0.689357 0.106344
Si Si5 0.916733 0.220190 0.558404
Si Si6 0.953574 0.225978 0.803642
Si Si7 0.333155 0.387386 0.550820
Si Si8 0.626454 0.892879 0.543058
O O1 0.566845 0.500000 0.892331
O O2 0.619102 0.357415 0.671898
O O3 0.500000 0.353722 0.000000
O O4 0.581316 0.346592 0.021353
O O5 0.727152 0.500000 0.936381
O O6 0.709677 0.697812 0.925362
O O7 0.803687 0.607991 0.646638
O O8 0.781122 0.636158 0.969873
O O9 0.090741 0.500000 0.978579
O O10 0.155573 0.648265 0.916819
O O11 0.114189 0.627334 0.737574
O O12 0.045911 0.675981 0.107417
O O13 0.729436 0.665370 0.321896
O O14 0.923958 0.241818 0.711135
O O15 0.865927 0.144224 0.629305
O O16 0.901995 0.314930 0.500969
O O17 0.980851 0.185647 0.366396
O O18 0.323959 0.500000 0.563150
O O19 0.604431 0.000000 0.559388
#
# Coordination Sequence:
#
# PCOD9210919 Si02
#       8
#     8   8   8   8   8   8   8   8
#     4  10  21  41  66  93 127 169 213 264 328 386
#     4  10  21  39  64  95 130 171 216 265 322 383
#     4  11  25  43  64  96 130 172 221 267 326 391
#     4  11  23  41  67  95 134 178 215 266 326 385
#     4  11  23  42  61  96 128 167 221 268 331 386
#     4  11  25  40  66  92 130 172 215 274 323 389
#     4  11  22  39  66  95 130 174 219 269 323 390
#     4  10  22  42  67  91 125 167 213 271 328 387
#
# _framework density 21.977381999999999
#
# number of rings (size 3 to 8) (size 9 to 14) (size 15 to 20)
#    0.000    1.375    2.500    2.625    1.750    3.000 
#    0.000    4.375    0.000    0.000    0.000    0.000 
#    0.000    0.000    0.000    0.000    0.000    0.000 
#
# Total GULP energy -178930.703659 kJ/mol
# GULP energy per Si atom -5591.584489 kJ/mol
# Density = 2.192736 g / cm^3
# Si number density = 21.977382 Si / 1000 Ang^3
#
#
#
# Elastic Constant Matrix: (Units=GPa)
#
#
# Indices 1 2 3 4 5 6 
#
# 1 35.7504 -6.8637 5.0645 0.0000 -0.6261 0.0000
# 2 -6.8637 75.9645 7.8014 0.0000 -5.8080 0.0000
# 3 5.0645 7.8014 115.4893 0.0000 6.9282 0.0000
# 4 0.0000 0.0000 0.0000 28.1116 0.0000 -1.1678
# 5 -0.6261 -5.8080 6.9282 0.0000 32.5175 0.0000
# 6 0.0000 0.0000 0.0000 -1.1678 0.0000 21.5081
#
#
#
# Elastic Compliance Matrix: (Units=1/GPa)
#
#
# Indices 1 2 3 4 5 6 
#
# 1 0.028764 0.002863 -0.001538 0.000000 0.001393 0.000000
# 2 0.002863 0.013760 -0.001221 0.000000 0.002773 0.000000
# 3 -0.001538 -0.001221 0.008938 0.000000 -0.002152 0.000000
# 4 0.000000 0.000000 0.000000 0.035653 0.000000 0.001936
# 5 0.001393 0.002773 -0.002152 0.000000 0.031733 0.000000
# 6 0.000000 0.000000 0.000000 0.001936 0.000000 0.046599
#
#
# Mechanical properties :
#
#
# Convention : Reuss Voigt Hill
#
# Bulk Modulus (GPa) = 19.35393 26.57872 22.96633
# Shear Modulus (GPa) = 27.40280 31.17424 29.28852
#
# Velocity S-wave (km/s) = 3.53493 3.77034 3.65453
# Velocity P-wave (km/s) = 5.04840 5.57440 5.31791
#
# Compressibility (1/GPa) = 0.05166909
#
# Stress axis : x y z
#
# Youngs Moduli (GPa) = 34.76598 72.67323 111.88329
#
# Poissons Ratio (x) = -0.20809 0.17212
# Poissons Ratio (y) = -0.09955 0.13666
# Poissons Ratio (z) = 0.05348 0.08877
#
# Static dielectric constant tensor:
#      x y z
#    x 1.804490 0.000000 -0.019750 
#    y 0.000000 1.794790 0.000000 
#    z -0.019750 0.000000 1.835740 
# 
# From -- ./inp_files/111974.got.cif
#   From: 2010.05.17/outbox.cif.g08.bks.cpg/sg12_56_cif.got.tgz:111974.got - 2010.06.03 13:09:07.
