data_PCOD9210708
_publ_section_title
;
Structure prediction by ZEFSAII (Michael W. Deem and Ramdas Pophale) SiO2 
 PCOD9210708
Probable space group: C 2/M
;
_chemical_formula_sum "Si O2"
_cell_formula_units_Z 56
_cell_length_a 27.677402
_cell_length_b 8.617632
_cell_length_c 13.851678
_cell_angle_alpha 90.000000
_cell_angle_beta 120.218047
_cell_angle_gamma 90.000000
_cell_volume 2854.880011
_symmetry_space_group_name_H-M "C 2/M"
_symmetry_group_IT_number 12
_symmetry_cell_setting 'monoclinic'
loop_
_space_group_symop_operation_xyz
x,y,z
-x,y,-z
-x,-y,-z
x,-y,z
1/2+x,1/2+y,z
1/2-x,1/2+y,-z
1/2-x,1/2-y,-z
1/2+x,1/2-y,z
loop_
_atom_site_type_symbol
_atom_site_label
_atom_site_fract_x
_atom_site_fract_y
_atom_site_fract_z
Si Si1 0.516475 0.684497 0.406461
Si Si2 0.419455 0.813316 0.173678
Si Si3 0.936464 0.313674 0.966644
Si Si4 0.705049 0.813622 0.878972
Si Si5 0.865100 0.317537 0.536788
Si Si6 0.153867 0.183017 0.271348
Si Si7 0.769042 0.183611 0.306494
O O1 0.500000 0.722031 0.500000
O O2 0.526290 0.500000 0.409749
O O3 0.466214 0.732659 0.285597
O O4 0.572659 0.772280 0.432902
O O5 0.357455 0.774065 0.148273
O O6 0.426530 0.000000 0.188684
O O7 0.426482 0.772024 0.068276
O O8 0.928195 0.500000 0.948803
O O9 0.893120 0.229324 0.853367
O O10 0.000000 0.278880 0.000000
O O11 0.716731 0.741717 0.786323
O O12 0.709222 0.000000 0.877814
O O13 0.750000 0.750000 0.000000
O O14 0.857121 0.272910 0.640255
O O15 0.820476 0.224837 0.427884
O O16 0.644338 0.000000 0.486703
O O17 0.213854 0.231640 0.289820
O O18 0.152383 0.000000 0.288873
O O19 0.758996 0.000000 0.295541
#
# Coordination Sequence:
#
# PCOD9210708 Si02
#       7
#     8   8   8   8   8   8   8
#     4  11  24  41  63  93 127 163 206 256 309 365
#     4  10  22  39  61  90 125 165 207 254 308 367
#     4  10  21  39  63  92 126 164 206 252 306 366
#     4  11  23  40  63  93 128 167 211 258 313 371
#     4  12  25  43  66  92 125 164 207 255 310 370
#     4  12  25  42  65  94 126 161 205 254 311 374
#     4  12  25  43  65  91 125 163 208 259 311 369
#
# _framework density 19.615535000000001
#
# number of rings (size 3 to 8) (size 9 to 14) (size 15 to 20)
#    0.000    0.857    0.000    7.714    0.000    7.714 
#    0.000    0.000    0.000    0.000    0.000    0.000 
#    0.000    0.000    0.000    0.000    0.000    0.000 
#
# Total GULP energy -156793.097711 kJ/mol
# GULP energy per Si atom -5599.753490 kJ/mol
# Density = 1.957089 g / cm^3
# Si number density = 19.615535 Si / 1000 Ang^3
#
#
#
# Elastic Constant Matrix: (Units=GPa)
#
#
# Indices 1 2 3 4 5 6 
#
# 1 98.1779 -1.1798 17.5024 0.0000 -6.8871 0.0000
# 2 -1.1798 25.3177 -7.2831 0.0000 1.5208 0.0000
# 3 17.5024 -7.2831 99.0962 0.0000 -4.1291 0.0000
# 4 0.0000 0.0000 0.0000 3.6650 0.0000 121.1227
# 5 -6.8871 1.5208 -4.1291 0.0000 42.9840 0.0000
# 6 0.0000 0.0000 0.0000 121.1227 0.0000 -357.9689
#
#
#
# Elastic Compliance Matrix: (Units=1/GPa)
#
#
# Indices 1 2 3 4 5 6 
#
# 1 0.010616 -0.000121 -0.001820 0.000000 0.001530 0.000000
# 2 -0.000121 0.040409 0.002943 0.000000 -0.001166 0.000000
# 3 -0.001820 0.002943 0.010655 0.000000 0.000628 0.000000
# 4 0.000000 0.000000 0.000000 0.022397 0.000000 0.007578
# 5 0.001530 -0.001166 0.000628 0.000000 0.023611 0.000000
# 6 0.000000 0.000000 0.000000 0.007578 0.000000 -0.000229
#
#
# Mechanical properties :
#
#
# Convention : Reuss Voigt Hill
#
# Bulk Modulus (GPa) = 15.70266 26.74118 21.22192
# Shear Modulus (GPa) = 39.46836 -48.02716 -4.27940
#
# Velocity S-wave (km/s) = 4.49051 -4.95352 -1.47864
# Velocity P-wave (km/s) = 5.90837 4.36512 2.81554
#
# Compressibility (1/GPa) = 0.06368349
#
# Stress axis : x y z
#
# Youngs Moduli (GPa) = 94.19777 24.74696 93.85176
#
# Poissons Ratio (x) = 0.00299 0.17082
# Poissons Ratio (y) = 0.01138 -0.27617
# Poissons Ratio (z) = 0.17145 -0.07282
#
# Static dielectric constant tensor:
#      x y z
#    x 1.651590 0.000000 -0.004130 
#    y 0.000000 1.664230 0.000000 
#    z -0.004130 0.000000 1.637590 
# 
# From -- ./inp_files/238922.got.cif
#   From: 2010.05.17/outbox.cif.g08.bks.cpg/sg12_120_cif.got.tgz:238922.got - 2010.06.03 13:09:07.
