data_PCOD9210070
_publ_section_title
;
Structure prediction by ZEFSAII (Michael W. Deem and Ramdas Pophale) SiO2 
 PCOD9210070
Probable space group: C 2/M
;
_chemical_formula_sum "Si O2"
_cell_formula_units_Z 28
_cell_length_a 17.765703
_cell_length_b 14.910551
_cell_length_c 5.240765
_cell_angle_alpha 90.000000
_cell_angle_beta 113.103468
_cell_angle_gamma 90.000000
_cell_volume 1276.918321
_symmetry_space_group_name_H-M "C 2/M"
_symmetry_group_IT_number 12
_symmetry_cell_setting 'monoclinic'
loop_
_space_group_symop_operation_xyz
x,y,z
-x,y,-z
-x,-y,-z
x,-y,z
1/2+x,1/2+y,z
1/2-x,1/2+y,-z
1/2-x,1/2-y,-z
1/2+x,1/2-y,z
loop_
_atom_site_type_symbol
_atom_site_label
_atom_site_fract_x
_atom_site_fract_y
_atom_site_fract_z
Si Si1 0.443503 0.000000 0.680067
Si Si2 0.687820 0.333348 0.423293
Si Si3 0.908311 0.688573 0.480337
Si Si4 0.234410 0.600279 0.969012
O O1 0.500000 0.000000 0.500000
O O2 0.396835 0.095217 0.621795
O O3 0.500000 0.000000 0.000000
O O4 0.750000 0.250000 0.500000
O O5 0.605704 0.279279 0.380420
O O6 0.702134 0.384305 0.179170
O O7 0.717232 0.389573 0.704681
O O8 0.838823 0.672943 0.169213
O O9 0.000000 0.689021 0.500000
O O10 0.198524 0.500000 0.908181
#
# Coordination Sequence:
#
# PCOD9210070 Si02
#       4
#     4   8   8   8
#     4  10  22  34  52  86 124 152 179 230 303 362
#     4  10  22  39  60  86 121 161 202 240 294 360
#     4  10  21  39  59  90 123 155 195 246 304 360
#     4  11  22  40  63  88 119 159 202 248 295 355
#
# _framework density 21.927793000000001
#
# number of rings (size 3 to 8) (size 9 to 14) (size 15 to 20)
#    0.000    1.714    1.429    4.286    0.000   13.714 
#    0.000    0.000    0.000    5.143    0.000    0.000 
#    0.000    0.000    0.000    0.000    0.000    0.000 
#
# Total GULP energy -78169.165987 kJ/mol
# GULP energy per Si atom -5583.511856 kJ/mol
# Density = 2.187788 g / cm^3
# Si number density = 21.927793 Si / 1000 Ang^3
#
#
#
# Elastic Constant Matrix: (Units=GPa)
#
#
# Indices 1 2 3 4 5 6 
#
# 1 103.4768 30.9441 26.9001 0.0000 -5.9485 0.0000
# 2 30.9441 61.2255 18.7961 0.0000 -2.2845 0.0000
# 3 26.9001 18.7961 100.3986 0.0000 -28.9715 0.0000
# 4 0.0000 0.0000 0.0000 25.1013 0.0000 8.6934
# 5 -5.9485 -2.2845 -28.9715 0.0000 28.0696 0.0000
# 6 0.0000 0.0000 0.0000 8.6934 0.0000 26.8619
#
#
#
# Elastic Compliance Matrix: (Units=1/GPa)
#
#
# Indices 1 2 3 4 5 6 
#
# 1 0.011816 -0.005292 -0.002246 0.000000 -0.000245 0.000000
# 2 -0.005292 0.019850 -0.003070 0.000000 -0.002675 0.000000
# 3 -0.002246 -0.003070 0.015562 0.000000 0.015337 0.000000
# 4 0.000000 0.000000 0.000000 0.044868 0.000000 -0.014521
# 5 -0.000245 -0.002675 0.015337 0.000000 0.051186 0.000000
# 6 0.000000 0.000000 0.000000 -0.014521 0.000000 0.041927
#
#
# Mechanical properties :
#
#
# Convention : Reuss Voigt Hill
#
# Bulk Modulus (GPa) = 38.44192 46.48683 42.46437
# Shear Modulus (GPa) = 23.24543 28.57058 25.90800
#
# Velocity S-wave (km/s) = 3.25943 3.61354 3.44105
# Velocity P-wave (km/s) = 5.63333 6.21741 5.93256
#
# Compressibility (1/GPa) = 0.02601327
#
# Stress axis : x y z
#
# Youngs Moduli (GPa) = 84.62925 50.37694 64.25714
#
# Poissons Ratio (x) = 0.26658 0.14431
# Poissons Ratio (y) = 0.44784 0.19729
# Poissons Ratio (z) = 0.19007 0.15467
#
# Static dielectric constant tensor:
#      x y z
#    x 1.945190 0.000000 -0.019560 
#    y 0.000000 1.927320 0.000000 
#    z -0.019560 0.000000 1.837950 
# 
# From -- ./inp_files/14150.got.cif
#   From: 2010.05.17/outbox.cif.g08.bks.cpg/sg12_8_cif.got.tgz:14150.got - 2010.06.03 13:09:07.
