data_PCOD9210162
_publ_section_title
;
Structure prediction by ZEFSAII (Michael W. Deem and Ramdas Pophale) SiO2 
 PCOD9210162
Probable space group: C 2/M
;
_chemical_formula_sum "Si O2"
_cell_formula_units_Z 48
_cell_length_a 14.486110
_cell_length_b 22.887601
_cell_length_c 9.028081
_cell_angle_alpha 90.000000
_cell_angle_beta 129.175791
_cell_angle_gamma 90.000000
_cell_volume 2320.425816
_symmetry_space_group_name_H-M "C 2/M"
_symmetry_group_IT_number 12
_symmetry_cell_setting 'monoclinic'
loop_
_space_group_symop_operation_xyz
x,y,z
-x,y,-z
-x,-y,-z
x,-y,z
1/2+x,1/2+y,z
1/2-x,1/2+y,-z
1/2-x,1/2-y,-z
1/2+x,1/2-y,z
loop_
_atom_site_type_symbol
_atom_site_label
_atom_site_fract_x
_atom_site_fract_y
_atom_site_fract_z
Si Si1 0.266313 0.500000 0.782657
Si Si2 0.577076 0.099759 0.940263
Si Si3 0.241544 0.183199 0.038703
Si Si4 0.864532 0.127267 0.799322
Si Si5 0.500395 0.373634 0.674847
Si Si6 0.772451 0.500000 0.746957
Si Si7 0.088067 0.000000 0.781171
Si Si8 0.073104 0.500000 0.372687
O O1 0.321172 0.560805 0.779606
O O2 0.128368 0.500000 0.592803
O O3 0.299568 0.500000 0.990698
O O4 0.649219 0.146553 0.918633
O O5 0.667902 0.056463 0.117214
O O6 0.500000 0.124694 0.000000
O O7 0.498938 0.057190 0.755002
O O8 0.119337 0.158706 0.846315
O O9 0.250000 0.250000 0.000000
O O10 0.222541 0.168376 0.193226
O O11 0.883027 0.144558 0.646708
O O12 0.000000 0.132102 0.000000
O O13 0.500000 0.368102 0.500000
O O14 0.518121 0.441196 0.737137
O O15 0.637978 0.500000 0.664686
O O16 0.808366 0.500000 0.613059
#
# Coordination Sequence:
#
# PCOD9210162 Si02
#       8
#     4   8   8   8   8   4   4   4
#     4  12  19  34  60  95 131 160 186 244 313 384
#     4   9  18  37  59  86 123 161 203 252 304 364
#     4  11  23  42  65  82 118 171 209 252 314 356
#     4  10  21  39  60  89 130 159 197 246 315 376
#     4  11  24  39  64  96 122 155 207 256 308 373
#     4   9  16  34  56  81 118 161 189 244 291 374
#     4  12  19  35  61  90 129 161 184 236 326 374
#     4   9  22  32  57  96 124 157 206 241 300 375
#
# _framework density 20.685858
#
# number of rings (size 3 to 8) (size 9 to 14) (size 15 to 20)
#    0.000    1.667    5.000    2.000    2.333    2.667 
#    0.000    9.167    0.000    0.000    0.000    0.000 
#    0.000    0.000    0.000    0.000    0.000    0.000 
#
# Total GULP energy -134005.523539 kJ/mol
# GULP energy per Si atom -5583.563481 kJ/mol
# Density = 2.063878 g / cm^3
# Si number density = 20.685858 Si / 1000 Ang^3
#
#
#
# Elastic Constant Matrix: (Units=GPa)
#
#
# Indices 1 2 3 4 5 6 
#
# 1 160.6535 70.8084 34.6392 0.0000 -37.3145 0.0000
# 2 70.8084 107.4398 21.6850 0.0000 -19.0535 0.0000
# 3 34.6392 21.6850 86.8424 0.0000 -21.9009 0.0000
# 4 0.0000 0.0000 0.0000 6.8777 0.0000 0.1699
# 5 -37.3145 -19.0535 -21.9009 0.0000 37.4239 0.0000
# 6 0.0000 0.0000 0.0000 0.1699 0.0000 3.2176
#
#
#
# Elastic Compliance Matrix: (Units=1/GPa)
#
#
# Indices 1 2 3 4 5 6 
#
# 1 0.010497 -0.005452 -0.001039 0.000000 0.007082 0.000000
# 2 -0.005452 0.013223 -0.000939 0.000000 0.000746 0.000000
# 3 -0.001039 -0.000939 0.013822 0.000000 0.006575 0.000000
# 4 0.000000 0.000000 0.000000 0.145588 0.000000 -0.007689
# 5 0.007082 0.000746 0.006575 0.000000 0.038009 0.000000
# 6 0.000000 0.000000 0.000000 -0.007689 0.000000 0.311198
#
#
# Mechanical properties :
#
#
# Convention : Reuss Voigt Hill
#
# Bulk Modulus (GPa) = 44.09038 67.68896 55.88967
# Shear Modulus (GPa) = 9.01294 24.69071 16.85183
#
# Velocity S-wave (km/s) = 2.08962 3.45860 2.85731
# Velocity P-wave (km/s) = 5.21369 6.98159 6.16138
#
# Compressibility (1/GPa) = 0.02268069
#
# Stress axis : x y z
#
# Youngs Moduli (GPa) = 95.26901 75.62802 72.34756
#
# Poissons Ratio (x) = 0.41233 0.07520
# Poissons Ratio (y) = 0.51942 0.06792
# Poissons Ratio (z) = 0.09903 0.07100
#
# Static dielectric constant tensor:
#      x y z
#    x 1.813690 0.000000 -0.058260 
#    y 0.000000 1.635490 0.000000 
#    z -0.058260 0.000000 1.828260 
# 
# From -- ./inp_files/63690.got.cif
#   From: 2010.05.17/outbox.cif.g08.bks.cpg/sg12_32_cif.got.tgz:63690.got - 2010.06.03 13:09:07.
