data_PCOD9210670
_publ_section_title
;
Structure prediction by ZEFSAII (Michael W. Deem and Ramdas Pophale) SiO2 
 PCOD9210670
Probable space group: C 2/M
;
_chemical_formula_sum "Si O2"
_cell_formula_units_Z 56
_cell_length_a 8.729068
_cell_length_b 18.268598
_cell_length_c 18.819219
_cell_angle_alpha 90.000000
_cell_angle_beta 103.410094
_cell_angle_gamma 90.000000
_cell_volume 2919.236298
_symmetry_space_group_name_H-M "C 2/M"
_symmetry_group_IT_number 12
_symmetry_cell_setting 'monoclinic'
loop_
_space_group_symop_operation_xyz
x,y,z
-x,y,-z
-x,-y,-z
x,-y,z
1/2+x,1/2+y,z
1/2-x,1/2+y,-z
1/2-x,1/2-y,-z
1/2+x,1/2-y,z
loop_
_atom_site_type_symbol
_atom_site_label
_atom_site_fract_x
_atom_site_fract_y
_atom_site_fract_z
Si Si1 0.027858 0.913033 0.420598
Si Si2 0.607259 0.913033 0.579402
Si Si3 0.887309 0.913264 0.141016
Si Si4 0.753707 0.413264 0.141016
Si Si5 0.683226 0.168253 1.000000
Si Si6 0.823683 0.831471 0.281271
Si Si7 0.457588 0.168529 0.281271
O O1 0.209772 0.900549 0.419543
O O2 0.000000 0.894305 0.500000
O O3 0.916471 0.867707 0.356762
O O4 0.995337 0.000000 0.408785
O O5 0.500000 0.894306 0.500000
O O6 0.559709 0.867707 0.643238
O O7 0.586553 0.000000 0.591216
O O8 0.855624 0.879086 0.214517
O O9 0.070005 0.902085 0.140010
O O10 0.856163 0.000000 0.138192
O O11 0.778860 0.873750 0.071469
O O12 0.782029 0.500000 0.138192
O O13 0.792609 0.373750 0.071469
O O14 0.858892 0.379086 0.214517
O O15 0.500000 0.170891 0.000000
O O16 0.750000 0.250000 0.000000
O O17 0.638991 0.829310 0.277982
O O18 0.887738 0.750000 0.275477
#
# Coordination Sequence:
#
# PCOD9210670 Si02
#       7
#     8   8   8   8   8   8   8
#     4  10  21  39  63  91 123 159 201 249 302 361
#     4  10  21  39  63  91 123 159 201 249 302 361
#     4  11  24  43  66  92 124 161 202 249 302 360
#     4  11  24  43  66  92 124 161 202 249 302 360
#     4  12  25  42  65  93 127 163 203 250 301 358
#     4  12  25  41  62  89 123 161 204 252 304 361
#     4  12  25  41  62  89 123 161 204 252 304 361
#
# _framework density 19.183098999999999
#
# number of rings (size 3 to 8) (size 9 to 14) (size 15 to 20)
#    0.000    0.857    0.000    7.714    0.000    9.714 
#    0.000    2.857    0.000    0.000    0.000    0.000 
#    0.000    0.000    0.000    0.000    0.000    0.000 
#
# Total GULP energy -156780.441392 kJ/mol
# GULP energy per Si atom -5599.301478 kJ/mol
# Density = 1.913944 g / cm^3
# Si number density = 19.183099 Si / 1000 Ang^3
#
#
#
# Elastic Constant Matrix: (Units=GPa)
#
#
# Indices 1 2 3 4 5 6 
#
# 1 175.4300 122.9195 101.4410 0.0000 -0.4930 0.0000
# 2 122.9195 152.0511 115.3974 0.0000 0.3488 0.0000
# 3 101.4410 115.3974 183.7781 0.0000 0.1057 0.0000
# 4 0.0000 0.0000 0.0000 60.6359 0.0000 -1.3051
# 5 -0.4930 0.3488 0.1057 0.0000 42.2814 0.0000
# 6 0.0000 0.0000 0.0000 -1.3051 0.0000 32.4947
#
#
#
# Elastic Compliance Matrix: (Units=1/GPa)
#
#
# Indices 1 2 3 4 5 6 
#
# 1 0.013270 -0.009875 -0.001124 0.000000 0.000239 0.000000
# 2 -0.009875 0.019913 -0.007053 0.000000 -0.000262 0.000000
# 3 -0.001124 -0.007053 0.010490 0.000000 0.000019 0.000000
# 4 0.000000 0.000000 0.000000 0.016506 0.000000 0.000663
# 5 0.000239 -0.000262 0.000019 0.000000 0.023656 0.000000
# 6 0.000000 0.000000 0.000000 0.000663 0.000000 0.030801
#
#
# Mechanical properties :
#
#
# Convention : Reuss Voigt Hill
#
# Bulk Modulus (GPa) = 132.10898 132.30831 132.20865
# Shear Modulus (GPa) = 32.62333 38.51582 35.56957
#
# Velocity S-wave (km/s) = 4.12834 4.48571 4.31073
# Velocity P-wave (km/s) = 9.57816 9.79540 9.68739
#
# Compressibility (1/GPa) = 0.00756951
#
# Stress axis : x y z
#
# Youngs Moduli (GPa) = 75.35615 50.21808 95.32467
#
# Poissons Ratio (x) = 0.49591 0.10717
# Poissons Ratio (y) = 0.74415 0.67231
# Poissons Ratio (z) = 0.08472 0.35418
#
# Static dielectric constant tensor:
#      x y z
#    x 1.637720 0.000000 0.000580 
#    y 0.000000 1.638420 0.000000 
#    z 0.000580 0.000000 1.625160 
# 
# From -- ./inp_files/257130.got.cif
#   From: 2010.05.17/outbox.cif.g08.bks.cpg/sg12_129_cif.got.tgz:257130.got - 2010.06.03 13:09:07.
