data_PCOD9210091
_publ_section_title
;
Structure prediction by ZEFSAII (Michael W. Deem and Ramdas Pophale) SiO2 
 PCOD9210091
Probable space group: C 2/M
;
_chemical_formula_sum "Si O2"
_cell_formula_units_Z 64
_cell_length_a 15.423643
_cell_length_b 8.955490
_cell_length_c 34.315556
_cell_angle_alpha 90.000000
_cell_angle_beta 135.482228
_cell_angle_gamma 90.000000
_cell_volume 3323.274359
_symmetry_space_group_name_H-M "C 2/M"
_symmetry_group_IT_number 12
_symmetry_cell_setting 'monoclinic'
loop_
_space_group_symop_operation_xyz
x,y,z
-x,y,-z
-x,-y,-z
x,-y,z
1/2+x,1/2+y,z
1/2-x,1/2+y,-z
1/2-x,1/2-y,-z
1/2+x,1/2-y,z
loop_
_atom_site_type_symbol
_atom_site_label
_atom_site_fract_x
_atom_site_fract_y
_atom_site_fract_z
Si Si1 0.383598 0.179410 0.081582
Si Si2 0.405669 0.680144 0.004982
Si Si3 0.663192 0.674906 0.503791
Si Si4 0.530404 0.179982 0.206385
Si Si5 0.787648 0.324446 0.627820
Si Si6 0.465989 0.677200 0.265079
Si Si7 0.573254 0.824582 0.604740
Si Si8 0.684577 0.322977 0.711059
O O1 0.428786 0.253321 0.055647
O O2 0.469479 0.219047 0.145642
O O3 0.386621 0.000000 0.077307
O O4 0.240849 0.219026 0.047078
O O5 0.414308 0.500000 0.009558
O O6 0.500000 0.727514 0.000000
O O7 0.647851 0.500000 0.491249
O O8 0.750000 0.750000 0.500000
O O9 0.730255 0.691209 0.566570
O O10 0.531020 0.751125 0.455712
O O11 0.462575 0.257701 0.220707
O O12 0.675194 0.222715 0.253182
O O13 0.523516 0.000000 0.208721
O O14 0.780936 0.500000 0.636555
O O15 0.924369 0.263733 0.677553
O O16 0.702362 0.223430 0.627586
O O17 0.491600 0.500000 0.272231
O O18 0.346106 0.700826 0.253464
O O19 0.584578 0.758562 0.651747
O O20 0.553710 0.000000 0.599955
O O21 0.673587 0.500000 0.699692
#
# Coordination Sequence:
#
# PCOD9210091 Si02
#       8
#     8   8   8   8   8   8   8   8
#     4   9  19  35  56  84 116 155 203 241 286 349
#     4   9  18  34  56  84 120 158 195 242 297 343
#     4  11  24  40  59  84 114 148 189 238 295 359
#     4  10  21  39  60  82 116 159 196 241 296 351
#     4  11  23  40  60  82 111 149 189 234 295 357
#     4  11  23  38  59  87 114 148 195 244 292 352
#     4  12  24  38  60  87 113 146 192 241 293 356
#     4  10  22  40  60  82 115 155 193 240 301 355
#
# _framework density 19.258115
#
# number of rings (size 3 to 8) (size 9 to 14) (size 15 to 20)
#    0.000    1.625    1.250    3.375    0.000    8.250 
#    0.000    0.000    0.000    0.000    0.000    0.000 
#    0.000    0.000    0.000    0.000    0.000    0.000 
#
# Total GULP energy -178638.082864 kJ/mol
# GULP energy per Si atom -5582.440089 kJ/mol
# Density = 1.921428 g / cm^3
# Si number density = 19.258115 Si / 1000 Ang^3
#
#
#
# Elastic Constant Matrix: (Units=GPa)
#
#
# Indices 1 2 3 4 5 6 
#
# 1 82.6630 23.5504 17.6750 0.0000 -27.1636 0.0000
# 2 23.5504 52.1314 44.3302 0.0000 -15.7840 0.0000
# 3 17.6750 44.3302 97.9288 0.0000 -18.8228 0.0000
# 4 0.0000 0.0000 0.0000 28.2936 0.0000 -5.7622
# 5 -27.1636 -15.7840 -18.8228 0.0000 23.9747 0.0000
# 6 0.0000 0.0000 0.0000 -5.7622 0.0000 26.6470
#
#
#
# Elastic Compliance Matrix: (Units=1/GPa)
#
#
# Indices 1 2 3 4 5 6 
#
# 1 0.019988 -0.004794 0.002719 0.000000 0.021625 0.000000
# 2 -0.004794 0.035080 -0.013685 0.000000 0.006919 0.000000
# 3 0.002719 -0.013685 0.017402 0.000000 0.007734 0.000000
# 4 0.000000 0.000000 0.000000 0.036972 0.000000 0.007995
# 5 0.021625 0.006919 0.007734 0.000000 0.076839 0.000000
# 6 0.000000 0.000000 0.000000 0.007995 0.000000 0.039257
#
#
# Mechanical properties :
#
#
# Convention : Reuss Voigt Hill
#
# Bulk Modulus (GPa) = 24.41990 44.87048 34.64519
# Shear Modulus (GPa) = 18.47015 25.59424 22.03220
#
# Velocity S-wave (km/s) = 3.10027 3.64951 3.38605
# Velocity P-wave (km/s) = 5.05207 6.41161 5.77201
#
# Compressibility (1/GPa) = 0.04095021
#
# Stress axis : x y z
#
# Youngs Moduli (GPa) = 50.03027 28.50639 57.46483
#
# Poissons Ratio (x) = 0.13667 -0.15626
# Poissons Ratio (y) = 0.23987 0.78638
# Poissons Ratio (z) = -0.13605 0.39010
#
# Static dielectric constant tensor:
#      x y z
#    x 1.815420 0.000000 0.089490 
#    y 0.000000 1.645240 0.000000 
#    z 0.089490 0.000000 1.754330 
# 
# From -- ./inp_files/375582.got.cif
#   From: 2010.05.17/outbox.cif.g08.bks.cpg/sg12_188_cif.got.tgz:375582.got - 2010.06.03 13:09:07.
