data_PCOD9210770
_publ_section_title
;
Structure prediction by ZEFSAII (Michael W. Deem and Ramdas Pophale) SiO2 
 PCOD9210770
Probable space group: C 2/M
;
_chemical_formula_sum "Si O2"
_cell_formula_units_Z 56
_cell_length_a 17.685854
_cell_length_b 23.931402
_cell_length_c 6.790802
_cell_angle_alpha 90.000000
_cell_angle_beta 107.695639
_cell_angle_gamma 90.000000
_cell_volume 2738.195166
_symmetry_space_group_name_H-M "C 2/M"
_symmetry_group_IT_number 12
_symmetry_cell_setting 'monoclinic'
loop_
_space_group_symop_operation_xyz
x,y,z
-x,y,-z
-x,-y,-z
x,-y,z
1/2+x,1/2+y,z
1/2-x,1/2+y,-z
1/2-x,1/2-y,-z
1/2+x,1/2-y,z
loop_
_atom_site_type_symbol
_atom_site_label
_atom_site_fract_x
_atom_site_fract_y
_atom_site_fract_z
Si Si1 0.906345 0.234839 0.387833
Si Si2 0.698544 0.062090 0.975875
Si Si3 0.677128 0.357145 0.415259
Si Si4 0.125215 0.064378 0.711952
Si Si5 0.645820 0.860614 0.579850
Si Si6 0.919151 0.157902 0.048395
Si Si7 0.568754 0.935572 0.205805
O O1 0.856117 0.197424 0.499931
O O2 0.884496 0.299083 0.394936
O O3 0.890481 0.209284 0.159505
O O4 0.000000 0.226568 0.500000
O O5 0.667467 0.106553 0.795887
O O6 0.687186 0.000000 0.879295
O O7 0.790114 0.067722 0.108405
O O8 0.647734 0.064545 0.134958
O O9 0.642856 0.409159 0.512835
O O10 0.771937 0.357205 0.477639
O O11 0.643374 0.357267 0.168853
O O12 0.069331 0.105991 0.791767
O O13 0.099682 0.000000 0.684092
O O14 0.582961 0.895387 0.400530
O O15 0.000000 0.171542 0.000000
O O16 0.552335 0.000000 0.253008
O O17 0.500000 0.917725 0.000000
#
# Coordination Sequence:
#
# PCOD9210770 Si02
#       7
#     8   8   8   8   8   8   8
#     4  11  26  44  64  93 126 167 220 272 315 376
#     4  10  21  39  63  96 132 164 206 262 318 378
#     4  11  23  44  66  92 129 172 207 264 329 374
#     4  10  22  40  67 102 130 161 213 260 310 393
#     4  12  24  40  67  99 123 169 224 261 311 385
#     4  11  23  45  68  90 131 173 207 262 335 378
#     4  10  23  42  63  93 137 174 204 260 324 375
#
# _framework density 20.451426999999999
#
# number of rings (size 3 to 8) (size 9 to 14) (size 15 to 20)
#    0.000    1.286    4.286    0.857    2.000    3.143 
#    0.000    2.857    0.000    0.000    0.000    0.000 
#    0.000    0.000    0.000    0.000    0.000    0.000 
#
# Total GULP energy -156541.275246 kJ/mol
# GULP energy per Si atom -5590.759830 kJ/mol
# Density = 2.040488 g / cm^3
# Si number density = 20.451427 Si / 1000 Ang^3
#
#
#
# Elastic Constant Matrix: (Units=GPa)
#
#
# Indices 1 2 3 4 5 6 
#
# 1 40.1549 12.0234 18.2210 0.0000 -5.0231 0.0000
# 2 12.0234 140.8931 70.5640 0.0000 -10.7858 0.0000
# 3 18.2210 70.5640 119.1885 0.0000 -2.7977 0.0000
# 4 0.0000 0.0000 0.0000 52.8073 0.0000 14.7585
# 5 -5.0231 -10.7858 -2.7977 0.0000 30.9797 0.0000
# 6 0.0000 0.0000 0.0000 14.7585 0.0000 22.5759
#
#
#
# Elastic Compliance Matrix: (Units=1/GPa)
#
#
# Indices 1 2 3 4 5 6 
#
# 1 0.027258 0.000034 -0.004092 0.000000 0.004062 0.000000
# 2 0.000034 0.010371 -0.006073 0.000000 0.003068 0.000000
# 3 -0.004092 -0.006073 0.012573 0.000000 -0.001643 0.000000
# 4 0.000000 0.000000 0.000000 0.023170 0.000000 -0.015147
# 5 0.004062 0.003068 -0.001643 0.000000 0.033858 0.000000
# 6 0.000000 0.000000 0.000000 -0.015147 0.000000 0.054197
#
#
# Mechanical properties :
#
#
# Convention : Reuss Voigt Hill
#
# Bulk Modulus (GPa) = 33.40020 55.76148 44.58084
# Shear Modulus (GPa) = 26.08660 34.56778 30.32719
#
# Velocity S-wave (km/s) = 3.57534 4.11571 3.85501
# Velocity P-wave (km/s) = 5.78023 7.06470 6.45449
#
# Compressibility (1/GPa) = 0.02993994
#
# Stress axis : x y z
#
# Youngs Moduli (GPa) = 36.68606 96.42016 79.53694
#
# Poissons Ratio (x) = -0.00331 0.32547
# Poissons Ratio (y) = -0.00126 0.48306
# Poissons Ratio (z) = 0.15012 0.58560
#
# Static dielectric constant tensor:
#      x y z
#    x 1.745260 0.000000 0.017200 
#    y 0.000000 1.705150 0.000000 
#    z 0.017200 0.000000 1.711850 
# 
# From -- ./inp_files/21909.got.cif
#   From: 2010.05.17/outbox.cif.g08.bks.cpg/sg12_11_cif.got.tgz:21909.got - 2010.06.03 13:09:07.
