data_PCOD9210937
_publ_section_title
;
Structure prediction by ZEFSAII (Michael W. Deem and Ramdas Pophale) SiO2 
 PCOD9210937
Probable space group: C 2/M
;
_chemical_formula_sum "Si O2"
_cell_formula_units_Z 48
_cell_length_a 31.347781
_cell_length_b 13.757568
_cell_length_c 5.108850
_cell_angle_alpha 90.000000
_cell_angle_beta 119.014228
_cell_angle_gamma 90.000000
_cell_volume 1926.775364
_symmetry_space_group_name_H-M "C 2/M"
_symmetry_group_IT_number 12
_symmetry_cell_setting 'monoclinic'
loop_
_space_group_symop_operation_xyz
x,y,z
-x,y,-z
-x,-y,-z
x,-y,z
1/2+x,1/2+y,z
1/2-x,1/2+y,-z
1/2-x,1/2-y,-z
1/2+x,1/2-y,z
loop_
_atom_site_type_symbol
_atom_site_label
_atom_site_fract_x
_atom_site_fract_y
_atom_site_fract_z
Si Si1 0.618320 0.724909 0.219943
Si Si2 0.352973 0.892241 0.344966
Si Si3 0.189788 0.893333 0.152121
Si Si4 0.250296 0.648647 0.155823
Si Si5 0.447486 0.811739 0.344584
Si Si6 0.451935 0.609284 0.672037
O O1 0.651545 0.800734 0.473315
O O2 0.646973 0.684971 0.054325
O O3 0.597160 0.632990 0.311080
O O4 0.571379 0.787646 0.000644
O O5 0.304926 0.889520 0.021582
O O6 0.403676 0.870813 0.347170
O O7 0.354613 0.000000 0.472912
O O8 0.212729 0.901908 0.935676
O O9 0.171986 0.000000 0.175200
O O10 0.228936 0.860420 0.490299
O O11 0.250000 0.750000 0.000000
O O12 0.500000 0.860287 0.500000
O O13 0.453835 0.704243 0.493509
O O14 0.449391 0.500000 0.546269
O O15 0.500000 0.610202 0.000000
#
# Coordination Sequence:
#
# PCOD9210937 Si02
#       6
#     8   8   8   8   8   8
#     4  11  24  43  66  97 136 182 224 287 343 415
#     4  11  26  45  70  99 131 178 233 289 349 418
#     4  12  26  44  72 108 147 188 231 284 351 429
#     4  12  25  49  72 105 146 189 233 291 356 420
#     4  11  24  44  67  96 135 177 229 290 351 408
#     4  10  21  39  64  96 134 176 225 279 346 420
#
# _framework density 24.912088000000001
#
# number of rings (size 3 to 8) (size 9 to 14) (size 15 to 20)
#    0.000    0.833    3.333    3.500    4.667    2.667 
#    0.000    0.833    0.000    0.000    0.000    0.000 
#    0.000    0.000    0.000    0.000    0.000    0.000 
#
# Total GULP energy -134181.426943 kJ/mol
# GULP energy per Si atom -5590.892789 kJ/mol
# Density = 2.485539 g / cm^3
# Si number density = 24.912088 Si / 1000 Ang^3
#
#
#
# Elastic Constant Matrix: (Units=GPa)
#
#
# Indices 1 2 3 4 5 6 
#
# 1 131.6847 6.8236 12.3427 0.0000 21.1020 0.0000
# 2 6.8236 107.1343 -17.6529 0.0000 11.8495 0.0000
# 3 12.3427 -17.6529 86.2069 0.0000 25.8132 0.0000
# 4 0.0000 0.0000 0.0000 715.8236 0.0000 496.3147
# 5 21.1020 11.8495 25.8132 0.0000 42.0876 0.0000
# 6 0.0000 0.0000 0.0000 496.3147 0.0000 367.8750
#
#
#
# Elastic Compliance Matrix: (Units=1/GPa)
#
#
# Indices 1 2 3 4 5 6 
#
# 1 0.008258 -0.000058 0.000050 0.000000 -0.004155 0.000000
# 2 -0.000058 0.010530 0.003728 0.000000 -0.005222 0.000000
# 3 0.000050 0.003728 0.015530 0.000000 -0.010600 0.000000
# 4 0.000000 0.000000 0.000000 0.021633 0.000000 -0.029186
# 5 -0.004155 -0.005222 -0.010600 0.000000 0.033814 0.000000
# 6 0.000000 0.000000 0.000000 -0.029186 0.000000 0.042094
#
#
# Mechanical properties :
#
#
# Convention : Reuss Voigt Hill
#
# Bulk Modulus (GPa) = 23.94806 36.45028 30.19917
# Shear Modulus (GPa) = 36.14310 246.72474 141.43392
#
# Velocity S-wave (km/s) = 3.81310 9.96259 7.54297
# Velocity P-wave (km/s) = 5.38704 12.12439 9.38139
#
# Compressibility (1/GPa) = 0.04175704
#
# Stress axis : x y z
#
# Youngs Moduli (GPa) = 121.09464 94.96988 64.39085
#
# Poissons Ratio (x) = 0.00553 -0.00320
# Poissons Ratio (y) = 0.00706 -0.24006
# Poissons Ratio (z) = -0.00602 -0.35406
#
# Static dielectric constant tensor:
#      x y z
#    x 2.014820 0.000000 -0.009060 
#    y 0.000000 2.394610 0.000000 
#    z -0.009060 0.000000 1.986540 
# 
# From -- ./inp_files/31393.got.cif
#   From: 2010.05.17/outbox.cif.g08.bks.cpg/sg12_16_cif.got.tgz:31393.got - 2010.06.03 13:09:07.
