data_PCOD9210828
_publ_section_title
;
Structure prediction by ZEFSAII (Michael W. Deem and Ramdas Pophale) SiO2 
 PCOD9210828
Probable space group: C 2/M
;
_chemical_formula_sum "Si O2"
_cell_formula_units_Z 56
_cell_length_a 29.832400
_cell_length_b 8.683165
_cell_length_c 12.161679
_cell_angle_alpha 90.000000
_cell_angle_beta 110.437498
_cell_angle_gamma 90.000000
_cell_volume 2952.053645
_symmetry_space_group_name_H-M "C 2/M"
_symmetry_group_IT_number 12
_symmetry_cell_setting 'monoclinic'
loop_
_space_group_symop_operation_xyz
x,y,z
-x,y,-z
-x,-y,-z
x,-y,z
1/2+x,1/2+y,z
1/2-x,1/2+y,-z
1/2-x,1/2-y,-z
1/2+x,1/2-y,z
loop_
_atom_site_type_symbol
_atom_site_label
_atom_site_fract_x
_atom_site_fract_y
_atom_site_fract_z
Si Si1 0.339767 0.184546 0.388080
Si Si2 0.770834 0.815331 0.736508
Si Si3 0.201665 0.316669 0.011909
Si Si4 0.566048 0.183219 0.137781
Si Si5 0.383348 0.315842 0.208594
Si Si6 0.965178 0.815813 0.116292
Si Si7 0.649008 0.316073 0.361975
O O1 0.284629 0.231580 0.316310
O O2 0.372870 0.245712 0.318562
O O3 0.353741 0.249847 0.518363
O O4 0.341096 0.000000 0.391471
O O5 0.799571 0.781812 0.649634
O O6 0.772580 0.000000 0.756615
O O7 0.796888 0.733050 0.859992
O O8 0.201124 0.500000 0.000797
O O9 0.157196 0.247072 0.908344
O O10 0.250000 0.250000 0.000000
O O11 0.515783 0.230662 0.151002
O O12 0.609068 0.243388 0.249028
O O13 0.568465 0.000000 0.125529
O O14 0.564373 0.264018 0.017045
O O15 0.379328 0.500000 0.210946
O O16 0.434297 0.277936 0.197353
O O17 0.972729 0.000000 0.117730
O O18 0.642942 0.500000 0.358969
#
# Coordination Sequence:
#
# PCOD9210828 Si02
#       7
#     8   8   8   8   8   8   8
#     4  11  23  39  59  84 118 157 199 244 289 344
#     4  10  22  39  59  85 116 156 199 242 293 347
#     4  12  23  35  56  84 118 155 193 239 288 341
#     4  11  22  38  62  92 121 149 192 243 294 347
#     4  11  23  39  60  87 119 157 197 237 292 352
#     4  10  21  39  64  91 120 153 190 236 294 355
#     4  11  23  40  61  84 117 157 199 243 290 347
#
# _framework density 18.969843999999998
#
# number of rings (size 3 to 8) (size 9 to 14) (size 15 to 20)
#    0.000    1.143    1.429    6.429    0.000    7.429 
#    0.000    0.714    0.000    4.286    0.000    0.000 
#    0.000    0.000    0.000    0.000    0.000    0.000 
#
# Total GULP energy -156616.393884 kJ/mol
# GULP energy per Si atom -5593.442639 kJ/mol
# Density = 1.892667 g / cm^3
# Si number density = 18.969844 Si / 1000 Ang^3
#
#
#
# Elastic Constant Matrix: (Units=GPa)
#
#
# Indices 1 2 3 4 5 6 
#
# 1 81.9788 26.6579 33.8034 0.0000 -28.3793 0.0000
# 2 26.6579 57.6172 20.6633 0.0000 -11.2028 0.0000
# 3 33.8034 20.6633 75.1528 0.0000 -22.3903 0.0000
# 4 0.0000 0.0000 0.0000 31.2138 0.0000 1.5336
# 5 -28.3793 -11.2028 -22.3903 0.0000 27.1349 0.0000
# 6 0.0000 0.0000 0.0000 1.5336 0.0000 24.3022
#
#
#
# Elastic Compliance Matrix: (Units=1/GPa)
#
#
# Indices 1 2 3 4 5 6 
#
# 1 0.021214 -0.005377 -0.002804 0.000000 0.017653 0.000000
# 2 -0.005377 0.021090 -0.003264 0.000000 0.000390 0.000000
# 3 -0.002804 -0.003264 0.018815 0.000000 0.011245 0.000000
# 4 0.000000 0.000000 0.000000 0.032137 0.000000 -0.002028
# 5 0.017653 0.000390 0.011245 0.000000 0.064756 0.000000
# 6 0.000000 0.000000 0.000000 -0.002028 0.000000 0.041277
#
#
# Mechanical properties :
#
#
# Convention : Reuss Voigt Hill
#
# Bulk Modulus (GPa) = 26.15795 41.88867 34.02331
# Shear Modulus (GPa) = 21.28362 25.43844 23.36103
#
# Velocity S-wave (km/s) = 3.35322 3.66593 3.51306
# Velocity P-wave (km/s) = 5.36761 6.32838 5.86769
#
# Compressibility (1/GPa) = 0.03822930
#
# Stress axis : x y z
#
# Youngs Moduli (GPa) = 47.13798 47.41533 53.14860
#
# Poissons Ratio (x) = 0.25496 0.14904
# Poissons Ratio (y) = 0.25347 0.17347
# Poissons Ratio (z) = 0.13218 0.15476
#
# Static dielectric constant tensor:
#      x y z
#    x 1.663970 0.000000 -0.013640 
#    y 0.000000 1.630850 0.000000 
#    z -0.013640 0.000000 1.625750 
# 
# From -- ./inp_files/186872.got.cif
#   From: 2010.05.17/outbox.cif.g08.bks.cpg/sg12_94_cif.got.tgz:186872.got - 2010.06.03 13:09:07.
