data_PCOD9210485
_publ_section_title
;
Structure prediction by ZEFSAII (Michael W. Deem and Ramdas Pophale) SiO2 
 PCOD9210485
Probable space group: C 2/M
;
_chemical_formula_sum "Si O2"
_cell_formula_units_Z 52
_cell_length_a 8.464510
_cell_length_b 18.073126
_cell_length_c 17.130236
_cell_angle_alpha 90.000000
_cell_angle_beta 105.644735
_cell_angle_gamma 90.000000
_cell_volume 2523.499502
_symmetry_space_group_name_H-M "C 2/M"
_symmetry_group_IT_number 12
_symmetry_cell_setting 'monoclinic'
loop_
_space_group_symop_operation_xyz
x,y,z
-x,y,-z
-x,-y,-z
x,-y,z
1/2+x,1/2+y,z
1/2-x,1/2+y,-z
1/2-x,1/2-y,-z
1/2+x,1/2-y,z
loop_
_atom_site_type_symbol
_atom_site_label
_atom_site_fract_x
_atom_site_fract_y
_atom_site_fract_z
Si Si1 0.464934 0.418011 0.648151
Si Si2 0.632448 0.207995 0.753575
Si Si3 0.341640 0.678520 0.105069
Si Si4 0.767049 0.312752 0.657042
Si Si5 0.678214 0.087324 0.484513
Si Si6 0.871190 0.081524 0.816132
Si Si7 0.000000 0.289248 0.000000
O O1 0.529239 0.500000 0.638943
O O2 0.614869 0.362673 0.663158
O O3 0.322348 0.403065 0.566946
O O4 0.394238 0.419474 0.725695
O O5 0.649799 0.279610 0.810911
O O6 0.704262 0.231589 0.677732
O O7 0.445234 0.182919 0.720760
O O8 0.737738 0.145014 0.809932
O O9 0.456725 0.607187 0.124705
O O10 0.154168 0.666428 0.055170
O O11 0.425598 0.735772 0.056286
O O12 0.799088 0.347068 0.575500
O O13 0.500000 0.094211 0.500000
O O14 0.687845 0.000000 0.457554
O O15 0.822194 0.000000 0.836028
#
# Coordination Sequence:
#
# PCOD9210485 Si02
#       7
#     8   8   8   8   8   8   4
#     4  10  21  39  62  90 127 173 218 268 333 383
#     4  12  23  40  65  93 132 165 220 273 314 389
#     4  11  20  42  66 101 125 170 208 263 310 401
#     4  12  22  38  63  89 122 172 221 273 323 368
#     4  10  22  41  63  90 130 173 219 274 332 388
#     4  11  23  42  66  95 133 175 214 268 327 380
#     4  10  22  36  76  96 126 166 216 242 336 382
#
# _framework density 20.606304000000002
#
# number of rings (size 3 to 8) (size 9 to 14) (size 15 to 20)
#    0.000    1.077    4.615    1.846    0.000    3.692 
#    0.000   11.538    0.000    0.000    0.000    0.000 
#    0.000    0.000    0.000    0.000    0.000    0.000 
#
# Total GULP energy -145073.800914 kJ/mol
# GULP energy per Si atom -5579.761574 kJ/mol
# Density = 2.055940 g / cm^3
# Si number density = 20.606304 Si / 1000 Ang^3
#
#
#
# Elastic Constant Matrix: (Units=GPa)
#
#
# Indices 1 2 3 4 5 6 
#
# 1 99.9977 28.4145 26.9350 0.0000 30.7604 0.0000
# 2 28.4145 89.5736 17.3220 0.0000 19.0209 0.0000
# 3 26.9350 17.3220 75.1155 0.0000 21.4359 0.0000
# 4 0.0000 0.0000 0.0000 17.7206 0.0000 9.3777
# 5 30.7604 19.0209 21.4359 0.0000 49.0355 0.0000
# 6 0.0000 0.0000 0.0000 9.3777 0.0000 13.7068
#
#
#
# Elastic Compliance Matrix: (Units=1/GPa)
#
#
# Indices 1 2 3 4 5 6 
#
# 1 0.013282 -0.002401 -0.002396 0.000000 -0.006353 0.000000
# 2 -0.002401 0.012786 -0.001259 0.000000 -0.002903 0.000000
# 3 -0.002396 -0.001259 0.015874 0.000000 -0.004948 0.000000
# 4 0.000000 0.000000 0.000000 0.088459 0.000000 -0.060521
# 5 -0.006353 -0.002903 -0.004948 0.000000 0.027668 0.000000
# 6 0.000000 0.000000 0.000000 -0.060521 0.000000 0.114363
#
#
# Mechanical properties :
#
#
# Convention : Reuss Voigt Hill
#
# Bulk Modulus (GPa) = 33.52312 45.55885 39.54098
# Shear Modulus (GPa) = 16.97862 28.89360 22.93611
#
# Velocity S-wave (km/s) = 2.87357 3.74862 3.33988
# Velocity P-wave (km/s) = 5.22624 6.39479 5.83982
#
# Compressibility (1/GPa) = 0.02983016
#
# Stress axis : x y z
#
# Youngs Moduli (GPa) = 75.28891 78.21332 62.99456
#
# Poissons Ratio (x) = 0.18778 0.15094
# Poissons Ratio (y) = 0.18076 0.07931
# Poissons Ratio (z) = 0.18039 0.09848
#
# Static dielectric constant tensor:
#      x y z
#    x 1.736100 0.000000 -0.047570 
#    y 0.000000 1.850460 0.000000 
#    z -0.047570 0.000000 1.767170 
# 
# From -- ./inp_files/257156.got.cif
#   From: 2010.05.17/outbox.cif.g08.bks.cpg/sg12_129_cif.got.tgz:257156.got - 2010.06.03 13:09:07.
