data_PCOD9210150
_publ_section_title
;
Structure prediction by ZEFSAII (Michael W. Deem and Ramdas Pophale) SiO2 
 PCOD9210150
Probable space group: C 2/M
;
_chemical_formula_sum "Si O2"
_cell_formula_units_Z 64
_cell_length_a 16.237887
_cell_length_b 21.737380
_cell_length_c 16.013221
_cell_angle_alpha 90.000000
_cell_angle_beta 147.762195
_cell_angle_gamma 90.000000
_cell_volume 3015.063807
_symmetry_space_group_name_H-M "C 2/M"
_symmetry_group_IT_number 12
_symmetry_cell_setting 'monoclinic'
loop_
_space_group_symop_operation_xyz
x,y,z
-x,y,-z
-x,-y,-z
x,-y,z
1/2+x,1/2+y,z
1/2-x,1/2+y,-z
1/2-x,1/2-y,-z
1/2+x,1/2-y,z
loop_
_atom_site_type_symbol
_atom_site_label
_atom_site_fract_x
_atom_site_fract_y
_atom_site_fract_z
Si Si1 0.749529 0.820897 0.312769
Si Si2 0.467914 0.688133 0.337216
Si Si3 0.440267 0.433187 0.801510
Si Si4 0.909257 0.673631 0.272909
Si Si5 0.134765 0.433023 0.440990
Si Si6 0.962004 0.568627 0.835351
Si Si7 0.273435 0.384820 0.036473
Si Si8 0.857151 0.806973 0.821490
O O1 0.850365 0.816858 0.314815
O O2 0.622637 0.873990 0.194498
O O3 0.683078 0.752065 0.269755
O O4 0.868573 0.836214 0.489406
O O5 0.484835 0.759756 0.329982
O O6 0.387438 0.654447 0.191762
O O7 0.415962 0.500000 0.823129
O O8 0.313243 0.430059 0.618946
O O9 0.614039 0.429868 0.917144
O O10 0.409907 0.370939 0.826252
O O11 0.788451 0.677816 0.244875
O O12 0.037907 0.622006 0.397787
O O13 0.817051 0.656054 0.109550
O O14 0.076205 0.500000 0.420255
O O15 0.104269 0.430887 0.316224
O O16 0.934186 0.500000 0.846227
O O17 0.143547 0.581924 0.980197
O O18 0.000000 0.784756 0.000000
#
# Coordination Sequence:
#
# PCOD9210150 Si02
#       8
#     8   8   8   8   8   8   8   8
#     4  10  23  41  65  89 122 157 199 249 299 365
#     4  10  22  40  62  91 120 157 198 248 305 358
#     4  11  23  39  60  90 123 164 208 249 296 353
#     4  10  21  39  60  88 120 160 201 249 299 360
#     4   9  20  38  61  88 123 160 203 250 296 350
#     4  10  22  41  64  91 121 161 197 245 303 360
#     4  11  22  38  61  89 122 157 200 251 301 354
#     4  11  23  40  62  89 123 163 198 252 304 351
#
# _framework density 21.226749000000002
#
# number of rings (size 3 to 8) (size 9 to 14) (size 15 to 20)
#    0.000    1.750    1.250    2.250    3.500    4.750 
#    0.000    9.375    0.000    0.000    0.000    0.000 
#    0.000    0.000    0.000    0.000    0.000    0.000 
#
# Total GULP energy -178744.199320 kJ/mol
# GULP energy per Si atom -5585.756229 kJ/mol
# Density = 2.117844 g / cm^3
# Si number density = 21.226749 Si / 1000 Ang^3
#
#
#
# Elastic Constant Matrix: (Units=GPa)
#
#
# Indices 1 2 3 4 5 6 
#
# 1 29.0642 38.6062 11.9407 0.0000 8.8554 0.0000
# 2 38.6062 153.4150 27.7102 0.0000 11.6542 0.0000
# 3 11.9407 27.7102 81.1091 0.0000 5.2374 0.0000
# 4 0.0000 0.0000 0.0000 51.5258 0.0000 -6.1959
# 5 8.8554 11.6542 5.2374 0.0000 22.9471 0.0000
# 6 0.0000 0.0000 0.0000 -6.1959 0.0000 32.5211
#
#
#
# Elastic Compliance Matrix: (Units=1/GPa)
#
#
# Indices 1 2 3 4 5 6 
#
# 1 0.057032 -0.012660 -0.003111 0.000000 -0.014869 0.000000
# 2 -0.012660 0.009972 -0.001554 0.000000 0.000176 0.000000
# 3 -0.003111 -0.001554 0.013387 0.000000 -0.001066 0.000000
# 4 0.000000 0.000000 0.000000 0.019863 0.000000 0.003784
# 5 -0.014869 0.000176 -0.001066 0.000000 0.049470 0.000000
# 6 0.000000 0.000000 0.000000 0.003784 0.000000 0.031470
#
#
# Mechanical properties :
#
#
# Convention : Reuss Voigt Hill
#
# Bulk Modulus (GPa) = 21.86283 46.67805 34.27044
# Shear Modulus (GPa) = 21.63649 33.75421 27.69535
#
# Velocity S-wave (km/s) = 3.19612 3.99202 3.61603
# Velocity P-wave (km/s) = 4.89308 6.57923 5.79778
#
# Compressibility (1/GPa) = 0.04573972
#
# Stress axis : x y z
#
# Youngs Moduli (GPa) = 17.53402 100.28515 74.70037
#
# Poissons Ratio (x) = 1.26966 0.23236
# Poissons Ratio (y) = 0.22199 0.11610
# Poissons Ratio (z) = 0.05454 0.15587
#
# Static dielectric constant tensor:
#      x y z
#    x 1.765120 0.000000 -0.011880 
#    y 0.000000 1.782320 0.000000 
#    z -0.011880 0.000000 1.752690 
# 
# From -- ./inp_files/279130.got.cif
#   From: 2010.05.17/outbox.cif.g08.bks.cpg/sg12_140_cif.got.tgz:279130.got - 2010.06.03 13:09:07.
