data_PCOD9210232
_publ_section_title
;
Structure prediction by ZEFSAII (Michael W. Deem and Ramdas Pophale) SiO2 
 PCOD9210232
Probable space group: C 2/M
;
_chemical_formula_sum "Si O2"
_cell_formula_units_Z 48
_cell_length_a 20.829734
_cell_length_b 7.676595
_cell_length_c 13.877048
_cell_angle_alpha 90.000000
_cell_angle_beta 89.897614
_cell_angle_gamma 90.000000
_cell_volume 2218.956303
_symmetry_space_group_name_H-M "C 2/M"
_symmetry_group_IT_number 12
_symmetry_cell_setting 'monoclinic'
loop_
_space_group_symop_operation_xyz
x,y,z
-x,y,-z
-x,-y,-z
x,-y,z
1/2+x,1/2+y,z
1/2-x,1/2+y,-z
1/2-x,1/2-y,-z
1/2+x,1/2-y,z
loop_
_atom_site_type_symbol
_atom_site_label
_atom_site_fract_x
_atom_site_fract_y
_atom_site_fract_z
Si Si1 0.875991 0.289742 0.863683
Si Si2 0.389189 0.293142 0.087155
Si Si3 0.442960 0.298924 0.437026
Si Si4 0.236103 0.786986 0.796048
Si Si5 0.003675 0.297978 0.764870
Si Si6 0.698784 0.709547 0.581997
O O1 0.876208 0.500000 0.857474
O O2 0.805785 0.227428 0.831618
O O3 0.934321 0.227099 0.796433
O O4 0.889489 0.242872 0.974081
O O5 0.393393 0.500000 0.102589
O O6 0.322086 0.231771 0.134386
O O7 0.448740 0.213077 0.144304
O O8 0.500000 0.218191 0.500000
O O9 0.436867 0.500000 0.469734
O O10 0.464240 0.295147 0.325801
O O11 0.371924 0.220455 0.443668
O O12 0.220989 0.728984 0.687372
O O13 0.237133 0.000000 0.797203
O O14 0.996618 0.500000 0.737107
O O15 0.693383 0.500000 0.590114
O O16 0.750000 0.750000 0.500000
#
# Coordination Sequence:
#
# PCOD9210232 Si02
#       6
#     8   8   8   8   8   8
#     4  10  22  38  57  85 118 152 192 240 287 337
#     4  11  21  38  62  85 114 154 195 237 288 344
#     4  10  22  41  63  86 117 153 190 238 290 340
#     4   9  19  38  60  81 115 154 189 235 289 338
#     4  11  23  38  59  86 118 154 192 237 286 341
#     4  10  21  39  61  86 116 151 189 235 288 340
#
# _framework density 21.631792999999998
#
# number of rings (size 3 to 8) (size 9 to 14) (size 15 to 20)
#    0.000    1.833    1.667    2.000    2.333    4.333 
#    0.000    1.667    0.000    0.000    0.000    0.000 
#    0.000    0.000    0.000    0.000    0.000    0.000 
#
# Total GULP energy -134162.086127 kJ/mol
# GULP energy per Si atom -5590.086922 kJ/mol
# Density = 2.158256 g / cm^3
# Si number density = 21.631793 Si / 1000 Ang^3
#
#
#
# Elastic Constant Matrix: (Units=GPa)
#
#
# Indices 1 2 3 4 5 6 
#
# 1 124.1572 0.9112 36.1920 0.0000 -7.0006 0.0000
# 2 0.9112 41.0158 -9.6092 0.0000 0.6655 0.0000
# 3 36.1920 -9.6092 78.5200 0.0000 -0.2781 0.0000
# 4 0.0000 0.0000 0.0000 22.4241 0.0000 -4.2656
# 5 -7.0006 0.6655 -0.2781 0.0000 46.1236 0.0000
# 6 0.0000 0.0000 0.0000 -4.2656 0.0000 0.6504
#
#
#
# Elastic Compliance Matrix: (Units=1/GPa)
#
#
# Indices 1 2 3 4 5 6 
#
# 1 0.009460 -0.001291 -0.004513 0.000000 0.001427 0.000000
# 2 -0.001291 0.025282 0.003687 0.000000 -0.000538 0.000000
# 3 -0.004513 0.003687 0.015265 0.000000 -0.000646 0.000000
# 4 0.000000 0.000000 0.000000 -0.180085 0.000000 -1.181131
# 5 0.001427 -0.000538 -0.000646 0.000000 0.021901 0.000000
# 6 0.000000 0.000000 0.000000 -1.181131 0.000000 -6.209138
#
#
# Mechanical properties :
#
#
# Convention : Reuss Voigt Hill
#
# Bulk Modulus (GPa) = 21.84697 33.18676 27.51686
# Shear Modulus (GPa) = -0.79393 28.25287 13.72947
#
# Velocity S-wave (km/s) = -0.60648 3.61789 2.52204
# Velocity P-wave (km/s) = 3.10338 5.72950 4.60750
#
# Compressibility (1/GPa) = 0.04577294
#
# Stress axis : x y z
#
# Youngs Moduli (GPa) = 105.70985 39.55378 65.51025
#
# Poissons Ratio (x) = 0.05105 0.29566
# Poissons Ratio (y) = 0.13644 -0.24154
# Poissons Ratio (z) = 0.47709 -0.14583
#
# Static dielectric constant tensor:
#      x y z
#    x 1.784880 0.000000 0.009150 
#    y 0.000000 1.819750 0.000000 
#    z 0.009150 0.000000 1.722060 
# 
# From -- ./inp_files/221553.got.cif
#   From: 2010.05.17/outbox.cif.g08.bks.cpg/sg12_111_cif.got.tgz:221553.got - 2010.06.03 13:09:07.
