data_PCOD9210838
_publ_section_title
;
Structure prediction by ZEFSAII (Michael W. Deem and Ramdas Pophale) SiO2 
 PCOD9210838
Probable space group: C 2/M
;
_chemical_formula_sum "Si O2"
_cell_formula_units_Z 60
_cell_length_a 19.298517
_cell_length_b 9.762628
_cell_length_c 18.180235
_cell_angle_alpha 90.000000
_cell_angle_beta 61.705653
_cell_angle_gamma 90.000000
_cell_volume 3016.000642
_symmetry_space_group_name_H-M "C 2/M"
_symmetry_group_IT_number 12
_symmetry_cell_setting 'monoclinic'
loop_
_space_group_symop_operation_xyz
x,y,z
-x,y,-z
-x,-y,-z
x,-y,z
1/2+x,1/2+y,z
1/2-x,1/2+y,-z
1/2-x,1/2-y,-z
1/2+x,1/2-y,z
loop_
_atom_site_type_symbol
_atom_site_label
_atom_site_fract_x
_atom_site_fract_y
_atom_site_fract_z
Si Si1 0.186020 0.340974 0.336685
Si Si2 0.753081 0.156400 0.927264
Si Si3 0.063732 0.842699 0.176174
Si Si4 0.023817 0.661546 0.331884
Si Si5 0.502841 0.841339 0.910787
Si Si6 0.854394 0.278424 0.474397
Si Si7 0.815217 0.662092 0.192259
Si Si8 0.736221 0.500000 0.484718
O O1 0.205735 0.500000 0.313091
O O2 0.104506 0.309678 0.335518
O O3 0.171545 0.321146 0.430298
O O4 0.256392 0.246331 0.272747
O O5 0.843156 0.156524 0.854722
O O6 0.700712 0.202047 0.884765
O O7 0.730953 0.000000 0.957382
O O8 0.750000 0.250000 0.000000
O O9 0.022767 0.754321 0.259913
O O10 0.050204 0.764909 0.106312
O O11 0.036603 0.000000 0.187011
O O12 0.024018 0.500000 0.313099
O O13 0.946623 0.694610 0.417766
O O14 0.592698 0.820110 0.839112
O O15 0.480518 0.000000 0.907116
O O16 0.500000 0.823046 0.000000
O O17 0.805200 0.379440 0.446524
O O18 0.830253 0.122094 0.474627
O O19 0.796915 0.500000 0.207529
#
# Coordination Sequence:
#
# PCOD9210838 Si02
#       8
#     8   8   8   8   8   8   8   4
#     4  11  23  41  66  93 126 165 215 266 316 372
#     4  10  21  39  64  91 124 166 208 262 316 376
#     4  11  24  41  62  95 133 165 210 273 320 378
#     4  11  23  42  67  91 126 169 217 265 317 377
#     4  10  22  42  67  93 125 170 217 259 323 392
#     4  11  23  45  65  97 127 171 215 262 311 381
#     4  10  22  41  62  92 129 165 211 266 313 378
#     4  10  24  42  64  90 132 162 214 254 322 374
#
# _framework density 19.893895000000001
#
# number of rings (size 3 to 8) (size 9 to 14) (size 15 to 20)
#    0.000    1.467    2.667    1.600    1.867    6.667 
#    2.400    0.667    0.000    0.000    0.000    0.000 
#    0.000    0.000    0.000    0.000    0.000    0.000 
#
# Total GULP energy -167142.166354 kJ/mol
# GULP energy per Si atom -5571.405545 kJ/mol
# Density = 1.984862 g / cm^3
# Si number density = 19.893895 Si / 1000 Ang^3
#
#
#
# Elastic Constant Matrix: (Units=GPa)
#
#
# Indices 1 2 3 4 5 6 
#
# 1 55.5333 31.4339 -2.1115 0.0000 -10.5951 0.0000
# 2 31.4339 87.1532 5.1514 0.0000 -12.1496 0.0000
# 3 -2.1115 5.1514 55.7694 0.0000 -18.3712 0.0000
# 4 0.0000 0.0000 0.0000 22.8453 0.0000 -5.0977
# 5 -10.5951 -12.1496 -18.3712 0.0000 26.7795 0.0000
# 6 0.0000 0.0000 0.0000 -5.0977 0.0000 27.5072
#
#
#
# Elastic Compliance Matrix: (Units=1/GPa)
#
#
# Indices 1 2 3 4 5 6 
#
# 1 0.024366 -0.007763 0.004722 0.000000 0.009358 0.000000
# 2 -0.007763 0.014757 -0.000599 0.000000 0.003213 0.000000
# 3 0.004722 -0.000599 0.024148 0.000000 0.018163 0.000000
# 4 0.000000 0.000000 0.000000 0.045661 0.000000 0.008462
# 5 0.009358 0.003213 0.018163 0.000000 0.054962 0.000000
# 6 0.000000 0.000000 0.000000 0.008462 0.000000 0.037922
#
#
# Mechanical properties :
#
#
# Convention : Reuss Voigt Hill
#
# Bulk Modulus (GPa) = 17.85933 29.71150 23.78542
# Shear Modulus (GPa) = 21.95298 26.35854 24.15576
#
# Velocity S-wave (km/s) = 3.32551 3.64394 3.48836
# Velocity P-wave (km/s) = 4.87259 5.71593 5.31102
#
# Compressibility (1/GPa) = 0.05599313
#
# Stress axis : x y z
#
# Youngs Moduli (GPa) = 41.04050 67.76338 41.41114
#
# Poissons Ratio (x) = 0.52604 -0.19555
# Poissons Ratio (y) = 0.31859 0.02479
# Poissons Ratio (z) = -0.19380 0.04056
#
# Static dielectric constant tensor:
#      x y z
#    x 1.718370 0.000000 0.011920 
#    y 0.000000 1.676920 0.000000 
#    z 0.011920 0.000000 1.699020 
# 
# From -- ./inp_files/282147.got.cif
#   From: 2010.05.17/outbox.cif.g08.bks.cpg/sg12_142_cif.got.tgz:282147.got - 2010.06.03 13:09:07.
