data_PCOD9210102
_publ_section_title
;
Structure prediction by ZEFSAII (Michael W. Deem and Ramdas Pophale) SiO2 
 PCOD9210102
Probable space group: C 2/M
;
_chemical_formula_sum "Si O2"
_cell_formula_units_Z 56
_cell_length_a 20.785073
_cell_length_b 7.926038
_cell_length_c 31.260377
_cell_angle_alpha 90.000000
_cell_angle_beta 33.226304
_cell_angle_gamma 90.000000
_cell_volume 2821.894158
_symmetry_space_group_name_H-M "C 2/M"
_symmetry_group_IT_number 12
_symmetry_cell_setting 'monoclinic'
loop_
_space_group_symop_operation_xyz
x,y,z
-x,y,-z
-x,-y,-z
x,-y,z
1/2+x,1/2+y,z
1/2-x,1/2+y,-z
1/2-x,1/2-y,-z
1/2+x,1/2-y,z
loop_
_atom_site_type_symbol
_atom_site_label
_atom_site_fract_x
_atom_site_fract_y
_atom_site_fract_z
Si Si1 0.599468 0.695419 0.827229
Si Si2 0.561521 0.196983 0.009197
Si Si3 0.940742 0.700905 0.247040
Si Si4 0.680042 0.196616 0.154347
Si Si5 0.163499 0.197323 0.259835
Si Si6 0.472683 0.294170 0.583569
Si Si7 0.313944 0.293863 0.591105
O O1 0.630143 0.500000 0.804852
O O2 0.568935 0.769959 0.798159
O O3 0.711022 0.785663 0.786574
O O4 0.491840 0.713381 0.919922
O O5 0.700384 0.215153 0.926646
O O6 0.529897 0.000000 0.030627
O O7 0.500000 0.263063 0.000000
O O8 0.942435 0.500000 0.254165
O O9 0.819588 0.767067 0.335059
O O10 0.062149 0.768615 0.198451
O O11 0.667767 0.211163 0.212266
O O12 0.692228 0.000000 0.135775
O O13 0.068337 0.262797 0.347039
O O14 0.141448 0.000000 0.263526
O O15 0.471230 0.500000 0.585233
O O16 0.377643 0.244475 0.600167
O O17 0.599477 0.240801 0.495261
O O18 0.312569 0.500000 0.591783
#
# Coordination Sequence:
#
# PCOD9210102 Si02
#       7
#     8   8   8   8   8   8   8
#     4  12  24  37  60  88 116 147 186 237 286 337
#     4  11  23  40  63  86 110 147 191 234 280 336
#     4  10  21  39  60  83 117 155 192 230 280 341
#     4  11  24  39  58  85 117 153 187 232 288 338
#     4  11  20  35  58  85 115 151 194 236 279 336
#     4   8  14  25  52  86 110 140 191 240 274 319
#     4   8  13  27  52  83 112 143 188 237 275 322
#
# _framework density 19.844828
#
# number of rings (size 3 to 8) (size 9 to 14) (size 15 to 20)
#    0.000    1.857    2.857    3.429    0.000    2.286 
#    0.000    0.714    0.000    2.571    0.000    0.000 
#    0.000    0.000    0.000    0.000    0.000    0.000 
#
# Total GULP energy -156355.402518 kJ/mol
# GULP energy per Si atom -5584.121518 kJ/mol
# Density = 1.979966 g / cm^3
# Si number density = 19.844828 Si / 1000 Ang^3
#
#
#
# Elastic Constant Matrix: (Units=GPa)
#
#
# Indices 1 2 3 4 5 6 
#
# 1 94.4632 -15.2212 46.3490 -0.0078 -19.2790 0.0061
# 2 -15.2212 19.9201 -15.0139 -0.0158 -7.9010 -0.0052
# 3 46.3490 -15.0139 139.8660 -0.0022 -13.5228 -0.0051
# 4 -0.0078 -0.0158 -0.0022 -31.6453 0.0017 10.6477
# 5 -19.2790 -7.9010 -13.5228 0.0017 28.2308 0.0021
# 6 0.0061 -0.0052 -0.0051 10.6477 0.0021 11.2079
#
#
#
# Elastic Compliance Matrix: (Units=1/GPa)
#
#
# Indices 1 2 3 4 5 6 
#
# 1 0.018099 0.018492 -0.002430 -0.000011 0.016372 0.000005
# 2 0.018492 0.085296 0.006876 -0.000028 0.039794 0.000052
# 3 -0.002430 0.006876 0.009142 0.000000 0.004644 0.000008
# 4 -0.000011 -0.000028 0.000000 -0.023946 -0.000016 0.022749
# 5 0.016372 0.039794 0.004644 -0.000016 0.059964 0.000015
# 6 0.000005 0.000052 0.000008 0.022749 0.000015 0.067611
#
#
# Mechanical properties :
#
#
# Convention : Reuss Voigt Hill
#
# Bulk Modulus (GPa) = 6.31259 31.83079 19.07169
# Shear Modulus (GPa) = 22.41187 17.43437 19.92312
#
# Velocity S-wave (km/s) = 3.36423 2.96722 3.17195
# Velocity P-wave (km/s) = 4.27535 5.27389 4.80065
#
# Compressibility (1/GPa) = 0.15841352
#
# Stress axis : x y z
#
# Youngs Moduli (GPa) = 55.25061 11.72382 109.38536
#
# Poissons Ratio (x) = -0.21680 0.26579
# Poissons Ratio (y) = -1.02170 -0.75210
# Poissons Ratio (z) = 0.13425 -0.08061
#
# Static dielectric constant tensor:
#      x y z
#    x 1.678540 0.000000 -0.017730 
#    y 0.000000 1.694170 0.000000 
#    z -0.017730 0.000000 1.709190 
# 
# From -- ./inp_files/362977.got.cif
#   From: 2010.05.17/outbox.cif.g08.bks.cpg/sg12_182_cif.got.tgz:362977.got - 2010.06.03 13:09:07.
