data_PCOD9210143
_publ_section_title
;
Structure prediction by ZEFSAII (Michael W. Deem and Ramdas Pophale) SiO2 
 PCOD9210143
Probable space group: C 2/M
;
_chemical_formula_sum "Si O2"
_cell_formula_units_Z 48
_cell_length_a 17.790889
_cell_length_b 14.466570
_cell_length_c 17.054579
_cell_angle_alpha 90.000000
_cell_angle_beta 33.260122
_cell_angle_gamma 90.000000
_cell_volume 2407.321581
_symmetry_space_group_name_H-M "C 2/M"
_symmetry_group_IT_number 12
_symmetry_cell_setting 'monoclinic'
loop_
_space_group_symop_operation_xyz
x,y,z
-x,y,-z
-x,-y,-z
x,-y,z
1/2+x,1/2+y,z
1/2-x,1/2+y,-z
1/2-x,1/2-y,-z
1/2+x,1/2-y,z
loop_
_atom_site_type_symbol
_atom_site_label
_atom_site_fract_x
_atom_site_fract_y
_atom_site_fract_z
Si Si1 0.036225 0.606521 0.349672
Si Si2 0.612431 0.784626 0.963978
Si Si3 0.670929 0.892675 0.063631
Si Si4 0.456050 0.609081 0.886978
Si Si5 0.743990 0.304210 0.587711
Si Si6 0.145653 0.225883 0.353655
O O1 0.058446 0.500000 0.350751
O O2 0.107040 0.626130 0.204414
O O3 0.103064 0.674177 0.354847
O O4 0.875883 0.628813 0.478281
O O5 0.757043 0.811574 0.799026
O O6 0.500000 0.815419 0.000000
O O7 0.604315 0.830759 0.055562
O O8 0.587595 0.675576 0.002855
O O9 0.647014 0.000000 0.066485
O O10 0.833710 0.877564 0.930762
O O11 0.459245 0.500000 0.904445
O O12 0.601277 0.643252 0.726656
O O13 0.750000 0.250000 0.500000
O O14 0.769042 0.237402 0.640877
O O15 0.000000 0.178918 0.500000
#
# Coordination Sequence:
#
# PCOD9210143 Si02
#       6
#     8   8   8   8   8   8
#     4  10  21  39  60  87 121 158 200 248 303 365
#     4  12  23  40  63  90 123 161 205 254 310 364
#     4  10  23  41  65  90 120 164 208 253 306 363
#     4  11  23  39  62  95 125 159 200 253 312 368
#     4  11  23  38  59  88 124 163 199 247 303 365
#     4  10  23  37  57  89 114 161 201 244 304 363
#
# _framework density 19.939171999999999
#
# number of rings (size 3 to 8) (size 9 to 14) (size 15 to 20)
#    0.000    1.333    3.333    2.000    4.667    4.333 
#    0.000    0.000    0.000    0.500    0.000    0.000 
#    0.000    0.000    0.000    0.000    0.000    0.000 
#
# Total GULP energy -133994.917261 kJ/mol
# GULP energy per Si atom -5583.121553 kJ/mol
# Density = 1.989379 g / cm^3
# Si number density = 19.939172 Si / 1000 Ang^3
#
#
#
# Elastic Constant Matrix: (Units=GPa)
#
#
# Indices 1 2 3 4 5 6 
#
# 1 90.7108 30.6463 10.9418 0.0000 1.9393 0.0000
# 2 30.6463 25.9428 13.4767 0.0000 4.2660 0.0000
# 3 10.9418 13.4767 102.6578 0.0000 -14.2259 0.0000
# 4 0.0000 0.0000 0.0000 19.3427 0.0000 -2.1447
# 5 1.9393 4.2660 -14.2259 0.0000 28.2553 0.0000
# 6 0.0000 0.0000 0.0000 -2.1447 0.0000 8.8745
#
#
#
# Elastic Compliance Matrix: (Units=1/GPa)
#
#
# Indices 1 2 3 4 5 6 
#
# 1 0.018651 -0.023294 0.001484 0.000000 0.002984 0.000000
# 2 -0.023294 0.073063 -0.009047 0.000000 -0.013987 0.000000
# 3 0.001484 -0.009047 0.011767 0.000000 0.007188 0.000000
# 4 0.000000 0.000000 0.000000 0.053122 0.000000 0.012838
# 5 0.002984 -0.013987 0.007188 0.000000 0.040918 0.000000
# 6 0.000000 0.000000 0.000000 0.012838 0.000000 0.115785
#
#
# Mechanical properties :
#
#
# Convention : Reuss Voigt Hill
#
# Bulk Modulus (GPa) = 23.94280 36.60454 30.27367
# Shear Modulus (GPa) = 12.85536 22.24430 17.54983
#
# Velocity S-wave (km/s) = 2.54191 3.34370 2.96998
# Velocity P-wave (km/s) = 4.54412 5.77105 5.19394
#
# Compressibility (1/GPa) = 0.04176621
#
# Stress axis : x y z
#
# Youngs Moduli (GPa) = 53.61640 13.68680 84.98479
#
# Poissons Ratio (x) = 0.31882 -0.12608
# Poissons Ratio (y) = 1.24893 0.76887
# Poissons Ratio (z) = -0.07954 0.12383
#
# Static dielectric constant tensor:
#      x y z
#    x 1.685020 0.000000 -0.000710 
#    y 0.000000 1.695350 0.000000 
#    z -0.000710 0.000000 1.759950 
# 
# From -- ./inp_files/216504.got.cif
#   From: 2010.05.17/outbox.cif.g08.bks.cpg/sg12_109_cif.got.tgz:216504.got - 2010.06.03 13:09:07.
