data_PCOD9210753
_publ_section_title
;
Structure prediction by ZEFSAII (Michael W. Deem and Ramdas Pophale) SiO2 
 PCOD9210753
Probable space group: C 2/M
;
_chemical_formula_sum "Si O2"
_cell_formula_units_Z 32
_cell_length_a 10.130942
_cell_length_b 22.807421
_cell_length_c 8.076276
_cell_angle_alpha 90.000000
_cell_angle_beta 132.204911
_cell_angle_gamma 90.000000
_cell_volume 1382.315165
_symmetry_space_group_name_H-M "C 2/M"
_symmetry_group_IT_number 12
_symmetry_cell_setting 'monoclinic'
loop_
_space_group_symop_operation_xyz
x,y,z
-x,y,-z
-x,-y,-z
x,-y,z
1/2+x,1/2+y,z
1/2-x,1/2+y,-z
1/2-x,1/2-y,-z
1/2+x,1/2-y,z
loop_
_atom_site_type_symbol
_atom_site_label
_atom_site_fract_x
_atom_site_fract_y
_atom_site_fract_z
Si Si1 0.291818 0.500000 0.774361
Si Si2 0.500000 0.095324 0.500000
Si Si3 0.000000 0.720722 0.000000
Si Si4 0.791936 0.625886 0.647182
Si Si5 0.439489 0.718495 0.629486
Si Si6 0.202605 0.000000 0.616023
O O1 0.165180 0.444368 0.707747
O O2 0.294011 0.500000 0.578657
O O3 0.500000 0.500000 0.000000
O O4 0.422900 0.127122 0.598038
O O5 0.844907 0.674838 0.824609
O O6 0.044820 0.760905 0.879998
O O7 0.602318 0.648881 0.416353
O O8 0.790006 0.562399 0.729905
O O9 0.500000 0.738590 0.500000
O O10 0.250000 0.750000 0.500000
O O11 0.000000 0.000000 0.500000
#
# Coordination Sequence:
#
# PCOD9210753 Si02
#       6
#     4   4   4   8   8   4
#     4   9  19  38  64  96 131 192 234 275 357 427
#     4   9  20  40  62  94 146 174 230 305 340 420
#     4  10  24  41  68  99 124 188 238 282 368 412
#     4  10  22  41  64  97 137 181 227 297 358 423
#     4  10  23  43  65  97 137 177 240 300 352 427
#     4  10  21  39  63  94 141 172 221 295 344 429
#
# _framework density 23.149567999999999
#
# number of rings (size 3 to 8) (size 9 to 14) (size 15 to 20)
#    0.000    2.250    0.000    1.500    7.000    6.500 
#    9.000    0.000    0.000    0.000    0.000    0.000 
#    0.000    0.000    0.000    0.000    0.000    0.000 
#
# Total GULP energy -89166.062957 kJ/mol
# GULP energy per Si atom -5572.878935 kJ/mol
# Density = 2.309688 g / cm^3
# Si number density = 23.149568 Si / 1000 Ang^3
#
#
#
# Elastic Constant Matrix: (Units=GPa)
#
#
# Indices 1 2 3 4 5 6 
#
# 1 157.6655 32.0600 29.7527 0.0000 -22.1991 0.0000
# 2 32.0600 128.3975 45.4414 0.0000 -7.4736 0.0000
# 3 29.7527 45.4414 93.5855 0.0000 -3.0386 0.0000
# 4 0.0000 0.0000 0.0000 0.8230 0.0000 16.8068
# 5 -22.1991 -7.4736 -3.0386 0.0000 41.0441 0.0000
# 6 0.0000 0.0000 0.0000 16.8068 0.0000 22.2707
#
#
#
# Elastic Compliance Matrix: (Units=1/GPa)
#
#
# Indices 1 2 3 4 5 6 
#
# 1 0.007396 -0.001017 -0.001738 0.000000 0.003687 0.000000
# 2 -0.001017 0.009623 -0.004320 0.000000 0.000882 0.000000
# 3 -0.001738 -0.004320 0.013312 0.000000 -0.000741 0.000000
# 4 0.000000 0.000000 0.000000 -0.084314 0.000000 0.063629
# 5 0.003687 0.000882 -0.000741 0.000000 0.026464 0.000000
# 6 0.000000 0.000000 0.000000 0.063629 0.000000 -0.003116
#
#
# Mechanical properties :
#
#
# Convention : Reuss Voigt Hill
#
# Bulk Modulus (GPa) = 61.80516 66.01744 63.91130
# Shear Modulus (GPa) = -450.78580 30.98719 -209.89930
#
# Velocity S-wave (km/s) = -13.96962 3.66261 -9.53246
# Velocity P-wave (km/s) = 15.27888 6.81659 9.66898
#
# Compressibility (1/GPa) = 0.01617988
#
# Stress axis : x y z
#
# Youngs Moduli (GPa) = 135.20114 103.92116 75.12217
#
# Poissons Ratio (x) = 0.10571 0.13055
# Poissons Ratio (y) = 0.13753 0.32456
# Poissons Ratio (z) = 0.23496 0.44898
#
# Static dielectric constant tensor:
#      x y z
#    x 1.771880 0.000000 0.126740 
#    y 0.000000 2.043240 0.000000 
#    z 0.126740 0.000000 2.053560 
# 
# From -- ./inp_files/50211.got.cif
#   From: 2010.05.17/outbox.cif.g08.bks.cpg/sg12_26_cif.got.tgz:50211.got - 2010.06.03 13:09:07.
