data_PCOD9210613
_publ_section_title
;
Structure prediction by ZEFSAII (Michael W. Deem and Ramdas Pophale) SiO2 
 PCOD9210613
Probable space group: C 2/M
;
_chemical_formula_sum "Si O2"
_cell_formula_units_Z 48
_cell_length_a 18.294742
_cell_length_b 8.616242
_cell_length_c 31.668256
_cell_angle_alpha 90.000000
_cell_angle_beta 149.988821
_cell_angle_gamma 90.000000
_cell_volume 2496.807509
_symmetry_space_group_name_H-M "C 2/M"
_symmetry_group_IT_number 12
_symmetry_cell_setting 'monoclinic'
loop_
_space_group_symop_operation_xyz
x,y,z
-x,y,-z
-x,-y,-z
x,-y,z
1/2+x,1/2+y,z
1/2-x,1/2+y,-z
1/2-x,1/2-y,-z
1/2+x,1/2-y,z
loop_
_atom_site_type_symbol
_atom_site_label
_atom_site_fract_x
_atom_site_fract_y
_atom_site_fract_z
Si Si1 0.585795 0.813355 0.416392
Si Si2 0.915189 0.813656 0.914675
Si Si3 0.913941 0.315011 0.080832
Si Si4 0.415480 0.189076 0.415804
Si Si5 0.423005 0.687777 0.755522
Si Si6 0.586661 0.686288 0.750642
O O1 0.750000 0.750000 0.500000
O O2 0.498659 0.763000 0.414916
O O3 0.501779 0.752980 0.333233
O O4 0.589205 0.000000 0.417494
O O5 0.751360 0.748648 0.833152
O O6 0.001924 0.749906 0.917824
O O7 0.909679 0.000000 0.909521
O O8 0.000000 0.769692 0.000000
O O9 0.909610 0.500000 0.076689
O O10 0.997937 0.260672 0.164777
O O11 0.750000 0.250000 0.000000
O O12 0.500000 0.242180 0.500000
O O13 0.246403 0.236516 0.331158
O O14 0.416532 0.000000 0.417032
O O15 0.427446 0.500000 0.761813
O O16 0.505765 0.729722 0.753745
O O17 0.588198 0.500000 0.748597
#
# Coordination Sequence:
#
# PCOD9210613 Si02
#       6
#     8   8   8   8   8   8
#     4  11  22  37  60  87 119 159 203 254 310 366
#     4  11  24  42  64  90 122 160 202 248 300 360
#     4  12  25  41  63  90 122 158 200 250 303 360
#     4   9  18  35  59  85 113 151 197 242 293 353
#     4  10  21  39  63  89 120 158 201 248 301 362
#     4  11  23  39  62  91 122 158 201 250 305 364
#
# _framework density 19.224549
#
# number of rings (size 3 to 8) (size 9 to 14) (size 15 to 20)
#    0.000    1.333    0.000    6.000    0.000    9.333 
#    0.000    0.833    0.000    3.500    0.000    0.000 
#    0.000    0.000    0.000    0.000    0.000    0.000 
#
# Total GULP energy -134269.271805 kJ/mol
# GULP energy per Si atom -5594.552992 kJ/mol
# Density = 1.918079 g / cm^3
# Si number density = 19.224549 Si / 1000 Ang^3
#
#
#
# Elastic Constant Matrix: (Units=GPa)
#
#
# Indices 1 2 3 4 5 6 
#
# 1 238.6339 67.5291 145.7369 0.0000 1.8474 -0.0001
# 2 67.5291 58.8100 61.7391 0.0000 -4.0764 -0.0002
# 3 145.7369 61.7391 235.5155 0.0000 1.8022 0.0000
# 4 0.0000 0.0000 0.0000 35.5073 0.0000 2.2387
# 5 1.8474 -4.0764 1.8022 0.0000 46.7232 0.0000
# 6 -0.0001 -0.0002 0.0000 2.2387 0.0000 29.0660
#
#
#
# Elastic Compliance Matrix: (Units=1/GPa)
#
#
# Indices 1 2 3 4 5 6 
#
# 1 0.007815 -0.005446 -0.003403 0.000000 -0.000653 0.000000
# 2 -0.005446 0.027502 -0.003860 0.000000 0.002764 0.000000
# 3 -0.003403 -0.003860 0.007368 0.000000 -0.000486 0.000000
# 4 0.000000 0.000000 0.000000 0.028301 0.000000 -0.002180
# 5 -0.000653 0.002764 -0.000486 0.000000 0.021688 0.000000
# 6 0.000000 0.000000 0.000000 -0.002180 0.000000 0.034572
#
#
# Mechanical properties :
#
#
# Convention : Reuss Voigt Hill
#
# Bulk Modulus (GPa) = 57.92169 120.32995 89.12582
# Shear Modulus (GPa) = 31.56136 39.45624 35.50880
#
# Velocity S-wave (km/s) = 4.05621 4.53524 4.30240
# Velocity P-wave (km/s) = 7.22022 9.49486 8.43457
#
# Compressibility (1/GPa) = 0.01726469
#
# Stress axis : x y z
#
# Youngs Moduli (GPa) = 127.95461 36.36099 135.72708
#
# Poissons Ratio (x) = 0.19803 0.46193
# Poissons Ratio (y) = 0.69688 0.52397
# Poissons Ratio (z) = 0.43548 0.14037
#
# Static dielectric constant tensor:
#      x y z
#    x 1.632080 0.000000 -0.002530 
#    y 0.000000 1.655540 0.000000 
#    z -0.002530 0.000000 1.624640 
# 
# From -- ./inp_files/295369.got.cif
#   From: 2010.05.17/outbox.cif.g08.bks.cpg/sg12_148_cif.got.tgz:295369.got - 2010.06.03 13:09:07.
