data_PCOD9210381
_publ_section_title
;
Structure prediction by ZEFSAII (Michael W. Deem and Ramdas Pophale) SiO2 
 PCOD9210381
Probable space group: C 2/M
;
_chemical_formula_sum "Si O2"
_cell_formula_units_Z 36
_cell_length_a 8.750116
_cell_length_b 18.103049
_cell_length_c 10.931672
_cell_angle_alpha 90.000000
_cell_angle_beta 120.202580
_cell_angle_gamma 90.000000
_cell_volume 1496.554712
_symmetry_space_group_name_H-M "C 2/M"
_symmetry_group_IT_number 12
_symmetry_cell_setting 'monoclinic'
loop_
_space_group_symop_operation_xyz
x,y,z
-x,y,-z
-x,-y,-z
x,-y,z
1/2+x,1/2+y,z
1/2-x,1/2+y,-z
1/2-x,1/2-y,-z
1/2+x,1/2-y,z
loop_
_atom_site_type_symbol
_atom_site_label
_atom_site_fract_x
_atom_site_fract_y
_atom_site_fract_z
Si Si1 0.141506 0.584275 0.169355
Si Si2 0.500000 0.707364 0.500000
Si Si3 0.031341 0.284914 0.768175
Si Si4 0.566453 0.581830 0.355673
Si Si5 0.376598 0.352796 0.854700
O O1 0.110139 0.500000 0.199017
O O2 0.355409 0.589003 0.234177
O O3 0.097225 0.648673 0.246782
O O4 0.000000 0.595452 0.000000
O O5 0.547227 0.760401 0.632336
O O6 0.612871 0.646741 0.468574
O O7 0.222702 0.317103 0.871426
O O8 0.974133 0.215275 0.825770
O O9 0.594445 0.500000 0.416495
O O10 0.676445 0.594433 0.276792
O O11 0.500000 0.393578 0.000000
#
# Coordination Sequence:
#
# PCOD9210381 Si02
#       5
#     8   4   8   8   8
#     4  10  21  39  62  87 116 149 186 232 288 343
#     4  10  23  40  57  82 114 154 196 234 275 332
#     4  11  22  37  59  84 116 153 190 233 281 333
#     4  10  22  39  60  84 114 153 190 231 283 338
#     4  11  22  36  59  88 116 147 187 237 288 337
#
# _framework density 24.055250999999998
#
# number of rings (size 3 to 8) (size 9 to 14) (size 15 to 20)
#    0.000    1.556    0.000    5.667    0.000    9.333 
#    0.000    0.556    0.000    0.000    0.000    0.000 
#    0.000    0.000    0.000    0.000    0.000    0.000 
#
# Total GULP energy -100396.152009 kJ/mol
# GULP energy per Si atom -5577.564000 kJ/mol
# Density = 2.400050 g / cm^3
# Si number density = 24.055251 Si / 1000 Ang^3
#
#
#
# Elastic Constant Matrix: (Units=GPa)
#
#
# Indices 1 2 3 4 5 6 
#
# 1 49.3208 9.1697 2.9202 0.0000 -2.7202 0.0000
# 2 9.1697 136.9505 33.6814 0.0000 -8.7402 0.0000
# 3 2.9202 33.6814 89.2560 0.0000 6.9435 0.0000
# 4 0.0000 0.0000 0.0000 -7.6197 0.0000 -13.6112
# 5 -2.7202 -8.7402 6.9435 0.0000 29.4044 0.0000
# 6 0.0000 0.0000 0.0000 -13.6112 0.0000 -5.9235
#
#
#
# Elastic Compliance Matrix: (Units=1/GPa)
#
#
# Indices 1 2 3 4 5 6 
#
# 1 0.020608 -0.001189 -0.000353 0.000000 0.001636 0.000000
# 2 -0.001189 0.008418 -0.003386 0.000000 0.003192 0.000000
# 3 -0.000353 -0.003386 0.012809 0.000000 -0.004064 0.000000
# 4 0.000000 0.000000 0.000000 0.042271 0.000000 -0.097133
# 5 0.001636 0.003192 -0.004064 0.000000 0.036068 0.000000
# 6 0.000000 0.000000 0.000000 -0.097133 0.000000 0.054376
#
#
# Mechanical properties :
#
#
# Convention : Reuss Voigt Hill
#
# Bulk Modulus (GPa) = 31.26998 40.78554 36.02776
# Shear Modulus (GPa) = 25.63251 18.48931 22.06091
#
# Velocity S-wave (km/s) = 3.26785 2.77540 3.03164
# Velocity P-wave (km/s) = 5.22167 5.22133 5.22150
#
# Compressibility (1/GPa) = 0.03197955
#
# Stress axis : x y z
#
# Youngs Moduli (GPa) = 48.52589 118.79399 78.06921
#
# Poissons Ratio (x) = 0.14119 0.02756
# Poissons Ratio (y) = 0.05768 0.26434
# Poissons Ratio (z) = 0.01713 0.40223
#
# Static dielectric constant tensor:
#      x y z
#    x 1.976900 0.000000 0.043890 
#    y 0.000000 1.878080 0.000000 
#    z 0.043890 0.000000 2.001350 
# 
# From -- ./inp_files/119228.got.cif
#   From: 2010.05.17/outbox.cif.g08.bks.cpg/sg12_60_cif.got.tgz:119228.got - 2010.06.03 13:09:07.
