data_PCOD9210378
_publ_section_title
;
Structure prediction by ZEFSAII (Michael W. Deem and Ramdas Pophale) SiO2 
 PCOD9210378
Probable space group: C 2/M
;
_chemical_formula_sum "Si O2"
_cell_formula_units_Z 32
_cell_length_a 15.460398
_cell_length_b 13.774720
_cell_length_c 9.612858
_cell_angle_alpha 90.000000
_cell_angle_beta 142.950769
_cell_angle_gamma 90.000000
_cell_volume 1233.427892
_symmetry_space_group_name_H-M "C 2/M"
_symmetry_group_IT_number 12
_symmetry_cell_setting 'monoclinic'
loop_
_space_group_symop_operation_xyz
x,y,z
-x,y,-z
-x,-y,-z
x,-y,z
1/2+x,1/2+y,z
1/2-x,1/2+y,-z
1/2-x,1/2-y,-z
1/2+x,1/2-y,z
loop_
_atom_site_type_symbol
_atom_site_label
_atom_site_fract_x
_atom_site_fract_y
_atom_site_fract_z
Si Si1 0.892163 0.892864 0.203681
Si Si2 0.075509 0.355487 0.232908
Si Si3 0.119666 0.134042 0.267340
Si Si4 0.382539 0.824162 0.248523
O O1 0.868023 0.792212 0.256342
O O2 0.041391 0.885223 0.314682
O O3 0.875790 0.000000 0.247254
O O4 0.766202 0.878867 0.928982
O O5 0.128605 0.249232 0.251827
O O6 0.215178 0.397044 0.493339
O O7 0.948585 0.339146 0.180944
O O8 0.000000 0.400087 0.000000
O O9 0.000000 0.099911 0.000000
O O10 0.500000 0.865212 0.500000
#
# Coordination Sequence:
#
# PCOD9210378 Si02
#       4
#     8   8   8   8
#     4  10  22  37  57  88 121 155 202 255 304 358
#     4   9  18  34  58  85 115 155 200 245 299 361
#     4   9  17  32  56  84 116 154 198 247 299 358
#     4  10  21  39  62  86 119 162 203 248 305 365
#
# _framework density 25.943957999999999
#
# number of rings (size 3 to 8) (size 9 to 14) (size 15 to 20)
#    0.000    2.500    0.000    1.500    0.000   13.500 
#    0.000    1.250    0.000    1.500    0.000    0.000 
#    0.000    0.000    0.000    0.000    0.000    0.000 
#
# Total GULP energy -89224.815978 kJ/mol
# GULP energy per Si atom -5576.550999 kJ/mol
# Density = 2.588491 g / cm^3
# Si number density = 25.943958 Si / 1000 Ang^3
#
#
#
# Elastic Constant Matrix: (Units=GPa)
#
#
# Indices 1 2 3 4 5 6 
#
# 1 78.0113 9.8933 40.5126 0.0000 11.4942 0.0000
# 2 9.8933 158.9499 25.0702 0.0000 1.8896 0.0000
# 3 40.5126 25.0702 226.0789 0.0000 6.5775 0.0000
# 4 0.0000 0.0000 0.0000 46.9429 0.0000 73.5530
# 5 11.4942 1.8896 6.5775 0.0000 55.2064 0.0000
# 6 0.0000 0.0000 0.0000 73.5530 0.0000 32.2578
#
#
#
# Elastic Compliance Matrix: (Units=1/GPa)
#
#
# Indices 1 2 3 4 5 6 
#
# 1 0.014568 -0.000484 -0.002478 0.000000 -0.002721 0.000000
# 2 -0.000484 0.006420 -0.000624 0.000000 -0.000045 0.000000
# 3 -0.002478 -0.000624 0.004938 0.000000 -0.000051 0.000000
# 4 0.000000 0.000000 0.000000 -0.008280 0.000000 0.018880
# 5 -0.002721 -0.000045 -0.000051 0.000000 0.018688 0.000000
# 6 0.000000 0.000000 0.000000 0.018880 0.000000 -0.012050
#
#
# Mechanical properties :
#
#
# Convention : Reuss Voigt Hill
#
# Bulk Modulus (GPa) = 53.31801 68.22135 60.76968
# Shear Modulus (GPa) = 132.60369 52.71903 92.66136
#
# Velocity S-wave (km/s) = 7.15699 4.51270 5.98277
# Velocity P-wave (km/s) = 9.42829 7.31474 8.43795
#
# Compressibility (1/GPa) = 0.01875539
#
# Stress axis : x y z
#
# Youngs Moduli (GPa) = 68.64530 155.75500 202.51491
#
# Poissons Ratio (x) = 0.07532 0.50177
# Poissons Ratio (y) = 0.03319 0.12637
# Poissons Ratio (z) = 0.17008 0.09719
#
# Static dielectric constant tensor:
#      x y z
#    x 1.992420 0.000000 -0.072140 
#    y 0.000000 2.057030 0.000000 
#    z -0.072140 0.000000 2.113360 
# 
# From -- ./inp_files/156793.got.cif
#   From: 2010.05.17/outbox.cif.g08.bks.cpg/sg12_79_cif.got.tgz:156793.got - 2010.06.03 13:09:07.
