data_PCOD9210446
_publ_section_title
;
Structure prediction by ZEFSAII (Michael W. Deem and Ramdas Pophale) SiO2 
 PCOD9210446
Probable space group: C 2/M
;
_chemical_formula_sum "Si O2"
_cell_formula_units_Z 56
_cell_length_a 11.283958
_cell_length_b 18.262747
_cell_length_c 13.804708
_cell_angle_alpha 90.000000
_cell_angle_beta 70.060343
_cell_angle_gamma 90.000000
_cell_volume 2674.279587
_symmetry_space_group_name_H-M "C 2/M"
_symmetry_group_IT_number 12
_symmetry_cell_setting 'monoclinic'
loop_
_space_group_symop_operation_xyz
x,y,z
-x,y,-z
-x,-y,-z
x,-y,z
1/2+x,1/2+y,z
1/2-x,1/2+y,-z
1/2-x,1/2-y,-z
1/2+x,1/2-y,z
loop_
_atom_site_type_symbol
_atom_site_label
_atom_site_fract_x
_atom_site_fract_y
_atom_site_fract_z
Si Si1 0.925566 0.912014 0.719002
Si Si2 0.185762 0.842257 0.624804
Si Si3 0.392527 0.221101 0.959757
Si Si4 0.917193 0.582463 0.607506
Si Si5 0.023367 0.647202 0.759019
Si Si6 0.785118 0.809960 0.604488
Si Si7 0.669728 0.917699 0.899167
O O1 0.865417 0.865597 0.647021
O O2 0.816834 0.907779 0.830654
O O3 0.054318 0.868692 0.706083
O O4 0.944261 0.000000 0.693512
O O5 0.276763 0.911498 0.607047
O O6 0.167263 0.817897 0.518400
O O7 0.271051 0.774755 0.642452
O O8 0.456131 0.212060 0.837140
O O9 0.500000 0.256299 0.000000
O O10 0.250000 0.250000 0.000000
O O11 0.371073 0.140266 0.010225
O O12 0.965113 0.500000 0.602747
O O13 0.925029 0.611770 0.714019
O O14 0.000000 0.620246 0.500000
O O15 0.138667 0.667948 0.656598
O O16 0.090722 0.598258 0.822886
O O17 0.649079 0.000000 0.937334
#
# Coordination Sequence:
#
# PCOD9210446 Si02
#       7
#     8   8   8   8   8   8   8
#     4  10  22  40  63  89 122 166 213 264 318 373
#     4  11  23  37  59  84 125 164 212 254 314 376
#     4  10  23  41  68  98 124 161 209 264 329 386
#     4  11  23  37  57  86 127 168 207 255 310 376
#     4  10  21  39  62  89 122 162 209 255 315 375
#     4  10  23  37  58  87 118 165 210 261 308 373
#     4   9  20  40  65  93 123 158 210 264 313 376
#
# _framework density 20.940218999999999
#
# number of rings (size 3 to 8) (size 9 to 14) (size 15 to 20)
#    0.000    1.857    1.429    1.286    4.000    7.714 
#    0.000    0.000    0.000    0.429    0.000    0.000 
#    0.000    0.000    0.000    0.000    0.000    0.000 
#
# Total GULP energy -155981.695461 kJ/mol
# GULP energy per Si atom -5570.774838 kJ/mol
# Density = 2.089256 g / cm^3
# Si number density = 20.940219 Si / 1000 Ang^3
#
#
#
# Elastic Constant Matrix: (Units=GPa)
#
#
# Indices 1 2 3 4 5 6 
#
# 1 92.2365 18.0892 34.5624 0.0000 -29.1396 0.0000
# 2 18.0892 80.5102 20.0585 0.0000 -3.4121 0.0000
# 3 34.5624 20.0585 59.3990 0.0000 -13.1356 0.0000
# 4 0.0000 0.0000 0.0000 20.9670 0.0000 -7.6391
# 5 -29.1396 -3.4121 -13.1356 0.0000 32.1490 0.0000
# 6 0.0000 0.0000 0.0000 -7.6391 0.0000 14.5261
#
#
#
# Elastic Compliance Matrix: (Units=1/GPa)
#
#
# Indices 1 2 3 4 5 6 
#
# 1 0.017977 -0.001749 -0.006934 0.000000 0.013275 0.000000
# 2 -0.001749 0.013739 -0.004012 0.000000 -0.001767 0.000000
# 3 -0.006934 -0.004012 0.022801 0.000000 0.002606 0.000000
# 4 0.000000 0.000000 0.000000 0.058998 0.000000 0.031027
# 5 0.013275 -0.001767 0.002606 0.000000 0.044015 0.000000
# 6 0.000000 0.000000 0.000000 0.031027 0.000000 0.085158
#
#
# Mechanical properties :
#
#
# Convention : Reuss Voigt Hill
#
# Bulk Modulus (GPa) = 34.33345 41.95177 38.14261
# Shear Modulus (GPa) = 17.99941 24.15747 21.07844
#
# Velocity S-wave (km/s) = 2.93501 3.40021 3.17614
# Velocity P-wave (km/s) = 5.28368 5.95758 5.63072
#
# Compressibility (1/GPa) = 0.02912612
#
# Stress axis : x y z
#
# Youngs Moduli (GPa) = 55.62696 72.78796 43.85769
#
# Poissons Ratio (x) = 0.12730 0.30410
# Poissons Ratio (y) = 0.09729 0.17597
# Poissons Ratio (z) = 0.38571 0.29205
#
# Static dielectric constant tensor:
#      x y z
#    x 1.779560 0.000000 -0.031830 
#    y 0.000000 1.861420 0.000000 
#    z -0.031830 0.000000 1.768820 
# 
# From -- ./inp_files/206599.got.cif
#   From: 2010.05.17/outbox.cif.g08.bks.cpg/sg12_104_cif.got.tgz:206599.got - 2010.06.03 13:09:07.
