data_PCOD9210104
_publ_section_title
;
Structure prediction by ZEFSAII (Michael W. Deem and Ramdas Pophale) SiO2 
 PCOD9210104
Probable space group: C 2/M
;
_chemical_formula_sum "Si O2"
_cell_formula_units_Z 48
_cell_length_a 19.982897
_cell_length_b 10.608841
_cell_length_c 24.517382
_cell_angle_alpha 90.000000
_cell_angle_beta 152.110342
_cell_angle_gamma 90.000000
_cell_volume 2431.269568
_symmetry_space_group_name_H-M "C 2/M"
_symmetry_group_IT_number 12
_symmetry_cell_setting 'monoclinic'
loop_
_space_group_symop_operation_xyz
x,y,z
-x,y,-z
-x,-y,-z
x,-y,z
1/2+x,1/2+y,z
1/2-x,1/2+y,-z
1/2-x,1/2-y,-z
1/2+x,1/2-y,z
loop_
_atom_site_type_symbol
_atom_site_label
_atom_site_fract_x
_atom_site_fract_y
_atom_site_fract_z
Si Si1 0.873588 0.856013 0.364518
Si Si2 0.194957 0.352690 0.916558
Si Si3 0.665280 0.638906 0.254747
Si Si4 0.588869 0.356249 0.013964
Si Si5 0.382134 0.774098 0.671030
Si Si6 0.920716 0.144737 0.583680
O O1 0.760710 0.752266 0.300979
O O2 0.000000 0.857541 0.500000
O O3 0.949773 0.820156 0.362770
O O4 0.816841 0.000000 0.320178
O O5 0.238191 0.500000 0.958066
O O6 0.023182 0.348903 0.790481
O O7 0.250000 0.250000 0.000000
O O8 0.264639 0.311152 0.908457
O O9 0.731016 0.500000 0.294727
O O10 0.520175 0.641354 0.115354
O O11 0.635902 0.664955 0.297004
O O12 0.620684 0.500000 0.055383
O O13 0.500000 0.295076 0.000000
O O14 0.229389 0.843373 0.557245
O O15 0.410781 0.725342 0.630882
O O16 0.939618 0.000000 0.612919
#
# Coordination Sequence:
#
# PCOD9210104 Si02
#       6
#     8   8   8   8   8   8
#     4  10  21  39  60  83 117 159 199 243 301 361
#     4  11  23  40  65  93 122 160 205 251 306 368
#     4  11  22  38  62  89 119 157 202 253 304 360
#     4   9  20  39  60  85 120 156 195 246 306 359
#     4  11  22  38  61  91 122 162 208 253 301 365
#     4  10  22  40  59  85 125 167 204 253 307 359
#
# _framework density 19.742771999999999
#
# number of rings (size 3 to 8) (size 9 to 14) (size 15 to 20)
#    0.000    1.667    3.333    1.000    2.333    1.667 
#    0.000    0.833    0.000    1.000    0.000    0.000 
#    0.000    0.000    0.000    0.000    0.000    0.000 
#
# Total GULP energy -133793.259551 kJ/mol
# GULP energy per Si atom -5574.719148 kJ/mol
# Density = 1.969784 g / cm^3
# Si number density = 19.742772 Si / 1000 Ang^3
#
#
#
# Elastic Constant Matrix: (Units=GPa)
#
#
# Indices 1 2 3 4 5 6 
#
# 1 96.9054 45.2835 9.0649 0.0000 10.0494 0.0000
# 2 45.2835 84.9287 29.1217 0.0014 11.6939 0.0001
# 3 9.0649 29.1217 61.9367 0.0014 8.1530 0.0001
# 4 0.0000 0.0014 0.0014 22.3469 0.0002 6.8517
# 5 10.0494 11.6939 8.1530 0.0002 30.2200 0.0000
# 6 0.0000 0.0001 0.0001 6.8517 0.0000 25.5630
#
#
#
# Elastic Compliance Matrix: (Units=1/GPa)
#
#
# Indices 1 2 3 4 5 6 
#
# 1 0.014026 -0.007840 0.001916 0.000000 -0.002148 0.000000
# 2 -0.007840 0.018851 -0.007360 -0.000001 -0.002702 0.000000
# 3 0.001916 -0.007360 0.019736 -0.000001 -0.003114 0.000000
# 4 0.000000 -0.000001 -0.000001 0.048756 0.000000 -0.013068
# 5 -0.002148 -0.002702 -0.003114 0.000000 0.035690 0.000000
# 6 0.000000 0.000000 0.000000 -0.013068 0.000000 0.042622
#
#
# Mechanical properties :
#
#
# Convention : Reuss Voigt Hill
#
# Bulk Modulus (GPa) = 38.39622 45.63453 42.01538
# Shear Modulus (GPa) = 23.26335 26.31270 24.78803
#
# Velocity S-wave (km/s) = 3.43639 3.65468 3.54722
# Velocity P-wave (km/s) = 5.93595 6.40107 6.17289
#
# Compressibility (1/GPa) = 0.02604423
#
# Stress axis : x y z
#
# Youngs Moduli (GPa) = 71.29369 53.04850 50.66995
#
# Poissons Ratio (x) = 0.41591 -0.09709
# Poissons Ratio (y) = 0.55896 0.37294
# Poissons Ratio (z) = -0.13661 0.39045
#
# Static dielectric constant tensor:
#      x y z
#    x 1.742450 0.000000 0.017400 
#    y 0.000000 1.684400 0.000000 
#    z 0.017400 0.000000 1.693570 
# 
# From -- ./inp_files/153520.got.cif
#   From: 2010.05.17/outbox.cif.g08.bks.cpg/sg12_77_cif.got.tgz:153520.got - 2010.06.03 13:09:07.
