data_PCOD9210432
_publ_section_title
;
Structure prediction by ZEFSAII (Michael W. Deem and Ramdas Pophale) SiO2 
 PCOD9210432
Probable space group: C 2/M
;
_chemical_formula_sum "Si O2"
_cell_formula_units_Z 56
_cell_length_a 23.728618
_cell_length_b 8.945083
_cell_length_c 15.995733
_cell_angle_alpha 90.000000
_cell_angle_beta 123.306302
_cell_angle_gamma 90.000000
_cell_volume 2837.499384
_symmetry_space_group_name_H-M "C 2/M"
_symmetry_group_IT_number 12
_symmetry_cell_setting 'monoclinic'
loop_
_space_group_symop_operation_xyz
x,y,z
-x,y,-z
-x,-y,-z
x,-y,z
1/2+x,1/2+y,z
1/2-x,1/2+y,-z
1/2-x,1/2-y,-z
1/2+x,1/2-y,z
loop_
_atom_site_type_symbol
_atom_site_label
_atom_site_fract_x
_atom_site_fract_y
_atom_site_fract_z
Si Si1 0.155453 0.669985 0.478594
Si Si2 0.448099 0.820857 0.032630
Si Si3 0.469261 0.678880 0.561089
Si Si4 0.551585 0.320085 0.790999
Si Si5 0.811981 0.820505 0.853111
Si Si6 0.709635 0.679066 0.889637
Si Si7 0.811781 0.172338 0.658844
O O1 0.132403 0.500000 0.466950
O O2 0.107859 0.775006 0.493401
O O3 0.153317 0.724112 0.380992
O O4 0.232250 0.678168 0.572615
O O5 0.469904 0.757816 0.140391
O O6 0.441325 0.000000 0.030588
O O7 0.500000 0.783414 0.000000
O O8 0.376059 0.746486 0.953486
O O9 0.500000 0.737771 0.500000
O O10 0.475278 0.500000 0.565191
O O11 0.508297 0.730470 0.675965
O O12 0.544741 0.500000 0.795181
O O13 0.630411 0.288607 0.836043
O O14 0.744336 0.749078 0.836003
O O15 0.820959 0.785805 0.762466
O O16 0.809751 0.000000 0.861260
O O17 0.718088 0.500000 0.896175
O O18 0.750000 0.750000 0.000000
O O19 0.834272 0.000000 0.665425
#
# Coordination Sequence:
#
# PCOD9210432 Si02
#       7
#     8   8   8   8   8   8   8
#     4  10  21  39  62  89 120 154 199 251 302 353
#     4  11  25  42  61  90 125 160 202 251 303 360
#     4  10  23  42  63  88 121 162 205 247 298 363
#     4  10  23  42  63  88 119 162 205 245 301 363
#     4  11  23  39  62  90 120 158 200 245 299 360
#     4  11  22  38  61  89 119 153 197 246 296 354
#     4   9  21  40  61  88 120 157 198 244 301 361
#
# _framework density 19.735686999999999
#
# number of rings (size 3 to 8) (size 9 to 14) (size 15 to 20)
#    0.000    1.714    1.429    1.714    4.000    4.286 
#    0.000    0.000    0.000    0.000    0.000    0.000 
#    0.000    0.000    0.000    0.000    0.000    0.000 
#
# Total GULP energy -156477.181546 kJ/mol
# GULP energy per Si atom -5588.470770 kJ/mol
# Density = 1.969077 g / cm^3
# Si number density = 19.735687 Si / 1000 Ang^3
#
#
#
# Elastic Constant Matrix: (Units=GPa)
#
#
# Indices 1 2 3 4 5 6 
#
# 1 76.8475 22.3452 10.9773 0.0000 -21.9078 0.0000
# 2 22.3452 26.4944 26.0315 0.0000 -8.8354 0.0000
# 3 10.9773 26.0315 78.7697 0.0000 -27.4545 0.0000
# 4 0.0000 0.0000 0.0000 17.7492 0.0000 -6.7135
# 5 -21.9078 -8.8354 -27.4545 0.0000 28.5248 0.0000
# 6 0.0000 0.0000 0.0000 -6.7135 0.0000 31.3498
#
#
#
# Elastic Compliance Matrix: (Units=1/GPa)
#
#
# Indices 1 2 3 4 5 6 
#
# 1 0.026310 -0.027863 0.014411 0.000000 0.025447 0.000000
# 2 -0.027863 0.085408 -0.033979 0.000000 -0.027649 0.000000
# 3 0.014411 -0.033979 0.033264 0.000000 0.032559 0.000000
# 4 0.000000 0.000000 0.000000 0.061306 0.000000 0.013129
# 5 0.025447 -0.027649 0.032559 0.000000 0.077374 0.000000
# 6 0.000000 0.000000 0.000000 0.013129 0.000000 0.034710
#
#
# Mechanical properties :
#
#
# Convention : Reuss Voigt Hill
#
# Bulk Modulus (GPa) = 19.95198 33.42440 26.68819
# Shear Modulus (GPa) = 11.62946 23.70862 17.66904
#
# Velocity S-wave (km/s) = 2.43010 3.46975 2.99538
# Velocity P-wave (km/s) = 4.24328 5.74674 5.05126
#
# Compressibility (1/GPa) = 0.05012033
#
# Stress axis : x y z
#
# Youngs Moduli (GPa) = 38.00772 11.70849 30.06214
#
# Poissons Ratio (x) = 0.32623 -0.43321
# Poissons Ratio (y) = 1.05900 1.02148
# Poissons Ratio (z) = -0.54771 0.39784
#
# Static dielectric constant tensor:
#      x y z
#    x 1.683740 0.000000 -0.004870 
#    y 0.000000 1.662600 0.000000 
#    z -0.004870 0.000000 1.685900 
# 
# From -- ./inp_files/238879.got.cif
#   From: 2010.05.17/outbox.cif.g08.bks.cpg/sg12_120_cif.got.tgz:238879.got - 2010.06.03 13:09:07.
