data_PCOD9210421
_publ_section_title
;
Structure prediction by ZEFSAII (Michael W. Deem and Ramdas Pophale) SiO2 
 PCOD9210421
Probable space group: C 2/M
;
_chemical_formula_sum "Si O2"
_cell_formula_units_Z 52
_cell_length_a 18.675907
_cell_length_b 9.747257
_cell_length_c 18.221431
_cell_angle_alpha 90.000000
_cell_angle_beta 54.733781
_cell_angle_gamma 90.000000
_cell_volume 2708.265054
_symmetry_space_group_name_H-M "C 2/M"
_symmetry_group_IT_number 12
_symmetry_cell_setting 'monoclinic'
loop_
_space_group_symop_operation_xyz
x,y,z
-x,y,-z
-x,-y,-z
x,-y,z
1/2+x,1/2+y,z
1/2-x,1/2+y,-z
1/2-x,1/2-y,-z
1/2+x,1/2-y,z
loop_
_atom_site_type_symbol
_atom_site_label
_atom_site_fract_x
_atom_site_fract_y
_atom_site_fract_z
Si Si1 0.750405 0.661827 0.426101
Si Si2 0.559837 0.161724 0.760020
Si Si3 0.074748 0.160402 0.894244
Si Si4 0.778219 0.771535 0.083165
Si Si5 0.772993 0.000000 0.971400
Si Si6 0.405328 0.337405 0.593019
Si Si7 0.593460 0.159636 0.261490
O O1 0.740167 0.500000 0.449753
O O2 0.750000 0.750000 0.500000
O O3 0.842776 0.678843 0.330055
O O4 0.671091 0.701151 0.418832
O O5 0.549937 0.253567 0.837502
O O6 0.489077 0.200011 0.739878
O O7 0.546403 0.000000 0.784897
O O8 0.162563 0.219238 0.879655
O O9 0.087643 0.000000 0.868433
O O10 0.000000 0.171176 0.000000
O O11 0.680894 0.823977 0.161515
O O12 0.812943 0.879187 0.002526
O O13 0.770225 0.621307 0.054538
O O14 0.500000 0.315280 0.500000
O O15 0.396159 0.500000 0.614220
O O16 0.399269 0.252571 0.671188
O O17 0.583312 0.000000 0.288011
#
# Coordination Sequence:
#
# PCOD9210421 Si02
#       7
#     8   8   8   8   4   8   8
#     4  10  21  39  62  88 121 152 192 241 295 356
#     4  10  24  40  58  88 120 156 200 244 296 354
#     4  11  25  40  59  87 123 157 200 248 295 349
#     4  11  23  41  60  89 115 157 199 245 296 354
#     4  10  24  38  66  82 120 150 204 246 298 344
#     4  10  22  39  61  89 120 155 199 243 294 358
#     4  11  23  39  62  88 120 154 201 250 293 353
#
# _framework density 19.200485
#
# number of rings (size 3 to 8) (size 9 to 14) (size 15 to 20)
#    0.000    1.538    1.538    1.846    6.462    2.462 
#    0.000    0.000    0.000    0.000    0.000    0.000 
#    0.000    0.000    0.000    0.000    0.000    0.000 
#
# Total GULP energy -144818.170500 kJ/mol
# GULP energy per Si atom -5569.929635 kJ/mol
# Density = 1.915678 g / cm^3
# Si number density = 19.200485 Si / 1000 Ang^3
#
#
#
# Elastic Constant Matrix: (Units=GPa)
#
#
# Indices 1 2 3 4 5 6 
#
# 1 164.9065 50.8576 44.1595 0.0000 16.7146 0.0000
# 2 50.8576 98.9754 40.9945 0.0000 36.0118 0.0000
# 3 44.1595 40.9945 48.7501 0.0000 25.2879 0.0000
# 4 0.0000 0.0000 0.0000 4.7919 0.0000 -7.7565
# 5 16.7146 36.0118 25.2879 0.0000 36.2937 0.0000
# 6 0.0000 0.0000 0.0000 -7.7565 0.0000 -1.3258
#
#
#
# Elastic Compliance Matrix: (Units=1/GPa)
#
#
# Indices 1 2 3 4 5 6 
#
# 1 0.008504 -0.002725 -0.007490 0.000000 0.004006 0.000000
# 2 -0.002725 0.019016 -0.006868 0.000000 -0.012828 0.000000
# 3 -0.007490 -0.006868 0.043454 0.000000 -0.020013 0.000000
# 4 0.000000 0.000000 0.000000 0.019932 0.000000 -0.116610
# 5 0.004006 -0.012828 -0.020013 0.000000 0.052380 0.000000
# 6 0.000000 0.000000 0.000000 -0.116610 0.000000 -0.072040
#
#
# Mechanical properties :
#
#
# Convention : Reuss Voigt Hill
#
# Bulk Modulus (GPa) = 27.16812 64.96169 46.06490
# Shear Modulus (GPa) = 42.48792 19.72665 31.10729
#
# Velocity S-wave (km/s) = 4.70920 3.20879 4.02945
# Velocity P-wave (km/s) = 6.61432 6.90183 6.75960
#
# Compressibility (1/GPa) = 0.03680785
#
# Stress axis : x y z
#
# Youngs Moduli (GPa) = 117.59073 52.58797 23.01304
#
# Poissons Ratio (x) = 0.14331 0.17236
# Poissons Ratio (y) = 0.32046 0.15805
# Poissons Ratio (z) = 0.88072 0.36117
#
# Static dielectric constant tensor:
#      x y z
#    x 1.668840 0.000000 -0.022820 
#    y 0.000000 1.640780 0.000000 
#    z -0.022820 0.000000 1.661120 
# 
# From -- ./inp_files/274957.got.cif
#   From: 2010.05.17/outbox.cif.g08.bks.cpg/sg12_138_cif.got.tgz:274957.got - 2010.06.03 13:09:07.
