data_PCOD9210872
_publ_section_title
;
Structure prediction by ZEFSAII (Michael W. Deem and Ramdas Pophale) SiO2 
 PCOD9210872
Probable space group: C 2/M
;
_chemical_formula_sum "Si O2"
_cell_formula_units_Z 56
_cell_length_a 15.183303
_cell_length_b 21.462899
_cell_length_c 8.409230
_cell_angle_alpha 90.000000
_cell_angle_beta 107.963119
_cell_angle_gamma 90.000000
_cell_volume 2606.801308
_symmetry_space_group_name_H-M "C 2/M"
_symmetry_group_IT_number 12
_symmetry_cell_setting 'monoclinic'
loop_
_space_group_symop_operation_xyz
x,y,z
-x,y,-z
-x,-y,-z
x,-y,z
1/2+x,1/2+y,z
1/2-x,1/2+y,-z
1/2-x,1/2-y,-z
1/2+x,1/2-y,z
loop_
_atom_site_type_symbol
_atom_site_label
_atom_site_fract_x
_atom_site_fract_y
_atom_site_fract_z
Si Si1 0.583838 0.314083 0.431297
Si Si2 0.792778 0.123706 0.946487
Si Si3 0.750864 0.147249 0.254028
Si Si4 0.065729 0.070348 0.187752
Si Si5 0.395987 0.925722 0.255238
Si Si6 0.100285 0.572898 0.361498
Si Si7 0.106065 0.248788 0.116456
O O1 0.500000 0.297683 0.500000
O O2 0.674725 0.322014 0.588312
O O3 0.561450 0.378582 0.323714
O O4 0.599437 0.264362 0.301387
O O5 0.835020 0.075337 0.843237
O O6 0.683891 0.117496 0.856356
O O7 0.846243 0.187680 0.935543
O O8 0.804347 0.112480 0.140623
O O9 0.684615 0.104137 0.320300
O O10 0.681112 0.197173 0.137055
O O11 0.046831 0.000000 0.231091
O O12 0.000000 0.085445 0.000000
O O13 0.393557 0.920269 0.445000
O O14 0.497793 0.904849 0.255051
O O15 0.383878 0.000000 0.209990
O O16 0.102101 0.500000 0.327458
O O17 0.000000 0.257650 0.000000
#
# Coordination Sequence:
#
# PCOD9210872 Si02
#       7
#     8   8   8   8   8   8   8
#     4  11  23  43  65  92 125 161 205 265 314 367
#     4  11  22  38  62  86 123 162 205 252 313 369
#     4  12  25  39  63  94 123 160 213 257 313 373
#     4  10  21  39  64  92 126 166 205 245 309 381
#     4   9  19  38  62  88 124 167 205 248 307 373
#     4   9  20  39  61  89 125 163 206 257 308 360
#     4  11  25  45  64  85 124 165 209 260 315 373
#
# _framework density 21.482265000000002
#
# number of rings (size 3 to 8) (size 9 to 14) (size 15 to 20)
#    0.000    1.571    0.000    7.286    2.000    3.143 
#    2.571    1.429    0.000    0.000    0.000    0.000 
#    0.000    0.000    0.000    0.000    0.000    0.000 
#
# Total GULP energy -156416.209584 kJ/mol
# GULP energy per Si atom -5586.293199 kJ/mol
# Density = 2.143337 g / cm^3
# Si number density = 21.482265 Si / 1000 Ang^3
#
#
#
# Elastic Constant Matrix: (Units=GPa)
#
#
# Indices 1 2 3 4 5 6 
#
# 1 109.7432 -0.4156 41.7992 0.0000 0.9540 0.0000
# 2 -0.4156 26.6540 0.1943 0.0000 5.1334 0.0000
# 3 41.7992 0.1943 60.7408 0.0000 17.9232 0.0000
# 4 0.0000 0.0000 0.0000 33.0817 0.0000 1.7116
# 5 0.9540 5.1334 17.9232 0.0000 52.3391 0.0000
# 6 0.0000 0.0000 0.0000 1.7116 0.0000 24.4653
#
#
#
# Elastic Compliance Matrix: (Units=1/GPa)
#
#
# Indices 1 2 3 4 5 6 
#
# 1 0.012786 -0.000332 -0.009721 0.000000 0.003128 0.000000
# 2 -0.000332 0.038314 0.001350 0.000000 -0.004214 0.000000
# 3 -0.009721 0.001350 0.025736 0.000000 -0.008768 0.000000
# 4 0.000000 0.000000 0.000000 0.030338 0.000000 -0.002122
# 5 0.003128 -0.004214 -0.008768 0.000000 0.022465 0.000000
# 6 0.000000 0.000000 0.000000 -0.002122 0.000000 0.041023
#
#
# Mechanical properties :
#
#
# Convention : Reuss Voigt Hill
#
# Bulk Modulus (GPa) = 16.82678 31.14374 23.98526
# Shear Modulus (GPa) = 24.05238 32.34790 28.20014
#
# Velocity S-wave (km/s) = 3.34973 3.88467 3.62707
# Velocity P-wave (km/s) = 4.77607 5.88640 5.36006
#
# Compressibility (1/GPa) = 0.05942906
#
# Stress axis : x y z
#
# Youngs Moduli (GPa) = 78.20880 26.09991 38.85612
#
# Poissons Ratio (x) = 0.00867 0.37772
# Poissons Ratio (y) = 0.02599 -0.05244
# Poissons Ratio (z) = 0.76027 -0.03522
#
# Static dielectric constant tensor:
#      x y z
#    x 1.767060 0.000000 0.120610 
#    y 0.000000 1.787750 0.000000 
#    z 0.120610 0.000000 1.607170 
# 
# From -- ./inp_files/65468.got.cif
#   From: 2010.05.17/outbox.cif.g08.bks.cpg/sg12_33_cif.got.tgz:65468.got - 2010.06.03 13:09:07.
