data_PCOD9210474
_publ_section_title
;
Structure prediction by ZEFSAII (Michael W. Deem and Ramdas Pophale) SiO2 
 PCOD9210474
Probable space group: C 2/M
;
_chemical_formula_sum "Si O2"
_cell_formula_units_Z 40
_cell_length_a 9.285974
_cell_length_b 16.310953
_cell_length_c 12.526287
_cell_angle_alpha 90.000000
_cell_angle_beta 86.160335
_cell_angle_gamma 90.000000
_cell_volume 1893.011369
_symmetry_space_group_name_H-M "C 2/M"
_symmetry_group_IT_number 12
_symmetry_cell_setting 'monoclinic'
loop_
_space_group_symop_operation_xyz
x,y,z
-x,y,-z
-x,-y,-z
x,-y,z
1/2+x,1/2+y,z
1/2-x,1/2+y,-z
1/2-x,1/2-y,-z
1/2+x,1/2-y,z
loop_
_atom_site_type_symbol
_atom_site_label
_atom_site_fract_x
_atom_site_fract_y
_atom_site_fract_z
Si Si1 0.167479 0.168458 0.965155
Si Si2 0.615608 0.401341 0.743549
Si Si3 0.715178 0.597138 0.284251
Si Si4 0.328551 0.336347 0.488257
Si Si5 0.112832 0.592708 0.911278
O O1 0.184051 0.145720 0.840168
O O2 0.250000 0.250000 0.000000
O O3 0.238281 0.095793 0.030877
O O4 0.000000 0.174360 0.000000
O O5 0.622563 0.500000 0.757930
O O6 0.445812 0.376071 0.742584
O O7 0.686685 0.377399 0.626899
O O8 0.718334 0.500000 0.265259
O O9 0.730640 0.612504 0.408571
O O10 0.842802 0.632919 0.203463
O O11 0.500000 0.327498 0.500000
O O12 0.250000 0.250000 0.500000
O O13 0.060052 0.500000 0.894056
O O14 0.000000 0.631211 0.000000
#
# Coordination Sequence:
#
# PCOD9210474 Si02
#       5
#     8   8   8   8   8
#     4  12  25  39  60  91 127 165 208 260 314 376
#     4  10  21  39  66  93 121 163 216 259 305 372
#     4   9  18  37  65  91 120 158 208 256 302 366
#     4  10  22  39  63  91 124 160 203 255 314 366
#     4  10  21  39  62  90 124 162 204 255 313 370
#
# _framework density 21.130351999999998
#
# number of rings (size 3 to 8) (size 9 to 14) (size 15 to 20)
#    0.000    1.800    2.000    1.800    2.800    3.200 
#    3.600    0.000    0.000    1.200    0.000    0.000 
#    0.000    0.000    0.000    0.000    0.000    0.000 
#
# Total GULP energy -111567.004617 kJ/mol
# GULP energy per Si atom -5578.350231 kJ/mol
# Density = 2.108226 g / cm^3
# Si number density = 21.130352 Si / 1000 Ang^3
#
#
#
# Elastic Constant Matrix: (Units=GPa)
#
#
# Indices 1 2 3 4 5 6 
#
# 1 51.7538 12.2548 42.9694 0.0000 -22.3594 0.0000
# 2 12.2548 61.3600 30.5064 0.0000 0.7662 0.0000
# 3 42.9694 30.5064 218.5440 0.0000 -20.3313 0.0000
# 4 0.0000 0.0000 0.0000 30.8802 0.0000 11.0274
# 5 -22.3594 0.7662 -20.3313 0.0000 41.3293 0.0000
# 6 0.0000 0.0000 0.0000 11.0274 0.0000 24.6232
#
#
#
# Elastic Compliance Matrix: (Units=1/GPa)
#
#
# Indices 1 2 3 4 5 6 
#
# 1 0.029720 -0.004154 -0.003941 0.000000 0.014217 0.000000
# 2 -0.004154 0.018195 -0.002058 0.000000 -0.003597 0.000000
# 3 -0.003941 -0.002058 0.005704 0.000000 0.000712 0.000000
# 4 0.000000 0.000000 0.000000 0.038548 0.000000 -0.017263
# 5 0.014217 -0.003597 0.000712 0.000000 0.032305 0.000000
# 6 0.000000 0.000000 0.000000 -0.017263 0.000000 0.048343
#
#
# Mechanical properties :
#
#
# Convention : Reuss Voigt Hill
#
# Bulk Modulus (GPa) = 30.01748 55.90213 42.95981
# Shear Modulus (GPa) = 24.48281 35.76169 30.12225
#
# Velocity S-wave (km/s) = 3.40760 4.11838 3.77973
# Velocity P-wave (km/s) = 5.45151 7.00914 6.27881
#
# Compressibility (1/GPa) = 0.03331392
#
# Stress axis : x y z
#
# Youngs Moduli (GPa) = 33.64708 54.96074 175.31292
#
# Poissons Ratio (x) = 0.22830 0.69091
# Poissons Ratio (y) = 0.13977 0.36074
# Poissons Ratio (z) = 0.13260 0.11309
#
# Static dielectric constant tensor:
#      x y z
#    x 1.770280 0.000000 -0.044940 
#    y 0.000000 1.798710 0.000000 
#    z -0.044940 0.000000 1.858160 
# 
# From -- ./inp_files/118938.got.cif
#   From: 2010.05.17/outbox.cif.g08.bks.cpg/sg12_60_cif.got.tgz:118938.got - 2010.06.03 13:09:07.
