data_PCOD9210705
_publ_section_title
;
Structure prediction by ZEFSAII (Michael W. Deem and Ramdas Pophale) SiO2 
 PCOD9210705
Probable space group: C 2/M
;
_chemical_formula_sum "Si O2"
_cell_formula_units_Z 48
_cell_length_a 16.020154
_cell_length_b 8.696283
_cell_length_c 30.096083
_cell_angle_alpha 90.000000
_cell_angle_beta 145.419838
_cell_angle_gamma 90.000000
_cell_volume 2379.694021
_symmetry_space_group_name_H-M "C 2/M"
_symmetry_group_IT_number 12
_symmetry_cell_setting 'monoclinic'
loop_
_space_group_symop_operation_xyz
x,y,z
-x,y,-z
-x,-y,-z
x,-y,z
1/2+x,1/2+y,z
1/2-x,1/2+y,-z
1/2-x,1/2-y,-z
1/2+x,1/2-y,z
loop_
_atom_site_type_symbol
_atom_site_label
_atom_site_fract_x
_atom_site_fract_y
_atom_site_fract_z
Si Si1 0.079836 0.176907 0.987551
Si Si2 0.886650 0.187471 0.412373
Si Si3 0.434215 0.683720 0.332510
Si Si4 0.112703 0.819541 0.850532
Si Si5 0.064570 0.683663 0.304898
Si Si6 0.094461 0.319686 0.168669
O O1 0.244289 0.236459 0.067085
O O2 0.082255 0.000000 0.972768
O O3 0.000000 0.182142 0.000000
O O4 0.989797 0.278382 0.913284
O O5 0.934484 0.236118 0.383950
O O6 0.721585 0.234203 0.353515
O O7 0.000000 0.236958 0.500000
O O8 0.885652 0.000000 0.411086
O O9 0.460692 0.500000 0.342965
O O10 0.543624 0.765472 0.346502
O O11 0.267726 0.711023 0.242461
O O12 0.064198 0.756422 0.781415
O O13 0.979534 0.779573 0.825155
O O14 0.140387 0.000000 0.860238
O O15 0.055681 0.500000 0.297562
O O16 0.075853 0.500000 0.171608
#
# Coordination Sequence:
#
# PCOD9210705 Si02
#       6
#     8   8   8   8   8   8
#     4  11  24  40  58  85 120 159 205 256 304 359
#     4   9  19  39  65  91 124 165 204 247 307 374
#     4  10  21  39  63  92 125 165 207 251 305 367
#     4  12  24  39  61  87 119 161 206 255 307 362
#     4  11  22  39  63  93 125 163 207 255 307 365
#     4  11  22  39  61  86 120 162 207 253 305 364
#
# _framework density 20.170660999999999
#
# number of rings (size 3 to 8) (size 9 to 14) (size 15 to 20)
#    0.000    1.333    1.667    4.500    0.000    6.000 
#    0.000    0.000    0.000    3.500    0.000    0.000 
#    0.000    0.000    0.000    0.000    0.000    0.000 
#
# Total GULP energy -134209.339065 kJ/mol
# GULP energy per Si atom -5592.055794 kJ/mol
# Density = 2.012475 g / cm^3
# Si number density = 20.170661 Si / 1000 Ang^3
#
#
#
# Elastic Constant Matrix: (Units=GPa)
#
#
# Indices 1 2 3 4 5 6 
#
# 1 72.8164 2.2815 5.6320 0.0000 -28.9291 0.0000
# 2 2.2815 26.8760 -5.2870 0.0000 2.0208 0.0000
# 3 5.6320 -5.2870 88.3354 0.0000 -23.5380 0.0000
# 4 0.0000 0.0000 0.0000 18.5951 0.0000 -3.8695
# 5 -28.9291 2.0208 -23.5380 0.0000 24.2202 0.0000
# 6 0.0000 0.0000 0.0000 -3.8695 0.0000 31.8548
#
#
#
# Elastic Compliance Matrix: (Units=1/GPa)
#
#
# Indices 1 2 3 4 5 6 
#
# 1 0.033261 -0.004454 0.011197 0.000000 0.050981 0.000000
# 2 -0.004454 0.038277 0.000413 0.000000 -0.008112 0.000000
# 3 0.011197 0.000413 0.019143 0.000000 0.031944 0.000000
# 4 0.000000 0.000000 0.000000 0.055172 0.000000 0.006702
# 5 0.050981 -0.008112 0.031944 0.000000 0.133901 0.000000
# 6 0.000000 0.000000 0.000000 0.006702 0.000000 0.032207
#
#
# Mechanical properties :
#
#
# Convention : Reuss Voigt Hill
#
# Bulk Modulus (GPa) = 9.52432 21.47566 15.49999
# Shear Modulus (GPa) = 15.03102 27.29410 21.16256
#
# Velocity S-wave (km/s) = 2.73278 3.68252 3.24261
# Velocity P-wave (km/s) = 3.83270 5.36203 4.66052
#
# Compressibility (1/GPa) = 0.10499436
#
# Stress axis : x y z
#
# Youngs Moduli (GPa) = 30.06550 26.12521 52.23825
#
# Poissons Ratio (x) = 0.11636 -0.58492
# Poissons Ratio (y) = 0.13391 -0.02160
# Poissons Ratio (z) = -0.33665 -0.01080
#
# Static dielectric constant tensor:
#      x y z
#    x 1.721890 0.000000 -0.009940 
#    y 0.000000 1.685250 0.000000 
#    z -0.009940 0.000000 1.699520 
# 
# From -- ./inp_files/274568.got.cif
#   From: 2010.05.17/outbox.cif.g08.bks.cpg/sg12_138_cif.got.tgz:274568.got - 2010.06.03 13:09:07.
