data_PCOD9210100
_publ_section_title
;
Structure prediction by ZEFSAII (Michael W. Deem and Ramdas Pophale) SiO2 
 PCOD9210100
Probable space group: C 2/M
;
_chemical_formula_sum "Si O2"
_cell_formula_units_Z 40
_cell_length_a 12.952185
_cell_length_b 29.478434
_cell_length_c 12.848650
_cell_angle_alpha 90.000000
_cell_angle_beta 157.415685
_cell_angle_gamma 90.000000
_cell_volume 1884.014840
_symmetry_space_group_name_H-M "C 2/M"
_symmetry_group_IT_number 12
_symmetry_cell_setting 'monoclinic'
loop_
_space_group_symop_operation_xyz
x,y,z
-x,y,-z
-x,-y,-z
x,-y,z
1/2+x,1/2+y,z
1/2-x,1/2+y,-z
1/2-x,1/2-y,-z
1/2+x,1/2-y,z
loop_
_atom_site_type_symbol
_atom_site_label
_atom_site_fract_x
_atom_site_fract_y
_atom_site_fract_z
Si Si1 0.783904 0.448739 0.706600
Si Si2 0.215977 0.546873 0.793848
Si Si3 0.801865 0.302618 0.024385
Si Si4 0.715366 0.143218 0.791081
Si Si5 0.835346 0.151290 0.455532
O O1 0.500000 0.451831 0.500000
O O2 0.832558 0.500000 0.705850
O O3 0.757351 0.401762 0.615788
O O4 0.000000 0.441321 0.000000
O O5 0.188308 0.500000 0.828980
O O6 0.204678 0.594452 0.839121
O O7 0.000000 0.546941 0.500000
O O8 0.500000 0.546591 0.000000
O O9 0.851023 0.320975 0.185293
O O10 0.067776 0.317326 0.207272
O O11 0.750000 0.250000 0.000000
O O12 0.543308 0.328309 0.734024
O O13 0.500000 0.143197 0.500000
O O14 0.000000 0.149443 0.000000
O O15 0.000000 0.152992 0.500000
#
# Coordination Sequence:
#
# PCOD9210100 Si02
#       5
#     8   8   8   8   8
#     4   9  17  33  60  92 125 163 203 248 310 381
#     4   8  14  27  50  77 105 141 182 226 282 345
#     4  12  26  42  62  92 123 160 217 269 309 369
#     4  10  21  39  60  83 116 155 193 244 305 358
#     4  11  23  43  66  92 127 166 206 257 320 379
#
# _framework density 21.231256999999999
#
# number of rings (size 3 to 8) (size 9 to 14) (size 15 to 20)
#    0.000    2.000    0.000    4.800    0.000    2.400 
#    0.000    2.000    0.000    2.400    0.000    0.000 
#    0.000    0.000    0.000    0.000    0.000    0.000 
#
# Total GULP energy -111427.417932 kJ/mol
# GULP energy per Si atom -5571.370897 kJ/mol
# Density = 2.118293 g / cm^3
# Si number density = 21.231257 Si / 1000 Ang^3
#
#
#
# Elastic Constant Matrix: (Units=GPa)
#
#
# Indices 1 2 3 4 5 6 
#
# 1 70.0122 47.3691 15.9140 0.0001 16.8774 0.0001
# 2 47.3691 213.7500 28.6196 0.0000 -0.4006 0.0001
# 3 15.9140 28.6196 154.7437 -0.0003 21.6015 -0.0001
# 4 0.0001 0.0000 -0.0003 32.9554 0.0000 -2.9648
# 5 16.8774 -0.4006 21.6015 0.0000 29.7109 0.0000
# 6 0.0001 0.0001 -0.0001 -2.9648 0.0000 42.7633
#
#
#
# Elastic Compliance Matrix: (Units=1/GPa)
#
#
# Indices 1 2 3 4 5 6 
#
# 1 0.020093 -0.004531 0.000416 0.000000 -0.011777 0.000000
# 2 -0.004531 0.005835 -0.001095 0.000000 0.003448 0.000000
# 3 0.000416 -0.001095 0.007409 0.000000 -0.005638 0.000000
# 4 0.000000 0.000000 0.000000 0.030535 0.000000 0.002117
# 5 -0.011777 0.003448 -0.005638 0.000000 0.044493 0.000000
# 6 0.000000 0.000000 0.000000 0.002117 0.000000 0.023531
#
#
# Mechanical properties :
#
#
# Convention : Reuss Voigt Hill
#
# Bulk Modulus (GPa) = 43.63336 69.14569 56.38953
# Shear Modulus (GPa) = 33.34328 44.19279 38.76804
#
# Velocity S-wave (km/s) = 3.96723 4.56729 4.27779
# Velocity P-wave (km/s) = 6.44836 7.77510 7.14260
#
# Compressibility (1/GPa) = 0.02291824
#
# Stress axis : x y z
#
# Youngs Moduli (GPa) = 49.76825 171.36760 134.97097
#
# Poissons Ratio (x) = 0.77639 -0.05609
# Poissons Ratio (y) = 0.22548 0.14775
# Poissons Ratio (z) = -0.02068 0.18759
#
# Static dielectric constant tensor:
#      x y z
#    x 1.833700 0.000000 0.016050 
#    y 0.000000 1.813520 0.000000 
#    z 0.016050 0.000000 1.727060 
# 
# From -- ./inp_files/219190.got.cif
#   From: 2010.05.17/outbox.cif.g08.bks.cpg/sg12_110_cif.got.tgz:219190.got - 2010.06.03 13:09:07.
