data_PCOD9210540
_publ_section_title
;
Structure prediction by ZEFSAII (Michael W. Deem and Ramdas Pophale) SiO2 
 PCOD9210540
Probable space group: C 2/M
;
_chemical_formula_sum "Si O2"
_cell_formula_units_Z 56
_cell_length_a 14.879806
_cell_length_b 17.027585
_cell_length_c 11.229706
_cell_angle_alpha 90.000000
_cell_angle_beta 110.895387
_cell_angle_gamma 90.000000
_cell_volume 2658.116466
_symmetry_space_group_name_H-M "C 2/M"
_symmetry_group_IT_number 12
_symmetry_cell_setting 'monoclinic'
loop_
_space_group_symop_operation_xyz
x,y,z
-x,y,-z
-x,-y,-z
x,-y,z
1/2+x,1/2+y,z
1/2-x,1/2+y,-z
1/2-x,1/2-y,-z
1/2+x,1/2-y,z
loop_
_atom_site_type_symbol
_atom_site_label
_atom_site_fract_x
_atom_site_fract_y
_atom_site_fract_z
Si Si1 0.756448 0.411829 0.111045
Si Si2 0.382999 0.172516 0.339214
Si Si3 0.430455 0.354611 0.356195
Si Si4 0.219292 0.411536 0.244962
Si Si5 0.074911 0.591671 0.392824
Si Si6 0.568707 0.664019 0.917101
Si Si7 0.897121 0.343386 0.005140
O O1 0.743385 0.500000 0.149210
O O2 0.784811 0.351632 0.228331
O O3 0.665108 0.384127 0.992420
O O4 0.849624 0.405022 0.071291
O O5 0.398413 0.264394 0.361054
O O6 0.478290 0.139441 0.317005
O O7 0.388006 0.128108 0.466934
O O8 0.500000 0.375477 0.500000
O O9 0.332496 0.403740 0.315661
O O10 0.466569 0.357451 0.233959
O O11 0.198266 0.500000 0.189354
O O12 0.157932 0.401790 0.335253
O O13 0.179232 0.344874 0.138469
O O14 0.050227 0.500000 0.394550
O O15 0.500000 0.650596 0.000000
O O16 0.594017 0.756989 0.933479
O O17 0.000000 0.365842 0.000000
#
# Coordination Sequence:
#
# PCOD9210540 Si02
#       7
#     8   8   8   8   8   8   8
#     4  12  23  39  66  96 130 170 213 268 336 396
#     4  11  21  39  63  97 131 169 215 261 331 400
#     4  12  25  45  68  92 129 179 229 273 325 383
#     4  11  25  42  64  98 133 169 217 271 329 393
#     4  10  21  39  62  96 138 169 204 264 329 401
#     4  11  26  45  66  95 133 174 227 282 323 386
#     4  11  22  39  68  96 131 164 208 265 336 395
#
# _framework density 21.067549
#
# number of rings (size 3 to 8) (size 9 to 14) (size 15 to 20)
#    0.000    0.857    4.286    4.286    2.000    4.571 
#    0.000    0.000    0.000    0.000    0.000    0.000 
#    0.000    0.000    0.000    0.000    0.000    0.000 
#
# Total GULP energy -156361.410047 kJ/mol
# GULP energy per Si atom -5584.336073 kJ/mol
# Density = 2.101960 g / cm^3
# Si number density = 21.067549 Si / 1000 Ang^3
#
#
#
# Elastic Constant Matrix: (Units=GPa)
#
#
# Indices 1 2 3 4 5 6 
#
# 1 67.4249 20.7455 40.2482 0.0000 -8.2578 0.0000
# 2 20.7455 33.5610 -0.8336 0.0000 -5.5233 0.0000
# 3 40.2482 -0.8336 138.7372 0.0000 12.3791 0.0000
# 4 0.0000 0.0000 0.0000 15.0230 0.0000 2.0592
# 5 -8.2578 -5.5233 12.3791 0.0000 25.5155 0.0000
# 6 0.0000 0.0000 0.0000 2.0592 0.0000 18.4900
#
#
#
# Elastic Compliance Matrix: (Units=1/GPa)
#
#
# Indices 1 2 3 4 5 6 
#
# 1 0.025256 -0.014325 -0.008222 0.000000 0.009062 0.000000
# 2 -0.014325 0.039047 0.004233 0.000000 0.001763 0.000000
# 3 -0.008222 0.004233 0.010216 0.000000 -0.006701 0.000000
# 4 0.000000 0.000000 0.000000 0.067596 0.000000 -0.007528
# 5 0.009062 0.001763 -0.006701 0.000000 0.045757 0.000000
# 6 0.000000 0.000000 0.000000 -0.007528 0.000000 0.054922
#
#
# Mechanical properties :
#
#
# Convention : Reuss Voigt Hill
#
# Bulk Modulus (GPa) = 26.39053 40.00481 33.19767
# Shear Modulus (GPa) = 17.12019 23.77656 20.44838
#
# Velocity S-wave (km/s) = 2.85376 3.36309 3.11884
# Velocity P-wave (km/s) = 4.83864 5.84042 5.36297
#
# Compressibility (1/GPa) = 0.03789238
#
# Stress axis : x y z
#
# Youngs Moduli (GPa) = 39.59378 25.61036 97.88238
#
# Poissons Ratio (x) = 0.36687 0.80475
# Poissons Ratio (y) = 0.56718 -0.41434
# Poissons Ratio (z) = 0.32553 -0.10841
#
# Static dielectric constant tensor:
#      x y z
#    x 1.774970 0.000000 -0.039500 
#    y 0.000000 1.738790 0.000000 
#    z -0.039500 0.000000 1.826100 
# 
# From -- ./inp_files/146253.got.cif
#   From: 2010.05.17/outbox.cif.g08.bks.cpg/sg12_74_cif.got.tgz:146253.got - 2010.06.03 13:09:07.
