data_PCOD9210743
_publ_section_title
;
Structure prediction by ZEFSAII (Michael W. Deem and Ramdas Pophale) SiO2 
 PCOD9210743
Probable space group: C 2/M
;
_chemical_formula_sum "Si O2"
_cell_formula_units_Z 40
_cell_length_a 30.105164
_cell_length_b 13.615983
_cell_length_c 5.300869
_cell_angle_alpha 90.000000
_cell_angle_beta 114.393756
_cell_angle_gamma 90.000000
_cell_volume 1978.910170
_symmetry_space_group_name_H-M "C 2/M"
_symmetry_group_IT_number 12
_symmetry_cell_setting 'monoclinic'
loop_
_space_group_symop_operation_xyz
x,y,z
-x,y,-z
-x,-y,-z
x,-y,z
1/2+x,1/2+y,z
1/2-x,1/2+y,-z
1/2-x,1/2-y,-z
1/2+x,1/2-y,z
loop_
_atom_site_type_symbol
_atom_site_label
_atom_site_fract_x
_atom_site_fract_y
_atom_site_fract_z
Si Si1 0.711714 0.204732 0.715597
Si Si2 0.102208 0.689136 0.456038
Si Si3 0.467560 0.500000 0.171960
Si Si4 0.398348 0.685486 0.061490
Si Si5 0.033326 0.500000 0.326470
Si Si6 0.298613 0.389228 0.670698
O O1 0.658720 0.163719 0.658162
O O2 0.699688 0.301086 0.523452
O O3 0.744642 0.122746 0.657635
O O4 0.750000 0.250000 0.000000
O O5 0.087578 0.764900 0.641809
O O6 0.067660 0.595596 0.394784
O O7 0.100017 0.738336 0.171400
O O8 0.500000 0.500000 0.500000
O O9 0.433887 0.595994 0.088720
O O10 0.500000 0.500000 0.000000
O O11 0.343608 0.640048 0.957410
O O12 0.000000 0.500000 0.500000
O O13 0.000000 0.500000 0.000000
O O14 0.306087 0.500000 0.594518
#
# Coordination Sequence:
#
# PCOD9210743 Si02
#       6
#     8   8   4   8   4   8
#     4  10  21  40  61 100 134 170 219 267 335 402
#     4  11  25  44  71  98 134 175 223 285 332 401
#     4  12  26  42  65  99 128 164 222 272 326 401
#     4  11  23  44  67  97 136 173 214 270 341 399
#     4  12  28  50  71  99 130 180 244 288 343 400
#     4  10  21  39  63  93 137 176 211 262 329 411
#
# _framework density 20.213145000000001
#
# number of rings (size 3 to 8) (size 9 to 14) (size 15 to 20)
#    0.000    1.200    3.000    2.400    1.400    5.600 
#    1.800    0.000    0.000    0.000    0.000    0.000 
#    0.000    0.000    0.000    0.000    0.000    0.000 
#
# Total GULP energy -111597.083053 kJ/mol
# GULP energy per Si atom -5579.854153 kJ/mol
# Density = 2.016714 g / cm^3
# Si number density = 20.213145 Si / 1000 Ang^3
#
#
#
# Elastic Constant Matrix: (Units=GPa)
#
#
# Indices 1 2 3 4 5 6 
#
# 1 137.2010 63.0637 31.1802 0.0000 9.0869 0.0000
# 2 63.0637 108.0892 18.1875 0.0000 16.5571 0.0000
# 3 31.1802 18.1875 74.9263 0.0000 8.3179 0.0000
# 4 0.0000 0.0000 0.0000 26.1335 0.0000 16.5598
# 5 9.0869 16.5571 8.3179 0.0000 35.5564 0.0000
# 6 0.0000 0.0000 0.0000 16.5598 0.0000 -12.6365
#
#
#
# Elastic Compliance Matrix: (Units=1/GPa)
#
#
# Indices 1 2 3 4 5 6 
#
# 1 0.010596 -0.005770 -0.003087 0.000000 0.000701 0.000000
# 2 -0.005770 0.013391 -0.000329 0.000000 -0.004684 0.000000
# 3 -0.003087 -0.000329 0.014996 0.000000 -0.002566 0.000000
# 4 0.000000 0.000000 0.000000 0.020905 0.000000 0.027396
# 5 0.000701 -0.004684 -0.002566 0.000000 0.030727 0.000000
# 6 0.000000 0.000000 0.000000 0.027396 0.000000 -0.043234
#
#
# Mechanical properties :
#
#
# Convention : Reuss Voigt Hill
#
# Bulk Modulus (GPa) = 48.51887 60.56436 54.54161
# Shear Modulus (GPa) = 68.84942 23.66302 46.25622
#
# Velocity S-wave (km/s) = 5.84257 3.42522 4.78894
# Velocity P-wave (km/s) = 8.34086 6.75802 7.59081
#
# Compressibility (1/GPa) = 0.02061054
#
# Stress axis : x y z
#
# Youngs Moduli (GPa) = 94.37729 74.67698 66.68572
#
# Poissons Ratio (x) = 0.43089 0.20583
# Poissons Ratio (y) = 0.54456 0.02196
# Poissons Ratio (z) = 0.29130 0.02459
#
# Static dielectric constant tensor:
#      x y z
#    x 1.796180 0.000000 0.023640 
#    y 0.000000 1.679150 0.000000 
#    z 0.023640 0.000000 1.779560 
# 
# From -- ./inp_files/24400.got.cif
#   From: 2010.05.17/outbox.cif.g08.bks.cpg/sg12_13_cif.got.tgz:24400.got - 2010.06.03 13:09:07.
