data_PCOD9210541
_publ_section_title
;
Structure prediction by ZEFSAII (Michael W. Deem and Ramdas Pophale) SiO2 
 PCOD9210541
Probable space group: C 2/M
;
_chemical_formula_sum "Si O2"
_cell_formula_units_Z 48
_cell_length_a 12.815905
_cell_length_b 21.668387
_cell_length_c 9.906275
_cell_angle_alpha 90.000000
_cell_angle_beta 49.876990
_cell_angle_gamma 90.000000
_cell_volume 2103.565917
_symmetry_space_group_name_H-M "C 2/M"
_symmetry_group_IT_number 12
_symmetry_cell_setting 'monoclinic'
loop_
_space_group_symop_operation_xyz
x,y,z
-x,y,-z
-x,-y,-z
x,-y,z
1/2+x,1/2+y,z
1/2-x,1/2+y,-z
1/2-x,1/2-y,-z
1/2+x,1/2-y,z
loop_
_atom_site_type_symbol
_atom_site_label
_atom_site_fract_x
_atom_site_fract_y
_atom_site_fract_z
Si Si1 0.853315 0.160459 0.609702
Si Si2 0.523793 0.897485 0.144274
Si Si3 0.906850 0.872143 0.284595
Si Si4 0.632196 0.929035 0.469746
Si Si5 0.074719 0.266665 0.798779
Si Si6 0.325543 0.571223 0.888122
O O1 0.875973 0.113202 0.467234
O O2 0.725776 0.205236 0.692871
O O3 0.825297 0.119452 0.764201
O O4 0.000000 0.193457 0.500000
O O5 0.410200 0.926259 0.336479
O O6 0.511901 0.824264 0.184377
O O7 0.500000 0.905863 0.000000
O O8 0.669918 0.923453 0.066898
O O9 0.769558 0.891812 0.324835
O O10 0.919631 0.798313 0.278476
O O11 0.047794 0.904706 0.127387
O O12 0.500000 0.905272 0.500000
O O13 0.655114 0.000000 0.412580
O O14 0.000000 0.251422 0.000000
O O15 0.351018 0.500000 0.830605
#
# Coordination Sequence:
#
# PCOD9210541 Si02
#       6
#     8   8   8   8   8   8
#     4  10  21  39  62  99 132 164 212 277 337 391
#     4  11  22  43  69 101 129 172 224 281 336 392
#     4  11  24  40  64  93 133 178 211 269 333 402
#     4  11  25  44  65  96 134 177 228 270 328 404
#     4  11  22  43  62  93 133 165 227 269 328 396
#     4  11  23  41  67 101 133 168 218 281 344 391
#
# _framework density 22.818396
#
# number of rings (size 3 to 8) (size 9 to 14) (size 15 to 20)
#    0.000    1.167    5.000    1.500    0.000    9.000 
#    3.000    0.000    0.000    4.000    0.000    0.000 
#    0.000    0.000    0.000    0.000    0.000    0.000 
#
# Total GULP energy -133962.216053 kJ/mol
# GULP energy per Si atom -5581.759002 kJ/mol
# Density = 2.276646 g / cm^3
# Si number density = 22.818396 Si / 1000 Ang^3
#
#
#
# Elastic Constant Matrix: (Units=GPa)
#
#
# Indices 1 2 3 4 5 6 
#
# 1 93.8411 34.1335 35.5847 0.0000 -36.7832 0.0000
# 2 34.1335 100.2069 13.5694 0.0000 -13.6557 0.0000
# 3 35.5847 13.5694 92.0497 0.0000 -30.7458 0.0000
# 4 0.0000 0.0000 0.0000 40.1463 0.0000 25.0027
# 5 -36.7832 -13.6557 -30.7458 0.0000 41.2978 0.0000
# 6 0.0000 0.0000 0.0000 25.0027 0.0000 47.9529
#
#
#
# Elastic Compliance Matrix: (Units=1/GPa)
#
#
# Indices 1 2 3 4 5 6 
#
# 1 0.018104 -0.004087 -0.001945 0.000000 0.013325 0.000000
# 2 -0.004087 0.011391 -0.000076 0.000000 0.000070 0.000000
# 3 -0.001945 -0.000076 0.014694 0.000000 0.009181 0.000000
# 4 0.000000 0.000000 0.000000 0.036887 0.000000 -0.019233
# 5 0.013325 0.000070 0.009181 0.000000 0.042941 0.000000
# 6 0.000000 0.000000 0.000000 -0.019233 0.000000 0.030882
#
#
# Mechanical properties :
#
#
# Convention : Reuss Voigt Hill
#
# Bulk Modulus (GPa) = 31.27786 50.29700 40.78743
# Shear Modulus (GPa) = 28.12574 39.40006 33.76290
#
# Velocity S-wave (km/s) = 3.51464 4.15984 3.85078
# Velocity P-wave (km/s) = 5.49612 6.72031 6.13880
#
# Compressibility (1/GPa) = 0.03197149
#
# Stress axis : x y z
#
# Youngs Moduli (GPa) = 55.23732 87.78541 68.05658
#
# Poissons Ratio (x) = 0.35882 0.13239
# Poissons Ratio (y) = 0.22578 0.00516
# Poissons Ratio (z) = 0.10746 0.00666
#
# Static dielectric constant tensor:
#      x y z
#    x 1.956910 0.000000 0.028950 
#    y 0.000000 1.832590 0.000000 
#    z 0.028950 0.000000 1.894810 
# 
# From -- ./inp_files/133729.got.cif
#   From: 2010.05.17/outbox.cif.g08.bks.cpg/sg12_67_cif.got.tgz:133729.got - 2010.06.03 13:09:07.
