data_PCOD9210974
_publ_section_title
;
Structure prediction by ZEFSAII (Michael W. Deem and Ramdas Pophale) SiO2 
 PCOD9210974
Probable space group: C 2/M
;
_chemical_formula_sum "Si O2"
_cell_formula_units_Z 50
_cell_length_a 25.247225
_cell_length_b 7.572493
_cell_length_c 12.410255
_cell_angle_alpha 90.000000
_cell_angle_beta 60.895067
_cell_angle_gamma 90.000000
_cell_volume 2073.054200
_symmetry_space_group_name_H-M "C 2/M"
_symmetry_group_IT_number 12
_symmetry_cell_setting 'monoclinic'
loop_
_space_group_symop_operation_xyz
x,y,z
-x,y,-z
-x,-y,-z
x,-y,z
1/2+x,1/2+y,z
1/2-x,1/2+y,-z
1/2-x,1/2-y,-z
1/2+x,1/2-y,z
loop_
_atom_site_type_symbol
_atom_site_label
_atom_site_fract_x
_atom_site_fract_y
_atom_site_fract_z
Si Si1 0.855692 0.291952 0.685103
Si Si2 0.182089 0.789353 0.607350
Si Si3 0.497150 0.701194 0.847367
Si Si4 0.500000 0.000000 0.000000
Si Si5 0.220502 0.783879 0.799261
Si Si6 0.568980 0.800250 0.576312
Si Si7 0.362678 0.712459 0.927971
O O1 0.855061 0.500000 0.659361
O O2 0.789476 0.219749 0.719739
O O3 0.910697 0.220156 0.558416
O O4 0.860692 0.274657 0.807741
O O5 0.250000 0.750000 0.500000
O O6 0.182018 0.734382 0.732624
O O7 0.131630 0.701782 0.582980
O O8 0.171306 0.000000 0.612988
O O9 0.503319 0.500000 0.877785
O O10 0.521476 0.707755 0.701289
O O11 0.427158 0.761533 0.914703
O O12 0.527878 0.843728 0.892868
O O13 0.222189 0.000000 0.799725
O O14 0.190535 0.724492 0.940687
O O15 0.546269 0.000000 0.583794
O O16 0.360528 0.500000 0.927323
#
# Coordination Sequence:
#
# PCOD9210974 Si02
#       7
#     8   8   8   2   8   8   8
#     4  10  21  39  65  90 129 173 219 273 329 396
#     4  11  21  37  61  91 129 169 216 273 337 405
#     4  11  26  46  69 102 135 176 223 276 334 398
#     4  12  26  48  72  96 140 172 222 272 334 406
#     4   9  19  38  60  89 126 168 210 272 336 394
#     4  11  23  42  64  96 133 176 223 275 336 399
#     4  10  23  41  64  93 129 169 222 274 332 398
#
# _framework density 24.119004
#
# number of rings (size 3 to 8) (size 9 to 14) (size 15 to 20)
#    0.000    1.600    2.400    1.680    3.360    1.920 
#    0.000    4.800    0.000    0.000    0.000    0.000 
#    0.000    0.000    0.000    0.000    0.000    0.000 
#
# Total GULP energy -139595.950434 kJ/mol
# GULP energy per Si atom -5583.838017 kJ/mol
# Density = 2.406411 g / cm^3
# Si number density = 24.119004 Si / 1000 Ang^3
#
#
#
# Elastic Constant Matrix: (Units=GPa)
#
#
# Indices 1 2 3 4 5 6 
#
# 1 13.3445 15.8835 -1.2867 0.0000 4.9884 0.0000
# 2 15.8835 62.0952 9.5014 0.0000 1.4092 0.0000
# 3 -1.2867 9.5014 171.5061 0.0000 8.4542 0.0000
# 4 0.0000 0.0000 0.0000 122.9727 0.0000 -5.6891
# 5 4.9884 1.4092 8.4542 0.0000 42.3164 0.0000
# 6 0.0000 0.0000 0.0000 -5.6891 0.0000 11.3774
#
#
#
# Elastic Compliance Matrix: (Units=1/GPa)
#
#
# Indices 1 2 3 4 5 6 
#
# 1 0.115627 -0.029761 0.003170 0.000000 -0.013273 0.000000
# 2 -0.029761 0.023907 -0.001698 0.000000 0.003051 0.000000
# 3 0.003170 -0.001698 0.006024 0.000000 -0.001521 0.000000
# 4 0.000000 0.000000 0.000000 0.008324 0.000000 0.004163
# 5 -0.013273 0.003051 -0.001521 0.000000 0.025398 0.000000
# 6 0.000000 0.000000 0.000000 0.004163 0.000000 0.089975
#
#
# Mechanical properties :
#
#
# Convention : Reuss Voigt Hill
#
# Bulk Modulus (GPa) = 11.23826 32.79360 22.01593
# Shear Modulus (GPa) = 14.06498 50.18982 32.12740
#
# Velocity S-wave (km/s) = 2.41747 4.56666 3.65367
# Velocity P-wave (km/s) = 3.53013 6.43677 5.19104
#
# Compressibility (1/GPa) = 0.08898178
#
# Stress axis : x y z
#
# Youngs Moduli (GPa) = 8.64847 41.82798 166.01602
#
# Poissons Ratio (x) = 1.24482 -0.52635
# Poissons Ratio (y) = 0.25738 0.28192
# Poissons Ratio (z) = -0.02742 0.07103
#
# Static dielectric constant tensor:
#      x y z
#    x 1.932400 0.000000 0.008660 
#    y 0.000000 2.070500 0.000000 
#    z 0.008660 0.000000 1.950660 
# 
# From -- ./inp_files/180173.got.cif
#   From: 2010.05.17/outbox.cif.g08.bks.cpg/sg12_91_cif.got.tgz:180173.got - 2010.06.03 13:09:07.
