data_PCOD9210920
_publ_section_title
;
Structure prediction by ZEFSAII (Michael W. Deem and Ramdas Pophale) SiO2 
 PCOD9210920
Probable space group: C 2/M
;
_chemical_formula_sum "Si O2"
_cell_formula_units_Z 56
_cell_length_a 17.714192
_cell_length_b 14.442406
_cell_length_c 20.418210
_cell_angle_alpha 90.000000
_cell_angle_beta 33.108297
_cell_angle_gamma 90.000000
_cell_volume 2853.308679
_symmetry_space_group_name_H-M "C 2/M"
_symmetry_group_IT_number 12
_symmetry_cell_setting 'monoclinic'
loop_
_space_group_symop_operation_xyz
x,y,z
-x,y,-z
-x,-y,-z
x,-y,z
1/2+x,1/2+y,z
1/2-x,1/2+y,-z
1/2-x,1/2-y,-z
1/2+x,1/2-y,z
loop_
_atom_site_type_symbol
_atom_site_label
_atom_site_fract_x
_atom_site_fract_y
_atom_site_fract_z
Si Si1 0.297657 0.690505 0.902524
Si Si2 0.122059 0.893967 0.864483
Si Si3 0.580955 0.395822 0.744394
Si Si4 0.689842 0.244495 0.470200
Si Si5 0.630757 0.756304 0.294078
Si Si6 0.015951 0.609232 0.061821
Si Si7 0.770996 0.112488 0.670125
O O1 0.438237 0.637284 0.816747
O O2 0.331144 0.740724 0.809650
O O3 0.250000 0.750000 0.000000
O O4 0.164591 0.629199 0.982686
O O5 0.060301 0.895555 0.837006
O O6 0.259317 0.832763 0.763230
O O7 0.155328 0.000000 0.860063
O O8 0.000000 0.859126 0.000000
O O9 0.613648 0.500000 0.698653
O O10 0.708337 0.328739 0.637288
O O11 0.750000 0.250000 0.500000
O O12 0.529443 0.215391 0.585992
O O13 0.693839 0.339455 0.424595
O O14 0.651569 0.665657 0.326051
O O15 0.998465 0.500000 0.068903
O O16 0.889378 0.638496 0.199331
O O17 0.000000 0.648382 0.000000
O O18 0.790730 0.000000 0.656615
#
# Coordination Sequence:
#
# PCOD9210920 Si02
#       7
#     8   8   8   8   8   8   8
#     4  12  24  38  66 100 136 175 214 272 341 399
#     4  10  23  44  70  99 130 171 223 276 333 399
#     4  11  24  44  69  95 134 179 225 275 331 398
#     4  12  26  47  63  96 137 175 227 276 336 395
#     4  12  25  41  72  96 132 177 224 284 329 404
#     4  10  21  39  64  95 131 167 215 270 328 403
#     4  11  25  45  70 101 135 177 224 280 343 406
#
# _framework density 19.626339000000002
#
# number of rings (size 3 to 8) (size 9 to 14) (size 15 to 20)
#    0.000    0.857    4.286    2.571    2.000    2.857 
#    0.000    2.143    0.000    0.000    0.000    0.000 
#    0.000    0.000    0.000    0.000    0.000    0.000 
#
# Total GULP energy -156324.662506 kJ/mol
# GULP energy per Si atom -5583.023661 kJ/mol
# Density = 1.958167 g / cm^3
# Si number density = 19.626339 Si / 1000 Ang^3
#
#
#
# Elastic Constant Matrix: (Units=GPa)
#
#
# Indices 1 2 3 4 5 6 
#
# 1 106.6954 32.6990 37.5697 0.0000 -4.1991 0.0000
# 2 32.6990 96.4811 24.9417 0.0001 -1.7006 0.0000
# 3 37.5697 24.9417 102.3111 0.0003 -15.5266 -0.0001
# 4 0.0000 0.0001 0.0003 7.2954 -0.0001 18.3905
# 5 -4.1991 -1.7006 -15.5266 -0.0001 51.6956 0.0000
# 6 0.0000 0.0000 -0.0001 18.3905 0.0000 0.4392
#
#
#
# Elastic Compliance Matrix: (Units=1/GPa)
#
#
# Indices 1 2 3 4 5 6 
#
# 1 0.011527 -0.002996 -0.003536 0.000000 -0.000224 0.000000
# 2 -0.002996 0.011852 -0.001851 0.000000 -0.000409 0.000000
# 3 -0.003536 -0.001851 0.012019 0.000000 0.003262 0.000000
# 4 0.000000 0.000000 0.000000 -0.001311 0.000000 0.054896
# 5 -0.000224 -0.000409 0.003262 0.000000 0.020292 0.000000
# 6 0.000000 0.000000 0.000000 0.054896 0.000000 -0.021777
#
#
# Mechanical properties :
#
#
# Convention : Reuss Voigt Hill
#
# Bulk Modulus (GPa) = 53.67737 55.10094 54.38915
# Shear Modulus (GPa) = 89.96077 25.90452 57.93264
#
# Velocity S-wave (km/s) = 6.77763 3.63696 5.43892
# Velocity P-wave (km/s) = 9.41580 6.76555 8.19848
#
# Compressibility (1/GPa) = 0.01862983
#
# Stress axis : x y z
#
# Youngs Moduli (GPa) = 86.75094 84.37698 83.20169
#
# Poissons Ratio (x) = 0.25283 0.29424
# Poissons Ratio (y) = 0.25995 0.15401
# Poissons Ratio (z) = 0.30679 0.15618
#
# Static dielectric constant tensor:
#      x y z
#    x 1.326380 0.000000 -0.149490 
#    y 0.000000 1.716340 0.000000 
#    z -0.149490 0.000000 1.639070 
# 
# From -- ./inp_files/316718.got.cif
#   From: 2010.05.17/outbox.cif.g08.bks.cpg/sg12_159_cif.got.tgz:316718.got - 2010.06.03 13:09:07.
