data_PCOD9210441
_publ_section_title
;
Structure prediction by ZEFSAII (Michael W. Deem and Ramdas Pophale) SiO2 
 PCOD9210441
Probable space group: C 2/M
;
_chemical_formula_sum "Si O2"
_cell_formula_units_Z 56
_cell_length_a 27.439151
_cell_length_b 14.076263
_cell_length_c 9.008716
_cell_angle_alpha 90.000000
_cell_angle_beta 122.402945
_cell_angle_gamma 90.000000
_cell_volume 2937.770899
_symmetry_space_group_name_H-M "C 2/M"
_symmetry_group_IT_number 12
_symmetry_cell_setting 'monoclinic'
loop_
_space_group_symop_operation_xyz
x,y,z
-x,y,-z
-x,-y,-z
x,-y,z
1/2+x,1/2+y,z
1/2-x,1/2+y,-z
1/2-x,1/2-y,-z
1/2+x,1/2-y,z
loop_
_atom_site_type_symbol
_atom_site_label
_atom_site_fract_x
_atom_site_fract_y
_atom_site_fract_z
Si Si1 0.274123 0.227133 0.379377
Si Si2 0.693196 0.276051 0.001189
Si Si3 0.114929 0.387220 0.355939
Si Si4 0.476874 0.603680 0.630552
Si Si5 0.115282 0.610958 0.004087
Si Si6 0.499719 0.190275 0.319343
Si Si7 0.656120 0.610951 0.669922
O O1 0.250000 0.250000 0.500000
O O2 0.328167 0.157522 0.479728
O O3 0.299127 0.324555 0.348727
O O4 0.221932 0.184376 0.197383
O O5 0.658110 0.182318 0.989422
O O6 0.656239 0.345267 0.836492
O O7 0.750000 0.250000 0.000000
O O8 0.115527 0.500000 0.371298
O O9 0.059281 0.347648 0.349688
O O10 0.113822 0.365481 0.177488
O O11 0.500000 0.598031 0.500000
O O12 0.488153 0.500000 0.719067
O O13 0.505047 0.699280 0.738948
O O14 0.407814 0.618714 0.504327
O O15 0.131261 0.500000 0.014216
O O16 0.052639 0.629877 0.831597
O O17 0.500000 0.186918 0.500000
O O18 0.671973 0.500000 0.699001
#
# Coordination Sequence:
#
# PCOD9210441 Si02
#       7
#     8   8   8   8   8   8   8
#     4  11  22  41  63  89 125 166 213 266 317 369
#     4  10  22  38  61  90 123 161 208 264 312 366
#     4  11  24  42  62  90 127 171 213 254 316 387
#     4   9  17  32  59  87 117 154 193 244 307 366
#     4  11  24  42  64  90 127 173 209 254 319 381
#     4  11  22  39  64  95 130 161 207 264 316 373
#     4  10  21  39  62  89 121 161 207 257 319 378
#
# _framework density 19.062071
#
# number of rings (size 3 to 8) (size 9 to 14) (size 15 to 20)
#    0.000    1.571    2.857    2.571    2.000    5.714 
#    0.000    0.000    0.000    3.429    0.000    0.000 
#    0.000    0.000    0.000    0.000    0.000    0.000 
#
# Total GULP energy -156240.902924 kJ/mol
# GULP energy per Si atom -5580.032247 kJ/mol
# Density = 1.901868 g / cm^3
# Si number density = 19.062071 Si / 1000 Ang^3
#
#
#
# Elastic Constant Matrix: (Units=GPa)
#
#
# Indices 1 2 3 4 5 6 
#
# 1 97.4190 39.9565 7.5801 0.0000 -5.7379 0.0000
# 2 39.9565 113.7385 23.3164 0.0000 -14.9620 0.0000
# 3 7.5801 23.3164 58.2508 0.0000 -9.6660 0.0000
# 4 0.0000 0.0000 0.0000 -7.1450 0.0000 -43.9131
# 5 -5.7379 -14.9620 -9.6660 0.0000 26.1066 0.0000
# 6 0.0000 0.0000 0.0000 -43.9131 0.0000 -26.6852
#
#
#
# Elastic Compliance Matrix: (Units=1/GPa)
#
#
# Indices 1 2 3 4 5 6 
#
# 1 0.011996 -0.004212 0.000172 0.000000 0.000287 0.000000
# 2 -0.004212 0.011541 -0.003332 0.000000 0.004455 0.000000
# 3 0.000172 -0.003332 0.019357 0.000000 0.005295 0.000000
# 4 0.000000 0.000000 0.000000 0.015357 0.000000 -0.025271
# 5 0.000287 0.004455 0.005295 0.000000 0.042881 0.000000
# 6 0.000000 0.000000 0.000000 -0.025271 0.000000 0.004112
#
#
# Mechanical properties :
#
#
# Convention : Reuss Voigt Hill
#
# Bulk Modulus (GPa) = 35.52317 45.67938 40.60128
# Shear Modulus (GPa) = 38.64875 11.69228 25.17052
#
# Velocity S-wave (km/s) = 4.50769 2.47934 3.63774
# Velocity P-wave (km/s) = 6.76523 5.67553 6.24420
#
# Compressibility (1/GPa) = 0.02815064
#
# Stress axis : x y z
#
# Youngs Moduli (GPa) = 83.36188 86.64880 51.66035
#
# Poissons Ratio (x) = 0.36495 -0.00891
# Poissons Ratio (y) = 0.35111 0.17214
# Poissons Ratio (z) = -0.01437 0.28873
#
# Static dielectric constant tensor:
#      x y z
#    x 1.650660 0.000000 0.010900 
#    y 0.000000 1.636240 0.000000 
#    z 0.010900 0.000000 1.704440 
# 
# From -- ./inp_files/111728.got.cif
#   From: 2010.05.17/outbox.cif.g08.bks.cpg/sg12_56_cif.got.tgz:111728.got - 2010.06.03 13:09:07.
