data_PCOD9210016
_publ_section_title
;
Structure prediction by ZEFSAII (Michael W. Deem and Ramdas Pophale) SiO2 
 PCOD9210016
Probable space group: C 2/M
;
_chemical_formula_sum "Si O2"
_cell_formula_units_Z 48
_cell_length_a 20.912253
_cell_length_b 8.836627
_cell_length_c 17.846634
_cell_angle_alpha 90.000000
_cell_angle_beta 125.787918
_cell_angle_gamma 90.000000
_cell_volume 2675.252190
_symmetry_space_group_name_H-M "C 2/M"
_symmetry_group_IT_number 12
_symmetry_cell_setting 'monoclinic'
loop_
_space_group_symop_operation_xyz
x,y,z
-x,y,-z
-x,-y,-z
x,-y,z
1/2+x,1/2+y,z
1/2-x,1/2+y,-z
1/2-x,1/2-y,-z
1/2+x,1/2-y,z
loop_
_atom_site_type_symbol
_atom_site_label
_atom_site_fract_x
_atom_site_fract_y
_atom_site_fract_z
Si Si1 0.554620 0.321751 0.610128
Si Si2 0.773830 0.317547 0.293712
Si Si3 0.126417 0.318112 0.901372
Si Si4 0.194563 0.818567 0.397586
Si Si5 0.021404 0.318578 0.294674
Si Si6 0.723283 0.681697 0.096429
O O1 0.500000 0.302296 0.500000
O O2 0.557758 0.500000 0.630614
O O3 0.641262 0.260026 0.651882
O O4 0.517395 0.231733 0.653764
O O5 0.784651 0.500000 0.299156
O O6 0.729537 0.278658 0.339947
O O7 0.727187 0.274448 0.186012
O O8 0.127562 0.500000 0.906141
O O9 0.194095 0.273255 0.887273
O O10 0.041216 0.271419 0.812370
O O11 0.154050 0.251699 0.999275
O O12 0.250000 0.750000 0.500000
O O13 0.106360 0.756246 0.344528
O O14 0.194162 0.000000 0.404347
O O15 0.029023 0.500000 0.298311
O O16 0.717949 0.500000 0.088475
#
# Coordination Sequence:
#
# PCOD9210016 Si02
#       6
#     8   8   8   8   8   8
#     4  11  23  36  55  85 115 143 188 244 288 337
#     4  10  21  39  59  82 113 152 191 233 287 344
#     4   9  18  33  55  84 114 146 185 230 283 339
#     4  11  24  41  61  84 115 155 197 237 287 344
#     4  11  22  39  60  83 116 154 192 235 285 342
#     4   9  17  33  56  83 113 145 186 231 281 341
#
# _framework density 17.942235
#
# number of rings (size 3 to 8) (size 9 to 14) (size 15 to 20)
#    0.000    1.833    1.667    2.500    0.000    7.333 
#    0.000    0.833    0.000    5.000    0.000    0.000 
#    0.000    0.000    0.000    0.000    0.000    0.000 
#
# Total GULP energy -134035.353047 kJ/mol
# GULP energy per Si atom -5584.806377 kJ/mol
# Density = 1.790140 g / cm^3
# Si number density = 17.942235 Si / 1000 Ang^3
#
#
#
# Elastic Constant Matrix: (Units=GPa)
#
#
# Indices 1 2 3 4 5 6 
#
# 1 111.9202 43.7896 71.1130 0.0000 13.4141 0.0000
# 2 43.7896 34.4688 51.2573 0.0000 1.8226 0.0000
# 3 71.1130 51.2573 157.2679 0.0000 11.5852 0.0000
# 4 0.0000 0.0000 0.0000 30.7978 0.0000 0.5707
# 5 13.4141 1.8226 11.5852 0.0000 30.3516 0.0000
# 6 0.0000 0.0000 0.0000 0.5707 0.0000 27.9995
#
#
#
# Elastic Compliance Matrix: (Units=1/GPa)
#
#
# Indices 1 2 3 4 5 6 
#
# 1 0.019186 -0.023016 -0.000670 0.000000 -0.006841 0.000000
# 2 -0.023016 0.084321 -0.017956 0.000000 0.011962 0.000000
# 3 -0.000670 -0.017956 0.012772 0.000000 -0.003501 0.000000
# 4 0.000000 0.000000 0.000000 0.032482 0.000000 -0.000662
# 5 -0.006841 0.011962 -0.003501 0.000000 0.036589 0.000000
# 6 0.000000 0.000000 0.000000 -0.000662 0.000000 0.035728
#
#
# Mechanical properties :
#
#
# Convention : Reuss Voigt Hill
#
# Bulk Modulus (GPa) = 30.30813 70.66407 50.48610
# Shear Modulus (GPa) = 15.85496 26.99625 21.42561
#
# Velocity S-wave (km/s) = 2.97588 3.88315 3.45939
# Velocity P-wave (km/s) = 5.36065 7.71848 6.64498
#
# Compressibility (1/GPa) = 0.03299444
#
# Stress axis : x y z
#
# Youngs Moduli (GPa) = 52.12221 11.85951 78.29797
#
# Poissons Ratio (x) = 0.27295 0.05246
# Poissons Ratio (y) = 1.19963 1.40593
# Poissons Ratio (z) = 0.03492 0.21295
#
# Static dielectric constant tensor:
#      x y z
#    x 1.582700 0.000000 -0.007900 
#    y 0.000000 1.603620 0.000000 
#    z -0.007900 0.000000 1.608570 
# 
# From -- ./inp_files/244889.got.cif
#   From: 2010.05.17/outbox.cif.g08.bks.cpg/sg12_123_cif.got.tgz:244889.got - 2010.06.03 13:09:07.
