data_PCOD9210257
_publ_section_title
;
Structure prediction by ZEFSAII (Michael W. Deem and Ramdas Pophale) SiO2 
 PCOD9210257
Probable space group: C 2/M
;
_chemical_formula_sum "Si O2"
_cell_formula_units_Z 56
_cell_length_a 21.940523
_cell_length_b 8.842517
_cell_length_c 33.737537
_cell_angle_alpha 90.000000
_cell_angle_beta 154.575951
_cell_angle_gamma 90.000000
_cell_volume 2810.033927
_symmetry_space_group_name_H-M "C 2/M"
_symmetry_group_IT_number 12
_symmetry_cell_setting 'monoclinic'
loop_
_space_group_symop_operation_xyz
x,y,z
-x,y,-z
-x,-y,-z
x,-y,z
1/2+x,1/2+y,z
1/2-x,1/2+y,-z
1/2-x,1/2-y,-z
1/2+x,1/2-y,z
loop_
_atom_site_type_symbol
_atom_site_label
_atom_site_fract_x
_atom_site_fract_y
_atom_site_fract_z
Si Si1 0.074937 0.181978 0.276244
Si Si2 0.145485 0.821529 0.060496
Si Si3 0.576080 0.318924 0.735502
Si Si4 0.119916 0.327244 0.901360
Si Si5 0.467293 0.173451 0.892070
Si Si6 0.144726 0.315447 0.606488
Si Si7 0.667184 0.819524 0.711277
O O1 0.218902 0.234763 0.339143
O O2 0.047527 0.224882 0.305870
O O3 0.942811 0.242238 0.173093
O O4 0.074004 0.000000 0.273931
O O5 0.277821 0.741957 0.159103
O O6 0.173688 0.000000 0.073278
O O7 0.000000 0.803041 0.000000
O O8 0.101474 0.745247 0.993285
O O9 0.582317 0.500000 0.736790
O O10 0.567481 0.251653 0.686378
O O11 0.155002 0.500000 0.912058
O O12 0.998156 0.326881 0.863531
O O13 0.250000 0.250000 0.000000
O O14 0.326976 0.270551 0.816559
O O15 0.447267 0.000000 0.893652
O O16 0.149178 0.500000 0.609603
O O17 0.145117 0.268200 0.652850
O O18 0.000000 0.269167 0.500000
O O19 0.655366 0.000000 0.705837
#
# Coordination Sequence:
#
# PCOD9210257 Si02
#       7
#     8   8   8   8   8   8   8
#     4  10  21  39  61  87 119 156 199 245 296 355
#     4  11  22  34  51  78 113 156 208 250 283 336
#     4  11  23  37  56  83 121 161 195 240 298 353
#     4  11  23  36  54  82 118 158 199 245 294 348
#     4  11  22  35  53  79 113 153 197 242 294 345
#     4   9  19  39  68  95 116 147 196 250 301 358
#     4  11  21  36  61  87 113 148 194 244 289 347
#
# _framework density 19.928585000000002
#
# number of rings (size 3 to 8) (size 9 to 14) (size 15 to 20)
#    0.000    1.429    2.857    3.000    0.000    6.857 
#    0.000    0.714    0.000    3.857    0.000    0.000 
#    0.000    0.000    0.000    0.000    0.000    0.000 
#
# Total GULP energy -156401.492990 kJ/mol
# GULP energy per Si atom -5585.767607 kJ/mol
# Density = 1.988323 g / cm^3
# Si number density = 19.928585 Si / 1000 Ang^3
#
#
#
# Elastic Constant Matrix: (Units=GPa)
#
#
# Indices 1 2 3 4 5 6 
#
# 1 177.7788 43.7744 59.2708 0.0001 -13.6125 0.0000
# 2 43.7744 45.3334 15.1060 0.0004 -2.9540 0.0000
# 3 59.2708 15.1060 91.7883 0.0024 -4.1096 0.0006
# 4 0.0001 0.0004 0.0024 12.7097 0.0002 -5.4759
# 5 -13.6125 -2.9540 -4.1096 0.0002 21.7308 -0.0001
# 6 0.0000 0.0000 0.0006 -5.4759 -0.0001 28.5642
#
#
#
# Elastic Compliance Matrix: (Units=1/GPa)
#
#
# Indices 1 2 3 4 5 6 
#
# 1 0.009209 -0.007103 -0.004602 0.000001 0.003933 0.000000
# 2 -0.007103 0.028949 -0.000202 -0.000001 -0.000552 0.000000
# 3 -0.004602 -0.000202 0.013887 -0.000003 -0.000284 -0.000001
# 4 0.000001 -0.000001 -0.000003 0.085764 -0.000001 0.016441
# 5 0.003933 -0.000552 -0.000284 -0.000001 0.048353 0.000000
# 6 0.000000 0.000000 -0.000001 0.016441 0.000000 0.038161
#
#
# Mechanical properties :
#
#
# Convention : Reuss Voigt Hill
#
# Bulk Modulus (GPa) = 35.42220 61.24479 48.33349
# Shear Modulus (GPa) = 19.41400 25.71756 22.56578
#
# Velocity S-wave (km/s) = 3.12457 3.59623 3.36867
# Velocity P-wave (km/s) = 5.55251 6.93128 6.27985
#
# Compressibility (1/GPa) = 0.02823089
#
# Stress axis : x y z
#
# Youngs Moduli (GPa) = 108.58652 34.54364 72.01138
#
# Poissons Ratio (x) = 0.24536 0.33137
# Poissons Ratio (y) = 0.77128 0.01457
# Poissons Ratio (z) = 0.49968 0.00699
#
# Static dielectric constant tensor:
#      x y z
#    x 1.799700 0.000000 -0.003320 
#    y 0.000000 1.680170 0.000000 
#    z -0.003320 0.000000 1.652280 
# 
# From -- ./inp_files/380713.got.cif
#   From: 2010.05.17/outbox.cif.g08.bks.cpg/sg12_191_cif.got.tgz:380713.got - 2010.06.03 13:09:07.
