data_PCOD9210834
_publ_section_title
;
Structure prediction by ZEFSAII (Michael W. Deem and Ramdas Pophale) SiO2 
 PCOD9210834
Probable space group: C 2/M
;
_chemical_formula_sum "Si O2"
_cell_formula_units_Z 56
_cell_length_a 12.099058
_cell_length_b 24.550458
_cell_length_c 11.565405
_cell_angle_alpha 90.000000
_cell_angle_beta 130.302146
_cell_angle_gamma 90.000000
_cell_volume 2619.955529
_symmetry_space_group_name_H-M "C 2/M"
_symmetry_group_IT_number 12
_symmetry_cell_setting 'monoclinic'
loop_
_space_group_symop_operation_xyz
x,y,z
-x,y,-z
-x,-y,-z
x,-y,z
1/2+x,1/2+y,z
1/2-x,1/2+y,-z
1/2-x,1/2-y,-z
1/2+x,1/2-y,z
loop_
_atom_site_type_symbol
_atom_site_label
_atom_site_fract_x
_atom_site_fract_y
_atom_site_fract_z
Si Si1 0.595281 0.559219 0.916496
Si Si2 0.760093 0.839851 0.362847
Si Si3 0.660612 0.630809 0.336394
Si Si4 0.657224 0.221856 0.656164
Si Si5 0.319400 0.062477 0.269413
Si Si6 0.158389 0.595494 0.077493
Si Si7 0.434679 0.840301 0.200958
O O1 0.521305 0.500000 0.857914
O O2 0.491475 0.608674 0.813570
O O3 0.729638 0.559840 0.918321
O O4 0.671276 0.564547 0.092487
O O5 0.844148 0.863686 0.529325
O O6 0.827385 0.785373 0.356483
O O7 0.731607 0.883256 0.243371
O O8 0.601063 0.824119 0.303383
O O9 0.716442 0.687813 0.321453
O O10 0.778480 0.587691 0.365484
O O11 0.500000 0.204275 0.500000
O O12 0.654667 0.204086 0.788090
O O13 0.421208 0.104060 0.267850
O O14 0.368201 0.000000 0.306251
O O15 0.123501 0.645443 0.965535
O O16 0.000000 0.571432 0.000000
#
# Coordination Sequence:
#
# PCOD9210834 Si02
#       7
#     8   8   8   8   8   8   8
#     4  10  21  39  64  91 122 160 200 247 304 358
#     4  11  23  38  59  87 122 161 199 249 303 356
#     4  11  22  36  59  92 121 151 200 254 300 360
#     4  11  23  38  62  85 115 166 204 242 306 365
#     4   9  19  39  66  90 120 160 199 246 306 356
#     4   9  21  41  62  86 121 162 202 248 292 353
#     4   9  20  41  61  88 118 153 210 252 288 357
#
# _framework density 21.374407999999999
#
# number of rings (size 3 to 8) (size 9 to 14) (size 15 to 20)
#    0.000    2.000    1.429    1.286    2.000    2.000 
#    0.000   17.857    0.000    0.000    0.000    0.000 
#    0.000    0.000    0.000    0.000    0.000    0.000 
#
# Total GULP energy -156408.733095 kJ/mol
# GULP energy per Si atom -5586.026182 kJ/mol
# Density = 2.132576 g / cm^3
# Si number density = 21.374408 Si / 1000 Ang^3
#
#
#
# Elastic Constant Matrix: (Units=GPa)
#
#
# Indices 1 2 3 4 5 6 
#
# 1 74.8372 22.0215 14.0098 0.0000 -9.8573 0.0000
# 2 22.0215 76.6307 20.0742 0.0000 -2.5354 0.0000
# 3 14.0098 20.0742 68.0200 0.0000 -6.1020 0.0000
# 4 0.0000 0.0000 0.0000 17.6377 0.0000 10.1959
# 5 -9.8573 -2.5354 -6.1020 0.0000 36.7214 0.0000
# 6 0.0000 0.0000 0.0000 10.1959 0.0000 22.4632
#
#
#
# Elastic Compliance Matrix: (Units=1/GPa)
#
#
# Indices 1 2 3 4 5 6 
#
# 1 0.015274 -0.003827 -0.001698 0.000000 0.003554 0.000000
# 2 -0.003827 0.015105 -0.003724 0.000000 -0.000603 0.000000
# 3 -0.001698 -0.003724 0.016330 0.000000 0.002001 0.000000
# 4 0.000000 0.000000 0.000000 0.076865 0.000000 -0.034889
# 5 0.003554 -0.000603 0.002001 0.000000 0.028477 0.000000
# 6 0.000000 0.000000 0.000000 -0.034889 0.000000 0.060353
#
#
# Mechanical properties :
#
#
# Convention : Reuss Voigt Hill
#
# Bulk Modulus (GPa) = 35.44597 36.85545 36.15071
# Shear Modulus (GPa) = 20.80686 26.25660 23.53173
#
# Velocity S-wave (km/s) = 3.12340 3.50867 3.32163
# Velocity P-wave (km/s) = 5.44305 5.80471 5.62679
#
# Compressibility (1/GPa) = 0.02821195
#
# Stress axis : x y z
#
# Youngs Moduli (GPa) = 65.46895 66.20366 61.23831
#
# Poissons Ratio (x) = 0.25337 0.10397
# Poissons Ratio (y) = 0.25056 0.22803
# Poissons Ratio (z) = 0.11115 0.24652
#
# Static dielectric constant tensor:
#      x y z
#    x 1.816600 0.000000 0.007790 
#    y 0.000000 1.737430 0.000000 
#    z 0.007790 0.000000 1.781180 
# 
# From -- ./inp_files/136999.got.cif
#   From: 2010.05.17/outbox.cif.g08.bks.cpg/sg12_69_cif.got.tgz:136999.got - 2010.06.03 13:09:07.
