data_PCOD9210253
_publ_section_title
;
Structure prediction by ZEFSAII (Michael W. Deem and Ramdas Pophale) SiO2 
 PCOD9210253
Probable space group: C 2/M
;
_chemical_formula_sum "Si O2"
_cell_formula_units_Z 48
_cell_length_a 19.228328
_cell_length_b 8.858451
_cell_length_c 15.195434
_cell_angle_alpha 90.000000
_cell_angle_beta 82.091227
_cell_angle_gamma 90.000000
_cell_volume 2563.668187
_symmetry_space_group_name_H-M "C 2/M"
_symmetry_group_IT_number 12
_symmetry_cell_setting 'monoclinic'
loop_
_space_group_symop_operation_xyz
x,y,z
-x,y,-z
-x,-y,-z
x,-y,z
1/2+x,1/2+y,z
1/2-x,1/2+y,-z
1/2-x,1/2-y,-z
1/2+x,1/2-y,z
loop_
_atom_site_type_symbol
_atom_site_label
_atom_site_fract_x
_atom_site_fract_y
_atom_site_fract_z
Si Si1 0.068512 0.671906 0.548181
Si Si2 0.196832 0.181976 0.079759
Si Si3 0.465323 0.683795 0.913248
Si Si4 0.073054 0.818136 0.739644
Si Si5 0.224663 0.318250 0.753949
Si Si6 0.698703 0.679561 0.437983
O O1 0.093308 0.500000 0.560163
O O2 0.059805 0.749799 0.644883
O O3 0.123751 0.759920 0.478888
O O4 0.000000 0.667117 0.500000
O O5 0.115881 0.233020 0.082247
O O6 0.230724 0.220716 0.167771
O O7 0.196405 0.000000 0.071848
O O8 0.250000 0.250000 0.000000
O O9 0.464870 0.500000 0.914300
O O10 0.513921 0.727597 0.821636
O O11 0.500000 0.732857 0.000000
O O12 0.149201 0.761084 0.759382
O O13 0.073526 0.000000 0.733626
O O14 0.213510 0.500000 0.754923
O O15 0.272047 0.276327 0.662043
O O16 0.699420 0.500000 0.443012
O O17 0.750000 0.750000 0.500000
#
# Coordination Sequence:
#
# PCOD9210253 Si02
#       6
#     8   8   8   8   8   8
#     4  11  25  42  59  84 123 164 200 250 302 351
#     4  10  21  39  61  87 118 153 193 241 296 354
#     4   9  19  36  59  87 118 150 189 239 292 349
#     4  11  22  37  63  90 114 155 202 246 296 357
#     4  10  22  38  59  85 121 158 191 244 304 353
#     4  11  22  38  62  89 119 159 203 248 298 356
#
# _framework density 18.723171000000001
#
# number of rings (size 3 to 8) (size 9 to 14) (size 15 to 20)
#    0.000    1.667    1.667    2.500    2.333    4.000 
#    0.000    1.667    0.000    4.500    0.000    0.000 
#    0.000    0.000    0.000    0.000    0.000    0.000 
#
# Total GULP energy -134003.853697 kJ/mol
# GULP energy per Si atom -5583.493904 kJ/mol
# Density = 1.868056 g / cm^3
# Si number density = 18.723171 Si / 1000 Ang^3
#
#
#
# Elastic Constant Matrix: (Units=GPa)
#
#
# Indices 1 2 3 4 5 6 
#
# 1 163.1724 40.7001 110.5018 0.0000 -10.6820 0.0000
# 2 40.7001 37.3144 52.8557 0.0000 -4.2904 0.0000
# 3 110.5018 52.8557 193.6482 0.0000 -11.1646 0.0000
# 4 0.0000 0.0000 0.0000 19.7023 0.0000 -8.9897
# 5 -10.6820 -4.2904 -11.1646 0.0000 39.1383 0.0000
# 6 0.0000 0.0000 0.0000 -8.9897 0.0000 17.3090
#
#
#
# Elastic Compliance Matrix: (Units=1/GPa)
#
#
# Indices 1 2 3 4 5 6 
#
# 1 0.010537 -0.004796 -0.004645 0.000000 0.001025 0.000000
# 2 -0.004796 0.045952 -0.009751 0.000000 0.000947 0.000000
# 3 -0.004645 -0.009751 0.010514 0.000000 0.000663 0.000000
# 4 0.000000 0.000000 0.000000 0.066519 0.000000 0.034548
# 5 0.001025 0.000947 0.000663 0.000000 0.026123 0.000000
# 6 0.000000 0.000000 0.000000 0.034548 0.000000 0.075716
#
#
# Mechanical properties :
#
#
# Convention : Reuss Voigt Hill
#
# Bulk Modulus (GPa) = 34.94135 89.13891 62.04013
# Shear Modulus (GPa) = 17.65004 27.90173 22.77589
#
# Velocity S-wave (km/s) = 3.07365 3.86453 3.49155
# Velocity P-wave (km/s) = 5.59455 8.22344 7.03292
#
# Compressibility (1/GPa) = 0.02861939
#
# Stress axis : x y z
#
# Youngs Moduli (GPa) = 94.90001 21.76191 95.11061
#
# Poissons Ratio (x) = 0.10438 0.44176
# Poissons Ratio (y) = 0.45518 0.92741
# Poissons Ratio (z) = 0.44078 0.21220
#
# Static dielectric constant tensor:
#      x y z
#    x 1.673140 0.000000 0.054130 
#    y 0.000000 1.643190 0.000000 
#    z 0.054130 0.000000 1.650870 
# 
# From -- ./inp_files/221701.got.cif
#   From: 2010.05.17/outbox.cif.g08.bks.cpg/sg12_111_cif.got.tgz:221701.got - 2010.06.03 13:09:07.
