data_PCOD9210506
_publ_section_title
;
Structure prediction by ZEFSAII (Michael W. Deem and Ramdas Pophale) SiO2 
 PCOD9210506
Probable space group: C 2/M
;
_chemical_formula_sum "Si O2"
_cell_formula_units_Z 50
_cell_length_a 29.125734
_cell_length_b 9.267764
_cell_length_c 12.524536
_cell_angle_alpha 90.000000
_cell_angle_beta 53.281784
_cell_angle_gamma 90.000000
_cell_volume 2709.963228
_symmetry_space_group_name_H-M "C 2/M"
_symmetry_group_IT_number 12
_symmetry_cell_setting 'monoclinic'
loop_
_space_group_symop_operation_xyz
x,y,z
-x,y,-z
-x,-y,-z
x,-y,z
1/2+x,1/2+y,z
1/2-x,1/2+y,-z
1/2-x,1/2-y,-z
1/2+x,1/2-y,z
loop_
_atom_site_type_symbol
_atom_site_label
_atom_site_fract_x
_atom_site_fract_y
_atom_site_fract_z
Si Si1 0.500000 0.000000 0.500000
Si Si2 0.359117 0.831928 0.043852
Si Si3 0.560932 0.239023 0.265910
Si Si4 0.137144 0.834145 0.347185
Si Si5 0.432621 0.328336 0.119922
Si Si6 0.059836 0.169819 0.651538
Si Si7 0.748260 0.826657 0.117925
O O1 0.467912 0.877418 0.617488
O O2 0.396121 0.763858 0.087817
O O3 0.302770 0.735600 0.105006
O O4 0.345110 0.000000 0.081836
O O5 0.396766 0.820897 0.883346
O O6 0.598252 0.334769 0.294792
O O7 0.507039 0.310677 0.281566
O O8 0.098648 0.777587 0.499426
O O9 0.190188 0.729012 0.253630
O O10 0.155853 0.000000 0.340916
O O11 0.418170 0.500000 0.132250
O O12 0.425150 0.273680 0.251987
O O13 0.500000 0.316476 0.000000
O O14 0.070295 0.000000 0.642014
O O15 0.749729 0.000000 0.105968
O O16 0.750000 0.750000 0.000000
#
# Coordination Sequence:
#
# PCOD9210506 Si02
#       7
#     2   8   8   8   8   8   8
#     4  12  24  36  50  98 132 180 194 252 322 380
#     4  12  25  41  61  92 127 163 209 260 306 364
#     4  12  22  35  60  89 132 165 202 252 311 373
#     4  11  23  39  63  93 126 164 208 258 313 376
#     4  10  21  39  64  91 125 166 208 254 308 369
#     4  10  21  39  62  92 123 164 208 253 307 372
#     4  12  26  42  65  91 123 164 208 257 313 373
#
# _framework density 18.450434000000001
#
# number of rings (size 3 to 8) (size 9 to 14) (size 15 to 20)
#    0.000    0.800    5.600    2.400    1.120    2.880 
#    1.440    0.800    0.000    0.000    0.000    0.000 
#    0.000    0.000    0.000    0.000    0.000    0.000 
#
# Total GULP energy -139332.005321 kJ/mol
# GULP energy per Si atom -5573.280213 kJ/mol
# Density = 1.840844 g / cm^3
# Si number density = 18.450434 Si / 1000 Ang^3
#
#
#
# Elastic Constant Matrix: (Units=GPa)
#
#
# Indices 1 2 3 4 5 6 
#
# 1 112.5179 58.5715 51.4092 0.0000 5.7094 0.0000
# 2 58.5715 115.9818 44.1189 0.0000 1.7354 0.0000
# 3 51.4092 44.1189 96.0717 0.0000 4.1818 0.0000
# 4 0.0000 0.0000 0.0000 21.2043 0.0000 -58.1718
# 5 5.7094 1.7354 4.1818 0.0000 30.6325 0.0000
# 6 0.0000 0.0000 0.0000 -58.1718 0.0000 -290.4825
#
#
#
# Elastic Compliance Matrix: (Units=1/GPa)
#
#
# Indices 1 2 3 4 5 6 
#
# 1 0.013922 -0.005088 -0.005043 0.000000 -0.001618 0.000000
# 2 -0.005088 0.012307 -0.002957 0.000000 0.000655 0.000000
# 3 -0.005043 -0.002957 0.014503 0.000000 -0.000872 0.000000
# 4 0.000000 0.000000 0.000000 0.030438 0.000000 -0.006095
# 5 -0.001618 0.000655 -0.000872 0.000000 0.033029 0.000000
# 6 0.000000 0.000000 0.000000 -0.006095 0.000000 -0.002222
#
#
# Mechanical properties :
#
#
# Convention : Reuss Voigt Hill
#
# Bulk Modulus (GPa) = 68.70225 70.30783 69.50504
# Shear Modulus (GPa) = 37.59210 -36.36436 0.61387
#
# Velocity S-wave (km/s) = 4.51872 -4.44432 0.57744
# Velocity P-wave (km/s) = 8.03381 3.44283 6.18042
#
# Compressibility (1/GPa) = 0.01455556
#
# Stress axis : x y z
#
# Youngs Moduli (GPa) = 71.82638 81.25547 68.94906
#
# Poissons Ratio (x) = 0.41346 0.34770
# Poissons Ratio (y) = 0.36548 0.20390
# Poissons Ratio (z) = 0.36221 0.24030
#
# Static dielectric constant tensor:
#      x y z
#    x 1.633600 0.000000 0.011990 
#    y 0.000000 1.634150 0.000000 
#    z 0.011990 0.000000 1.650410 
# 
# From -- ./inp_files/186306.got.cif
#   From: 2010.05.17/outbox.cif.g08.bks.cpg/sg12_94_cif.got.tgz:186306.got - 2010.06.03 13:09:07.
