data_PCOD9210088
_publ_section_title
;
Structure prediction by ZEFSAII (Michael W. Deem and Ramdas Pophale) SiO2 
 PCOD9210088
Probable space group: C 2/M
;
_chemical_formula_sum "Si O2"
_cell_formula_units_Z 64
_cell_length_a 19.535171
_cell_length_b 7.712566
_cell_length_c 32.058868
_cell_angle_alpha 90.000000
_cell_angle_beta 36.437556
_cell_angle_gamma 90.000000
_cell_volume 2868.874234
_symmetry_space_group_name_H-M "C 2/M"
_symmetry_group_IT_number 12
_symmetry_cell_setting 'monoclinic'
loop_
_space_group_symop_operation_xyz
x,y,z
-x,y,-z
-x,-y,-z
x,-y,z
1/2+x,1/2+y,z
1/2-x,1/2+y,-z
1/2-x,1/2-y,-z
1/2+x,1/2-y,z
loop_
_atom_site_type_symbol
_atom_site_label
_atom_site_fract_x
_atom_site_fract_y
_atom_site_fract_z
Si Si1 0.864438 0.201765 0.720385
Si Si2 0.796480 0.292983 0.931181
Si Si3 0.825002 0.212005 0.562651
Si Si4 0.940533 0.212267 0.986770
Si Si5 0.118867 0.797027 0.831697
Si Si6 0.548039 0.300914 0.780383
Si Si7 0.933334 0.211474 0.595353
Si Si8 0.425273 0.801680 0.326130
O O1 0.742634 0.283398 0.792658
O O2 0.900536 0.273808 0.657295
O O3 0.968502 0.218562 0.701722
O O4 0.839040 0.000000 0.727510
O O5 0.812550 0.500000 0.920072
O O6 0.916653 0.206230 0.861111
O O7 0.750000 0.250000 0.000000
O O8 0.692065 0.237159 0.952353
O O9 0.849053 0.264972 0.598878
O O10 0.702916 0.274342 0.604995
O O11 0.937366 0.263697 0.481389
O O12 0.821007 0.000000 0.564732
O O13 0.017297 0.275317 0.910217
O O14 0.942893 0.000000 0.984696
O O15 0.000000 0.269000 0.000000
O O16 0.120279 0.724822 0.783905
O O17 0.092529 0.000000 0.838775
O O18 0.581442 0.500000 0.755582
O O19 0.556417 0.204414 0.732592
O O20 0.933325 0.000000 0.595865
O O21 0.423752 0.000000 0.341198
#
# Coordination Sequence:
#
# PCOD9210088 Si02
#       8
#     8   8   8   8   8   8   8   8
#     4  11  23  37  55  84 120 154 191 238 291 342
#     4  11  21  37  61  88 115 151 194 240 291 345
#     4   8  15  31  57  85 111 145 193 238 280 340
#     4   9  19  36  58  83 111 146 187 230 284 341
#     4  10  21  39  60  82 113 153 192 234 289 346
#     4  11  23  40  60  85 117 151 192 245 297 344
#     4   8  15  31  56  84 114 147 185 237 290 335
#     4  11  23  38  57  84 115 154 198 237 286 348
#
# _framework density 22.308402000000001
#
# number of rings (size 3 to 8) (size 9 to 14) (size 15 to 20)
#    0.000    2.125    1.250    3.000    1.750    2.500 
#    0.000    0.000    0.000    4.125    0.000    8.750 
#    0.000    0.000    0.000    0.000    0.000    0.000 
#
# Total GULP energy -178781.023027 kJ/mol
# GULP energy per Si atom -5586.906970 kJ/mol
# Density = 2.225763 g / cm^3
# Si number density = 22.308402 Si / 1000 Ang^3
#
#
#
# Elastic Constant Matrix: (Units=GPa)
#
#
# Indices 1 2 3 4 5 6 
#
# 1 108.6294 0.6689 13.7280 -0.0003 -25.5180 0.0249
# 2 0.6689 47.0879 -3.8703 -0.0081 -0.8011 -0.0097
# 3 13.7280 -3.8703 53.4923 0.0006 -18.1507 0.0012
# 4 -0.0003 -0.0081 0.0006 6.5323 -0.0021 1.8729
# 5 -25.5180 -0.8011 -18.1507 -0.0021 37.9871 0.0005
# 6 0.0249 -0.0097 0.0012 1.8729 0.0005 3.9617
#
#
#
# Elastic Compliance Matrix: (Units=1/GPa)
#
#
# Indices 1 2 3 4 5 6 
#
# 1 0.010937 -0.000065 -0.000381 0.000026 0.007164 -0.000082
# 2 -0.000065 0.021429 0.002036 0.000014 0.001381 0.000045
# 3 -0.000381 0.002036 0.022518 0.000005 0.010546 -0.000003
# 4 0.000026 0.000014 0.000005 0.177090 0.000031 -0.083722
# 5 0.007164 0.001381 0.010546 0.000031 0.036205 -0.000064
# 6 -0.000082 0.000045 -0.000003 -0.083722 -0.000064 0.291999
#
#
# Mechanical properties :
#
#
# Convention : Reuss Voigt Hill
#
# Bulk Modulus (GPa) = 17.22248 25.58475 21.40362
# Shear Modulus (GPa) = 8.67525 22.94175 15.80850
#
# Velocity S-wave (km/s) = 1.97414 3.21033 2.66491
# Velocity P-wave (km/s) = 3.59628 5.02346 4.36855
#
# Compressibility (1/GPa) = 0.05806364
#
# Stress axis : x y z
#
# Youngs Moduli (GPa) = 91.43315 46.66652 44.40920
#
# Poissons Ratio (x) = 0.00302 0.01691
# Poissons Ratio (y) = 0.00592 -0.09040
# Poissons Ratio (z) = 0.03481 -0.09500
#
# Static dielectric constant tensor:
#      x y z
#    x 1.816110 0.000000 -0.001360 
#    y 0.000000 1.828630 0.000000 
#    z -0.001360 0.000000 1.808690 
# 
# From -- ./inp_files/377992.got.cif
#   From: 2010.05.17/outbox.cif.g08.bks.cpg/sg12_189_cif.got.tgz:377992.got - 2010.06.03 13:09:07.
