data_PCOD9210739
_publ_section_title
;
Structure prediction by ZEFSAII (Michael W. Deem and Ramdas Pophale) SiO2 
 PCOD9210739
Probable space group: C 2/M
;
_chemical_formula_sum "Si O2"
_cell_formula_units_Z 48
_cell_length_a 7.498397
_cell_length_b 22.560644
_cell_length_c 13.337877
_cell_angle_alpha 90.000000
_cell_angle_beta 115.611843
_cell_angle_gamma 90.000000
_cell_volume 2034.649025
_symmetry_space_group_name_H-M "C 2/M"
_symmetry_group_IT_number 12
_symmetry_cell_setting 'monoclinic'
loop_
_space_group_symop_operation_xyz
x,y,z
-x,y,-z
-x,-y,-z
x,-y,z
1/2+x,1/2+y,z
1/2-x,1/2+y,-z
1/2-x,1/2-y,-z
1/2+x,1/2-y,z
loop_
_atom_site_type_symbol
_atom_site_label
_atom_site_fract_x
_atom_site_fract_y
_atom_site_fract_z
Si Si1 0.371769 0.566713 0.871182
Si Si2 0.453503 0.195509 0.734304
Si Si3 0.869227 0.000000 0.289847
Si Si4 0.192154 0.363013 0.487571
Si Si5 0.049289 0.409536 0.130059
Si Si6 0.764212 0.000000 0.499466
Si Si7 0.130346 0.830021 0.273542
O O1 0.417113 0.500000 0.848637
O O2 0.441314 0.614884 0.808510
O O3 0.142495 0.569724 0.850955
O O4 0.500000 0.578343 0.000000
O O5 0.294673 0.171498 0.613856
O O6 0.425737 0.158483 0.829154
O O7 0.656480 0.178415 0.728363
O O8 0.460811 0.265186 0.753781
O O9 0.740666 0.053995 0.212682
O O10 0.840686 0.000000 0.403705
O O11 0.108579 0.000000 0.365222
O O12 0.167978 0.434056 0.473325
O O13 0.361912 0.349210 0.608651
O O14 0.000000 0.339812 0.500000
O O15 0.000000 0.416993 0.000000
#
# Coordination Sequence:
#
# PCOD9210739 Si02
#       7
#     8   8   4   8   8   4   8
#     4  10  23  42  65  96 129 167 220 273 319 381
#     4  10  22  42  62  93 130 168 218 265 319 381
#     4  11  23  40  59  95 134 168 215 260 330 382
#     4  10  21  39  63  93 128 171 213 263 327 384
#     4  11  23  42  68  92 131 176 214 269 326 386
#     4  11  23  38  62  97 134 168 209 272 319 392
#     4  10  23  40  65  93 127 174 213 262 324 383
#
# _framework density 23.591294000000001
#
# number of rings (size 3 to 8) (size 9 to 14) (size 15 to 20)
#    0.000    1.667    2.500    1.000    1.167    4.667 
#    0.000    3.333    0.000    0.000    0.000    0.000 
#    0.000    0.000    0.000    0.000    0.000    0.000 
#
# Total GULP energy -133888.658028 kJ/mol
# GULP energy per Si atom -5578.694085 kJ/mol
# Density = 2.353760 g / cm^3
# Si number density = 23.591294 Si / 1000 Ang^3
#
#
#
# Elastic Constant Matrix: (Units=GPa)
#
#
# Indices 1 2 3 4 5 6 
#
# 1 56.1102 -12.3028 5.4830 0.0000 25.1777 0.0000
# 2 -12.3028 258.8427 121.1311 0.0000 -101.0657 0.0000
# 3 5.4830 121.1311 205.4299 0.0000 -68.7325 0.0000
# 4 0.0000 0.0000 0.0000 16.6032 0.0000 -5.5930
# 5 25.1777 -101.0657 -68.7325 0.0000 126.6566 0.0000
# 6 0.0000 0.0000 0.0000 -5.5930 0.0000 7.6936
#
#
#
# Elastic Compliance Matrix: (Units=1/GPa)
#
#
# Indices 1 2 3 4 5 6 
#
# 1 0.020440 -0.000032 -0.002315 0.000000 -0.005345 0.000000
# 2 -0.000032 0.006576 -0.002589 0.000000 0.003849 0.000000
# 3 -0.002315 -0.002589 0.007232 0.000000 0.002319 0.000000
# 4 0.000000 0.000000 0.000000 0.079763 0.000000 0.057985
# 5 -0.005345 0.003849 0.002319 0.000000 0.013288 0.000000
# 6 0.000000 0.000000 0.000000 0.057985 0.000000 0.172133
#
#
# Mechanical properties :
#
#
# Convention : Reuss Voigt Hill
#
# Bulk Modulus (GPa) = 41.02441 83.22286 62.12363
# Shear Modulus (GPa) = 15.75160 57.26210 36.50685
#
# Velocity S-wave (km/s) = 2.58677 4.93206 3.93806
# Velocity P-wave (km/s) = 5.13315 8.23330 6.86063
#
# Compressibility (1/GPa) = 0.02437573
#
# Stress axis : x y z
#
# Youngs Moduli (GPa) = 48.92457 152.06270 138.27269
#
# Poissons Ratio (x) = 0.00489 0.32009
# Poissons Ratio (y) = 0.00157 0.35799
# Poissons Ratio (z) = 0.11326 0.39370
#
# Static dielectric constant tensor:
#      x y z
#    x 2.554420 0.000000 0.037200 
#    y 0.000000 1.922580 0.000000 
#    z 0.037200 0.000000 1.887820 
# 
# From -- ./inp_files/122623.got.cif
#   From: 2010.05.17/outbox.cif.g08.bks.cpg/sg12_62_cif.got.tgz:122623.got - 2010.06.03 13:09:07.
