data_PCOD9210999
_publ_section_title
;
Structure prediction by ZEFSAII (Michael W. Deem and Ramdas Pophale) SiO2 
 PCOD9210999
Probable space group: C 2/M
;
_chemical_formula_sum "Si O2"
_cell_formula_units_Z 64
_cell_length_a 9.497581
_cell_length_b 18.614820
_cell_length_c 31.647432
_cell_angle_alpha 90.000000
_cell_angle_beta 143.241290
_cell_angle_gamma 90.000000
_cell_volume 3348.386486
_symmetry_space_group_name_H-M "C 2/M"
_symmetry_group_IT_number 12
_symmetry_cell_setting 'monoclinic'
loop_
_space_group_symop_operation_xyz
x,y,z
-x,y,-z
-x,-y,-z
x,-y,z
1/2+x,1/2+y,z
1/2-x,1/2+y,-z
1/2-x,1/2-y,-z
1/2+x,1/2-y,z
loop_
_atom_site_type_symbol
_atom_site_label
_atom_site_fract_x
_atom_site_fract_y
_atom_site_fract_z
Si Si1 0.062382 0.585728 0.614572
Si Si2 0.294371 0.179083 0.483862
Si Si3 0.877005 0.419025 0.878607
Si Si4 0.087412 0.330118 0.705189
Si Si5 0.695013 0.686387 0.679728
Si Si6 0.027548 0.083430 0.147837
Si Si7 0.198956 0.675329 0.010883
Si Si8 0.889258 0.086303 0.268510
O O1 0.050638 0.500000 0.613147
O O2 0.009232 0.619019 0.647631
O O3 0.333583 0.606316 0.668133
O O4 0.885963 0.617567 0.537408
O O5 0.500000 0.192107 0.500000
O O6 0.250000 0.250000 0.500000
O O7 0.055270 0.166823 0.401178
O O8 0.953869 0.500000 0.887383
O O9 0.683595 0.422291 0.869067
O O10 0.744505 0.389055 0.805857
O O11 0.088465 0.374221 0.948014
O O12 0.184377 0.259068 0.704937
O O13 0.268565 0.374630 0.777936
O O14 0.878488 0.307129 0.686003
O O15 0.738952 0.622000 0.722855
O O16 0.920579 0.133436 0.084987
O O17 0.087321 0.000000 0.150420
O O18 0.250000 0.750000 0.000000
O O19 0.000000 0.684330 0.000000
O O20 0.882486 0.000000 0.268767
#
# Coordination Sequence:
#
# PCOD9210999 Si02
#       8
#     8   8   8   8   8   8   8   8
#     4  11  23  42  67  93 124 166 209 257 318 379
#     4  12  24  42  65  90 124 164 208 258 321 374
#     4   9  18  37  66  90 120 164 209 249 301 370
#     4  12  25  41  65  92 127 166 209 264 313 375
#     4  12  26  41  64  93 125 163 211 260 318 375
#     4  10  21  39  65  93 125 165 210 259 311 368
#     4  10  22  38  61  93 127 162 207 254 305 365
#     4  10  21  40  65  94 125 160 208 259 311 375
#
# _framework density 19.113683999999999
#
# number of rings (size 3 to 8) (size 9 to 14) (size 15 to 20)
#    0.000    1.250    3.750    2.250    1.750    4.250 
#    0.000    0.625    0.000    0.750    0.000    0.000 
#    0.000    0.000    0.000    0.000    0.000    0.000 
#
# Total GULP energy -178647.419371 kJ/mol
# GULP energy per Si atom -5582.731855 kJ/mol
# Density = 1.907018 g / cm^3
# Si number density = 19.113684 Si / 1000 Ang^3
#
#
#
# Elastic Constant Matrix: (Units=GPa)
#
#
# Indices 1 2 3 4 5 6 
#
# 1 93.5902 57.0407 20.2970 0.0001 -6.0416 0.0000
# 2 57.0407 90.0186 70.8244 -0.0001 -10.5797 0.0000
# 3 20.2970 70.8244 119.1877 -0.0004 -13.7851 0.0000
# 4 0.0001 -0.0001 -0.0004 32.4259 0.0000 -8.6770
# 5 -6.0416 -10.5797 -13.7851 0.0000 22.7794 0.0000
# 6 0.0000 0.0000 0.0000 -8.6770 0.0000 31.0945
#
#
#
# Elastic Compliance Matrix: (Units=1/GPa)
#
#
# Indices 1 2 3 4 5 6 
#
# 1 0.020910 -0.019549 0.008223 0.000000 0.001442 0.000000
# 2 -0.019549 0.039258 -0.019881 0.000000 0.001017 0.000000
# 3 0.008223 -0.019881 0.019342 0.000000 0.004652 0.000000
# 4 0.000000 0.000000 0.000000 0.033328 0.000000 0.009300
# 5 0.001442 0.001017 0.004652 0.000000 0.047569 0.000000
# 6 0.000000 0.000000 0.000000 0.009300 0.000000 0.034755
#
#
# Mechanical properties :
#
#
# Convention : Reuss Voigt Hill
#
# Bulk Modulus (GPa) = 58.50182 66.56895 62.53538
# Shear Modulus (GPa) = 18.99147 27.56892 23.28019
#
# Velocity S-wave (km/s) = 3.15557 3.80197 3.49375
# Velocity P-wave (km/s) = 6.62952 7.36049 7.00455
#
# Compressibility (1/GPa) = 0.01709349
#
# Stress axis : x y z
#
# Youngs Moduli (GPa) = 47.82512 25.47248 51.70117
#
# Poissons Ratio (x) = 0.49797 -0.42513
# Poissons Ratio (y) = 0.93495 1.02789
# Poissons Ratio (z) = -0.39325 0.50643
#
# Static dielectric constant tensor:
#      x y z
#    x 1.643550 0.000000 0.019880 
#    y 0.000000 1.668100 0.000000 
#    z 0.019880 0.000000 1.625470 
# 
# From -- ./inp_files/373020.got.cif
#   From: 2010.05.17/outbox.cif.g08.bks.cpg/sg12_187_cif.got.tgz:373020.got - 2010.06.03 13:09:07.
