data_PCOD9210744
_publ_section_title
;
Structure prediction by ZEFSAII (Michael W. Deem and Ramdas Pophale) SiO2 
 PCOD9210744
Probable space group: C 2/M
;
_chemical_formula_sum "Si O2"
_cell_formula_units_Z 58
_cell_length_a 9.593680
_cell_length_b 20.738266
_cell_length_c 25.396652
_cell_angle_alpha 90.000000
_cell_angle_beta 144.342827
_cell_angle_gamma 90.000000
_cell_volume 2945.462869
_symmetry_space_group_name_H-M "C 2/M"
_symmetry_group_IT_number 12
_symmetry_cell_setting 'monoclinic'
loop_
_space_group_symop_operation_xyz
x,y,z
-x,y,-z
-x,-y,-z
x,-y,z
1/2+x,1/2+y,z
1/2-x,1/2+y,-z
1/2-x,1/2-y,-z
1/2+x,1/2-y,z
loop_
_atom_site_type_symbol
_atom_site_label
_atom_site_fract_x
_atom_site_fract_y
_atom_site_fract_z
Si Si1 0.060658 0.109310 0.091992
Si Si2 0.198107 0.139695 0.785141
Si Si3 0.479705 0.245797 0.935784
Si Si4 0.891567 0.172056 0.412681
Si Si5 0.904775 0.573712 0.747764
Si Si6 0.220317 0.072688 0.900545
Si Si7 0.277101 0.694985 0.588347
Si Si8 0.500000 0.500000 0.000000
O O1 0.312416 0.073570 0.174357
O O2 0.112383 0.180862 0.086961
O O3 0.929229 0.117716 0.106721
O O4 0.905267 0.058799 0.010162
O O5 0.322104 0.203696 0.847518
O O6 0.357879 0.105917 0.789869
O O7 0.175395 0.092796 0.827304
O O8 0.948408 0.155562 0.679981
O O9 0.500000 0.216131 0.000000
O O10 0.750000 0.250000 0.000000
O O11 0.723085 0.120130 0.333200
O O12 0.752567 0.234684 0.393145
O O13 0.000000 0.143803 0.500000
O O14 0.086728 0.192947 0.427122
O O15 0.816288 0.500000 0.719421
O O16 0.134275 0.000000 0.883058
O O17 0.500000 0.074464 0.000000
O O18 0.000000 0.671778 0.500000
#
# Coordination Sequence:
#
# PCOD9210744 Si02
#       8
#     8   8   8   8   8   8   8   2
#     4  12  24  40  61  85 118 163 210 246 305 360
#     4  11  24  40  61  89 124 159 201 259 313 366
#     4  12  24  38  58  87 123 157 199 254 304 358
#     4  10  21  39  65  93 121 156 197 251 310 375
#     4  11  24  41  63  88 120 162 204 248 305 370
#     4  11  24  39  59  86 119 163 209 249 302 369
#     4  10  21  39  63  94 123 159 201 252 321 377
#     4  12  24  40  62  84 118 168 208 256 294 366
#
# _framework density 19.691302
#
# number of rings (size 3 to 8) (size 9 to 14) (size 15 to 20)
#    0.000    0.966    2.069    5.793    1.931    5.793 
#    0.000    0.000    0.000   10.345    0.000    0.000 
#    0.000    0.552    0.000    0.000    0.000    0.000 
#
# Total GULP energy -161620.824863 kJ/mol
# GULP energy per Si atom -5573.131892 kJ/mol
# Density = 1.964648 g / cm^3
# Si number density = 19.691302 Si / 1000 Ang^3
#
#
#
# Elastic Constant Matrix: (Units=GPa)
#
#
# Indices 1 2 3 4 5 6 
#
# 1 114.2993 20.5507 49.4271 0.0043 -17.7290 0.0036
# 2 20.5507 100.4974 34.1863 -0.0001 0.0348 0.0017
# 3 49.4271 34.1863 110.2883 -0.0106 -10.1825 0.0014
# 4 0.0043 -0.0001 -0.0106 19.9591 -0.0033 45.4505
# 5 -17.7290 0.0348 -10.1825 -0.0033 38.6875 0.0015
# 6 0.0036 0.0017 0.0014 45.4505 0.0015 29.7342
#
#
#
# Elastic Compliance Matrix: (Units=1/GPa)
#
#
# Indices 1 2 3 4 5 6 
#
# 1 0.011480 -0.000812 -0.004517 0.000000 0.004073 -0.000002
# 2 -0.000812 0.011214 -0.003226 0.000000 -0.001231 -0.000001
# 3 -0.004517 -0.003226 0.012197 -0.000003 0.001143 0.000005
# 4 0.000000 0.000000 -0.000003 -0.020196 -0.000003 0.030871
# 5 0.004073 -0.001231 0.001143 -0.000003 0.028016 0.000003
# 6 -0.000002 -0.000001 0.000005 0.030871 0.000003 -0.013557
#
#
# Mechanical properties :
#
#
# Convention : Reuss Voigt Hill
#
# Bulk Modulus (GPa) = 56.23998 59.26815 57.75406
# Shear Modulus (GPa) = 95.79868 32.40421 64.10145
#
# Velocity S-wave (km/s) = 6.98254 4.06101 5.71173
# Velocity P-wave (km/s) = 9.67629 7.22171 8.53767
#
# Compressibility (1/GPa) = 0.01778095
#
# Stress axis : x y z
#
# Youngs Moduli (GPa) = 87.10716 89.17132 81.98754
#
# Poissons Ratio (x) = 0.07244 0.37035
# Poissons Ratio (y) = 0.07076 0.26447
# Poissons Ratio (z) = 0.39347 0.28764
#
# Static dielectric constant tensor:
#      x y z
#    x 1.897600 -0.000020 0.004930 
#    y -0.000020 1.808620 0.000000 
#    z 0.004930 0.000000 1.742680 
# 
# From -- ./inp_files/333866.got.cif
#   From: 2010.05.17/outbox.cif.g08.bks.cpg/sg12_167_cif.got.tgz:333866.got - 2010.06.03 13:09:07.
