data_PCOD9210462
_publ_section_title
;
Structure prediction by ZEFSAII (Michael W. Deem and Ramdas Pophale) SiO2 
 PCOD9210462
Probable space group: C 2/M
;
_chemical_formula_sum "Si O2"
_cell_formula_units_Z 64
_cell_length_a 21.983459
_cell_length_b 27.991130
_cell_length_c 14.530976
_cell_angle_alpha 90.000000
_cell_angle_beta 158.298388
_cell_angle_gamma 90.000000
_cell_volume 3306.330942
_symmetry_space_group_name_H-M "C 2/M"
_symmetry_group_IT_number 12
_symmetry_cell_setting 'monoclinic'
loop_
_space_group_symop_operation_xyz
x,y,z
-x,y,-z
-x,-y,-z
x,-y,z
1/2+x,1/2+y,z
1/2-x,1/2+y,-z
1/2-x,1/2-y,-z
1/2+x,1/2-y,z
loop_
_atom_site_type_symbol
_atom_site_label
_atom_site_fract_x
_atom_site_fract_y
_atom_site_fract_z
Si Si1 0.353293 0.554239 0.217484
Si Si2 0.918601 0.893031 0.597282
Si Si3 0.093423 0.692770 0.848688
Si Si4 0.870120 0.803525 0.084611
Si Si5 0.858416 0.642665 0.372949
Si Si6 0.183439 0.054173 0.217767
Si Si7 0.361244 0.113541 0.950451
Si Si8 0.320939 0.054560 0.611344
O O1 0.500000 0.553485 0.500000
O O2 0.304193 0.500000 0.130006
O O3 0.429191 0.579289 0.235293
O O4 0.207725 0.583551 0.059364
O O5 0.776941 0.888130 0.321449
O O6 0.841127 0.923518 0.570174
O O7 0.982386 0.841011 0.712906
O O8 0.070679 0.749154 0.830510
O O9 0.950415 0.666945 0.588853
O O10 0.261487 0.688193 0.024646
O O11 0.109353 0.665855 0.967729
O O12 0.749058 0.817298 0.830746
O O13 0.747020 0.597366 0.244148
O O14 0.000000 0.627248 0.500000
O O15 0.297977 0.054496 0.469485
O O16 0.187836 0.000000 0.183894
O O17 0.000000 0.061913 0.000000
O O18 0.525640 0.087719 0.148771
O O19 0.344917 0.000000 0.676527
#
# Coordination Sequence:
#
# PCOD9210462 Si02
#       8
#     8   8   8   8   8   8   8   8
#     4   9  18  33  54  83 117 154 193 240 294 348
#     4  11  22  36  59  89 121 156 201 245 291 358
#     4  10  21  39  62  90 120 156 198 249 308 356
#     4  10  22  38  63  91 120 155 200 250 307 356
#     4  10  21  40  64  91 121 153 200 255 299 355
#     4  10  21  39  63  87 120 165 205 243 297 358
#     4  11  21  37  59  87 123 157 194 248 296 361
#     4  11  23  39  60  88 124 165 200 241 299 363
#
# _framework density 19.356805000000001
#
# number of rings (size 3 to 8) (size 9 to 14) (size 15 to 20)
#    0.000    1.750    2.500    1.875    1.750    2.250 
#    0.000    1.250    0.000    0.000    0.000    0.000 
#    0.000    0.000    0.000    0.000    0.000    0.000 
#
# Total GULP energy -178741.927789 kJ/mol
# GULP energy per Si atom -5585.685243 kJ/mol
# Density = 1.931275 g / cm^3
# Si number density = 19.356805 Si / 1000 Ang^3
#
#
#
# Elastic Constant Matrix: (Units=GPa)
#
#
# Indices 1 2 3 4 5 6 
#
# 1 47.2338 27.8477 0.4275 0.0000 8.9687 0.0000
# 2 27.8477 131.5804 16.2057 0.0000 16.3098 0.0000
# 3 0.4275 16.2057 49.9617 0.0000 7.9640 0.0000
# 4 0.0000 0.0000 0.0000 14.5600 0.0000 7.3550
# 5 8.9687 16.3098 7.9640 0.0000 26.6008 0.0000
# 6 0.0000 0.0000 0.0000 7.3550 0.0000 24.2518
#
#
#
# Elastic Compliance Matrix: (Units=1/GPa)
#
#
# Indices 1 2 3 4 5 6 
#
# 1 0.025191 -0.004849 0.002349 0.000000 -0.006223 0.000000
# 2 -0.004849 0.009345 -0.002454 0.000000 -0.003360 0.000000
# 3 0.002349 -0.002454 0.021714 0.000000 -0.005788 0.000000
# 4 0.000000 0.000000 0.000000 0.081106 0.000000 -0.024597
# 5 -0.006223 -0.003360 -0.005788 0.000000 0.043484 0.000000
# 6 0.000000 0.000000 0.000000 -0.024597 0.000000 0.048694
#
#
# Mechanical properties :
#
#
# Convention : Reuss Voigt Hill
#
# Bulk Modulus (GPa) = 21.57888 35.30419 28.44154
# Shear Modulus (GPa) = 19.61637 25.36888 22.49263
#
# Velocity S-wave (km/s) = 3.18686 3.62414 3.41251
# Velocity P-wave (km/s) = 4.97128 5.98254 5.50020
#
# Compressibility (1/GPa) = 0.04634160
#
# Stress axis : x y z
#
# Youngs Moduli (GPa) = 39.69716 107.00972 46.05341
#
# Poissons Ratio (x) = 0.51892 -0.10820
# Poissons Ratio (y) = 0.19250 0.11302
# Poissons Ratio (z) = -0.09326 0.26261
#
# Static dielectric constant tensor:
#      x y z
#    x 1.673960 0.000000 -0.012470 
#    y 0.000000 1.658880 0.000000 
#    z -0.012470 0.000000 1.676180 
# 
# From -- ./inp_files/209410.got.cif
#   From: 2010.05.17/outbox.cif.g08.bks.cpg/sg12_105_cif.got.tgz:209410.got - 2010.06.03 13:09:07.
