data_PCOD9210642
_publ_section_title
;
Structure prediction by ZEFSAII (Michael W. Deem and Ramdas Pophale) SiO2 
 PCOD9210642
Probable space group: C 2/M
;
_chemical_formula_sum "Si O2"
_cell_formula_units_Z 40
_cell_length_a 27.593690
_cell_length_b 8.165221
_cell_length_c 19.091622
_cell_angle_alpha 90.000000
_cell_angle_beta 158.226635
_cell_angle_gamma 90.000000
_cell_volume 1595.584237
_symmetry_space_group_name_H-M "C 2/M"
_symmetry_group_IT_number 12
_symmetry_cell_setting 'monoclinic'
loop_
_space_group_symop_operation_xyz
x,y,z
-x,y,-z
-x,-y,-z
x,-y,z
1/2+x,1/2+y,z
1/2-x,1/2+y,-z
1/2-x,1/2-y,-z
1/2+x,1/2-y,z
loop_
_atom_site_type_symbol
_atom_site_label
_atom_site_fract_x
_atom_site_fract_y
_atom_site_fract_z
Si Si1 0.620364 0.689219 0.581927
Si Si2 0.016248 0.690876 0.101271
Si Si3 0.716585 0.810063 0.567237
Si Si4 0.941512 0.807437 0.145851
Si Si5 0.657356 0.809899 0.785297
O O1 0.642895 0.500000 0.629987
O O2 0.707514 0.743990 0.634310
O O3 0.642871 0.795432 0.681248
O O4 0.467894 0.711780 0.355771
O O5 0.979225 0.500000 0.053344
O O6 0.171738 0.709956 0.322725
O O7 0.939734 0.782659 0.059497
O O8 0.000000 0.753424 0.000000
O O9 0.570831 0.785458 0.343046
O O10 0.751775 0.000000 0.612230
O O11 0.955898 0.000000 0.180474
O O12 0.804850 0.748989 0.995963
O O13 0.646251 0.000000 0.790691
#
# Coordination Sequence:
#
# PCOD9210642 Si02
#       5
#     8   8   8   8   8
#     4  11  22  38  62  90 122 158 200 248 296 351
#     4  11  24  42  65  91 120 155 197 244 295 354
#     4  12  25  41  62  87 121 160 199 246 298 354
#     4  11  24  41  62  89 122 158 198 245 297 354
#     4  10  21  39  63  90 121 158 201 246 294 351
#
# _framework density 25.069188
#
# number of rings (size 3 to 8) (size 9 to 14) (size 15 to 20)
#    0.000    1.000    0.000    8.400    0.000    8.800 
#    0.000    0.000    0.000    0.000    0.000    0.000 
#    0.000    0.000    0.000    0.000    0.000    0.000 
#
# Total GULP energy -112099.400951 kJ/mol
# GULP energy per Si atom -5604.970048 kJ/mol
# Density = 2.501213 g / cm^3
# Si number density = 25.069188 Si / 1000 Ang^3
#
#
#
# Elastic Constant Matrix: (Units=GPa)
#
#
# Indices 1 2 3 4 5 6 
#
# 1 88.7167 -1.9392 3.2765 0.0000 22.8267 0.0000
# 2 -1.9392 90.2437 -8.5499 0.0000 4.7521 0.0000
# 3 3.2765 -8.5499 107.3062 0.0000 21.5996 0.0000
# 4 0.0000 0.0000 0.0000 25.5057 0.0000 -3.8030
# 5 22.8267 4.7521 21.5996 0.0000 50.1663 0.0000
# 6 0.0000 0.0000 0.0000 -3.8030 0.0000 27.6429
#
#
#
# Elastic Compliance Matrix: (Units=1/GPa)
#
#
# Indices 1 2 3 4 5 6 
#
# 1 0.012881 0.000699 0.000937 0.000000 -0.006331 0.000000
# 2 0.000699 0.011319 0.001270 0.000000 -0.001937 0.000000
# 3 0.000937 0.001270 0.010403 0.000000 -0.005026 0.000000
# 4 0.000000 0.000000 0.000000 0.040028 0.000000 0.005507
# 5 -0.006331 -0.001937 -0.005026 0.000000 0.025162 0.000000
# 6 0.000000 0.000000 0.000000 0.005507 0.000000 0.036933
#
#
# Mechanical properties :
#
#
# Convention : Reuss Voigt Hill
#
# Bulk Modulus (GPa) = 24.74303 30.20459 27.47381
# Shear Modulus (GPa) = 34.62939 40.22827 37.42883
#
# Velocity S-wave (km/s) = 3.72069 4.01020 3.86816
# Velocity P-wave (km/s) = 5.32441 5.78938 5.56176
#
# Compressibility (1/GPa) = 0.04041543
#
# Stress axis : x y z
#
# Youngs Moduli (GPa) = 77.63119 88.35090 96.12236
#
# Poissons Ratio (x) = -0.06175 -0.09004
# Poissons Ratio (y) = -0.05426 -0.12212
# Poissons Ratio (z) = -0.07272 -0.11224
#
# Static dielectric constant tensor:
#      x y z
#    x 1.967320 0.000000 -0.062960 
#    y 0.000000 1.823740 0.000000 
#    z -0.062960 0.000000 2.094990 
# 
# From -- ./inp_files/151836.got.cif
#   From: 2010.05.17/outbox.cif.g08.bks.cpg/sg12_76_cif.got.tgz:151836.got - 2010.06.03 13:09:07.
