data_PCOD9210366
_publ_section_title
;
Structure prediction by ZEFSAII (Michael W. Deem and Ramdas Pophale) SiO2 
 PCOD9210366
Probable space group: C 2/M
;
_chemical_formula_sum "Si O2"
_cell_formula_units_Z 40
_cell_length_a 27.873010
_cell_length_b 8.739895
_cell_length_c 9.131457
_cell_angle_alpha 90.000000
_cell_angle_beta 70.887016
_cell_angle_gamma 90.000000
_cell_volume 2101.862980
_symmetry_space_group_name_H-M "C 2/M"
_symmetry_group_IT_number 12
_symmetry_cell_setting 'monoclinic'
loop_
_space_group_symop_operation_xyz
x,y,z
-x,y,-z
-x,-y,-z
x,-y,z
1/2+x,1/2+y,z
1/2-x,1/2+y,-z
1/2-x,1/2-y,-z
1/2+x,1/2-y,z
loop_
_atom_site_type_symbol
_atom_site_label
_atom_site_fract_x
_atom_site_fract_y
_atom_site_fract_z
Si Si1 0.101638 0.682040 0.567187
Si Si2 0.799073 0.815516 0.031865
Si Si3 0.996330 0.184179 0.174908
Si Si4 0.700294 0.315977 0.627949
Si Si5 0.900489 0.184655 0.756239
O O1 0.105896 0.500000 0.566249
O O2 0.051059 0.736090 0.700969
O O3 0.150310 0.755348 0.597415
O O4 0.099331 0.739899 0.402707
O O5 0.800291 0.769353 0.200740
O O6 0.796640 0.000000 0.030212
O O7 0.750000 0.750000 0.000000
O O8 0.850539 0.769180 0.897057
O O9 0.048597 0.222936 0.205215
O O10 0.989277 0.000000 0.191790
O O11 0.000000 0.223938 0.000000
O O12 0.701113 0.500000 0.620069
O O13 0.750000 0.250000 0.500000
O O14 0.899361 0.000000 0.740021
#
# Coordination Sequence:
#
# PCOD9210366 Si02
#       5
#     8   8   8   8   8
#     4  12  25  39  58  88 123 158 196 241 294 351
#     4  10  22  39  61  88 117 151 193 241 291 348
#     4  10  21  40  65  89 115 153 200 247 297 353
#     4  11  23  41  63  89 120 155 198 244 293 350
#     4  10  21  39  62  86 115 155 199 243 294 350
#
# _framework density 19.030736999999998
#
# number of rings (size 3 to 8) (size 9 to 14) (size 15 to 20)
#    0.000    1.400    0.000    5.400    0.000   12.400 
#    0.000    2.000    0.000    0.000    0.000    0.000 
#    0.000    0.000    0.000    0.000    0.000    0.000 
#
# Total GULP energy -111881.720048 kJ/mol
# GULP energy per Si atom -5594.086002 kJ/mol
# Density = 1.898742 g / cm^3
# Si number density = 19.030737 Si / 1000 Ang^3
#
#
#
# Elastic Constant Matrix: (Units=GPa)
#
#
# Indices 1 2 3 4 5 6 
#
# 1 210.0610 71.7314 128.1351 0.0000 0.8147 0.0000
# 2 71.7314 54.5948 74.3590 0.0000 0.4011 0.0000
# 3 128.1351 74.3590 221.9186 0.0000 2.7537 0.0000
# 4 0.0000 0.0000 0.0000 24.3141 0.0000 -4.5938
# 5 0.8147 0.4011 2.7537 0.0000 45.2870 0.0000
# 6 0.0000 0.0000 0.0000 -4.5938 0.0000 34.9769
#
#
#
# Elastic Compliance Matrix: (Units=1/GPa)
#
#
# Indices 1 2 3 4 5 6 
#
# 1 0.009248 -0.008972 -0.002334 0.000000 0.000055 0.000000
# 2 -0.008972 0.042405 -0.009033 0.000000 0.000335 0.000000
# 3 -0.002334 -0.009033 0.008886 0.000000 -0.000418 0.000000
# 4 0.000000 0.000000 0.000000 0.042175 0.000000 0.005539
# 5 0.000055 0.000335 -0.000418 0.000000 0.022103 0.000000
# 6 0.000000 0.000000 0.000000 0.005539 0.000000 0.029318
#
#
# Mechanical properties :
#
#
# Convention : Reuss Voigt Hill
#
# Bulk Modulus (GPa) = 50.34947 115.00281 82.67614
# Shear Modulus (GPa) = 24.82235 35.07218 29.94727
#
# Velocity S-wave (km/s) = 3.61547 4.29759 3.97120
# Velocity P-wave (km/s) = 6.62896 9.22967 8.03524
#
# Compressibility (1/GPa) = 0.01986118
#
# Stress axis : x y z
#
# Youngs Moduli (GPa) = 108.13392 23.58221 112.54156
#
# Poissons Ratio (x) = 0.21158 0.26268
# Poissons Ratio (y) = 0.97017 1.01654
# Poissons Ratio (z) = 0.25239 0.21301
#
# Static dielectric constant tensor:
#      x y z
#    x 1.618460 0.000000 -0.000350 
#    y 0.000000 1.624440 0.000000 
#    z -0.000350 0.000000 1.630570 
# 
# From -- ./inp_files/92715.got.cif
#   From: 2010.05.17/outbox.cif.g08.bks.cpg/sg12_47_cif.got.tgz:92715.got - 2010.06.03 13:09:07.
