data_PCOD9210906
_publ_section_title
;
Structure prediction by ZEFSAII (Michael W. Deem and Ramdas Pophale) SiO2 
 PCOD9210906
Probable space group: C 2/M
;
_chemical_formula_sum "Si O2"
_cell_formula_units_Z 48
_cell_length_a 25.066983
_cell_length_b 8.397903
_cell_length_c 11.045797
_cell_angle_alpha 90.000000
_cell_angle_beta 71.120575
_cell_angle_gamma 90.000000
_cell_volume 2200.156956
_symmetry_space_group_name_H-M "C 2/M"
_symmetry_group_IT_number 12
_symmetry_cell_setting 'monoclinic'
loop_
_space_group_symop_operation_xyz
x,y,z
-x,y,-z
-x,-y,-z
x,-y,z
1/2+x,1/2+y,z
1/2-x,1/2+y,-z
1/2-x,1/2-y,-z
1/2+x,1/2-y,z
loop_
_atom_site_type_symbol
_atom_site_label
_atom_site_fract_x
_atom_site_fract_y
_atom_site_fract_z
Si Si1 0.920742 0.315841 0.976882
Si Si2 0.083475 0.189860 0.758275
Si Si3 0.978854 0.185684 0.698731
Si Si4 0.313137 0.313110 0.947232
Si Si5 0.686105 0.809648 0.546608
Si Si6 0.871388 0.688625 0.665448
O O1 0.933777 0.500000 0.942734
O O2 0.950113 0.209478 0.852390
O O3 0.854373 0.282657 0.006298
O O4 0.934948 0.270076 0.102993
O O5 0.147136 0.234362 0.678791
O O6 0.042065 0.243578 0.679573
O O7 0.077644 0.000000 0.774619
O O8 0.937463 0.272573 0.636116
O O9 0.979902 0.000000 0.665870
O O10 0.315563 0.500000 0.973923
O O11 0.338457 0.281199 0.795375
O O12 0.250000 0.250000 0.000000
O O13 0.750000 0.750000 0.500000
O O14 0.655616 0.767265 0.442472
O O15 0.685323 0.000000 0.559767
O O16 0.863446 0.500000 0.690530
#
# Coordination Sequence:
#
# PCOD9210906 Si02
#       6
#     8   8   8   8   8   8
#     4  11  22  37  60  92 127 162 203 253 309 366
#     4  11  24  41  63  91 126 166 208 253 306 368
#     4  10  21  39  64  94 126 162 203 253 310 367
#     4  11  22  37  60  88 121 161 204 251 305 366
#     4  11  26  45  65  89 122 163 209 257 308 366
#     4  10  22  41  63  89 122 159 202 256 309 362
#
# _framework density 21.816624999999998
#
# number of rings (size 3 to 8) (size 9 to 14) (size 15 to 20)
#    0.000    1.333    0.000    7.500    2.333    8.000 
#    0.000    3.333    0.000    0.000    0.000    0.000 
#    0.000    0.000    0.000    0.000    0.000    0.000 
#
# Total GULP energy -134279.978631 kJ/mol
# GULP energy per Si atom -5594.999110 kJ/mol
# Density = 2.176697 g / cm^3
# Si number density = 21.816625 Si / 1000 Ang^3
#
#
#
# Elastic Constant Matrix: (Units=GPa)
#
#
# Indices 1 2 3 4 5 6 
#
# 1 122.2875 -1.3756 21.0791 0.0000 -0.7930 0.0000
# 2 -1.3756 49.1516 8.9763 0.0000 8.3599 0.0000
# 3 21.0791 8.9763 63.9676 0.0000 13.0524 0.0000
# 4 0.0000 0.0000 0.0000 13.5044 0.0000 7.4131
# 5 -0.7930 8.3599 13.0524 0.0000 36.2324 0.0000
# 6 0.0000 0.0000 0.0000 7.4131 0.0000 33.1469
#
#
#
# Elastic Compliance Matrix: (Units=1/GPa)
#
#
# Indices 1 2 3 4 5 6 
#
# 1 0.008747 0.000627 -0.003216 0.000000 0.001205 0.000000
# 2 0.000627 0.021494 -0.002389 0.000000 -0.004085 0.000000
# 3 -0.003216 -0.002389 0.018273 0.000000 -0.006102 0.000000
# 4 0.000000 0.000000 0.000000 0.084413 0.000000 -0.018879
# 5 0.001205 -0.004085 -0.006102 0.000000 0.030767 0.000000
# 6 0.000000 0.000000 0.000000 -0.018879 0.000000 0.034391
#
#
# Mechanical properties :
#
#
# Convention : Reuss Voigt Hill
#
# Bulk Modulus (GPa) = 25.93570 32.52959 29.23265
# Shear Modulus (GPa) = 22.63536 30.35854 26.49695
#
# Velocity S-wave (km/s) = 3.22456 3.73437 3.48879
# Velocity P-wave (km/s) = 5.07716 5.79110 5.44585
#
# Compressibility (1/GPa) = 0.03855689
#
# Stress axis : x y z
#
# Youngs Moduli (GPa) = 114.32863 46.52483 54.72532
#
# Poissons Ratio (x) = -0.02918 0.17601
# Poissons Ratio (y) = -0.07170 0.13076
# Poissons Ratio (z) = 0.36771 0.11116
#
# Static dielectric constant tensor:
#      x y z
#    x 1.826700 0.000000 0.002030 
#    y 0.000000 1.739620 0.000000 
#    z 0.002030 0.000000 1.795690 
# 
# From -- ./inp_files/172175.got.cif
#   From: 2010.05.17/outbox.cif.g08.bks.cpg/sg12_87_cif.got.tgz:172175.got - 2010.06.03 13:09:07.
