data_PCOD9210630
_publ_section_title
;
Structure prediction by ZEFSAII (Michael W. Deem and Ramdas Pophale) SiO2 
 PCOD9210630
Probable space group: C 2/M
;
_chemical_formula_sum "Si O2"
_cell_formula_units_Z 40
_cell_length_a 11.832507
_cell_length_b 26.094742
_cell_length_c 5.253460
_cell_angle_alpha 90.000000
_cell_angle_beta 67.439826
_cell_angle_gamma 90.000000
_cell_volume 1497.963893
_symmetry_space_group_name_H-M "C 2/M"
_symmetry_group_IT_number 12
_symmetry_cell_setting 'monoclinic'
loop_
_space_group_symop_operation_xyz
x,y,z
-x,y,-z
-x,-y,-z
x,-y,z
1/2+x,1/2+y,z
1/2-x,1/2+y,-z
1/2-x,1/2-y,-z
1/2+x,1/2-y,z
loop_
_atom_site_type_symbol
_atom_site_label
_atom_site_fract_x
_atom_site_fract_y
_atom_site_fract_z
Si Si1 0.447903 0.058318 0.290084
Si Si2 0.850659 0.122202 0.024057
Si Si3 0.159492 0.058662 0.480915
Si Si4 0.363566 0.187004 0.520807
Si Si5 0.808605 0.209095 0.756649
O O1 0.500000 0.079607 0.500000
O O2 0.303556 0.056548 0.417042
O O3 0.498442 0.000000 0.239968
O O4 0.500000 0.085934 0.000000
O O5 0.894385 0.095669 0.250411
O O6 0.725108 0.151803 0.223156
O O7 0.846258 0.079575 0.803680
O O8 0.703297 0.177571 0.695142
O O9 0.114474 0.000000 0.541764
O O10 0.500000 0.177909 0.500000
O O11 0.364506 0.249823 0.514636
O O12 0.098911 0.171507 0.175938
O O13 0.750000 0.250000 0.000000
#
# Coordination Sequence:
#
# PCOD9210630 Si02
#       5
#     8   8   8   8   8
#     4   9  17  29  41  56  85 127 178 234 275 298
#     4  11  21  37  54  80 117 153 199 246 296 340
#     4  11  22  35  51  73 108 158 207 244 279 336
#     4  10  21  39  63  90 117 156 197 240 305 371
#     4   9  20  39  61  85 120 155 187 253 304 354
#
# _framework density 26.702915000000001
#
# number of rings (size 3 to 8) (size 9 to 14) (size 15 to 20)
#    0.000    2.000    2.000    1.800    0.000    8.800 
#    3.600    0.000    0.000    0.600    0.000    0.000 
#    0.000    4.800    0.000    0.000    0.000    0.400 
#
# Total GULP energy -111434.900814 kJ/mol
# GULP energy per Si atom -5571.745041 kJ/mol
# Density = 2.664214 g / cm^3
# Si number density = 26.702915 Si / 1000 Ang^3
#
#
#
# Elastic Constant Matrix: (Units=GPa)
#
#
# Indices 1 2 3 4 5 6 
#
# 1 140.0486 31.8274 54.8726 0.0000 33.6140 0.0000
# 2 31.8274 194.6649 43.5393 0.0000 17.9786 0.0000
# 3 54.8726 43.5393 173.3609 0.0000 48.0987 0.0000
# 4 0.0000 0.0000 0.0000 3.4389 0.0000 -24.4751
# 5 33.6140 17.9786 48.0987 0.0000 38.9828 0.0000
# 6 0.0000 0.0000 0.0000 -24.4751 0.0000 -1.9203
#
#
#
# Elastic Compliance Matrix: (Units=1/GPa)
#
#
# Indices 1 2 3 4 5 6 
#
# 1 0.009221 -0.000699 -0.000953 0.000000 -0.006454 0.000000
# 2 -0.000699 0.005536 -0.000955 0.000000 -0.000773 0.000000
# 3 -0.000953 -0.000955 0.009062 0.000000 -0.009919 0.000000
# 4 0.000000 0.000000 0.000000 0.003171 0.000000 -0.040412
# 5 -0.006454 -0.000773 -0.009919 0.000000 0.043812 0.000000
# 6 0.000000 0.000000 0.000000 -0.040412 0.000000 -0.005678
#
#
# Mechanical properties :
#
#
# Convention : Reuss Voigt Hill
#
# Bulk Modulus (GPa) = 53.74395 85.39479 69.56937
# Shear Modulus (GPa) = 65.32702 33.28932 49.30817
#
# Velocity S-wave (km/s) = 4.95151 3.53463 4.30181
# Velocity P-wave (km/s) = 7.27051 6.97905 7.12627
#
# Compressibility (1/GPa) = 0.01860675
#
# Stress axis : x y z
#
# Youngs Moduli (GPa) = 108.44304 180.62979 110.35544
#
# Poissons Ratio (x) = 0.12618 0.10515
# Poissons Ratio (y) = 0.07575 0.10538
# Poissons Ratio (z) = 0.10332 0.17249
#
# Static dielectric constant tensor:
#      x y z
#    x 2.173120 0.000000 -0.032270 
#    y 0.000000 2.249960 0.000000 
#    z -0.032270 0.000000 2.247000 
# 
# From -- ./inp_files/8118.got.cif
#   From: 2010.05.17/outbox.cif.g08.bks.cpg/sg12_5_cif.got.tgz:8118.got - 2010.06.03 13:09:07.
