data_PCOD9210910
_publ_section_title
;
Structure prediction by ZEFSAII (Michael W. Deem and Ramdas Pophale) SiO2 
 PCOD9210910
Probable space group: C 2/M
;
_chemical_formula_sum "Si O2"
_cell_formula_units_Z 56
_cell_length_a 9.099065
_cell_length_b 26.172822
_cell_length_c 18.302974
_cell_angle_alpha 90.000000
_cell_angle_beta 41.898854
_cell_angle_gamma 90.000000
_cell_volume 2910.897322
_symmetry_space_group_name_H-M "C 2/M"
_symmetry_group_IT_number 12
_symmetry_cell_setting 'monoclinic'
loop_
_space_group_symop_operation_xyz
x,y,z
-x,y,-z
-x,-y,-z
x,-y,z
1/2+x,1/2+y,z
1/2-x,1/2+y,-z
1/2-x,1/2-y,-z
1/2+x,1/2-y,z
loop_
_atom_site_type_symbol
_atom_site_label
_atom_site_fract_x
_atom_site_fract_y
_atom_site_fract_z
Si Si1 0.094679 0.713711 0.886054
Si Si2 0.583080 0.265489 0.742341
Si Si3 0.745803 0.841942 0.616944
Si Si4 0.164564 0.939492 0.999854
Si Si5 0.001697 0.061533 0.218973
Si Si6 0.369695 0.104868 0.189931
Si Si7 0.899157 0.362883 0.617965
O O1 0.359135 0.717439 0.787051
O O2 0.019317 0.750199 0.848638
O O3 0.044710 0.655499 0.883737
O O4 0.000000 0.727059 0.000000
O O5 0.677876 0.215264 0.667496
O O6 0.755580 0.311253 0.678085
O O7 0.706297 0.877362 0.702134
O O8 0.588519 0.859889 0.609183
O O9 0.000000 0.842515 0.500000
O O10 0.416531 0.930473 0.886055
O O11 0.125618 0.000000 0.016763
O O12 0.000000 0.916761 0.000000
O O13 0.107599 0.921421 0.102371
O O14 0.768189 0.089854 0.310933
O O15 0.169308 0.080016 0.219676
O O16 0.980979 0.000000 0.228993
O O17 0.000000 0.364703 0.500000
#
# Coordination Sequence:
#
# PCOD9210910 Si02
#       7
#     8   8   8   8   8   8   8
#     4  11  22  39  59  94 132 167 200 251 308 373
#     4  11  23  40  63  91 127 166 209 252 307 370
#     4  11  25  43  64  93 124 165 214 260 314 371
#     4  10  21  39  64  94 129 166 208 258 310 372
#     4  11  23  41  66  95 127 165 210 258 316 374
#     4  11  22  39  64  95 126 166 210 257 311 373
#     4  12  25  42  66  90 124 164 212 265 312 374
#
# _framework density 19.238054000000002
#
# number of rings (size 3 to 8) (size 9 to 14) (size 15 to 20)
#    0.000    1.000    2.857    4.286    2.000    2.571 
#    0.000    0.714    0.000    3.000    0.000    0.000 
#    0.000    0.000    0.000    0.000    0.000    0.000 
#
# Total GULP energy -156523.766427 kJ/mol
# GULP energy per Si atom -5590.134515 kJ/mol
# Density = 1.919427 g / cm^3
# Si number density = 19.238054 Si / 1000 Ang^3
#
#
#
# Elastic Constant Matrix: (Units=GPa)
#
#
# Indices 1 2 3 4 5 6 
#
# 1 142.6124 30.5414 39.7151 0.0000 0.4483 -0.0002
# 2 30.5414 59.9561 31.0170 0.0000 11.1425 -0.0001
# 3 39.7151 31.0170 104.7783 0.0000 12.2102 -0.0005
# 4 0.0000 0.0000 0.0000 16.3997 0.0000 7.8412
# 5 0.4483 11.1425 12.2102 0.0000 36.3558 0.0002
# 6 -0.0002 -0.0001 -0.0005 7.8412 0.0002 -58.6619
#
#
#
# Elastic Compliance Matrix: (Units=1/GPa)
#
#
# Indices 1 2 3 4 5 6 
#
# 1 0.008391 -0.003361 -0.002387 0.000000 0.001728 0.000000
# 2 -0.003361 0.021691 -0.004556 0.000000 -0.005076 0.000000
# 3 -0.002387 -0.004556 0.012105 0.000000 -0.002640 0.000000
# 4 0.000000 0.000000 0.000000 0.057314 0.000000 0.007661
# 5 0.001728 -0.005076 -0.002640 0.000000 0.029927 0.000000
# 6 0.000000 0.000000 0.000000 0.007661 0.000000 -0.016023
#
#
# Mechanical properties :
#
#
# Convention : Reuss Voigt Hill
#
# Bulk Modulus (GPa) = 46.33880 56.65487 51.49683
# Shear Modulus (GPa) = 35.40940 12.55693 23.98316
#
# Velocity S-wave (km/s) = 4.29487 2.55760 3.53463
# Velocity P-wave (km/s) = 6.98096 6.18345 6.59427
#
# Compressibility (1/GPa) = 0.02158019
#
# Stress axis : x y z
#
# Youngs Moduli (GPa) = 119.17457 46.10207 82.61051
#
# Poissons Ratio (x) = 0.15493 0.19720
# Poissons Ratio (y) = 0.40050 0.37635
# Poissons Ratio (z) = 0.28448 0.21003
#
# Static dielectric constant tensor:
#      x y z
#    x 1.677140 0.000000 0.012230 
#    y 0.000000 1.664460 0.000000 
#    z 0.012230 0.000000 1.644840 
# 
# From -- ./inp_files/124260.got.cif
#   From: 2010.05.17/outbox.cif.g08.bks.cpg/sg12_63_cif.got.tgz:124260.got - 2010.06.03 13:09:07.
