data_PCOD9210773
_publ_section_title
;
Structure prediction by ZEFSAII (Michael W. Deem and Ramdas Pophale) SiO2 
 PCOD9210773
Probable space group: C 2/M
;
_chemical_formula_sum "Si O2"
_cell_formula_units_Z 64
_cell_length_a 16.497497
_cell_length_b 24.002246
_cell_length_c 12.728224
_cell_angle_alpha 90.000000
_cell_angle_beta 37.588976
_cell_angle_gamma 90.000000
_cell_volume 3074.414336
_symmetry_space_group_name_H-M "C 2/M"
_symmetry_group_IT_number 12
_symmetry_cell_setting 'monoclinic'
loop_
_space_group_symop_operation_xyz
x,y,z
-x,y,-z
-x,-y,-z
x,-y,z
1/2+x,1/2+y,z
1/2-x,1/2+y,-z
1/2-x,1/2-y,-z
1/2+x,1/2-y,z
loop_
_atom_site_type_symbol
_atom_site_label
_atom_site_fract_x
_atom_site_fract_y
_atom_site_fract_z
Si Si1 0.512411 0.436116 0.295518
Si Si2 0.039927 0.770945 0.771251
Si Si3 0.753449 0.377206 0.369814
Si Si4 0.215909 0.435202 0.868441
Si Si5 0.471219 0.847078 0.825712
Si Si6 0.813657 0.756093 0.597315
Si Si7 0.910353 0.882749 0.990771
Si Si8 0.376406 0.842789 0.685792
O O1 0.474223 0.500000 0.354855
O O2 0.383242 0.397712 0.439314
O O3 0.632570 0.421899 0.251497
O O4 0.569874 0.428114 0.119929
O O5 0.079594 0.763036 0.607578
O O6 0.182427 0.772578 0.682589
O O7 0.966667 0.714298 0.881895
O O8 0.955211 0.824333 0.889802
O O9 0.797373 0.423131 0.241047
O O10 0.725170 0.319497 0.336997
O O11 0.873092 0.364123 0.326985
O O12 0.192111 0.500000 0.917835
O O13 0.115674 0.393717 0.028829
O O14 0.416373 0.839593 0.765621
O O15 0.856328 0.716852 0.648677
O O16 0.759566 0.876180 0.181284
O O17 0.000000 0.892563 0.000000
O O18 0.500000 0.870575 0.500000
#
# Coordination Sequence:
#
# PCOD9210773 Si02
#       8
#     8   8   8   8   8   8   8   8
#     4  11  25  47  71  99 134 177 235 295 338 399
#     4  10  21  40  63  97 134 179 223 273 325 407
#     4  11  24  42  72 100 136 177 228 279 348 411
#     4  11  25  46  69  98 134 177 230 290 342 399
#     4  11  25  42  67 100 142 177 223 278 343 410
#     4  10  21  39  63  96 138 175 220 269 333 404
#     4  12  25  42  72  98 140 186 229 276 349 408
#     4  12  25  42  65 102 138 182 222 275 339 408
#
# _framework density 20.816973000000001
#
# number of rings (size 3 to 8) (size 9 to 14) (size 15 to 20)
#    0.000    1.000    5.000    1.125    3.500    5.250 
#    0.000    0.000    0.000    0.750    0.000    0.000 
#    0.000    0.000    0.000    0.000    0.000    0.000 
#
# Total GULP energy -178894.464465 kJ/mol
# GULP energy per Si atom -5590.452015 kJ/mol
# Density = 2.076959 g / cm^3
# Si number density = 20.816973 Si / 1000 Ang^3
#
#
#
# Elastic Constant Matrix: (Units=GPa)
#
#
# Indices 1 2 3 4 5 6 
#
# 1 115.4253 15.7296 13.4044 0.0005 -7.9330 -0.0008
# 2 15.7296 57.8733 18.7992 0.0000 -10.1542 -0.0004
# 3 13.4044 18.7992 75.4409 0.0003 -13.5359 -0.0007
# 4 0.0005 0.0000 0.0003 30.8493 0.0000 4.6986
# 5 -7.9330 -10.1542 -13.5359 0.0000 28.1964 0.0000
# 6 -0.0008 -0.0004 -0.0007 4.6986 0.0000 16.5122
#
#
#
# Elastic Compliance Matrix: (Units=1/GPa)
#
#
# Indices 1 2 3 4 5 6 
#
# 1 0.009130 -0.001942 -0.000879 0.000000 0.001448 0.000000
# 2 -0.001942 0.019867 -0.003742 0.000000 0.004812 0.000000
# 3 -0.000879 -0.003742 0.015383 0.000000 0.005790 0.000001
# 4 0.000000 0.000000 0.000000 0.033884 0.000000 -0.009642
# 5 0.001448 0.004812 0.005790 0.000000 0.040385 0.000000
# 6 0.000000 0.000000 0.000001 -0.009642 0.000000 0.063305
#
#
# Mechanical properties :
#
#
# Convention : Reuss Voigt Hill
#
# Bulk Modulus (GPa) = 31.99610 38.28954 35.14282
# Shear Modulus (GPa) = 24.33125 28.49868 26.41496
#
# Velocity S-wave (km/s) = 3.42251 3.70403 3.56605
# Velocity P-wave (km/s) = 5.56971 6.06024 5.82014
#
# Compressibility (1/GPa) = 0.03125381
#
# Stress axis : x y z
#
# Youngs Moduli (GPa) = 109.53174 50.33521 65.00734
#
# Poissons Ratio (x) = 0.09775 0.05711
# Poissons Ratio (y) = 0.21272 0.24327
# Poissons Ratio (z) = 0.09623 0.18837
#
# Static dielectric constant tensor:
#      x y z
#    x 1.745150 0.000000 0.001680 
#    y 0.000000 1.730780 0.000000 
#    z 0.001680 0.000000 1.786720 
# 
# From -- ./inp_files/149746.got.cif
#   From: 2010.05.17/outbox.cif.g08.bks.cpg/sg12_75_cif.got.tgz:149746.got - 2010.06.03 13:09:07.
