data_PCOD9210659
_publ_section_title
;
Structure prediction by ZEFSAII (Michael W. Deem and Ramdas Pophale) SiO2 
 PCOD9210659
Probable space group: C 2/M
;
_chemical_formula_sum "Si O2"
_cell_formula_units_Z 32
_cell_length_a 25.787303
_cell_length_b 11.915415
_cell_length_c 5.127164
_cell_angle_alpha 90.000000
_cell_angle_beta 87.881437
_cell_angle_gamma 90.000000
_cell_volume 1574.328474
_symmetry_space_group_name_H-M "C 2/M"
_symmetry_group_IT_number 12
_symmetry_cell_setting 'monoclinic'
loop_
_space_group_symop_operation_xyz
x,y,z
-x,y,-z
-x,-y,-z
x,-y,z
1/2+x,1/2+y,z
1/2-x,1/2+y,-z
1/2-x,1/2-y,-z
1/2+x,1/2-y,z
loop_
_atom_site_type_symbol
_atom_site_label
_atom_site_fract_x
_atom_site_fract_y
_atom_site_fract_z
Si Si1 0.058607 0.132283 0.405573
Si Si2 0.880811 0.796480 0.090519
Si Si3 0.211967 0.184054 0.195378
Si Si4 0.816569 0.624950 0.407017
O O1 0.094363 0.153361 0.652623
O O2 0.000000 0.159748 0.500000
O O3 0.060590 0.000000 0.335755
O O4 0.077446 0.201789 0.150168
O O5 0.853921 0.677660 0.176603
O O6 0.832822 0.867273 0.975144
O O7 0.184060 0.276452 0.380099
O O8 0.255017 0.116836 0.347245
O O9 0.250000 0.250000 0.000000
O O10 0.833526 0.500000 0.480611
#
# Coordination Sequence:
#
# PCOD9210659 Si02
#       4
#     8   8   8   8
#     4  11  24  42  66  93 122 159 202 258 320 367
#     4  11  21  42  63  94 127 159 207 251 306 371
#     4   9  20  38  58  92 128 162 209 245 293 359
#     4  10  21  39  63  90 130 170 204 247 303 363
#
# _framework density 20.326127
#
# number of rings (size 3 to 8) (size 9 to 14) (size 15 to 20)
#    0.000    1.750    2.500    1.500    0.000    8.000 
#    0.000    3.750    0.000    4.500    0.000    0.000 
#    0.000    0.000    0.000    0.000    0.000    0.000 
#
# Total GULP energy -89077.457668 kJ/mol
# GULP energy per Si atom -5567.341104 kJ/mol
# Density = 2.027986 g / cm^3
# Si number density = 20.326127 Si / 1000 Ang^3
#
#
#
# Elastic Constant Matrix: (Units=GPa)
#
#
# Indices 1 2 3 4 5 6 
#
# 1 104.5178 36.7878 41.9032 0.0000 -23.4939 0.0000
# 2 36.7878 102.6400 39.0094 0.0000 -16.1940 0.0000
# 3 41.9032 39.0094 121.1579 0.0000 -24.2284 0.0000
# 4 0.0000 0.0000 0.0000 -8.5102 0.0000 -14.4921
# 5 -23.4939 -16.1940 -24.2284 0.0000 44.9900 0.0000
# 6 0.0000 0.0000 0.0000 -14.4921 0.0000 9.4735
#
#
#
# Elastic Compliance Matrix: (Units=1/GPa)
#
#
# Indices 1 2 3 4 5 6 
#
# 1 0.012540 -0.002859 -0.002592 0.000000 0.004124 0.000000
# 2 -0.002859 0.011974 -0.002581 0.000000 0.001427 0.000000
# 3 -0.002592 -0.002581 0.010674 0.000000 0.003466 0.000000
# 4 0.000000 0.000000 0.000000 -0.032595 0.000000 -0.049862
# 5 0.004124 0.001427 0.003466 0.000000 0.026761 0.000000
# 6 0.000000 0.000000 0.000000 -0.049862 0.000000 0.029281
#
#
# Mechanical properties :
#
#
# Convention : Reuss Voigt Hill
#
# Bulk Modulus (GPa) = 52.29003 62.63517 57.46260
# Shear Modulus (GPa) = 61.67319 23.23168 42.45243
#
# Velocity S-wave (km/s) = 5.51432 3.38442 4.57504
# Velocity P-wave (km/s) = 8.14401 6.79370 7.49931
#
# Compressibility (1/GPa) = 0.01912410
#
# Stress axis : x y z
#
# Youngs Moduli (GPa) = 79.74427 83.51743 93.68349
#
# Poissons Ratio (x) = 0.23877 0.24283
# Poissons Ratio (y) = 0.22798 0.24180
# Poissons Ratio (z) = 0.20670 0.21556
#
# Static dielectric constant tensor:
#      x y z
#    x 1.791420 0.000000 0.007230 
#    y 0.000000 1.465290 0.000000 
#    z 0.007230 0.000000 1.828170 
# 
# From -- ./inp_files/23406.got.cif
#   From: 2010.05.17/outbox.cif.g08.bks.cpg/sg12_12_cif.got.tgz:23406.got - 2010.06.03 13:09:07.
