data_PCOD9210499
_publ_section_title
;
Structure prediction by ZEFSAII (Michael W. Deem and Ramdas Pophale) SiO2 
 PCOD9210499
Probable space group: C 2/M
;
_chemical_formula_sum "Si O2"
_cell_formula_units_Z 56
_cell_length_a 16.358060
_cell_length_b 8.121134
_cell_length_c 23.263576
_cell_angle_alpha 90.000000
_cell_angle_beta 120.869925
_cell_angle_gamma 90.000000
_cell_volume 2652.659091
_symmetry_space_group_name_H-M "C 2/M"
_symmetry_group_IT_number 12
_symmetry_cell_setting 'monoclinic'
loop_
_space_group_symop_operation_xyz
x,y,z
-x,y,-z
-x,-y,-z
x,-y,z
1/2+x,1/2+y,z
1/2-x,1/2+y,-z
1/2-x,1/2-y,-z
1/2+x,1/2-y,z
loop_
_atom_site_type_symbol
_atom_site_label
_atom_site_fract_x
_atom_site_fract_y
_atom_site_fract_z
Si Si1 0.222068 0.803264 0.842466
Si Si2 0.026498 0.693289 0.571532
Si Si3 0.441910 0.798894 0.922781
Si Si4 0.875773 0.692523 0.703707
Si Si5 0.955715 0.698995 0.157811
Si Si6 0.297918 0.196222 0.290300
Si Si7 0.843071 0.191052 0.567372
O O1 0.331695 0.745522 0.886586
O O2 0.151443 0.754236 0.868297
O O3 0.180910 0.730684 0.768349
O O4 0.223154 0.000000 0.838350
O O5 0.047101 0.500000 0.569696
O O6 0.934571 0.711286 0.578090
O O7 0.000000 0.767210 0.500000
O O8 0.118161 0.759966 0.637884
O O9 0.496240 0.744803 0.884440
O O10 0.441063 0.000000 0.921444
O O11 0.500000 0.747202 0.000000
O O12 0.885047 0.500000 0.692698
O O13 0.799162 0.715369 0.726580
O O14 0.837168 0.783056 0.633502
O O15 0.975726 0.754824 0.765069
O O16 0.958104 0.500000 0.158596
O O17 0.286636 0.000000 0.293902
O O18 0.750000 0.250000 0.500000
O O19 0.857966 0.000000 0.560142
#
# Coordination Sequence:
#
# PCOD9210499 Si02
#       7
#     8   8   8   8   8   8   8
#     4  11  22  38  61  92 124 163 211 261 310 371
#     4  10  22  40  59  82 115 154 199 251 308 371
#     4   9  19  39  64  89 124 169 211 255 315 380
#     4  11  22  39  62  88 121 160 204 253 308 370
#     4  10  21  39  62  91 125 165 207 256 316 375
#     4  11  22  37  61  90 121 160 202 253 312 368
#     4  12  25  40  59  85 117 157 203 254 309 367
#
# _framework density 21.110893000000001
#
# number of rings (size 3 to 8) (size 9 to 14) (size 15 to 20)
#    0.000    1.429    1.429    4.286    0.000    7.714 
#    0.000    0.000    0.000    3.000    0.000    0.000 
#    0.000    0.000    0.000    0.000    0.000    0.000 
#
# Total GULP energy -156509.574850 kJ/mol
# GULP energy per Si atom -5589.627673 kJ/mol
# Density = 2.106284 g / cm^3
# Si number density = 21.110893 Si / 1000 Ang^3
#
#
#
# Elastic Constant Matrix: (Units=GPa)
#
#
# Indices 1 2 3 4 5 6 
#
# 1 133.6946 -4.4191 49.9244 0.0000 7.0099 0.0000
# 2 -4.4191 25.1458 19.8901 0.0000 1.7180 0.0000
# 3 49.9244 19.8901 126.3494 0.0000 4.1472 0.0000
# 4 0.0000 0.0000 0.0000 8.1482 0.0000 -10.1733
# 5 7.0099 1.7180 4.1472 0.0000 26.4136 0.0000
# 6 0.0000 0.0000 0.0000 -10.1733 0.0000 21.4036
#
#
#
# Elastic Compliance Matrix: (Units=1/GPa)
#
#
# Indices 1 2 3 4 5 6 
#
# 1 0.009455 0.005377 -0.004512 0.000000 -0.002151 0.000000
# 2 0.005377 0.048572 -0.009670 0.000000 -0.003068 0.000000
# 3 -0.004512 -0.009670 0.011218 0.000000 0.000065 0.000000
# 4 0.000000 0.000000 0.000000 0.301868 0.000000 0.143481
# 5 -0.002151 -0.003068 0.000065 0.000000 0.038619 0.000000
# 6 0.000000 0.000000 0.000000 0.143481 0.000000 0.114919
#
#
# Mechanical properties :
#
#
# Convention : Reuss Voigt Hill
#
# Bulk Modulus (GPa) = 19.36673 46.22006 32.79339
# Shear Modulus (GPa) = 8.93700 25.84604 17.39152
#
# Velocity S-wave (km/s) = 2.05974 3.50279 2.87334
# Velocity P-wave (km/s) = 3.85363 6.18877 5.15516
#
# Compressibility (1/GPa) = 0.05163495
#
# Stress axis : x y z
#
# Youngs Moduli (GPa) = 105.76311 20.58801 89.14602
#
# Poissons Ratio (x) = -0.11071 0.40222
# Poissons Ratio (y) = -0.56874 0.86208
# Poissons Ratio (z) = 0.47720 0.19909
#
# Static dielectric constant tensor:
#      x y z
#    x 1.672890 0.000000 0.026820 
#    y 0.000000 1.749050 0.000000 
#    z 0.026820 0.000000 1.754780 
# 
# From -- ./inp_files/339074.got.cif
#   From: 2010.05.17/outbox.cif.g08.bks.cpg/sg12_170_cif.got.tgz:339074.got - 2010.06.03 13:09:07.
