data_PCOD9210503
_publ_section_title
;
Structure prediction by ZEFSAII (Michael W. Deem and Ramdas Pophale) SiO2 
 PCOD9210503
Probable space group: C 2/M
;
_chemical_formula_sum "Si O2"
_cell_formula_units_Z 48
_cell_length_a 28.044310
_cell_length_b 14.298446
_cell_length_c 14.411293
_cell_angle_alpha 90.000000
_cell_angle_beta 21.753645
_cell_angle_gamma 90.000000
_cell_volume 2141.713265
_symmetry_space_group_name_H-M "C 2/M"
_symmetry_group_IT_number 12
_symmetry_cell_setting 'monoclinic'
loop_
_space_group_symop_operation_xyz
x,y,z
-x,y,-z
-x,-y,-z
x,-y,z
1/2+x,1/2+y,z
1/2-x,1/2+y,-z
1/2-x,1/2-y,-z
1/2+x,1/2-y,z
loop_
_atom_site_type_symbol
_atom_site_label
_atom_site_fract_x
_atom_site_fract_y
_atom_site_fract_z
Si Si1 0.345651 0.297000 0.538241
Si Si2 0.270238 0.389313 0.859437
Si Si3 0.080282 0.890560 0.028066
Si Si4 0.640633 0.754410 0.776061
Si Si5 0.261784 0.389380 0.079945
Si Si6 0.464607 0.108085 0.383168
O O1 0.342723 0.333691 0.648381
O O2 0.436727 0.361100 0.311456
O O3 0.205311 0.306561 0.746345
O O4 0.404174 0.191528 0.430462
O O5 0.302702 0.500000 0.793982
O O6 0.297005 0.353321 0.915051
O O7 0.116474 0.381451 0.121892
O O8 0.160078 0.851597 0.972921
O O9 0.099095 0.000000 0.992034
O O10 0.118872 0.846947 0.860920
O O11 0.750000 0.750000 0.500000
O O12 0.500000 0.789536 0.000000
O O13 0.290165 0.500000 0.023166
O O14 0.113455 0.382227 0.378754
O O15 0.439017 0.000000 0.397597
#
# Coordination Sequence:
#
# PCOD9210503 Si02
#       6
#     8   8   8   8   8   8
#     4  12  24  42  68 100 135 174 231 285 343 405
#     4  10  22  40  63  96 139 182 220 274 338 402
#     4  11  24  45  71 102 136 180 229 280 344 418
#     4  12  26  48  72  98 134 177 231 293 352 406
#     4   9  19  39  65  94 135 181 225 272 333 408
#     4  10  21  39  62  91 133 179 228 276 330 394
#
# _framework density 22.411963
#
# number of rings (size 3 to 8) (size 9 to 14) (size 15 to 20)
#    0.000    1.333    3.333    2.000    0.000    3.667 
#    3.000    2.500    0.000    3.500    0.000    0.000 
#    0.000    0.000    0.000    0.000    0.000    0.000 
#
# Total GULP energy -134074.188474 kJ/mol
# GULP energy per Si atom -5586.424520 kJ/mol
# Density = 2.236095 g / cm^3
# Si number density = 22.411963 Si / 1000 Ang^3
#
#
#
# Elastic Constant Matrix: (Units=GPa)
#
#
# Indices 1 2 3 4 5 6 
#
# 1 100.5964 25.3055 44.3749 0.0000 10.4982 0.0000
# 2 25.3055 54.9560 28.4012 0.0000 6.1851 0.0000
# 3 44.3749 28.4012 101.0112 0.0000 16.5177 0.0000
# 4 0.0000 0.0000 0.0000 28.4905 0.0000 6.6448
# 5 10.4982 6.1851 16.5177 0.0000 42.4285 0.0000
# 6 0.0000 0.0000 0.0000 6.6448 0.0000 27.3397
#
#
#
# Elastic Compliance Matrix: (Units=1/GPa)
#
#
# Indices 1 2 3 4 5 6 
#
# 1 0.012920 -0.003499 -0.004542 0.000000 -0.000919 0.000000
# 2 -0.003499 0.022264 -0.004629 0.000000 -0.000578 0.000000
# 3 -0.004542 -0.004629 0.013780 0.000000 -0.003566 0.000000
# 4 0.000000 0.000000 0.000000 0.037209 0.000000 -0.009043
# 5 -0.000919 -0.000578 -0.003566 0.000000 0.025269 0.000000
# 6 0.000000 0.000000 0.000000 -0.009043 0.000000 0.038775
#
#
# Mechanical properties :
#
#
# Convention : Reuss Voigt Hill
#
# Bulk Modulus (GPa) = 42.32626 50.30298 46.31462
# Shear Modulus (GPa) = 27.25828 30.21723 28.73775
#
# Velocity S-wave (km/s) = 3.49124 3.67585 3.58474
# Velocity P-wave (km/s) = 5.93113 6.36469 6.15173
#
# Compressibility (1/GPa) = 0.02362599
#
# Stress axis : x y z
#
# Youngs Moduli (GPa) = 77.39780 44.91456 72.57021
#
# Poissons Ratio (x) = 0.15714 0.32962
# Poissons Ratio (y) = 0.27079 0.33590
# Poissons Ratio (z) = 0.35154 0.20789
#
# Static dielectric constant tensor:
#      x y z
#    x 1.866580 0.000000 -0.033770 
#    y 0.000000 1.853050 0.000000 
#    z -0.033770 0.000000 1.855070 
# 
# From -- ./inp_files/251400.got.cif
#   From: 2010.05.17/outbox.cif.g08.bks.cpg/sg12_126_cif.got.tgz:251400.got - 2010.06.03 13:09:07.
