data_PCOD9210742
_publ_section_title
;
Structure prediction by ZEFSAII (Michael W. Deem and Ramdas Pophale) SiO2 
 PCOD9210742
Probable space group: C 2/M
;
_chemical_formula_sum "Si O2"
_cell_formula_units_Z 56
_cell_length_a 21.126295
_cell_length_b 18.242150
_cell_length_c 17.736119
_cell_angle_alpha 90.000000
_cell_angle_beta 21.862264
_cell_angle_gamma 90.000000
_cell_volume 2545.308063
_symmetry_space_group_name_H-M "C 2/M"
_symmetry_group_IT_number 12
_symmetry_cell_setting 'monoclinic'
loop_
_space_group_symop_operation_xyz
x,y,z
-x,y,-z
-x,-y,-z
x,-y,z
1/2+x,1/2+y,z
1/2-x,1/2+y,-z
1/2-x,1/2-y,-z
1/2+x,1/2-y,z
loop_
_atom_site_type_symbol
_atom_site_label
_atom_site_fract_x
_atom_site_fract_y
_atom_site_fract_z
Si Si1 0.742112 0.806718 0.855785
Si Si2 0.602088 0.850194 0.313552
Si Si3 0.104749 0.917497 0.211715
Si Si4 0.026682 0.913784 0.125428
Si Si5 0.136734 0.314294 0.714434
Si Si6 0.314821 0.167722 0.515952
Si Si7 0.726105 0.416613 0.318487
O O1 0.862121 0.736873 0.721556
O O2 0.768869 0.854517 0.901592
O O3 0.771546 0.861418 0.753680
O O4 0.548309 0.780065 0.068609
O O5 0.500000 0.874162 0.500000
O O6 0.786708 0.887023 0.105123
O O7 0.476551 0.862252 0.381847
O O8 0.955848 0.917242 0.438646
O O9 0.178593 0.000000 0.127908
O O10 0.026376 0.901716 0.216647
O O11 0.011818 0.000000 0.128016
O O12 0.861803 0.874407 0.273330
O O13 0.277927 0.253038 0.577280
O O14 0.155367 0.334586 0.606591
O O15 0.151002 0.383570 0.753503
O O16 0.766733 0.500000 0.251348
#
# Coordination Sequence:
#
# PCOD9210742 Si02
#       7
#     8   8   8   8   8   8   8
#     4  12  23  38  64 101 144 187 228 277 334 408
#     4  12  27  45  71 103 137 177 233 292 351 418
#     4  10  21  39  63  93 135 181 228 277 334 409
#     4  11  25  48  73 100 134 175 230 294 357 412
#     4  11  23  39  66  98 137 183 237 281 333 403
#     4  11  24  45  71 100 134 181 231 291 346 402
#     4  11  23  40  63  98 145 190 226 270 336 415
#
# _framework density 22.001266000000001
#
# number of rings (size 3 to 8) (size 9 to 14) (size 15 to 20)
#    0.000    0.857    2.857    4.714    2.000    5.429 
#    0.000    0.714    0.000    0.000    0.000    0.000 
#    0.000    0.000    0.000    0.000    0.000    0.000 
#
# Total GULP energy -156681.557350 kJ/mol
# GULP energy per Si atom -5595.769905 kJ/mol
# Density = 2.195119 g / cm^3
# Si number density = 22.001266 Si / 1000 Ang^3
#
#
#
# Elastic Constant Matrix: (Units=GPa)
#
#
# Indices 1 2 3 4 5 6 
#
# 1 60.7508 32.9999 31.6594 -0.0002 -5.6261 0.0034
# 2 32.9999 76.1640 23.3346 0.0013 1.2746 0.0066
# 3 31.6594 23.3346 114.7315 0.0050 -7.7877 0.0018
# 4 -0.0002 0.0013 0.0050 19.5468 -0.0035 -2.6669
# 5 -5.6261 1.2746 -7.7877 -0.0035 23.4983 -0.0024
# 6 0.0034 0.0066 0.0018 -2.6669 -0.0024 24.6694
#
#
#
# Elastic Compliance Matrix: (Units=1/GPa)
#
#
# Indices 1 2 3 4 5 6 
#
# 1 0.024252 -0.009212 -0.004491 0.000003 0.004818 0.000000
# 2 -0.009212 0.017571 -0.001275 -0.000002 -0.003581 -0.000004
# 3 -0.004491 -0.001275 0.010380 -0.000002 0.002434 0.000000
# 4 0.000003 -0.000002 -0.000002 0.051925 0.000008 0.005613
# 5 0.004818 -0.003581 0.002434 0.000008 0.044711 0.000005
# 6 0.000000 -0.000004 0.000000 0.005613 0.000005 0.041143
#
#
# Mechanical properties :
#
#
# Convention : Reuss Voigt Hill
#
# Bulk Modulus (GPa) = 44.95179 47.51492 46.23335
# Shear Modulus (GPa) = 21.99219 24.45307 23.22263
#
# Velocity S-wave (km/s) = 3.16506 3.33744 3.25239
# Velocity P-wave (km/s) = 5.81658 6.04108 5.92989
#
# Compressibility (1/GPa) = 0.02224606
#
# Stress axis : x y z
#
# Youngs Moduli (GPa) = 41.23452 56.91056 96.34034
#
# Poissons Ratio (x) = 0.52427 0.43271
# Poissons Ratio (y) = 0.37986 0.12282
# Poissons Ratio (z) = 0.18520 0.07255
#
# Static dielectric constant tensor:
#      x y z
#    x 1.799550 0.000000 -0.015310 
#    y 0.000000 1.781680 0.000000 
#    z -0.015310 0.000000 1.820050 
# 
# From -- ./inp_files/286019.got.cif
#   From: 2010.05.17/outbox.cif.g08.bks.cpg/sg12_144_cif.got.tgz:286019.got - 2010.06.03 13:09:07.
