data_PCOD9210212
_publ_section_title
;
Structure prediction by ZEFSAII (Michael W. Deem and Ramdas Pophale) SiO2 
 PCOD9210212
Probable space group: C 2/M
;
_chemical_formula_sum "Si O2"
_cell_formula_units_Z 56
_cell_length_a 20.316713
_cell_length_b 7.874857
_cell_length_c 18.062341
_cell_angle_alpha 90.000000
_cell_angle_beta 62.483134
_cell_angle_gamma 90.000000
_cell_volume 2562.905001
_symmetry_space_group_name_H-M "C 2/M"
_symmetry_group_IT_number 12
_symmetry_cell_setting 'monoclinic'
loop_
_space_group_symop_operation_xyz
x,y,z
-x,y,-z
-x,-y,-z
x,-y,z
1/2+x,1/2+y,z
1/2-x,1/2+y,-z
1/2-x,1/2-y,-z
1/2+x,1/2-y,z
loop_
_atom_site_type_symbol
_atom_site_label
_atom_site_fract_x
_atom_site_fract_y
_atom_site_fract_z
Si Si1 0.169301 0.801216 0.746814
Si Si2 0.671367 0.697770 0.295460
Si Si3 0.165481 0.295354 0.027353
Si Si4 0.428800 0.196722 0.785527
Si Si5 0.580662 0.205231 0.928151
Si Si6 0.081954 0.207338 0.484133
Si Si7 0.589397 0.700933 0.646196
O O1 0.240540 0.714201 0.746005
O O2 0.101166 0.779846 0.838473
O O3 0.144526 0.729235 0.680218
O O4 0.186985 0.000000 0.730473
O O5 0.650590 0.500000 0.297935
O O6 0.632216 0.790478 0.247825
O O7 0.639041 0.759853 0.390870
O O8 0.159987 0.500000 0.031123
O O9 0.109623 0.231714 0.120399
O O10 0.250000 0.250000 0.000000
O O11 0.139309 0.238441 0.960081
O O12 0.504769 0.279376 0.717956
O O13 0.447097 0.000000 0.789874
O O14 0.582975 0.000000 0.920418
O O15 0.500000 0.252086 0.000000
O O16 0.096889 0.270894 0.559278
O O17 0.000000 0.257838 0.500000
O O18 0.082751 0.000000 0.486603
O O19 0.604424 0.500000 0.634322
#
# Coordination Sequence:
#
# PCOD9210212 Si02
#       7
#     8   8   8   8   8   8   8
#     4  11  24  39  57  87 124 154 191 243 295 343
#     4  11  22  38  62  86 116 158 198 236 288 349
#     4  10  22  37  55  81 111 146 186 234 285 338
#     4  11  22  37  59  88 118 146 188 244 295 341
#     4  10  21  40  63  83 110 152 201 241 283 345
#     4   9  17  35  62  87 112 148 197 239 280 343
#     4  10  21  39  61  85 115 154 194 234 284 346
#
# _framework density 21.850204999999999
#
# number of rings (size 3 to 8) (size 9 to 14) (size 15 to 20)
#    0.000    1.714    1.429    3.000    0.000    7.143 
#    0.000    2.143    0.000    0.000    0.000    0.000 
#    0.000    0.000    0.000    0.000    0.000    0.000 
#
# Total GULP energy -156526.233743 kJ/mol
# GULP energy per Si atom -5590.222634 kJ/mol
# Density = 2.180047 g / cm^3
# Si number density = 21.850205 Si / 1000 Ang^3
#
#
#
# Elastic Constant Matrix: (Units=GPa)
#
#
# Indices 1 2 3 4 5 6 
#
# 1 56.3235 -8.5363 -17.1863 0.0000 14.8628 0.0000
# 2 -8.5363 26.3349 -1.7894 -0.0001 3.4786 0.0001
# 3 -17.1863 -1.7894 84.7801 0.0000 14.6158 0.0001
# 4 0.0000 -0.0001 0.0000 25.2086 0.0000 -4.9066
# 5 14.8628 3.4786 14.6158 0.0000 40.3273 0.0000
# 6 0.0000 0.0001 0.0001 -4.9066 0.0000 14.2043
#
#
#
# Elastic Compliance Matrix: (Units=1/GPa)
#
#
# Indices 1 2 3 4 5 6 
#
# 1 0.024981 0.010298 0.007490 0.000000 -0.012810 0.000000
# 2 0.010298 0.042829 0.004568 0.000000 -0.009146 0.000000
# 3 0.007490 0.004568 0.014884 0.000000 -0.008549 0.000000
# 4 0.000000 0.000000 0.000000 0.042528 0.000000 0.014691
# 5 -0.012810 -0.009146 -0.008549 0.000000 0.033405 0.000000
# 6 0.000000 0.000000 0.000000 0.014691 0.000000 0.075476
#
#
# Mechanical properties :
#
#
# Convention : Reuss Voigt Hill
#
# Bulk Modulus (GPa) = 7.84888 12.49052 10.16970
# Shear Modulus (GPa) = 21.56481 28.94474 25.25477
#
# Velocity S-wave (km/s) = 3.14497 3.64358 3.40341
# Velocity P-wave (km/s) = 4.09728 4.84042 4.48427
#
# Compressibility (1/GPa) = 0.12740665
#
# Stress axis : x y z
#
# Youngs Moduli (GPa) = 40.03037 23.34865 67.18757
#
# Poissons Ratio (x) = -0.24045 -0.50322
# Poissons Ratio (y) = -0.41225 -0.30693
# Poissons Ratio (z) = -0.29982 -0.10666
#
# Static dielectric constant tensor:
#      x y z
#    x 1.775500 0.000000 0.018780 
#    y 0.000000 1.812640 0.000000 
#    z 0.018780 0.000000 1.799210 
# 
# From -- ./inp_files/275288.got.cif
#   From: 2010.05.17/outbox.cif.g08.bks.cpg/sg12_138_cif.got.tgz:275288.got - 2010.06.03 13:09:07.
