data_PCOD9210115
_publ_section_title
;
Structure prediction by ZEFSAII (Michael W. Deem and Ramdas Pophale) SiO2 
 PCOD9210115
Probable space group: C 2/M
;
_chemical_formula_sum "Si O2"
_cell_formula_units_Z 56
_cell_length_a 24.512918
_cell_length_b 7.699486
_cell_length_c 16.191239
_cell_angle_alpha 90.000000
_cell_angle_beta 124.335946
_cell_angle_gamma 90.000000
_cell_volume 2523.379475
_symmetry_space_group_name_H-M "C 2/M"
_symmetry_group_IT_number 12
_symmetry_cell_setting 'monoclinic'
loop_
_space_group_symop_operation_xyz
x,y,z
-x,y,-z
-x,-y,-z
x,-y,z
1/2+x,1/2+y,z
1/2-x,1/2+y,-z
1/2-x,1/2-y,-z
1/2+x,1/2-y,z
loop_
_atom_site_type_symbol
_atom_site_label
_atom_site_fract_x
_atom_site_fract_y
_atom_site_fract_z
Si Si1 0.953152 0.712241 0.386093
Si Si2 0.449505 0.203554 0.200262
Si Si3 0.675853 0.211748 0.632196
Si Si4 0.316342 0.294150 0.814462
Si Si5 0.315722 0.207519 0.005180
Si Si6 0.327322 0.792329 0.555609
Si Si7 0.422741 0.699161 0.784492
O O1 0.957972 0.500000 0.391248
O O2 0.968946 0.773988 0.307278
O O3 0.878486 0.760561 0.346939
O O4 0.000000 0.774026 0.500000
O O5 0.509583 0.217615 0.188059
O O6 0.436599 0.000000 0.203065
O O7 0.381380 0.277724 0.106498
O O8 0.748887 0.276448 0.716594
O O9 0.654559 0.263543 0.521898
O O10 0.678133 0.000000 0.633569
O O11 0.316988 0.500000 0.796207
O O12 0.313284 0.272930 0.909469
O O13 0.382105 0.222721 0.826744
O O14 0.320815 0.000000 0.004559
O O15 0.250000 0.250000 0.000000
O O16 0.250000 0.750000 0.500000
O O17 0.371345 0.708529 0.664166
O O18 0.336819 0.000000 0.569929
O O19 0.439509 0.500000 0.817358
#
# Coordination Sequence:
#
# PCOD9210115 Si02
#       7
#     8   8   8   8   8   8   8
#     4   9  16  29  54  84 109 142 192 239 285 346
#     4  10  22  40  61  86 118 156 197 248 302 359
#     4   9  17  32  55  82 115 155 198 244 293 352
#     4  10  21  39  60  84 116 156 204 250 298 358
#     4  11  24  42  65  91 119 154 198 247 306 365
#     4  11  20  34  57  86 123 162 202 246 298 358
#     4  11  23  39  59  87 122 160 203 249 304 364
#
# _framework density 22.192461000000002
#
# number of rings (size 3 to 8) (size 9 to 14) (size 15 to 20)
#    0.000    1.857    1.429    3.000    0.000    7.429 
#    0.000    2.857    0.000    4.714    0.000    0.000 
#    0.000    0.000    0.000    0.000    0.000    0.000 
#
# Total GULP energy -156471.841741 kJ/mol
# GULP energy per Si atom -5588.280062 kJ/mol
# Density = 2.214195 g / cm^3
# Si number density = 22.192461 Si / 1000 Ang^3
#
#
#
# Elastic Constant Matrix: (Units=GPa)
#
#
# Indices 1 2 3 4 5 6 
#
# 1 152.8738 -14.1276 57.9082 0.0000 -10.7168 0.0000
# 2 -14.1276 35.9374 -9.6760 0.0000 -0.8178 0.0000
# 3 57.9082 -9.6760 98.0683 0.0000 -9.4113 0.0000
# 4 0.0000 0.0000 0.0000 20.0029 0.0000 -3.2354
# 5 -10.7168 -0.8178 -9.4113 0.0000 40.9333 0.0000
# 6 0.0000 0.0000 0.0000 -3.2354 0.0000 17.2796
#
#
#
# Elastic Compliance Matrix: (Units=1/GPa)
#
#
# Indices 1 2 3 4 5 6 
#
# 1 0.008630 0.002136 -0.004769 0.000000 0.001206 0.000000
# 2 0.002136 0.029177 0.001766 0.000000 0.001548 0.000000
# 3 -0.004769 0.001766 0.013366 0.000000 0.001860 0.000000
# 4 0.000000 0.000000 0.000000 0.051554 0.000000 0.009653
# 5 0.001206 0.001548 0.001860 0.000000 0.025204 0.000000
# 6 0.000000 0.000000 0.000000 0.009653 0.000000 0.059679
#
#
# Mechanical properties :
#
#
# Convention : Reuss Voigt Hill
#
# Bulk Modulus (GPa) = 20.22758 39.45431 29.84095
# Shear Modulus (GPa) = 24.29260 32.49480 28.39370
#
# Velocity S-wave (km/s) = 3.31211 3.83067 3.58079
# Velocity P-wave (km/s) = 4.87455 6.11410 5.52917
#
# Compressibility (1/GPa) = 0.04943744
#
# Stress axis : x y z
#
# Youngs Moduli (GPa) = 115.87656 34.27411 74.81680
#
# Poissons Ratio (x) = -0.07320 0.35683
# Poissons Ratio (y) = -0.24749 -0.13213
# Poissons Ratio (z) = 0.55266 -0.06053
#
# Static dielectric constant tensor:
#      x y z
#    x 1.798020 0.000000 0.005620 
#    y 0.000000 1.758280 0.000000 
#    z 0.005620 0.000000 1.792960 
# 
# From -- ./inp_files/238976.got.cif
#   From: 2010.05.17/outbox.cif.g08.bks.cpg/sg12_120_cif.got.tgz:238976.got - 2010.06.03 13:09:07.
