data_PCOD9210649
_publ_section_title
;
Structure prediction by ZEFSAII (Michael W. Deem and Ramdas Pophale) SiO2 
 PCOD9210649
Probable space group: C 2/M
;
_chemical_formula_sum "Si O2"
_cell_formula_units_Z 48
_cell_length_a 18.224652
_cell_length_b 15.180736
_cell_length_c 16.543323
_cell_angle_alpha 90.000000
_cell_angle_beta 146.401573
_cell_angle_gamma 90.000000
_cell_volume 2532.732934
_symmetry_space_group_name_H-M "C 2/M"
_symmetry_group_IT_number 12
_symmetry_cell_setting 'monoclinic'
loop_
_space_group_symop_operation_xyz
x,y,z
-x,y,-z
-x,-y,-z
x,-y,z
1/2+x,1/2+y,z
1/2-x,1/2+y,-z
1/2-x,1/2-y,-z
1/2+x,1/2-y,z
loop_
_atom_site_type_symbol
_atom_site_label
_atom_site_fract_x
_atom_site_fract_y
_atom_site_fract_z
Si Si1 0.718610 0.189087 0.391634
Si Si2 0.547008 0.707837 0.854258
Si Si3 0.854497 0.718611 0.377626
Si Si4 0.903691 0.897673 0.842941
Si Si5 0.855937 0.500000 0.745132
Si Si6 0.831771 0.500000 0.919440
Si Si7 0.208617 0.812065 0.846083
O O1 0.750000 0.250000 0.500000
O O2 0.570799 0.223906 0.236341
O O3 0.832282 0.219188 0.434069
O O4 0.697905 0.084641 0.355395
O O5 0.484256 0.620074 0.834819
O O6 0.589738 0.694836 0.801328
O O7 0.676414 0.745967 0.017055
O O8 0.738115 0.647913 0.281983
O O9 0.830434 0.777321 0.277046
O O10 0.000000 0.679017 0.500000
O O11 0.886081 0.000000 0.841231
O O12 0.000000 0.858582 0.000000
O O13 0.818311 0.500000 0.807741
O O14 0.016906 0.500000 0.906312
O O15 0.763620 0.410933 0.889253
#
# Coordination Sequence:
#
# PCOD9210649 Si02
#       7
#     8   8   8   8   4   4   8
#     4  11  23  43  63  92 134 178 216 272 337 408
#     4  10  22  38  65  90 133 170 216 271 340 396
#     4  11  23  41  66  90 131 174 219 272 339 401
#     4  10  21  39  63  90 122 170 221 271 323 391
#     4  11  22  40  70 104 130 174 230 281 345 403
#     4  11  22  38  72 106 130 160 230 296 337 396
#     4  11  21  39  64 102 128 168 215 283 339 393
#
# _framework density 18.95186
#
# number of rings (size 3 to 8) (size 9 to 14) (size 15 to 20)
#    0.000    1.333    5.000    1.000    1.167    0.333 
#    6.000    3.333    5.500    0.000    0.000    0.000 
#    0.000    0.000    0.000    0.000    0.000    0.000 
#
# Total GULP energy -133602.212187 kJ/mol
# GULP energy per Si atom -5566.758841 kJ/mol
# Density = 1.890872 g / cm^3
# Si number density = 18.951860 Si / 1000 Ang^3
#
#
#
# Elastic Constant Matrix: (Units=GPa)
#
#
# Indices 1 2 3 4 5 6 
#
# 1 139.2180 27.2426 37.2255 0.0000 5.2785 0.0000
# 2 27.2426 93.5901 29.4631 0.0000 1.1416 0.0000
# 3 37.2255 29.4631 79.7373 0.0001 10.4378 0.0001
# 4 0.0000 0.0000 0.0001 12.2843 0.0001 -0.2192
# 5 5.2785 1.1416 10.4378 0.0001 39.5334 0.0000
# 6 0.0000 0.0000 0.0001 -0.2192 0.0000 16.0527
#
#
#
# Elastic Compliance Matrix: (Units=1/GPa)
#
#
# Indices 1 2 3 4 5 6 
#
# 1 0.008360 -0.001369 -0.003372 0.000000 -0.000186 0.000000
# 2 -0.001369 0.012344 -0.004039 0.000000 0.000893 0.000000
# 3 -0.003372 -0.004039 0.016090 0.000000 -0.003681 0.000000
# 4 0.000000 0.000000 0.000000 0.081425 0.000000 0.001112
# 5 -0.000186 0.000893 -0.003681 0.000000 0.026266 0.000000
# 6 0.000000 0.000000 0.000000 0.001112 0.000000 0.062310
#
#
# Mechanical properties :
#
#
# Convention : Reuss Voigt Hill
#
# Bulk Modulus (GPa) = 51.99517 55.60085 53.79801
# Shear Modulus (GPa) = 21.66694 28.14834 24.90764
#
# Velocity S-wave (km/s) = 3.38488 3.85808 3.62920
# Velocity P-wave (km/s) = 6.53999 7.01769 6.78305
#
# Compressibility (1/GPa) = 0.01923256
#
# Stress axis : x y z
#
# Youngs Moduli (GPa) = 119.62068 81.01073 62.15132
#
# Poissons Ratio (x) = 0.11094 0.20960
# Poissons Ratio (y) = 0.16382 0.25101
# Poissons Ratio (z) = 0.40340 0.32718
#
# Static dielectric constant tensor:
#      x y z
#    x 1.667130 0.000000 -0.042650 
#    y 0.000000 1.658890 0.000000 
#    z -0.042650 0.000000 1.707290 
# 
# From -- ./inp_files/278260.got.cif
#   From: 2010.05.17/outbox.cif.g08.bks.cpg/sg12_140_cif.got.tgz:278260.got - 2010.06.03 13:09:07.
