data_PCOD9210060
_publ_section_title
;
Structure prediction by ZEFSAII (Michael W. Deem and Ramdas Pophale) SiO2 
 PCOD9210060
Probable space group: C 2/M
;
_chemical_formula_sum "Si O2"
_cell_formula_units_Z 64
_cell_length_a 11.940865
_cell_length_b 26.511282
_cell_length_c 15.554083
_cell_angle_alpha 90.000000
_cell_angle_beta 38.709748
_cell_angle_gamma 90.000000
_cell_volume 3079.298151
_symmetry_space_group_name_H-M "C 2/M"
_symmetry_group_IT_number 12
_symmetry_cell_setting 'monoclinic'
loop_
_space_group_symop_operation_xyz
x,y,z
-x,y,-z
-x,-y,-z
x,-y,z
1/2+x,1/2+y,z
1/2-x,1/2+y,-z
1/2-x,1/2-y,-z
1/2+x,1/2-y,z
loop_
_atom_site_type_symbol
_atom_site_label
_atom_site_fract_x
_atom_site_fract_y
_atom_site_fract_z
Si Si1 0.928652 0.556338 0.951908
Si Si2 0.994475 0.612502 0.269124
Si Si3 0.368565 0.442204 0.498146
Si Si4 0.974528 0.076302 0.781075
Si Si5 0.277189 0.211341 0.866396
Si Si6 0.564174 0.692343 0.155251
Si Si7 0.836092 0.415535 0.655514
Si Si8 0.188561 0.295300 0.352988
O O1 0.006753 0.500000 0.897150
O O2 0.714743 0.553410 0.081030
O O3 0.979019 0.588783 0.839927
O O4 0.000000 0.577338 0.000000
O O5 0.060490 0.670384 0.223571
O O6 0.111861 0.585870 0.274938
O O7 0.789655 0.598950 0.413942
O O8 0.500000 0.432978 0.500000
O O9 0.297157 0.500000 0.549768
O O10 0.474373 0.439261 0.345540
O O11 0.939008 0.136408 0.806487
O O12 0.142973 0.063772 0.742438
O O13 0.299573 0.268019 0.887106
O O14 0.265063 0.217747 0.772197
O O15 0.119166 0.188540 0.021051
O O16 0.370936 0.716729 0.292345
O O17 0.824060 0.356206 0.637898
O O18 0.000000 0.436944 0.500000
O O19 0.000000 0.274958 0.500000
#
# Coordination Sequence:
#
# PCOD9210060 Si02
#       8
#     8   8   8   8   8   8   8   8
#     4  11  24  43  64  89 125 166 211 267 324 377
#     4  11  21  41  65  93 122 167 214 259 321 384
#     4  11  24  43  66  91 127 172 215 263 330 391
#     4  11  21  41  65  93 122 167 214 259 321 384
#     4  10  21  39  59  87 125 167 206 256 317 385
#     4  10  21  39  59  87 125 167 206 256 317 385
#     4   9  18  36  63  87 123 159 192 251 315 376
#     4   9  19  35  59  86 116 162 203 246 319 377
#
# _framework density 20.783957000000001
#
# number of rings (size 3 to 8) (size 9 to 14) (size 15 to 20)
#    0.000    1.750    2.500    1.875    1.750    3.000 
#    4.500    3.750    0.000    0.000    0.000    0.000 
#    0.000    0.000    0.000    0.000    0.000    0.000 
#
# Total GULP energy -178370.589546 kJ/mol
# GULP energy per Si atom -5574.080923 kJ/mol
# Density = 2.073665 g / cm^3
# Si number density = 20.783957 Si / 1000 Ang^3
#
#
#
# Elastic Constant Matrix: (Units=GPa)
#
#
# Indices 1 2 3 4 5 6 
#
# 1 60.0653 13.8052 -14.5006 0.0000 14.0271 0.0000
# 2 13.8052 63.8172 3.5312 0.0000 10.0063 -0.0001
# 3 -14.5006 3.5312 55.6251 -0.0001 4.9350 0.0001
# 4 0.0000 0.0000 -0.0001 24.4469 0.0001 4.2184
# 5 14.0271 10.0063 4.9350 0.0001 29.6807 -0.0001
# 6 0.0000 -0.0001 0.0001 4.2184 -0.0001 -12.1907
#
#
#
# Elastic Compliance Matrix: (Units=1/GPa)
#
#
# Indices 1 2 3 4 5 6 
#
# 1 0.021402 -0.003420 0.006690 0.000000 -0.010074 0.000000
# 2 -0.003420 0.017108 -0.001634 0.000000 -0.003880 0.000000
# 3 0.006690 -0.001634 0.020357 0.000000 -0.005996 0.000000
# 4 0.000000 0.000000 0.000000 0.038600 0.000000 0.013357
# 5 -0.010074 -0.003880 -0.005996 0.000000 0.040758 0.000000
# 6 0.000000 0.000000 0.000000 0.013357 0.000000 -0.077408
#
#
# Mechanical properties :
#
#
# Convention : Reuss Voigt Hill
#
# Bulk Modulus (GPa) = 16.09263 20.57547 18.33405
# Shear Modulus (GPa) = 63.89008 20.16549 42.02778
#
# Velocity S-wave (km/s) = 5.55039 3.11825 4.50168
# Velocity P-wave (km/s) = 6.98823 4.78391 5.98837
#
# Compressibility (1/GPa) = 0.06214024
#
# Stress axis : x y z
#
# Youngs Moduli (GPa) = 46.72374 58.45081 49.12272
#
# Poissons Ratio (x) = 0.19993 -0.32864
# Poissons Ratio (y) = 0.15982 0.08024
# Poissons Ratio (z) = -0.31259 0.09548
#
# Static dielectric constant tensor:
#      x y z
#    x 1.782880 0.000000 -0.027740 
#    y 0.000000 1.781820 0.000000 
#    z -0.027740 0.000000 1.765350 
# 
# From -- ./inp_files/209394.got.cif
#   From: 2010.05.17/outbox.cif.g08.bks.cpg/sg12_105_cif.got.tgz:209394.got - 2010.06.03 13:09:07.
