data_PCOD9210113
_publ_section_title
;
Structure prediction by ZEFSAII (Michael W. Deem and Ramdas Pophale) SiO2 
 PCOD9210113
Probable space group: C 2/M
;
_chemical_formula_sum "Si O2"
_cell_formula_units_Z 56
_cell_length_a 28.016325
_cell_length_b 7.823150
_cell_length_c 17.446238
_cell_angle_alpha 90.000000
_cell_angle_beta 138.467381
_cell_angle_gamma 90.000000
_cell_volume 2535.353327
_symmetry_space_group_name_H-M "C 2/M"
_symmetry_group_IT_number 12
_symmetry_cell_setting 'monoclinic'
loop_
_space_group_symop_operation_xyz
x,y,z
-x,y,-z
-x,-y,-z
x,-y,z
1/2+x,1/2+y,z
1/2-x,1/2+y,-z
1/2-x,1/2-y,-z
1/2+x,1/2-y,z
loop_
_atom_site_type_symbol
_atom_site_label
_atom_site_fract_x
_atom_site_fract_y
_atom_site_fract_z
Si Si1 0.656142 0.793288 0.705739
Si Si2 0.264706 0.204678 0.430447
Si Si3 0.413890 0.209013 0.531563
Si Si4 0.466652 0.201205 0.037547
Si Si5 0.691836 0.293772 0.191862
Si Si6 0.475221 0.801509 0.213442
Si Si7 0.332271 0.694492 0.108169
O O1 0.599927 0.736795 0.572588
O O2 0.736043 0.753522 0.769337
O O3 0.647333 0.714939 0.778311
O O4 0.651516 0.000000 0.708217
O O5 0.250000 0.250000 0.500000
O O6 0.343060 0.260083 0.494672
O O7 0.207153 0.264677 0.297767
O O8 0.264921 0.000000 0.425238
O O9 0.481812 0.271010 0.662023
O O10 0.415778 0.000000 0.529482
O O11 0.490629 0.275919 0.148360
O O12 0.485791 0.000000 0.061691
O O13 0.500000 0.277355 0.000000
O O14 0.380761 0.216891 0.927965
O O15 0.684473 0.500000 0.181851
O O16 0.390642 0.794823 0.129014
O O17 0.497047 0.000000 0.235550
O O18 0.338036 0.500000 0.089736
O O19 0.250000 0.750000 0.000000
#
# Coordination Sequence:
#
# PCOD9210113 Si02
#       7
#     8   8   8   8   8   8   8
#     4   9  18  37  62  86 113 148 191 233 279 336
#     4   9  18  32  53  81 109 144 188 233 278 329
#     4   8  17  35  59  83 113 154 193 229 275 341
#     4  10  22  36  54  82 111 146 191 237 282 329
#     4   9  19  35  54  79 110 144 185 229 278 336
#     4  10  21  39  60  84 116 153 193 234 281 339
#     4  12  25  40  60  87 116 148 189 237 289 341
#
# _framework density 22.087651999999999
#
# number of rings (size 3 to 8) (size 9 to 14) (size 15 to 20)
#    0.000    2.429    0.000    3.857    2.000    4.857 
#    0.000    6.429    0.000    0.000    0.000    0.000 
#    0.000    0.000    0.000    0.000    0.000    0.000 
#
# Total GULP energy -156333.713208 kJ/mol
# GULP energy per Si atom -5583.346900 kJ/mol
# Density = 2.203738 g / cm^3
# Si number density = 22.087652 Si / 1000 Ang^3
#
#
#
# Elastic Constant Matrix: (Units=GPa)
#
#
# Indices 1 2 3 4 5 6 
#
# 1 65.6000 -4.1567 39.8954 0.0000 -26.8114 0.0000
# 2 -4.1567 25.8122 0.1676 0.0000 -2.3918 0.0000
# 3 39.8954 0.1676 125.7810 0.0000 -13.8673 0.0000
# 4 0.0000 0.0000 0.0000 18.4542 0.0000 0.4619
# 5 -26.8114 -2.3918 -13.8673 0.0000 31.3220 0.0000
# 6 0.0000 0.0000 0.0000 0.4619 0.0000 15.4554
#
#
#
# Elastic Compliance Matrix: (Units=1/GPa)
#
#
# Indices 1 2 3 4 5 6 
#
# 1 0.028833 0.006746 -0.006704 0.000000 0.022228 0.000000
# 2 0.006746 0.040606 -0.001278 0.000000 0.008310 0.000000
# 3 -0.006704 -0.001278 0.009919 0.000000 -0.001444 0.000000
# 4 0.000000 0.000000 0.000000 0.054229 0.000000 -0.001621
# 5 0.022228 0.008310 -0.001444 0.000000 0.050949 0.000000
# 6 0.000000 0.000000 0.000000 -0.001621 0.000000 0.064751
#
#
# Mechanical properties :
#
#
# Convention : Reuss Voigt Hill
#
# Bulk Modulus (GPa) = 13.00591 32.11176 22.55884
# Shear Modulus (GPa) = 18.02541 25.13211 21.57876
#
# Velocity S-wave (km/s) = 2.85982 3.37684 3.12903
# Velocity P-wave (km/s) = 4.09950 5.45655 4.82596
#
# Compressibility (1/GPa) = 0.07688814
#
# Stress axis : x y z
#
# Youngs Moduli (GPa) = 34.68224 24.62689 100.81584
#
# Poissons Ratio (x) = -0.16614 0.67584
# Poissons Ratio (y) = -0.23398 0.12882
# Poissons Ratio (z) = 0.23250 0.03147
#
# Static dielectric constant tensor:
#      x y z
#    x 1.780220 0.000000 -0.056530 
#    y 0.000000 1.815850 0.000000 
#    z -0.056530 0.000000 1.801740 
# 
# From -- ./inp_files/295177.got.cif
#   From: 2010.05.17/outbox.cif.g08.bks.cpg/sg12_148_cif.got.tgz:295177.got - 2010.06.03 13:09:07.
