data_PCOD9210430
_publ_section_title
;
Structure prediction by ZEFSAII (Michael W. Deem and Ramdas Pophale) SiO2 
 PCOD9210430
Probable space group: C 2/M
;
_chemical_formula_sum "Si O2"
_cell_formula_units_Z 44
_cell_length_a 29.778169
_cell_length_b 10.738035
_cell_length_c 12.844692
_cell_angle_alpha 90.000000
_cell_angle_beta 28.359672
_cell_angle_gamma 90.000000
_cell_volume 1950.943226
_symmetry_space_group_name_H-M "C 2/M"
_symmetry_group_IT_number 12
_symmetry_cell_setting 'monoclinic'
loop_
_space_group_symop_operation_xyz
x,y,z
-x,y,-z
-x,-y,-z
x,-y,z
1/2+x,1/2+y,z
1/2-x,1/2+y,-z
1/2-x,1/2-y,-z
1/2+x,1/2-y,z
loop_
_atom_site_type_symbol
_atom_site_label
_atom_site_fract_x
_atom_site_fract_y
_atom_site_fract_z
Si Si1 0.335937 0.000000 0.675133
Si Si2 0.437812 0.357443 0.025611
Si Si3 0.911549 0.749170 0.870149
Si Si4 0.387823 0.000000 0.805612
Si Si5 0.689167 0.251338 0.387158
Si Si6 0.336434 0.500000 0.676194
Si Si7 0.250000 0.750000 0.500000
Si Si8 0.112387 0.000000 0.193620
O O1 0.387295 0.000000 0.681953
O O2 0.353243 0.875537 0.573129
O O3 0.223506 0.000000 0.932606
O O4 0.450138 0.500000 0.965242
O O5 0.329937 0.336498 0.280064
O O6 0.500000 0.335045 0.000000
O O7 0.457346 0.264291 0.890553
O O8 0.931273 0.624137 0.767060
O O9 0.929137 0.873171 0.768178
O O10 0.798749 0.746775 0.124650
O O11 0.276250 0.000000 0.065946
O O12 0.645155 0.375722 0.427131
O O13 0.692230 0.258972 0.505192
O O14 0.388107 0.500000 0.681138
#
# Coordination Sequence:
#
# PCOD9210430 Si02
#       8
#     4   8   8   4   8   4   4   4
#     4   9  16  27  42  71 106 146 190 232 285 353
#     4  10  21  39  62  89 118 155 202 246 293 355
#     4   9  16  29  48  76 107 147 187 235 289 349
#     4   9  16  26  45  71 111 146 181 238 299 337
#     4   9  18  27  44  71 107 145 188 234 283 345
#     4   9  16  25  38  71 104 138 186 236 283 335
#     4  10  22  34  58  84 116 154 190 244 294 344
#     4   9  14  24  45  67 103 142 185 234 287 337
#
# _framework density 22.553194000000001
#
# number of rings (size 3 to 8) (size 9 to 14) (size 15 to 20)
#    0.000    2.727    0.909    1.091    5.091    4.364 
#    1.636    0.455    0.000    0.000    0.000    7.636 
#    0.000    0.000    0.000    0.000    0.000    0.000 
#
# Total GULP energy -122499.159986 kJ/mol
# GULP energy per Si atom -5568.143636 kJ/mol
# Density = 2.250186 g / cm^3
# Si number density = 22.553194 Si / 1000 Ang^3
#
#
#
# Elastic Constant Matrix: (Units=GPa)
#
#
# Indices 1 2 3 4 5 6 
#
# 1 201.7620 120.1049 11.0841 0.0000 45.1898 0.0000
# 2 120.1049 203.3552 29.1944 0.0000 37.2945 0.0000
# 3 11.0841 29.1944 70.9783 0.0000 0.4450 0.0000
# 4 0.0000 0.0000 0.0000 12.7891 0.0000 5.9034
# 5 45.1898 37.2945 0.4450 0.0000 36.7683 0.0000
# 6 0.0000 0.0000 0.0000 5.9034 0.0000 24.6144
#
#
#
# Elastic Compliance Matrix: (Units=1/GPa)
#
#
# Indices 1 2 3 4 5 6 
#
# 1 0.008864 -0.004032 0.000317 0.000000 -0.006808 0.000000
# 2 -0.004032 0.008332 -0.002776 0.000000 -0.003462 0.000000
# 3 0.000317 -0.002776 0.015167 0.000000 0.002243 0.000000
# 4 0.000000 0.000000 0.000000 0.087926 0.000000 -0.021088
# 5 -0.006808 -0.003462 0.002243 0.000000 0.039050 0.000000
# 6 0.000000 0.000000 0.000000 -0.021088 0.000000 0.045684
#
#
# Mechanical properties :
#
#
# Convention : Reuss Voigt Hill
#
# Bulk Modulus (GPa) = 51.59600 88.54026 70.06813
# Shear Modulus (GPa) = 22.27508 35.88183 29.07845
#
# Velocity S-wave (km/s) = 3.14613 3.99304 3.59462
# Velocity P-wave (km/s) = 6.01038 7.78478 6.95440
#
# Compressibility (1/GPa) = 0.01938135
#
# Stress axis : x y z
#
# Youngs Moduli (GPa) = 112.81498 120.01232 65.93251
#
# Poissons Ratio (x) = 0.48391 -0.02090
# Poissons Ratio (y) = 0.45489 0.18302
# Poissons Ratio (z) = -0.03575 0.33314
#
# Static dielectric constant tensor:
#      x y z
#    x 1.809740 0.000000 -0.069720 
#    y 0.000000 1.757100 0.000000 
#    z -0.069720 0.000000 1.884700 
# 
# From -- ./inp_files/175166.got.cif
#   From: 2010.05.17/outbox.cif.g08.bks.cpg/sg12_88_cif.got.tgz:175166.got - 2010.06.03 13:09:07.
