data_PCOD9210244
_publ_section_title
;
Structure prediction by ZEFSAII (Michael W. Deem and Ramdas Pophale) SiO2 
 PCOD9210244
Probable space group: C 2/M
;
_chemical_formula_sum "Si O2"
_cell_formula_units_Z 40
_cell_length_a 16.679212
_cell_length_b 8.616441
_cell_length_c 15.523647
_cell_angle_alpha 90.000000
_cell_angle_beta 51.350877
_cell_angle_gamma 90.000000
_cell_volume 1742.368712
_symmetry_space_group_name_H-M "C 2/M"
_symmetry_group_IT_number 12
_symmetry_cell_setting 'monoclinic'
loop_
_space_group_symop_operation_xyz
x,y,z
-x,y,-z
-x,-y,-z
x,-y,z
1/2+x,1/2+y,z
1/2-x,1/2+y,-z
1/2-x,1/2-y,-z
1/2+x,1/2-y,z
loop_
_atom_site_type_symbol
_atom_site_label
_atom_site_fract_x
_atom_site_fract_y
_atom_site_fract_z
Si Si1 0.360776 0.685447 0.950608
Si Si2 0.400623 0.179799 0.461292
Si Si3 0.844212 0.317271 0.144466
Si Si4 0.618425 0.320092 0.348429
Si Si5 0.073298 0.183951 0.733801
O O1 0.355853 0.500000 0.957754
O O2 0.452530 0.726597 0.823804
O O3 0.250000 0.750000 0.000000
O O4 0.387994 0.750910 0.026638
O O5 0.523340 0.211535 0.388128
O O6 0.355255 0.281311 0.569645
O O7 0.375515 0.232834 0.381784
O O8 0.376335 0.000000 0.491172
O O9 0.866978 0.500000 0.136987
O O10 0.720600 0.299016 0.224898
O O11 0.880502 0.230474 0.205474
O O12 0.585538 0.500000 0.362772
O O13 0.081093 0.000000 0.715657
#
# Coordination Sequence:
#
# PCOD9210244 Si02
#       5
#     8   8   8   8   8
#     4  11  24  41  63  89 117 154 196 239 290 346
#     4  11  22  37  61  90 117 152 199 244 288 341
#     4  11  24  40  61  89 119 154 195 240 292 347
#     4  10  21  39  61  86 119 156 194 239 292 347
#     4  11  24  41  60  85 120 158 194 237 293 350
#
# _framework density 22.957253999999999
#
# number of rings (size 3 to 8) (size 9 to 14) (size 15 to 20)
#    0.000    1.200    0.000    7.200    0.000   14.400 
#    0.000    0.000    0.000    0.000    0.000    0.000 
#    0.000    0.000    0.000    0.000    0.000    0.000 
#
# Total GULP energy -112012.744302 kJ/mol
# GULP energy per Si atom -5600.637215 kJ/mol
# Density = 2.290500 g / cm^3
# Si number density = 22.957254 Si / 1000 Ang^3
#
#
#
# Elastic Constant Matrix: (Units=GPa)
#
#
# Indices 1 2 3 4 5 6 
#
# 1 58.4317 -8.1207 -4.7049 0.0000 12.2186 0.0000
# 2 -8.1207 44.0473 10.9056 0.0000 -2.6149 0.0000
# 3 -4.7049 10.9056 96.7422 0.0000 15.7920 0.0000
# 4 0.0000 0.0000 0.0000 29.6361 0.0000 8.2776
# 5 12.2186 -2.6149 15.7920 0.0000 44.1587 0.0000
# 6 0.0000 0.0000 0.0000 8.2776 0.0000 32.0551
#
#
#
# Elastic Compliance Matrix: (Units=1/GPa)
#
#
# Indices 1 2 3 4 5 6 
#
# 1 0.018785 0.002758 0.001513 0.000000 -0.005575 0.000000
# 2 0.002758 0.024016 -0.002847 0.000000 0.001677 0.000000
# 3 0.001513 -0.002847 0.011498 0.000000 -0.004699 0.000000
# 4 0.000000 0.000000 0.000000 0.036366 0.000000 -0.009391
# 5 -0.005575 0.001677 -0.004699 0.000000 0.025968 0.000000
# 6 0.000000 0.000000 0.000000 -0.009391 0.000000 0.033621
#
#
# Mechanical properties :
#
#
# Convention : Reuss Voigt Hill
#
# Bulk Modulus (GPa) = 17.49894 21.70900 19.60397
# Shear Modulus (GPa) = 30.03806 34.57939 32.30872
#
# Velocity S-wave (km/s) = 3.62115 3.88526 3.75553
# Velocity P-wave (km/s) = 5.01225 5.44093 5.23098
#
# Compressibility (1/GPa) = 0.05714632
#
# Stress axis : x y z
#
# Youngs Moduli (GPa) = 53.23409 41.63944 86.96904
#
# Poissons Ratio (x) = -0.11483 -0.13157
# Poissons Ratio (y) = -0.14680 0.24759
# Poissons Ratio (z) = -0.08053 0.11854
#
# Static dielectric constant tensor:
#      x y z
#    x 1.921950 0.000000 -0.004660 
#    y 0.000000 1.762920 0.000000 
#    z -0.004660 0.000000 1.764550 
# 
# From -- ./inp_files/220578.got.cif
#   From: 2010.05.17/outbox.cif.g08.bks.cpg/sg12_111_cif.got.tgz:220578.got - 2010.06.03 13:09:07.
