data_PCOD9210444
_publ_section_title
;
Structure prediction by ZEFSAII (Michael W. Deem and Ramdas Pophale) SiO2 
 PCOD9210444
Probable space group: C 2/M
;
_chemical_formula_sum "Si O2"
_cell_formula_units_Z 56
_cell_length_a 27.242959
_cell_length_b 18.512480
_cell_length_c 9.416122
_cell_angle_alpha 90.000000
_cell_angle_beta 141.366024
_cell_angle_gamma 90.000000
_cell_volume 2964.927986
_symmetry_space_group_name_H-M "C 2/M"
_symmetry_group_IT_number 12
_symmetry_cell_setting 'monoclinic'
loop_
_space_group_symop_operation_xyz
x,y,z
-x,y,-z
-x,-y,-z
x,-y,z
1/2+x,1/2+y,z
1/2-x,1/2+y,-z
1/2-x,1/2-y,-z
1/2+x,1/2-y,z
loop_
_atom_site_type_symbol
_atom_site_label
_atom_site_fract_x
_atom_site_fract_y
_atom_site_fract_z
Si Si1 0.980174 0.308066 0.297588
Si Si2 0.242970 0.084436 0.919987
Si Si3 0.430868 0.414275 0.451847
Si Si4 0.812526 0.303455 0.512645
Si Si5 0.447148 0.691528 0.749090
Si Si6 0.384406 0.915078 0.461972
Si Si7 0.799092 0.691099 0.813376
O O1 0.000000 0.280875 0.500000
O O2 0.008546 0.252507 0.242686
O O3 0.032868 0.380038 0.397340
O O4 0.888019 0.316811 0.067079
O O5 0.158676 0.097640 0.804617
O O6 0.250710 0.136922 0.803224
O O7 0.243964 0.000000 0.879005
O O8 0.317733 0.095930 0.190800
O O9 0.500000 0.391579 0.500000
O O10 0.440811 0.500000 0.496930
O O11 0.433865 0.372207 0.607345
O O12 0.871185 0.234209 0.637279
O O13 0.853068 0.369543 0.524568
O O14 0.795779 0.323816 0.637205
O O15 0.736032 0.272335 0.258453
O O16 0.500000 0.667714 0.000000
O O17 0.391679 0.000000 0.506043
#
# Coordination Sequence:
#
# PCOD9210444 Si02
#       7
#     8   8   8   8   8   8   8
#     4  11  22  36  61  93 122 159 204 249 300 360
#     4  10  21  39  62  89 122 157 202 252 301 367
#     4  10  22  41  62  87 119 159 205 254 311 364
#     4  10  23  39  61  86 126 162 203 251 300 365
#     4  11  21  38  59  87 122 155 203 255 298 360
#     4  10  23  40  60  90 126 164 204 250 303 364
#     4  11  21  40  61  91 120 162 201 247 306 358
#
# _framework density 18.887473
#
# number of rings (size 3 to 8) (size 9 to 14) (size 15 to 20)
#    0.000    1.571    4.286    0.429    0.000    4.571 
#    0.000    0.714    0.000    0.000    0.000    0.000 
#    0.000    0.000    0.000    0.000    0.000    0.000 
#
# Total GULP energy -156206.335314 kJ/mol
# GULP energy per Si atom -5578.797690 kJ/mol
# Density = 1.884448 g / cm^3
# Si number density = 18.887473 Si / 1000 Ang^3
#
#
#
# Elastic Constant Matrix: (Units=GPa)
#
#
# Indices 1 2 3 4 5 6 
#
# 1 96.6672 25.9760 33.7132 0.0000 18.2372 0.0000
# 2 25.9760 62.7257 37.6158 0.0000 9.9664 0.0000
# 3 33.7132 37.6158 102.8166 0.0000 20.6939 0.0000
# 4 0.0000 0.0000 0.0000 -0.6749 0.0000 11.4559
# 5 18.2372 9.9664 20.6939 0.0000 32.8171 0.0000
# 6 0.0000 0.0000 0.0000 11.4559 0.0000 20.4478
#
#
#
# Elastic Compliance Matrix: (Units=1/GPa)
#
#
# Indices 1 2 3 4 5 6 
#
# 1 0.012864 -0.003346 -0.002015 0.000000 -0.004862 0.000000
# 2 -0.003346 0.021378 -0.006633 0.000000 -0.000450 0.000000
# 3 -0.002015 -0.006633 0.013954 0.000000 -0.005665 0.000000
# 4 0.000000 0.000000 0.000000 -0.140982 0.000000 0.078986
# 5 -0.004862 -0.000450 -0.005665 0.000000 0.036882 0.000000
# 6 0.000000 0.000000 0.000000 0.078986 0.000000 0.004653
#
#
# Mechanical properties :
#
#
# Convention : Reuss Voigt Hill
#
# Bulk Modulus (GPa) = 41.31255 50.75773 46.03514
# Shear Modulus (GPa) = -260.50475 21.51163 -119.49656
#
# Velocity S-wave (km/s) = -11.75687 3.37847 -7.96272
# Velocity P-wave (km/s) = 12.74277 6.49237 7.75330
#
# Compressibility (1/GPa) = 0.02420572
#
# Stress axis : x y z
#
# Youngs Moduli (GPa) = 77.73624 46.77803 71.66505
#
# Poissons Ratio (x) = 0.15653 0.14443
# Poissons Ratio (y) = 0.26012 0.47538
# Poissons Ratio (z) = 0.15666 0.31029
#
# Static dielectric constant tensor:
#      x y z
#    x 1.668570 0.000000 0.040110 
#    y 0.000000 1.637010 0.000000 
#    z 0.040110 0.000000 1.676290 
# 
# From -- ./inp_files/75838.got.cif
#   From: 2010.05.17/outbox.cif.g08.bks.cpg/sg12_38_cif.got.tgz:75838.got - 2010.06.03 13:09:07.
