data_PCOD9210603
_publ_section_title
;
Structure prediction by ZEFSAII (Michael W. Deem and Ramdas Pophale) SiO2 
 PCOD9210603
Probable space group: C 2/M
;
_chemical_formula_sum "Si O2"
_cell_formula_units_Z 48
_cell_length_a 28.861486
_cell_length_b 8.870800
_cell_length_c 17.976717
_cell_angle_alpha 90.000000
_cell_angle_beta 153.645803
_cell_angle_gamma 90.000000
_cell_volume 2043.128041
_symmetry_space_group_name_H-M "C 2/M"
_symmetry_group_IT_number 12
_symmetry_cell_setting 'monoclinic'
loop_
_space_group_symop_operation_xyz
x,y,z
-x,y,-z
-x,-y,-z
x,-y,z
1/2+x,1/2+y,z
1/2-x,1/2+y,-z
1/2-x,1/2-y,-z
1/2+x,1/2-y,z
loop_
_atom_site_type_symbol
_atom_site_label
_atom_site_fract_x
_atom_site_fract_y
_atom_site_fract_z
Si Si1 0.361143 0.326292 0.749168
Si Si2 0.893775 0.325342 0.246915
Si Si3 0.161886 0.676030 0.133033
Si Si4 0.917420 0.175015 0.131684
Si Si5 0.612090 0.827779 0.365144
Si Si6 0.859022 0.675751 0.365632
O O1 0.393189 0.500000 0.783639
O O2 0.385962 0.268283 0.867084
O O3 0.399995 0.220550 0.738397
O O4 0.234515 0.320590 0.559589
O O5 0.870585 0.500000 0.196598
O O6 0.868498 0.224585 0.139637
O O7 0.846604 0.289791 0.259803
O O8 0.019010 0.313618 0.440305
O O9 0.144936 0.500000 0.119625
O O10 0.284558 0.717217 0.304934
O O11 0.121689 0.731442 0.995387
O O12 0.040371 0.216245 0.309149
O O13 0.900026 0.000000 0.093573
O O14 0.577566 0.000000 0.328222
O O15 0.828563 0.500000 0.334339
#
# Coordination Sequence:
#
# PCOD9210603 Si02
#       6
#     8   8   8   8   8   8
#     4  10  21  39  63  89 117 149 188 234 283 337
#     4   9  19  38  63  88 115 149 189 234 285 340
#     4  12  25  39  57  83 117 155 194 236 285 340
#     4  12  25  39  57  83 117 155 194 236 285 340
#     4  10  21  39  63  89 117 149 188 234 283 337
#     4   9  19  38  63  88 115 149 189 234 285 340
#
# _framework density 23.493387999999999
#
# number of rings (size 3 to 8) (size 9 to 14) (size 15 to 20)
#    0.000    1.667    0.000    6.000    0.000    8.667 
#    0.000    5.000    0.000    0.000    0.000    0.000 
#    0.000    0.000    0.000    0.000    0.000    0.000 
#
# Total GULP energy -134426.649686 kJ/mol
# GULP energy per Si atom -5601.110404 kJ/mol
# Density = 2.343992 g / cm^3
# Si number density = 23.493388 Si / 1000 Ang^3
#
#
#
# Elastic Constant Matrix: (Units=GPa)
#
#
# Indices 1 2 3 4 5 6 
#
# 1 86.0307 21.2545 3.1795 0.0000 -17.4541 0.0000
# 2 21.2545 70.7529 7.8528 0.0000 -10.5738 0.0000
# 3 3.1795 7.8528 65.7741 0.0000 -14.1538 0.0000
# 4 0.0000 0.0000 0.0000 27.7826 0.0000 -0.9164
# 5 -17.4541 -10.5738 -14.1538 0.0000 44.9320 0.0000
# 6 0.0000 0.0000 0.0000 -0.9164 0.0000 38.2087
#
#
#
# Elastic Compliance Matrix: (Units=1/GPa)
#
#
# Indices 1 2 3 4 5 6 
#
# 1 0.013378 -0.003411 0.000757 0.000000 0.004633 0.000000
# 2 -0.003411 0.015590 -0.001279 0.000000 0.001941 0.000000
# 3 0.000757 -0.001279 0.016432 0.000000 0.005169 0.000000
# 4 0.000000 0.000000 0.000000 0.036022 0.000000 0.000864
# 5 0.004633 0.001941 0.005169 0.000000 0.026141 0.000000
# 6 0.000000 0.000000 0.000000 0.000864 0.000000 0.026193
#
#
# Mechanical properties :
#
#
# Convention : Reuss Voigt Hill
#
# Bulk Modulus (GPa) = 26.64052 31.90346 29.27199
# Shear Modulus (GPa) = 32.43962 34.86938 33.65450
#
# Velocity S-wave (km/s) = 3.71994 3.85674 3.78896
# Velocity P-wave (km/s) = 5.46029 5.78289 5.62391
#
# Compressibility (1/GPa) = 0.03753681
#
# Stress axis : x y z
#
# Youngs Moduli (GPa) = 74.74788 64.14256 60.85680
#
# Poissons Ratio (x) = 0.21876 -0.04609
# Poissons Ratio (y) = 0.25493 0.07782
# Poissons Ratio (z) = -0.05662 0.08202
#
# Static dielectric constant tensor:
#      x y z
#    x 1.884880 0.000000 0.039620 
#    y 0.000000 1.782230 0.000000 
#    z 0.039620 0.000000 2.003200 
# 
# From -- ./inp_files/295901.got.cif
#   From: 2010.05.17/outbox.cif.g08.bks.cpg/sg12_148_cif.got.tgz:295901.got - 2010.06.03 13:09:07.
