data_PCOD9210401
_publ_section_title
;
Structure prediction by ZEFSAII (Michael W. Deem and Ramdas Pophale) SiO2 
 PCOD9210401
Probable space group: C 2/M
;
_chemical_formula_sum "Si O2"
_cell_formula_units_Z 56
_cell_length_a 12.399388
_cell_length_b 19.202845
_cell_length_c 13.477182
_cell_angle_alpha 90.000000
_cell_angle_beta 113.943422
_cell_angle_gamma 90.000000
_cell_volume 2932.822414
_symmetry_space_group_name_H-M "C 2/M"
_symmetry_group_IT_number 12
_symmetry_cell_setting 'monoclinic'
loop_
_space_group_symop_operation_xyz
x,y,z
-x,y,-z
-x,-y,-z
x,-y,z
1/2+x,1/2+y,z
1/2-x,1/2+y,-z
1/2-x,1/2-y,-z
1/2+x,1/2-y,z
loop_
_atom_site_type_symbol
_atom_site_label
_atom_site_fract_x
_atom_site_fract_y
_atom_site_fract_z
Si Si1 0.865302 0.176644 0.220054
Si Si2 0.598306 0.208093 0.115840
Si Si3 0.041276 0.129031 0.122498
Si Si4 0.131535 0.920561 0.590570
Si Si5 0.292310 0.920668 0.273458
Si Si6 0.985579 0.325654 0.278358
Si Si7 0.151444 0.582086 0.475607
O O1 0.732811 0.194357 0.135806
O O2 0.851790 0.132184 0.314074
O O3 0.940565 0.246337 0.273563
O O4 0.936101 0.134623 0.162452
O O5 0.583306 0.291107 0.122382
O O6 0.563775 0.173882 0.208102
O O7 0.500000 0.185196 0.000000
O O8 0.153329 0.088736 0.206571
O O9 0.000000 0.102060 0.000000
O O10 0.226735 0.910399 0.539283
O O11 0.000000 0.912700 0.500000
O O12 0.145411 0.000000 0.631838
O O13 0.366308 0.870776 0.229558
O O14 0.325115 0.904147 0.399991
O O15 0.326038 0.000000 0.267082
O O16 0.061161 0.363190 0.393031
O O17 0.113614 0.500000 0.451732
#
# Coordination Sequence:
#
# PCOD9210401 Si02
#       7
#     8   8   8   8   8   8   8
#     4  11  22  40  64  94 120 156 199 257 301 354
#     4  10  22  40  65  91 118 157 204 252 306 360
#     4  10  23  39  62  89 122 161 203 250 302 361
#     4  10  21  39  62  87 121 162 199 242 302 364
#     4  11  23  40  61  89 127 165 204 246 301 361
#     4  11  22  38  64  92 121 157 202 251 305 358
#     4  10  21  39  62  87 122 164 203 246 299 363
#
# _framework density 19.094235000000001
#
# number of rings (size 3 to 8) (size 9 to 14) (size 15 to 20)
#    0.000    1.571    2.857    1.714    2.000    6.000 
#    0.000    2.857    0.000    2.143    0.000    0.000 
#    0.000    0.000    0.000    0.000    0.000    0.000 
#
# Total GULP energy -156347.629753 kJ/mol
# GULP energy per Si atom -5583.843920 kJ/mol
# Density = 1.905078 g / cm^3
# Si number density = 19.094235 Si / 1000 Ang^3
#
#
#
# Elastic Constant Matrix: (Units=GPa)
#
#
# Indices 1 2 3 4 5 6 
#
# 1 113.2430 19.2482 16.0484 0.0000 8.3688 0.0000
# 2 19.2482 41.1114 29.6804 0.0000 -0.3470 0.0000
# 3 16.0484 29.6804 76.0602 0.0000 10.2173 0.0000
# 4 0.0000 0.0000 0.0000 27.7944 0.0000 11.5180
# 5 8.3688 -0.3470 10.2173 0.0000 27.7406 0.0000
# 6 0.0000 0.0000 0.0000 11.5180 0.0000 31.5950
#
#
#
# Elastic Compliance Matrix: (Units=1/GPa)
#
#
# Indices 1 2 3 4 5 6 
#
# 1 0.009844 -0.004785 0.000207 0.000000 -0.003106 0.000000
# 2 -0.004785 0.037027 -0.014408 0.000000 0.007213 0.000000
# 3 0.000207 -0.014408 0.019735 0.000000 -0.007512 0.000000
# 4 0.000000 0.000000 0.000000 0.042381 0.000000 -0.015450
# 5 -0.003106 0.007213 -0.007512 0.000000 0.039842 0.000000
# 6 0.000000 0.000000 0.000000 -0.015450 0.000000 0.037283
#
#
# Mechanical properties :
#
#
# Convention : Reuss Voigt Hill
#
# Bulk Modulus (GPa) = 34.92231 40.04093 37.48162
# Shear Modulus (GPa) = 21.40142 28.45517 24.92830
#
# Velocity S-wave (km/s) = 3.35151 3.86456 3.61715
# Velocity P-wave (km/s) = 5.77114 6.39756 6.09241
#
# Compressibility (1/GPa) = 0.02863499
#
# Stress axis : x y z
#
# Youngs Moduli (GPa) = 101.58465 27.00703 50.67081
#
# Poissons Ratio (x) = 0.12922 -0.01051
# Poissons Ratio (y) = 0.48607 0.73008
# Poissons Ratio (z) = -0.02106 0.38913
#
# Static dielectric constant tensor:
#      x y z
#    x 1.671060 0.000000 0.016440 
#    y 0.000000 1.651520 0.000000 
#    z 0.016440 0.000000 1.650520 
# 
# From -- ./inp_files/133964.got.cif
#   From: 2010.05.17/outbox.cif.g08.bks.cpg/sg12_67_cif.got.tgz:133964.got - 2010.06.03 13:09:07.
