data_PCOD9210907
_publ_section_title
;
Structure prediction by ZEFSAII (Michael W. Deem and Ramdas Pophale) SiO2 
 PCOD9210907
Probable space group: C 2/M
;
_chemical_formula_sum "Si O2"
_cell_formula_units_Z 64
_cell_length_a 14.584618
_cell_length_b 28.269722
_cell_length_c 12.619764
_cell_angle_alpha 90.000000
_cell_angle_beta 35.689043
_cell_angle_gamma 90.000000
_cell_volume 3035.454720
_symmetry_space_group_name_H-M "C 2/M"
_symmetry_group_IT_number 12
_symmetry_cell_setting 'monoclinic'
loop_
_space_group_symop_operation_xyz
x,y,z
-x,y,-z
-x,-y,-z
x,-y,z
1/2+x,1/2+y,z
1/2-x,1/2+y,-z
1/2-x,1/2-y,-z
1/2+x,1/2-y,z
loop_
_atom_site_type_symbol
_atom_site_label
_atom_site_fract_x
_atom_site_fract_y
_atom_site_fract_z
Si Si1 0.370733 0.371824 0.481890
Si Si2 0.183992 0.688241 0.309726
Si Si3 0.172621 0.414391 0.286683
Si Si4 0.871299 0.944361 0.303624
Si Si5 0.764156 0.871320 0.812671
Si Si6 0.262066 0.553309 0.985549
Si Si7 0.333865 0.766233 0.028255
Si Si8 0.363573 0.285929 0.336853
O O1 0.308630 0.410007 0.455186
O O2 0.256244 0.370131 0.691554
O O3 0.549603 0.382486 0.347921
O O4 0.405864 0.322196 0.389763
O O5 0.213160 0.640125 0.218317
O O6 0.271797 0.682685 0.337918
O O7 0.000000 0.694280 0.500000
O O8 0.252305 0.734937 0.194225
O O9 0.296170 0.431990 0.259742
O O10 0.000000 0.413981 0.500000
O O11 0.166078 0.443058 0.184535
O O12 0.060083 0.936420 0.136988
O O13 0.842413 0.000000 0.350527
O O14 0.700002 0.911543 0.952666
O O15 0.696763 0.821062 0.917497
O O16 0.263946 0.500000 0.941860
O O17 0.507351 0.745529 0.845102
O O18 0.250000 0.750000 0.000000
O O19 0.250000 0.250000 0.500000
#
# Coordination Sequence:
#
# PCOD9210907 Si02
#       8
#     8   8   8   8   8   8   8   8
#     4  10  21  40  63  93 126 171 210 264 318 378
#     4  11  25  40  60  94 132 169 215 270 321 389
#     4  11  23  39  63  95 130 165 210 266 329 386
#     4  10  21  39  64  94 126 164 215 267 318 381
#     4  10  22  40  64  93 130 165 217 262 316 382
#     4  10  22  40  65  94 125 167 214 266 321 382
#     4  12  23  38  63  93 126 178 214 260 326 382
#     4  12  24  40  62  92 129 170 224 263 319 389
#
# _framework density 21.084156
#
# number of rings (size 3 to 8) (size 9 to 14) (size 15 to 20)
#    0.000    1.250    2.500    3.375    3.500    4.500 
#    0.000    2.500    0.000    0.000    0.000    1.750 
#    0.000    0.000    0.000    0.000    0.000    0.125 
#
# Total GULP energy -178444.097548 kJ/mol
# GULP energy per Si atom -5576.378048 kJ/mol
# Density = 2.103617 g / cm^3
# Si number density = 21.084156 Si / 1000 Ang^3
#
#
#
# Elastic Constant Matrix: (Units=GPa)
#
#
# Indices 1 2 3 4 5 6 
#
# 1 45.8152 19.0431 25.2704 0.0000 13.4995 0.0000
# 2 19.0431 132.3946 50.1034 0.0000 12.6151 0.0000
# 3 25.2704 50.1034 85.2772 0.0000 16.8819 0.0000
# 4 0.0000 0.0000 0.0000 -62.5772 0.0000 81.1301
# 5 13.4995 12.6151 16.8819 0.0000 32.7104 0.0000
# 6 0.0000 0.0000 0.0000 81.1301 0.0000 -32.1897
#
#
#
# Elastic Compliance Matrix: (Units=1/GPa)
#
#
# Indices 1 2 3 4 5 6 
#
# 1 0.027968 -0.000930 -0.006156 0.000000 -0.008006 0.000000
# 2 -0.000930 0.009767 -0.005339 0.000000 -0.000628 0.000000
# 3 -0.006156 -0.005339 0.017572 0.000000 -0.004469 0.000000
# 4 0.000000 0.000000 0.000000 0.007047 0.000000 0.017761
# 5 -0.008006 -0.000628 -0.004469 0.000000 0.036424 0.000000
# 6 0.000000 0.000000 0.000000 0.017761 0.000000 0.013700
#
#
# Mechanical properties :
#
#
# Convention : Reuss Voigt Hill
#
# Bulk Modulus (GPa) = 32.83297 50.25788 41.54543
# Shear Modulus (GPa) = 33.90249 -1.13998 16.38125
#
# Velocity S-wave (km/s) = 4.01429 -0.73611 2.79040
# Velocity P-wave (km/s) = 6.09033 4.81312 5.48900
#
# Compressibility (1/GPa) = 0.03045719
#
# Stress axis : x y z
#
# Youngs Moduli (GPa) = 35.75478 102.38414 56.90787
#
# Poissons Ratio (x) = 0.09523 0.35035
# Poissons Ratio (y) = 0.03326 0.30381
# Poissons Ratio (z) = 0.22012 0.54659
#
# Static dielectric constant tensor:
#      x y z
#    x 1.738600 0.000000 0.006420 
#    y 0.000000 1.754680 0.000000 
#    z 0.006420 0.000000 1.794700 
# 
# From -- ./inp_files/149737.got.cif
#   From: 2010.05.17/outbox.cif.g08.bks.cpg/sg12_75_cif.got.tgz:149737.got - 2010.06.03 13:09:07.
