data_PCOD9210411
_publ_section_title
;
Structure prediction by ZEFSAII (Michael W. Deem and Ramdas Pophale) SiO2 
 PCOD9210411
Probable space group: C 2/M
;
_chemical_formula_sum "Si O2"
_cell_formula_units_Z 64
_cell_length_a 29.111990
_cell_length_b 19.247825
_cell_length_c 9.131860
_cell_angle_alpha 90.000000
_cell_angle_beta 143.410913
_cell_angle_gamma 90.000000
_cell_volume 3050.081803
_symmetry_space_group_name_H-M "C 2/M"
_symmetry_group_IT_number 12
_symmetry_cell_setting 'monoclinic'
loop_
_space_group_symop_operation_xyz
x,y,z
-x,y,-z
-x,-y,-z
x,-y,z
1/2+x,1/2+y,z
1/2-x,1/2+y,-z
1/2-x,1/2-y,-z
1/2+x,1/2-y,z
loop_
_atom_site_type_symbol
_atom_site_label
_atom_site_fract_x
_atom_site_fract_y
_atom_site_fract_z
Si Si1 0.924664 0.865069 0.893021
Si Si2 0.222644 0.075847 0.978627
Si Si3 0.743224 0.577191 0.566997
Si Si4 0.262498 0.813345 0.850329
Si Si5 0.425190 0.235764 0.387428
Si Si6 0.925726 0.114036 0.240573
Si Si7 0.656757 0.922242 0.463580
Si Si8 0.883297 0.270816 0.608320
O O1 0.847917 0.908632 0.661969
O O2 0.908513 0.786701 0.791684
O O3 0.935370 0.871531 0.093984
O O4 0.000000 0.890229 0.000000
O O5 0.216788 0.137119 0.846414
O O6 0.153660 0.078587 0.918561
O O7 0.220740 0.000000 0.901860
O O8 0.301400 0.082275 0.271962
O O9 0.761107 0.500000 0.667948
O O10 0.779241 0.638999 0.753266
O O11 0.777302 0.580963 0.491587
O O12 0.206215 0.750101 0.660339
O O13 0.342782 0.794712 0.130033
O O14 0.500000 0.202234 0.500000
O O15 0.421975 0.312816 0.314676
O O16 0.429407 0.237311 0.573889
O O17 0.000000 0.077489 0.500000
O O18 0.609868 0.850819 0.326109
O O19 0.620799 0.000000 0.359740
#
# Coordination Sequence:
#
# PCOD9210411 Si02
#       8
#     8   8   8   8   8   8   8   8
#     4  11  24  38  60  92 124 165 208 250 309 371
#     4  11  21  38  62  87 123 166 205 253 305 365
#     4  10  23  40  60  89 127 163 205 256 306 365
#     4  11  22  37  64  93 121 159 216 257 302 364
#     4  11  22  38  61  91 127 157 194 262 320 358
#     4  11  23  38  58  87 128 160 206 256 307 371
#     4  10  21  39  62  88 117 154 202 257 313 367
#     4  11  22  40  64  91 122 161 208 263 304 368
#
# _framework density 20.983044
#
# number of rings (size 3 to 8) (size 9 to 14) (size 15 to 20)
#    0.000    1.250    3.750    3.000    3.500    1.500 
#    0.000    0.000    0.000    3.750    0.000    0.000 
#    0.000    0.500    0.000    0.000    0.000    0.000 
#
# Total GULP energy -178694.682583 kJ/mol
# GULP energy per Si atom -5584.208831 kJ/mol
# Density = 2.093529 g / cm^3
# Si number density = 20.983044 Si / 1000 Ang^3
#
#
#
# Elastic Constant Matrix: (Units=GPa)
#
#
# Indices 1 2 3 4 5 6 
#
# 1 81.0478 26.0641 13.6831 0.0000 -7.2774 0.0000
# 2 26.0641 96.7485 7.7547 0.0000 -13.1440 0.0000
# 3 13.6831 7.7547 57.5235 0.0000 -7.0234 0.0000
# 4 0.0000 0.0000 0.0000 4.3361 0.0000 -0.3939
# 5 -7.2774 -13.1440 -7.0234 0.0000 26.4213 0.0000
# 6 0.0000 0.0000 0.0000 -0.3939 0.0000 8.8658
#
#
#
# Elastic Compliance Matrix: (Units=1/GPa)
#
#
# Indices 1 2 3 4 5 6 
#
# 1 0.014006 -0.003357 -0.002700 0.000000 0.001470 0.000000
# 2 -0.003357 0.011930 -0.000205 0.000000 0.004956 0.000000
# 3 -0.002700 -0.000205 0.018553 0.000000 0.004086 0.000000
# 4 0.000000 0.000000 0.000000 0.231556 0.000000 0.010287
# 5 0.001470 0.004956 0.004086 0.000000 0.041805 0.000000
# 6 0.000000 0.000000 0.000000 0.010287 0.000000 0.113250
#
#
# Mechanical properties :
#
#
# Convention : Reuss Voigt Hill
#
# Bulk Modulus (GPa) = 31.28293 36.70264 33.99278
# Shear Modulus (GPa) = 11.00650 20.44583 15.72617
#
# Velocity S-wave (km/s) = 2.29277 3.12492 2.74062
# Velocity P-wave (km/s) = 4.68510 5.52718 5.12347
#
# Compressibility (1/GPa) = 0.03196632
#
# Stress axis : x y z
#
# Youngs Moduli (GPa) = 71.39931 83.82112 53.90006
#
# Poissons Ratio (x) = 0.28139 0.14550
# Poissons Ratio (y) = 0.23969 0.01103
# Poissons Ratio (z) = 0.19274 0.01716
#
# Static dielectric constant tensor:
#      x y z
#    x 1.770510 0.000000 0.031960 
#    y 0.000000 1.783920 0.000000 
#    z 0.031960 0.000000 1.800160 
# 
# From -- ./inp_files/77513.got.cif
#   From: 2010.05.17/outbox.cif.g08.bks.cpg/sg12_39_cif.got.tgz:77513.got - 2010.06.03 13:09:07.
