data_PCOD9210594
_publ_section_title
;
Structure prediction by ZEFSAII (Michael W. Deem and Ramdas Pophale) SiO2 
 PCOD9210594
Probable space group: C 2/M
;
_chemical_formula_sum "Si O2"
_cell_formula_units_Z 28
_cell_length_a 14.638233
_cell_length_b 16.594001
_cell_length_c 5.058057
_cell_angle_alpha 90.000000
_cell_angle_beta 81.117883
_cell_angle_gamma 90.000000
_cell_volume 1213.903026
_symmetry_space_group_name_H-M "C 2/M"
_symmetry_group_IT_number 12
_symmetry_cell_setting 'monoclinic'
loop_
_space_group_symop_operation_xyz
x,y,z
-x,y,-z
-x,-y,-z
x,-y,z
1/2+x,1/2+y,z
1/2-x,1/2+y,-z
1/2-x,1/2-y,-z
1/2+x,1/2-y,z
loop_
_atom_site_type_symbol
_atom_site_label
_atom_site_fract_x
_atom_site_fract_y
_atom_site_fract_z
Si Si1 0.401407 0.835000 0.472056
Si Si2 0.064331 0.000000 0.713082
Si Si3 0.773867 0.910962 0.197486
Si Si4 0.398638 0.724336 0.968555
O O1 0.500000 0.875502 0.500000
O O2 0.315678 0.889580 0.595799
O O3 0.391094 0.798392 0.183497
O O4 0.401574 0.760233 0.675265
O O5 0.135417 0.073951 0.665361
O O6 0.000000 0.000000 0.500000
O O7 0.000000 0.000000 0.000000
O O8 0.811775 0.835821 0.016315
O O9 0.762944 0.000000 0.069624
O O10 0.500000 0.688474 0.000000
#
# Coordination Sequence:
#
# PCOD9210594 Si02
#       4
#     8   4   8   8
#     4  10  22  41  63  90 122 164 210 250 300 364
#     4  10  24  40  57  88 125 156 196 244 308 364
#     4  10  23  40  63  93 125 164 200 257 310 367
#     4  10  21  39  63  88 122 164 207 255 300 362
#
# _framework density 23.066092999999999
#
# number of rings (size 3 to 8) (size 9 to 14) (size 15 to 20)
#    0.857    1.143    0.000    2.571    0.000    8.571 
#    0.000    0.000    0.000    5.143    0.000    0.000 
#    0.000    0.000    0.000    0.000    0.000    0.000 
#
# Total GULP energy -78094.361772 kJ/mol
# GULP energy per Si atom -5578.168698 kJ/mol
# Density = 2.301359 g / cm^3
# Si number density = 23.066093 Si / 1000 Ang^3
#
#
#
# Elastic Constant Matrix: (Units=GPa)
#
#
# Indices 1 2 3 4 5 6 
#
# 1 155.8916 38.5174 43.1293 0.0000 -45.8165 0.0000
# 2 38.5174 53.6680 6.3227 0.0000 -18.1854 0.0000
# 3 43.1293 6.3227 82.2988 0.0000 -8.8874 0.0000
# 4 0.0000 0.0000 0.0000 14.0613 0.0000 -12.9417
# 5 -45.8165 -18.1854 -8.8874 0.0000 45.7102 0.0000
# 6 0.0000 0.0000 0.0000 -12.9417 0.0000 29.6898
#
#
#
# Elastic Compliance Matrix: (Units=1/GPa)
#
#
# Indices 1 2 3 4 5 6 
#
# 1 0.011421 -0.004709 -0.004688 0.000000 0.008663 0.000000
# 2 -0.004709 0.023523 0.001187 0.000000 0.004869 0.000000
# 3 -0.004688 0.001187 0.014362 0.000000 -0.001435 0.000000
# 4 0.000000 0.000000 0.000000 0.118764 0.000000 0.051769
# 5 0.008663 0.004869 -0.001435 0.000000 0.032218 0.000000
# 6 0.000000 0.000000 0.000000 0.051769 0.000000 0.056247
#
#
# Mechanical properties :
#
#
# Convention : Reuss Voigt Hill
#
# Bulk Modulus (GPa) = 30.40985 51.97747 41.19366
# Shear Modulus (GPa) = 17.61070 31.48486 24.54778
#
# Velocity S-wave (km/s) = 2.76613 3.69858 3.26580
# Velocity P-wave (km/s) = 4.83884 6.38924 5.66731
#
# Compressibility (1/GPa) = 0.03288408
#
# Stress axis : x y z
#
# Youngs Moduli (GPa) = 87.55561 42.51160 69.63003
#
# Poissons Ratio (x) = 0.20020 0.32644
# Poissons Ratio (y) = 0.41233 -0.08262
# Poissons Ratio (z) = 0.41047 -0.05044
#
# Static dielectric constant tensor:
#      x y z
#    x 1.901560 0.000000 -0.029190 
#    y 0.000000 2.011710 0.000000 
#    z -0.029190 0.000000 1.830790 
# 
# From -- ./inp_files/9897.got.cif
#   From: 2010.05.17/outbox.cif.g08.bks.cpg/sg12_5_cif.got.tgz:9897.got - 2010.06.03 13:09:07.
