data_PCOD9210542
_publ_section_title
;
Structure prediction by ZEFSAII (Michael W. Deem and Ramdas Pophale) SiO2 
 PCOD9210542
Probable space group: C 2/M
;
_chemical_formula_sum "Si O2"
_cell_formula_units_Z 38
_cell_length_a 13.704869
_cell_length_b 20.994271
_cell_length_c 10.727174
_cell_angle_alpha 90.000000
_cell_angle_beta 33.782158
_cell_angle_gamma 90.000000
_cell_volume 1716.186821
_symmetry_space_group_name_H-M "C 2/M"
_symmetry_group_IT_number 12
_symmetry_cell_setting 'monoclinic'
loop_
_space_group_symop_operation_xyz
x,y,z
-x,y,-z
-x,-y,-z
x,-y,z
1/2+x,1/2+y,z
1/2-x,1/2+y,-z
1/2-x,1/2-y,-z
1/2+x,1/2-y,z
loop_
_atom_site_type_symbol
_atom_site_label
_atom_site_fract_x
_atom_site_fract_y
_atom_site_fract_z
Si Si1 0.349060 0.000000 0.982469
Si Si2 0.500000 0.686887 0.500000
Si Si3 0.241610 0.000000 0.378632
Si Si4 0.500000 0.500000 0.000000
Si Si5 0.273947 0.636198 0.950772
Si Si6 0.124811 0.893404 0.684076
Si Si7 0.553530 0.809327 0.578720
O O1 0.294481 0.936297 0.968956
O O2 0.250665 0.000000 0.220262
O O3 0.556560 0.000000 0.788181
O O4 0.351051 0.649450 0.731802
O O5 0.585186 0.735732 0.509914
O O6 0.151875 0.062959 0.531371
O O7 0.610930 0.444483 0.808265
O O8 0.438841 0.641565 0.867523
O O9 0.115480 0.682140 0.154679
O O10 0.282979 0.845662 0.538357
O O11 0.500000 0.838317 0.500000
#
# Coordination Sequence:
#
# PCOD9210542 Si02
#       7
#     4   4   4   2   8   8   8
#     4  11  22  39  70  99 129 167 204 286 331 385
#     4  10  26  45  66  93 134 176 226 270 322 388
#     4  10  21  39  62  99 133 164 212 257 345 388
#     4  10  22  38  62 102 138 164 218 266 320 408
#     4  12  23  44  69  99 131 171 221 276 331 392
#     4  11  22  41  66  98 131 175 216 267 333 395
#     4  10  24  44  64  93 133 174 219 271 317 389
#
# _framework density 22.142111
#
# number of rings (size 3 to 8) (size 9 to 14) (size 15 to 20)
#    0.632    0.632    2.105    4.421    0.000    2.105 
#    0.000    4.737    0.000    0.000    0.000    0.000 
#    0.000    0.000    0.000    0.000    0.000    0.000 
#
# Total GULP energy -105964.163435 kJ/mol
# GULP energy per Si atom -5577.061233 kJ/mol
# Density = 2.209171 g / cm^3
# Si number density = 22.142111 Si / 1000 Ang^3
#
#
#
# Elastic Constant Matrix: (Units=GPa)
#
#
# Indices 1 2 3 4 5 6 
#
# 1 51.3692 10.1943 12.8736 -0.0117 -19.5637 0.0086
# 2 10.1943 74.9379 17.2979 -0.0083 -7.6807 0.0063
# 3 12.8736 17.2979 104.2591 -0.0157 -1.5335 0.0095
# 4 -0.0117 -0.0083 -0.0157 15.3793 0.0093 1.4308
# 5 -19.5637 -7.6807 -1.5335 0.0093 38.3622 -0.0065
# 6 0.0086 0.0063 0.0095 1.4308 -0.0065 15.5599
#
#
#
# Elastic Compliance Matrix: (Units=1/GPa)
#
#
# Indices 1 2 3 4 5 6 
#
# 1 0.025172 -0.001535 -0.002671 0.000009 0.012423 -0.000007
# 2 -0.001535 0.014252 -0.002146 0.000003 0.001985 -0.000003
# 3 -0.002671 -0.002146 0.010257 0.000009 -0.001382 -0.000005
# 4 0.000009 0.000003 0.000009 0.065584 -0.000011 -0.006031
# 5 0.012423 0.001985 -0.001382 -0.000011 0.032745 0.000008
# 6 -0.000007 -0.000003 -0.000005 -0.006031 0.000008 0.064822
#
#
# Mechanical properties :
#
#
# Convention : Reuss Voigt Hill
#
# Bulk Modulus (GPa) = 27.04275 34.58862 30.81569
# Shear Modulus (GPa) = 21.02073 26.54032 23.78053
#
# Velocity S-wave (km/s) = 3.08450 3.46589 3.28074
# Velocity P-wave (km/s) = 4.99253 5.62775 5.31963
#
# Compressibility (1/GPa) = 0.03697848
#
# Stress axis : x y z
#
# Youngs Moduli (GPa) = 39.72662 70.16596 97.49455
#
# Poissons Ratio (x) = 0.10767 0.26039
# Poissons Ratio (y) = 0.06096 0.20921
# Poissons Ratio (z) = 0.10610 0.15057
#
# Static dielectric constant tensor:
#      x y z
#    x 1.857300 0.000000 0.032720 
#    y 0.000000 1.796190 0.000000 
#    z 0.032720 0.000000 1.790670 
# 
# From -- ./inp_files/148846.got.cif
#   From: 2010.05.17/outbox.cif.g08.bks.cpg/sg12_75_cif.got.tgz:148846.got - 2010.06.03 13:09:07.
