data_PCOD9210754
_publ_section_title
;
Structure prediction by ZEFSAII (Michael W. Deem and Ramdas Pophale) SiO2 
 PCOD9210754
Probable space group: C 2/M
;
_chemical_formula_sum "Si O2"
_cell_formula_units_Z 40
_cell_length_a 12.686591
_cell_length_b 17.136614
_cell_length_c 15.616361
_cell_angle_alpha 90.000000
_cell_angle_beta 144.068525
_cell_angle_gamma 90.000000
_cell_volume 1992.290534
_symmetry_space_group_name_H-M "C 2/M"
_symmetry_group_IT_number 12
_symmetry_cell_setting 'monoclinic'
loop_
_space_group_symop_operation_xyz
x,y,z
-x,y,-z
-x,-y,-z
x,-y,z
1/2+x,1/2+y,z
1/2-x,1/2+y,-z
1/2-x,1/2-y,-z
1/2+x,1/2-y,z
loop_
_atom_site_type_symbol
_atom_site_label
_atom_site_fract_x
_atom_site_fract_y
_atom_site_fract_z
Si Si1 0.131750 0.688931 0.183173
Si Si2 0.673836 0.500000 0.984958
Si Si3 0.719765 0.352135 0.887404
Si Si4 0.087592 0.722042 0.334257
Si Si5 0.735993 0.500000 0.223779
Si Si6 0.130616 0.664286 0.661538
O O1 0.241967 0.634204 0.189731
O O2 0.164720 0.676084 0.304460
O O3 0.205179 0.776447 0.218234
O O4 0.915846 0.686266 0.033708
O O5 0.703980 0.424540 0.942647
O O6 0.471695 0.500000 0.886752
O O7 0.770507 0.500000 0.142687
O O8 0.547992 0.293968 0.780218
O O9 0.250000 0.750000 0.500000
O O10 0.971002 0.666153 0.316009
O O11 0.811856 0.577245 0.316863
O O12 0.000000 0.692900 0.500000
#
# Coordination Sequence:
#
# PCOD9210754 Si02
#       6
#     8   4   8   8   4   8
#     4  10  21  39  63  95 123 166 212 261 315 371
#     4  11  24  43  62  94 125 167 210 264 316 378
#     4  10  23  39  65  90 129 165 214 262 315 376
#     4  11  21  37  64  95 128 166 210 261 312 376
#     4  11  25  40  64  91 130 165 214 254 326 376
#     4  11  22  39  62  94 129 165 208 264 320 376
#
# _framework density 20.077394000000002
#
# number of rings (size 3 to 8) (size 9 to 14) (size 15 to 20)
#    0.000    1.400    2.000    3.300    0.000   11.200 
#    0.000    1.000    0.000    1.200    0.000    0.000 
#    0.000    0.000    0.000    0.000    0.000    0.000 
#
# Total GULP energy -111359.396306 kJ/mol
# GULP energy per Si atom -5567.969815 kJ/mol
# Density = 2.003170 g / cm^3
# Si number density = 20.077394 Si / 1000 Ang^3
#
#
#
# Elastic Constant Matrix: (Units=GPa)
#
#
# Indices 1 2 3 4 5 6 
#
# 1 144.7248 25.8829 32.4859 0.0006 -20.0231 0.0002
# 2 25.8829 69.9577 26.8462 0.0015 16.0427 0.0003
# 3 32.4859 26.8462 76.9063 0.0030 -0.3405 0.0006
# 4 0.0006 0.0015 0.0030 19.3179 0.0012 -14.1346
# 5 -20.0231 16.0427 -0.3405 0.0012 37.2545 0.0000
# 6 0.0002 0.0003 0.0006 -14.1346 0.0000 38.4108
#
#
#
# Elastic Compliance Matrix: (Units=1/GPa)
#
#
# Indices 1 2 3 4 5 6 
#
# 1 0.009060 -0.003918 -0.002430 0.000000 0.006534 0.000000
# 2 -0.003918 0.020360 -0.005501 0.000000 -0.010923 0.000000
# 3 -0.002430 -0.005501 0.015955 -0.000003 0.001208 -0.000001
# 4 0.000000 0.000000 -0.000003 0.070838 -0.000002 0.026067
# 5 0.006534 -0.010923 0.001208 -0.000002 0.035069 -0.000001
# 6 0.000000 0.000000 -0.000001 0.026067 -0.000001 0.035627
#
#
# Mechanical properties :
#
#
# Convention : Reuss Voigt Hill
#
# Bulk Modulus (GPa) = 46.13188 51.33541 48.73364
# Shear Modulus (GPa) = 22.95347 32.75490 27.85419
#
# Velocity S-wave (km/s) = 3.38487 4.04348 3.72874
# Velocity P-wave (km/s) = 6.18897 6.88650 6.54703
#
# Compressibility (1/GPa) = 0.02167698
#
# Stress axis : x y z
#
# Youngs Moduli (GPa) = 110.37628 49.11695 62.67651
#
# Poissons Ratio (x) = 0.19243 0.15233
# Poissons Ratio (y) = 0.43242 0.34475
# Poissons Ratio (z) = 0.26827 0.27017
#
# Static dielectric constant tensor:
#      x y z
#    x 1.787670 0.000000 -0.053380 
#    y 0.000000 1.687180 0.000000 
#    z -0.053380 0.000000 1.802340 
# 
# From -- ./inp_files/206428.got.cif
#   From: 2010.05.17/outbox.cif.g08.bks.cpg/sg12_104_cif.got.tgz:206428.got - 2010.06.03 13:09:07.
