data_PCOD9210589
_publ_section_title
;
Structure prediction by ZEFSAII (Michael W. Deem and Ramdas Pophale) SiO2 
 PCOD9210589
Probable space group: C 2/M
;
_chemical_formula_sum "Si O2"
_cell_formula_units_Z 64
_cell_length_a 14.842370
_cell_length_b 17.115029
_cell_length_c 14.465345
_cell_angle_alpha 90.000000
_cell_angle_beta 122.699539
_cell_angle_gamma 90.000000
_cell_volume 3092.228775
_symmetry_space_group_name_H-M "C 2/M"
_symmetry_group_IT_number 12
_symmetry_cell_setting 'monoclinic'
loop_
_space_group_symop_operation_xyz
x,y,z
-x,y,-z
-x,-y,-z
x,-y,z
1/2+x,1/2+y,z
1/2-x,1/2+y,-z
1/2-x,1/2-y,-z
1/2+x,1/2-y,z
loop_
_atom_site_type_symbol
_atom_site_label
_atom_site_fract_x
_atom_site_fract_y
_atom_site_fract_z
Si Si1 0.944955 0.868232 0.256196
Si Si2 0.955374 0.124048 0.875751
Si Si3 0.654216 0.792707 0.501866
Si Si4 0.211462 0.409775 0.695459
Si Si5 0.050233 0.317408 0.736237
Si Si6 0.454743 0.812853 0.875289
Si Si7 0.746347 0.084681 0.270623
Si Si8 0.400401 0.373889 0.500433
O O1 0.922838 0.775141 0.247144
O O2 0.848197 0.906441 0.258951
O O3 0.964684 0.896926 0.163631
O O4 0.058986 0.879965 0.372615
O O5 0.836223 0.094007 0.791392
O O6 0.948783 0.218821 0.869191
O O7 0.000000 0.100413 0.000000
O O8 0.750000 0.750000 0.500000
O O9 0.692339 0.859205 0.592137
O O10 0.561493 0.822546 0.382448
O O11 0.608252 0.717650 0.530978
O O12 0.179410 0.500000 0.665777
O O13 0.139523 0.367702 0.734047
O O14 0.027658 0.339918 0.829762
O O15 0.337758 0.847973 0.794770
O O16 0.500000 0.836161 0.000000
O O17 0.793100 0.090096 0.400842
O O18 0.695941 0.000000 0.228721
O O19 0.500000 0.408677 0.500000
#
# Coordination Sequence:
#
# PCOD9210589 Si02
#       8
#     8   8   8   8   8   8   8   8
#     4   9  19  37  62  88 113 150 200 252 304 358
#     4  10  22  42  65  85 111 156 216 269 303 354
#     4  11  20  37  64  89 118 160 206 251 296 354
#     4  12  25  39  60  93 132 167 200 249 319 389
#     4  10  21  39  63  88 121 161 201 253 307 365
#     4  10  22  41  64  87 112 155 217 266 301 357
#     4  11  22  35  56  87 123 154 185 242 313 374
#     4   9  17  32  55  82 111 144 185 233 287 348
#
# _framework density 20.697046
#
# number of rings (size 3 to 8) (size 9 to 14) (size 15 to 20)
#    0.000    1.750    0.000    7.125    0.000    5.750 
#    0.000    9.375    0.000    0.000    0.000    0.000 
#    0.000    0.000    0.000    0.000    0.000    0.000 
#
# Total GULP energy -178739.822961 kJ/mol
# GULP energy per Si atom -5585.619468 kJ/mol
# Density = 2.064994 g / cm^3
# Si number density = 20.697046 Si / 1000 Ang^3
#
#
#
# Elastic Constant Matrix: (Units=GPa)
#
#
# Indices 1 2 3 4 5 6 
#
# 1 98.7758 34.7600 9.4231 0.0000 -16.4979 0.0000
# 2 34.7600 75.3047 31.0936 0.0000 -13.0244 0.0000
# 3 9.4231 31.0936 59.1455 0.0000 -25.6227 0.0000
# 4 0.0000 0.0000 0.0000 -37.2718 0.0000 -10.0737
# 5 -16.4979 -13.0244 -25.6227 0.0000 32.5626 0.0000
# 6 0.0000 0.0000 0.0000 -10.0737 0.0000 -11.5479
#
#
#
# Elastic Compliance Matrix: (Units=1/GPa)
#
#
# Indices 1 2 3 4 5 6 
#
# 1 0.013376 -0.006822 0.004869 0.000000 0.007880 0.000000
# 2 -0.006822 0.020443 -0.011554 0.000000 -0.004371 0.000000
# 3 0.004869 -0.011554 0.032274 0.000000 0.023241 0.000000
# 4 0.000000 0.000000 0.000000 -0.035107 0.000000 0.030625
# 5 0.007880 -0.004371 0.023241 0.000000 0.051242 0.000000
# 6 0.000000 0.000000 0.000000 0.030625 0.000000 -0.113312
#
#
# Mechanical properties :
#
#
# Convention : Reuss Voigt Hill
#
# Bulk Modulus (GPa) = 25.58885 42.64214 34.11550
# Shear Modulus (GPa) = 558.26672 7.27855 282.77263
#
# Velocity S-wave (km/s) = 16.44135 1.87732 11.70133
# Velocity P-wave (km/s) = 19.30841 5.03457 14.10960
#
# Compressibility (1/GPa) = 0.03907952
#
# Stress axis : x y z
#
# Youngs Moduli (GPa) = 74.75960 48.91666 30.98459
#
# Poissons Ratio (x) = 0.33370 -0.15086
# Poissons Ratio (y) = 0.51000 0.35799
# Poissons Ratio (z) = -0.36399 0.56517
#
# Static dielectric constant tensor:
#      x y z
#    x 1.780180 0.000000 -0.026540 
#    y 0.000000 1.754580 0.000000 
#    z -0.026540 0.000000 1.738960 
# 
# From -- ./inp_files/216840.got.cif
#   From: 2010.05.17/outbox.cif.g08.bks.cpg/sg12_109_cif.got.tgz:216840.got - 2010.06.03 13:09:07.
