data_PCOD9210374
_publ_section_title
;
Structure prediction by ZEFSAII (Michael W. Deem and Ramdas Pophale) SiO2 
 PCOD9210374
Probable space group: C 2/M
;
_chemical_formula_sum "Si O2"
_cell_formula_units_Z 48
_cell_length_a 24.574058
_cell_length_b 9.036670
_cell_length_c 18.084124
_cell_angle_alpha 90.000000
_cell_angle_beta 37.558189
_cell_angle_gamma 90.000000
_cell_volume 2447.958829
_symmetry_space_group_name_H-M "C 2/M"
_symmetry_group_IT_number 12
_symmetry_cell_setting 'monoclinic'
loop_
_space_group_symop_operation_xyz
x,y,z
-x,y,-z
-x,-y,-z
x,-y,z
1/2+x,1/2+y,z
1/2-x,1/2+y,-z
1/2-x,1/2-y,-z
1/2+x,1/2-y,z
loop_
_atom_site_type_symbol
_atom_site_label
_atom_site_fract_x
_atom_site_fract_y
_atom_site_fract_z
Si Si1 0.654717 0.821893 0.121431
Si Si2 0.589545 0.830127 0.856855
Si Si3 0.763531 0.328778 0.690501
Si Si4 0.477447 0.176500 0.234622
Si Si5 0.580717 0.825371 0.360364
Si Si6 0.819709 0.174909 0.481245
O O1 0.581494 0.792828 0.136287
O O2 0.607493 0.769804 0.249472
O O3 0.666992 0.000000 0.114175
O O4 0.750000 0.750000 0.000000
O O5 0.663174 0.724203 0.812255
O O6 0.561561 0.787304 0.803946
O O7 0.623575 0.000000 0.818219
O O8 0.500000 0.828751 0.000000
O O9 0.765354 0.500000 0.665108
O O10 0.829553 0.313149 0.688044
O O11 0.796275 0.227960 0.588125
O O12 0.417303 0.265589 0.356480
O O13 0.465000 0.000000 0.259501
O O14 0.500000 0.765232 0.500000
O O15 0.558296 0.000000 0.373442
O O16 0.750000 0.250000 0.500000
O O17 0.813642 0.000000 0.480274
#
# Coordination Sequence:
#
# PCOD9210374 Si02
#       6
#     8   8   8   8   8   8
#     4  10  22  40  63  91 122 161 207 254 305 361
#     4  10  22  38  57  84 119 159 199 246 302 355
#     4  11  22  37  61  90 118 156 200 247 300 357
#     4  10  21  39  62  86 118 161 202 244 297 358
#     4   9  19  38  62  87 118 159 205 250 297 355
#     4  12  23  37  59  89 122 154 191 242 301 361
#
# _framework density 19.608173000000001
#
# number of rings (size 3 to 8) (size 9 to 14) (size 15 to 20)
#    0.000    1.667    1.667    3.000    2.333    3.667 
#    0.000    0.833    0.000    3.500    0.000    0.000 
#    0.000    0.000    0.000    0.000    0.000    0.000 
#
# Total GULP energy -133973.379615 kJ/mol
# GULP energy per Si atom -5582.224151 kJ/mol
# Density = 1.956354 g / cm^3
# Si number density = 19.608173 Si / 1000 Ang^3
#
#
#
# Elastic Constant Matrix: (Units=GPa)
#
#
# Indices 1 2 3 4 5 6 
#
# 1 40.7175 27.2124 25.2334 0.0000 -13.8137 -0.0003
# 2 27.2124 31.6233 24.4515 -0.0031 -23.5318 0.0033
# 3 25.2334 24.4515 103.5079 -0.0005 -17.3160 0.0004
# 4 0.0000 -0.0031 -0.0005 82.3721 0.0002 -50.2189
# 5 -13.8137 -23.5318 -17.3160 0.0002 34.2609 0.0001
# 6 -0.0003 0.0033 0.0004 -50.2189 0.0001 63.4224
#
#
#
# Elastic Compliance Matrix: (Units=1/GPa)
#
#
# Indices 1 2 3 4 5 6 
#
# 1 0.068249 -0.075715 -0.003111 0.000000 -0.026059 0.000004
# 2 -0.075715 0.156482 -0.006155 0.000001 0.073839 -0.000008
# 3 -0.003111 -0.006155 0.011968 0.000000 0.000567 0.000000
# 4 0.000000 0.000001 0.000000 0.023470 0.000000 0.018584
# 5 -0.026059 0.073839 0.000567 0.000000 0.069683 -0.000004
# 6 0.000004 -0.000008 0.000000 0.018584 -0.000004 0.030482
#
#
# Mechanical properties :
#
#
# Convention : Reuss Voigt Hill
#
# Bulk Modulus (GPa) = 14.98435 36.62703 25.80569
# Shear Modulus (GPa) = 9.04907 42.60783 25.82845
#
# Velocity S-wave (km/s) = 2.15057 4.66656 3.63330
# Velocity P-wave (km/s) = 3.71821 6.91055 5.54891
#
# Compressibility (1/GPa) = 0.06673629
#
# Stress axis : x y z
#
# Youngs Moduli (GPa) = 14.65220 6.39053 83.55344
#
# Poissons Ratio (x) = 0.48386 0.25996
# Poissons Ratio (y) = 1.10940 0.51424
# Poissons Ratio (z) = 0.04559 0.03933
#
# Static dielectric constant tensor:
#      x y z
#    x 1.707010 0.000000 0.011110 
#    y 0.000000 1.681420 0.000000 
#    z 0.011110 0.000000 1.735420 
# 
# From -- ./inp_files/327192.got.cif
#   From: 2010.05.17/outbox.cif.g08.bks.cpg/sg12_164_cif.got.tgz:327192.got - 2010.06.03 13:09:07.
