data_PCOD9210164
_publ_section_title
;
Structure prediction by ZEFSAII (Michael W. Deem and Ramdas Pophale) SiO2 
 PCOD9210164
Probable space group: C 2/M
;
_chemical_formula_sum "Si O2"
_cell_formula_units_Z 42
_cell_length_a 9.635367
_cell_length_b 21.481063
_cell_length_c 9.211523
_cell_angle_alpha 90.000000
_cell_angle_beta 97.061725
_cell_angle_gamma 90.000000
_cell_volume 1892.119135
_symmetry_space_group_name_H-M "C 2/M"
_symmetry_group_IT_number 12
_symmetry_cell_setting 'monoclinic'
loop_
_space_group_symop_operation_xyz
x,y,z
-x,y,-z
-x,-y,-z
x,-y,z
1/2+x,1/2+y,z
1/2-x,1/2+y,-z
1/2-x,1/2-y,-z
1/2+x,1/2-y,z
loop_
_atom_site_type_symbol
_atom_site_label
_atom_site_fract_x
_atom_site_fract_y
_atom_site_fract_z
Si Si1 0.249767 0.172025 0.287745
Si Si2 0.652936 0.429807 0.058993
Si Si3 0.531089 0.270871 0.673368
Si Si4 0.785187 0.884241 0.398902
Si Si5 0.000000 0.000000 0.500000
Si Si6 0.396206 0.070679 0.865552
O O1 0.379819 0.213562 0.258850
O O2 0.253798 0.147781 0.453582
O O3 0.112329 0.215487 0.264188
O O4 0.227052 0.112953 0.184565
O O5 0.634541 0.500000 0.116285
O O6 0.747735 0.432956 0.929130
O O7 0.500000 0.405678 0.000000
O O8 0.500000 0.257512 0.500000
O O9 0.622621 0.334019 0.678436
O O10 0.644443 0.898587 0.290982
O O11 0.883065 0.944528 0.441581
O O12 0.448662 0.000000 0.844552
O O13 0.500000 0.098752 0.000000
#
# Coordination Sequence:
#
# PCOD9210164 Si02
#       6
#     8   8   8   8   2   8
#     4  11  23  40  65  93 124 165 217 259 316 374
#     4  10  23  40  65  95 130 162 210 272 324 368
#     4  10  21  39  60  90 125 165 205 260 322 370
#     4  11  21  36  66  97 125 162 217 264 311 373
#     4  12  20  32  70 106 126 144 232 276 306 364
#     4  10  22  40  59  89 134 173 197 247 333 393
#
# _framework density 22.197334000000001
#
# number of rings (size 3 to 8) (size 9 to 14) (size 15 to 20)
#    0.000    1.524    3.810    3.429    1.333    3.048 
#    0.000    4.762    0.000    4.000    0.000    0.000 
#    0.000    0.000    0.000    0.000    0.000    0.000 
#
# Total GULP energy -117161.360898 kJ/mol
# GULP energy per Si atom -5579.112424 kJ/mol
# Density = 2.214681 g / cm^3
# Si number density = 22.197334 Si / 1000 Ang^3
#
#
#
# Elastic Constant Matrix: (Units=GPa)
#
#
# Indices 1 2 3 4 5 6 
#
# 1 30.7459 38.0112 27.0827 0.0000 9.2726 0.0000
# 2 38.0112 93.7359 52.8280 0.0000 32.5770 0.0000
# 3 27.0827 52.8280 74.5784 0.0000 24.7433 0.0000
# 4 0.0000 0.0000 0.0000 609.6679 0.0000 -15.1169
# 5 9.2726 32.5770 24.7433 0.0000 31.3953 0.0000
# 6 0.0000 0.0000 0.0000 -15.1169 0.0000 25.2528
#
#
#
# Elastic Compliance Matrix: (Units=1/GPa)
#
#
# Indices 1 2 3 4 5 6 
#
# 1 0.074392 -0.029792 -0.012022 0.000000 0.018416 0.000000
# 2 -0.029792 0.033415 -0.005777 0.000000 -0.021320 0.000000
# 3 -0.012022 -0.005777 0.025321 0.000000 -0.010410 0.000000
# 4 0.000000 0.000000 0.000000 0.001665 0.000000 0.000997
# 5 0.018416 -0.021320 -0.010410 0.000000 0.056740 0.000000
# 6 0.000000 0.000000 0.000000 0.000997 0.000000 0.040196
#
#
# Mechanical properties :
#
#
# Convention : Reuss Voigt Hill
#
# Bulk Modulus (GPa) = 26.35363 48.32267 37.33815
# Shear Modulus (GPa) = 14.72492 138.67241 76.69867
#
# Velocity S-wave (km/s) = 2.57838 7.91253 5.88457
# Velocity P-wave (km/s) = 4.55656 10.26131 7.93904
#
# Compressibility (1/GPa) = 0.03794543
#
# Stress axis : x y z
#
# Youngs Moduli (GPa) = 13.44227 29.92654 39.49346
#
# Poissons Ratio (x) = 0.89158 0.47478
# Poissons Ratio (y) = 0.40048 0.22817
# Poissons Ratio (z) = 0.16160 0.17290
#
# Static dielectric constant tensor:
#      x y z
#    x 1.842230 0.000000 0.021210 
#    y 0.000000 1.831310 0.000000 
#    z 0.021210 0.000000 1.822600 
# 
# From -- ./inp_files/49492.got.cif
#   From: 2010.05.17/outbox.cif.g08.bks.cpg/sg12_25_cif.got.tgz:49492.got - 2010.06.03 13:09:07.
