data_PCOD9210551
_publ_section_title
;
Structure prediction by ZEFSAII (Michael W. Deem and Ramdas Pophale) SiO2 
 PCOD9210551
Probable space group: C 2/M
;
_chemical_formula_sum "Si O2"
_cell_formula_units_Z 56
_cell_length_a 19.313201
_cell_length_b 7.928769
_cell_length_c 29.824125
_cell_angle_alpha 90.000000
_cell_angle_beta 146.909444
_cell_angle_gamma 90.000000
_cell_volume 2493.398206
_symmetry_space_group_name_H-M "C 2/M"
_symmetry_group_IT_number 12
_symmetry_cell_setting 'monoclinic'
loop_
_space_group_symop_operation_xyz
x,y,z
-x,y,-z
-x,-y,-z
x,-y,z
1/2+x,1/2+y,z
1/2-x,1/2+y,-z
1/2-x,1/2-y,-z
1/2+x,1/2-y,z
loop_
_atom_site_type_symbol
_atom_site_label
_atom_site_fract_x
_atom_site_fract_y
_atom_site_fract_z
Si Si1 0.541133 0.205861 0.666490
Si Si2 0.668983 0.795209 0.376377
Si Si3 0.960268 0.701067 0.527269
Si Si4 0.796467 0.205374 0.857419
Si Si5 0.039684 0.307911 0.214466
Si Si6 0.010881 0.805285 0.907030
Si Si7 0.265428 0.310713 0.077711
O O1 0.420544 0.260198 0.631071
O O2 0.532582 0.266856 0.610651
O O3 0.669542 0.253377 0.761593
O O4 0.538573 0.000000 0.664280
O O5 0.811939 0.731791 0.455800
O O6 0.607102 0.739922 0.295522
O O7 0.669263 0.000000 0.376754
O O8 0.983223 0.500000 0.538218
O O9 0.000000 0.770520 0.500000
O O10 0.918380 0.260421 0.895360
O O11 0.790605 0.281837 0.903326
O O12 0.799227 0.000000 0.862497
O O13 0.081865 0.500000 0.230738
O O14 0.888580 0.304711 0.140909
O O15 0.058311 0.211623 0.178121
O O16 0.036994 0.000000 0.930939
O O17 0.147251 0.718044 0.980864
O O18 0.313725 0.500000 0.097818
#
# Coordination Sequence:
#
# PCOD9210551 Si02
#       7
#     8   8   8   8   8   8   8
#     4   9  18  38  62  86 118 158 198 241 296 352
#     4  10  21  39  63  85 117 160 200 244 296 357
#     4  10  22  37  61  93 125 155 192 244 296 354
#     4  10  21  40  64  87 120 163 205 248 302 366
#     4  11  23  41  63  87 121 162 206 255 306 361
#     4  11  24  39  62  91 122 162 204 251 307 365
#     4  12  24  40  62  89 123 159 204 257 303 360
#
# _framework density 22.459309999999999
#
# number of rings (size 3 to 8) (size 9 to 14) (size 15 to 20)
#    0.000    1.571    1.429    3.429    2.000    4.286 
#    0.000    0.714    0.000    0.000    0.000    0.000 
#    0.000    0.000    0.000    0.000    0.000    0.000 
#
# Total GULP energy -156588.576000 kJ/mol
# GULP energy per Si atom -5592.449143 kJ/mol
# Density = 2.240819 g / cm^3
# Si number density = 22.459310 Si / 1000 Ang^3
#
#
#
# Elastic Constant Matrix: (Units=GPa)
#
#
# Indices 1 2 3 4 5 6 
#
# 1 60.3210 -12.4001 15.4392 0.0000 -9.7295 0.0001
# 2 -12.4001 25.5037 -2.4952 -0.0003 -2.8064 0.0011
# 3 15.4392 -2.4952 80.7388 0.0000 -22.4751 0.0001
# 4 0.0000 -0.0003 0.0000 20.4599 0.0000 4.3048
# 5 -9.7295 -2.8064 -22.4751 0.0000 39.9814 -0.0001
# 6 0.0001 0.0011 0.0001 4.3048 -0.0001 6.8109
#
#
#
# Elastic Compliance Matrix: (Units=1/GPa)
#
#
# Indices 1 2 3 4 5 6 
#
# 1 0.019891 0.009910 -0.002319 0.000001 0.004232 -0.000002
# 2 0.009910 0.044837 0.001231 0.000002 0.006251 -0.000009
# 3 -0.002319 0.001231 0.015096 0.000000 0.008008 0.000000
# 4 0.000001 0.000002 0.000000 0.056373 0.000000 -0.035630
# 5 0.004232 0.006251 0.008008 0.000000 0.030982 -0.000001
# 6 -0.000002 -0.000009 0.000000 -0.035630 -0.000001 0.169344
#
#
# Mechanical properties :
#
#
# Convention : Reuss Voigt Hill
#
# Bulk Modulus (GPa) = 10.25982 18.62792 14.44387
# Shear Modulus (GPa) = 14.23004 24.51842 19.37423
#
# Velocity S-wave (km/s) = 2.51986 3.30765 2.94025
# Velocity P-wave (km/s) = 3.61169 4.78534 4.23933
#
# Compressibility (1/GPa) = 0.09746755
#
# Stress axis : x y z
#
# Youngs Moduli (GPa) = 50.27274 22.30320 66.24100
#
# Poissons Ratio (x) = -0.22103 0.15363
# Poissons Ratio (y) = -0.49821 -0.08151
# Poissons Ratio (z) = 0.11660 -0.02745
#
# Static dielectric constant tensor:
#      x y z
#    x 1.820060 0.000000 -0.027320 
#    y 0.000000 1.808570 0.000000 
#    z -0.027320 0.000000 1.792200 
# 
# From -- ./inp_files/380563.got.cif
#   From: 2010.05.17/outbox.cif.g08.bks.cpg/sg12_191_cif.got.tgz:380563.got - 2010.06.03 13:09:07.
