data_PCOD9210675
_publ_section_title
;
Structure prediction by ZEFSAII (Michael W. Deem and Ramdas Pophale) SiO2 
 PCOD9210675
Probable space group: C 2/M
;
_chemical_formula_sum "Si O2"
_cell_formula_units_Z 64
_cell_length_a 9.219781
_cell_length_b 30.087163
_cell_length_c 19.304830
_cell_angle_alpha 90.000000
_cell_angle_beta 143.121903
_cell_angle_gamma 90.000000
_cell_volume 3213.674823
_symmetry_space_group_name_H-M "C 2/M"
_symmetry_group_IT_number 12
_symmetry_cell_setting 'monoclinic'
loop_
_space_group_symop_operation_xyz
x,y,z
-x,y,-z
-x,-y,-z
x,-y,z
1/2+x,1/2+y,z
1/2-x,1/2+y,-z
1/2-x,1/2-y,-z
1/2+x,1/2-y,z
loop_
_atom_site_type_symbol
_atom_site_label
_atom_site_fract_x
_atom_site_fract_y
_atom_site_fract_z
Si Si1 0.139782 0.386032 0.982441
Si Si2 0.283304 0.894376 0.466799
Si Si3 0.600872 0.049843 0.354049
Si Si4 0.246814 0.207700 0.049785
Si Si5 0.224505 0.801767 0.501792
Si Si6 0.258826 0.086921 0.729258
Si Si7 0.043670 0.948006 0.098046
Si Si8 0.841540 0.681957 0.694865
O O1 0.211892 0.338814 0.975397
O O2 0.959362 0.415575 0.865310
O O3 0.378987 0.415554 0.080142
O O4 0.000000 0.377216 0.000000
O O5 0.500000 0.909782 0.500000
O O6 0.320333 0.914927 0.557851
O O7 0.286168 0.840609 0.471488
O O8 0.009583 0.907941 0.342579
O O9 0.741520 0.052867 0.334617
O O10 0.322088 0.057058 0.225535
O O11 0.626130 0.000000 0.392386
O O12 0.471888 0.210036 0.188949
O O13 0.250000 0.250000 0.000000
O O14 0.000000 0.206020 0.000000
O O15 0.250000 0.750000 0.500000
O O16 0.383844 0.813495 0.629887
O O17 0.937567 0.805864 0.402933
O O18 0.343460 0.131687 0.721877
O O19 0.978509 0.000000 0.081468
O O20 0.000000 0.936615 0.000000
#
# Coordination Sequence:
#
# PCOD9210675 Si02
#       8
#     8   8   8   8   8   8   8   8
#     4  11  24  41  67  96 130 171 215 268 331 384
#     4  11  25  41  62  96 131 167 210 269 329 381
#     4  11  23  42  70  94 124 170 217 263 318 394
#     4  11  25  43  63  93 132 177 218 265 319 387
#     4  10  21  39  63  91 123 162 211 265 317 370
#     4  10  21  43  64  89 127 165 216 259 316 385
#     4  10  21  40  66  98 127 161 214 265 318 391
#     4   9  21  40  61  87 119 163 210 264 302 372
#
# _framework density 19.914895000000001
#
# number of rings (size 3 to 8) (size 9 to 14) (size 15 to 20)
#    0.000    1.625    2.500    1.125    7.000    1.500 
#    2.250    0.000    0.000    0.000    0.000    0.000 
#    0.000    0.000    0.000    0.000    0.000    0.000 
#
# Total GULP energy -178486.857015 kJ/mol
# GULP energy per Si atom -5577.714282 kJ/mol
# Density = 1.986957 g / cm^3
# Si number density = 19.914895 Si / 1000 Ang^3
#
#
#
# Elastic Constant Matrix: (Units=GPa)
#
#
# Indices 1 2 3 4 5 6 
#
# 1 113.2288 22.8526 14.4539 0.0000 12.6350 0.0000
# 2 22.8526 71.1335 9.3165 0.0000 13.5672 0.0000
# 3 14.4539 9.3165 71.9431 -0.0001 10.2057 0.0000
# 4 0.0000 0.0000 -0.0001 20.5068 0.0000 0.9496
# 5 12.6350 13.5672 10.2057 0.0000 14.6152 0.0000
# 6 0.0000 0.0000 0.0000 0.9496 0.0000 7.7810
#
#
#
# Elastic Compliance Matrix: (Units=1/GPa)
#
#
# Indices 1 2 3 4 5 6 
#
# 1 0.010030 -0.001908 -0.000876 0.000000 -0.006288 0.000000
# 2 -0.001908 0.017446 0.000208 0.000000 -0.014691 0.000000
# 3 -0.000876 0.000208 0.015505 0.000000 -0.010263 0.000000
# 4 0.000000 0.000000 0.000000 0.049041 0.000000 -0.005985
# 5 -0.006288 -0.014691 -0.010263 0.000000 0.094662 0.000000
# 6 0.000000 0.000000 0.000000 -0.005985 0.000000 0.129248
#
#
# Mechanical properties :
#
#
# Convention : Reuss Voigt Hill
#
# Bulk Modulus (GPa) = 26.43508 38.83905 32.63707
# Shear Modulus (GPa) = 14.98377 22.55942 18.77159
#
# Velocity S-wave (km/s) = 2.74595 3.36935 3.07349
# Velocity P-wave (km/s) = 4.83285 5.88910 5.38693
#
# Compressibility (1/GPa) = 0.03782853
#
# Stress axis : x y z
#
# Youngs Moduli (GPa) = 99.69749 57.32043 64.49628
#
# Poissons Ratio (x) = 0.10939 0.05650
# Poissons Ratio (y) = 0.19025 -0.01342
# Poissons Ratio (z) = 0.08734 -0.01193
#
# Static dielectric constant tensor:
#      x y z
#    x 1.735270 0.000000 -0.019930 
#    y 0.000000 2.060870 0.000000 
#    z -0.019930 0.000000 1.694160 
# 
# From -- ./inp_files/260356.got.cif
#   From: 2010.05.17/outbox.cif.g08.bks.cpg/sg12_131_cif.got.tgz:260356.got - 2010.06.03 13:09:07.
