data_PCOD9210001
_publ_section_title
;
Structure prediction by ZEFSAII (Michael W. Deem and Ramdas Pophale) SiO2 
 PCOD9210001
Probable space group: C 2/M
;
_chemical_formula_sum "Si O2"
_cell_formula_units_Z 48
_cell_length_a 7.566625
_cell_length_b 30.640227
_cell_length_c 15.323908
_cell_angle_alpha 90.000000
_cell_angle_beta 35.174722
_cell_angle_gamma 90.000000
_cell_volume 2046.634556
_symmetry_space_group_name_H-M "C 2/M"
_symmetry_group_IT_number 12
_symmetry_cell_setting 'monoclinic'
loop_
_space_group_symop_operation_xyz
x,y,z
-x,y,-z
-x,-y,-z
x,-y,z
1/2+x,1/2+y,z
1/2-x,1/2+y,-z
1/2-x,1/2-y,-z
1/2+x,1/2-y,z
loop_
_atom_site_type_symbol
_atom_site_label
_atom_site_fract_x
_atom_site_fract_y
_atom_site_fract_z
Si Si1 0.138822 0.315674 0.747623
Si Si2 0.690185 0.000000 0.674570
Si Si3 0.994597 0.588902 0.192465
Si Si4 0.324368 0.318953 0.918441
Si Si5 0.480124 0.588196 0.156084
Si Si6 0.644440 0.734275 0.658272
Si Si7 0.761818 0.500000 0.677591
O O1 0.416349 0.292156 0.687446
O O2 0.114359 0.286945 0.670184
O O3 0.200139 0.367252 0.717936
O O4 0.804126 0.315875 0.931286
O O5 0.678699 0.043688 0.734057
O O6 0.000000 0.000000 0.500000
O O7 0.433347 0.000000 0.702628
O O8 0.230542 0.588229 0.178798
O O9 0.191516 0.586874 0.024723
O O10 0.512837 0.362007 0.813698
O O11 0.515738 0.278532 0.805987
O O12 0.000000 0.320395 0.000000
O O13 0.420116 0.546478 0.242073
O O14 0.000000 0.723318 0.500000
O O15 0.000000 0.500000 0.500000
#
# Coordination Sequence:
#
# PCOD9210001 Si02
#       7
#     8   4   8   8   8   8   4
#     4  10  22  40  62  90 121 160 212 255 303 367
#     4  10  21  41  61  88 124 162 200 251 304 365
#     4   9  19  38  66  91 113 159 216 257 297 360
#     4   9  20  39  58  86 119 162 205 251 302 362
#     4   9  18  37  64  87 118 155 209 254 306 359
#     4  11  23  39  58  88 127 164 202 251 314 368
#     4  10  21  39  58  95 125 159 195 253 318 378
#
# _framework density 23.453136000000001
#
# number of rings (size 3 to 8) (size 9 to 14) (size 15 to 20)
#    0.000    2.333    0.000    1.500    2.333    3.333 
#   21.000    0.417    0.000    0.000    0.000    0.000 
#    0.000    0.000    0.000    0.000    0.000    0.000 
#
# Total GULP energy -133916.978970 kJ/mol
# GULP energy per Si atom -5579.874124 kJ/mol
# Density = 2.339976 g / cm^3
# Si number density = 23.453136 Si / 1000 Ang^3
#
#
#
# Elastic Constant Matrix: (Units=GPa)
#
#
# Indices 1 2 3 4 5 6 
#
# 1 68.0452 26.3481 15.9174 0.0000 -12.2106 0.0000
# 2 26.3481 225.7336 67.2754 0.0000 -8.8750 0.0000
# 3 15.9174 67.2754 76.9430 0.0000 -1.1126 0.0000
# 4 0.0000 0.0000 0.0000 10.3547 0.0000 0.1296
# 5 -12.2106 -8.8750 -1.1126 0.0000 23.2701 0.0000
# 6 0.0000 0.0000 0.0000 0.1296 0.0000 17.9383
#
#
#
# Elastic Compliance Matrix: (Units=1/GPa)
#
#
# Indices 1 2 3 4 5 6 
#
# 1 0.017196 -0.000875 -0.002668 0.000000 0.008562 0.000000
# 2 -0.000875 0.006134 -0.005158 0.000000 0.001633 0.000000
# 3 -0.002668 -0.005158 0.018023 0.000000 -0.002506 0.000000
# 4 0.000000 0.000000 0.000000 0.096583 0.000000 -0.000698
# 5 0.008562 0.001633 -0.002506 0.000000 0.047969 0.000000
# 6 0.000000 0.000000 0.000000 -0.000698 0.000000 0.055752
#
#
# Mechanical properties :
#
#
# Convention : Reuss Voigt Hill
#
# Bulk Modulus (GPa) = 41.75674 65.53375 53.64524
# Shear Modulus (GPa) = 18.72363 27.72469 23.22416
#
# Velocity S-wave (km/s) = 2.82856 3.44194 3.15022
# Velocity P-wave (km/s) = 5.33954 6.61809 6.01289
#
# Compressibility (1/GPa) = 0.02394823
#
# Stress axis : x y z
#
# Youngs Moduli (GPa) = 58.15450 163.03285 55.48585
#
# Poissons Ratio (x) = 0.14270 0.14805
# Poissons Ratio (y) = 0.05090 0.28622
# Poissons Ratio (z) = 0.15517 0.84098
#
# Static dielectric constant tensor:
#      x y z
#    x 1.982570 0.000000 0.059690 
#    y 0.000000 1.838140 0.000000 
#    z 0.059690 0.000000 1.860120 
# 
# From -- ./inp_files/80873.got.cif
#   From: 2010.05.17/outbox.cif.g08.bks.cpg/sg12_41_cif.got.tgz:80873.got - 2010.06.03 13:09:07.
