data_PCOD9210415
_publ_section_title
;
Structure prediction by ZEFSAII (Michael W. Deem and Ramdas Pophale) SiO2 
 PCOD9210415
Probable space group: C 2/M
;
_chemical_formula_sum "Si O2"
_cell_formula_units_Z 48
_cell_length_a 19.586587
_cell_length_b 8.535731
_cell_length_c 31.019608
_cell_angle_alpha 90.000000
_cell_angle_beta 28.298558
_cell_angle_gamma 90.000000
_cell_volume 2458.525093
_symmetry_space_group_name_H-M "C 2/M"
_symmetry_group_IT_number 12
_symmetry_cell_setting 'monoclinic'
loop_
_space_group_symop_operation_xyz
x,y,z
-x,y,-z
-x,-y,-z
x,-y,z
1/2+x,1/2+y,z
1/2-x,1/2+y,-z
1/2-x,1/2-y,-z
1/2+x,1/2-y,z
loop_
_atom_site_type_symbol
_atom_site_label
_atom_site_fract_x
_atom_site_fract_y
_atom_site_fract_z
Si Si1 0.833395 0.308711 0.086777
Si Si2 0.808977 0.810365 0.744297
Si Si3 0.878137 0.311678 0.457972
Si Si4 0.184662 0.813913 0.080619
Si Si5 0.166186 0.679758 0.420508
Si Si6 0.625940 0.815966 0.763990
O O1 0.832510 0.500000 0.086804
O O2 0.741983 0.260469 0.179736
O O3 0.763560 0.255135 0.080383
O O4 0.000000 0.260529 0.000000
O O5 0.692404 0.761217 0.772780
O O6 0.966215 0.749679 0.643568
O O7 0.813449 0.000000 0.741120
O O8 0.884121 0.500000 0.454669
O O9 0.750000 0.250000 0.500000
O O10 0.836162 0.260966 0.529538
O O11 0.017312 0.769824 0.171784
O O12 0.201578 0.000000 0.071231
O O13 0.250000 0.750000 0.000000
O O14 0.222905 0.500000 0.387305
O O15 0.253466 0.784393 0.338877
O O16 0.000000 0.673804 0.500000
O O17 0.593953 0.000000 0.785848
#
# Coordination Sequence:
#
# PCOD9210415 Si02
#       6
#     8   8   8   8   8   8
#     4   9  19  38  63  87 115 153 196 239 291 356
#     4  10  21  39  62  88 118 158 204 247 298 357
#     4  11  24  40  60  86 121 161 202 251 302 356
#     4  11  23  40  64  91 121 155 197 247 303 365
#     4  10  21  40  62  85 119 163 206 245 298 359
#     4  11  23  38  62  92 123 156 200 254 301 354
#
# _framework density 19.523900999999999
#
# number of rings (size 3 to 8) (size 9 to 14) (size 15 to 20)
#    0.000    1.667    1.667    2.500    2.333    5.000 
#    0.000    0.833    0.000    3.500    0.000    0.000 
#    0.000    0.000    0.000    0.000    0.000    0.000 
#
# Total GULP energy -134048.129928 kJ/mol
# GULP energy per Si atom -5585.338747 kJ/mol
# Density = 1.947946 g / cm^3
# Si number density = 19.523901 Si / 1000 Ang^3
#
#
#
# Elastic Constant Matrix: (Units=GPa)
#
#
# Indices 1 2 3 4 5 6 
#
# 1 203.6765 24.0399 68.6309 0.0000 10.0310 0.0001
# 2 24.0399 18.1780 15.0041 0.0002 2.9676 0.0005
# 3 68.6309 15.0041 89.1514 -0.0002 6.1265 0.0002
# 4 0.0000 0.0002 -0.0002 36.0497 0.0000 -0.5903
# 5 10.0310 2.9676 6.1265 0.0000 37.4912 0.0000
# 6 0.0001 0.0005 0.0002 -0.5903 0.0000 23.6850
#
#
#
# Elastic Compliance Matrix: (Units=1/GPa)
#
#
# Indices 1 2 3 4 5 6 
#
# 1 0.007118 -0.005589 -0.004489 0.000000 -0.000729 0.000000
# 2 -0.005589 0.068691 -0.007066 0.000000 -0.002787 -0.000001
# 3 -0.004489 -0.007066 0.015920 0.000000 -0.000841 0.000000
# 4 0.000000 0.000000 0.000000 0.027751 0.000000 0.000692
# 5 -0.000729 -0.002787 -0.000841 0.000000 0.027226 0.000000
# 6 0.000000 -0.000001 0.000000 0.000692 0.000000 0.042238
#
#
# Mechanical properties :
#
#
# Convention : Reuss Voigt Hill
#
# Bulk Modulus (GPa) = 17.40963 58.48396 37.94680
# Shear Modulus (GPa) = 20.62892 33.00058 26.81475
#
# Velocity S-wave (km/s) = 3.25406 4.11574 3.71001
# Velocity P-wave (km/s) = 4.80156 7.25299 6.15065
#
# Compressibility (1/GPa) = 0.05743946
#
# Stress axis : x y z
#
# Youngs Moduli (GPa) = 140.49165 14.55798 62.81599
#
# Poissons Ratio (x) = 0.08137 0.28197
# Poissons Ratio (y) = 0.78524 0.44388
# Poissons Ratio (z) = 0.63064 0.10287
#
# Static dielectric constant tensor:
#      x y z
#    x 1.668130 0.000000 0.009030 
#    y 0.000000 1.685430 0.000000 
#    z 0.009030 0.000000 1.636810 
# 
# From -- ./inp_files/244842.got.cif
#   From: 2010.05.17/outbox.cif.g08.bks.cpg/sg12_123_cif.got.tgz:244842.got - 2010.06.03 13:09:07.
