data_PCOD9210813
_publ_section_title
;
Structure prediction by ZEFSAII (Michael W. Deem and Ramdas Pophale) SiO2 
 PCOD9210813
Probable space group: C 2/M
;
_chemical_formula_sum "Si O2"
_cell_formula_units_Z 64
_cell_length_a 32.529736
_cell_length_b 7.742165
_cell_length_c 17.018022
_cell_angle_alpha 90.000000
_cell_angle_beta 41.445575
_cell_angle_gamma 90.000000
_cell_volume 2836.938245
_symmetry_space_group_name_H-M "C 2/M"
_symmetry_group_IT_number 12
_symmetry_cell_setting 'monoclinic'
loop_
_space_group_symop_operation_xyz
x,y,z
-x,y,-z
-x,-y,-z
x,-y,z
1/2+x,1/2+y,z
1/2-x,1/2+y,-z
1/2-x,1/2-y,-z
1/2+x,1/2-y,z
loop_
_atom_site_type_symbol
_atom_site_label
_atom_site_fract_x
_atom_site_fract_y
_atom_site_fract_z
Si Si1 0.234563 0.705772 0.432687
Si Si2 0.404622 0.211543 0.358067
Si Si3 0.104920 0.800686 0.218071
Si Si4 0.218413 0.298230 0.796606
Si Si5 0.653854 0.709494 0.306715
Si Si6 0.529955 0.204514 0.579892
Si Si7 0.017038 0.699901 0.891824
Si Si8 0.094343 0.799942 0.057618
O O1 0.235730 0.500000 0.422034
O O2 0.250000 0.750000 0.500000
O O3 0.164020 0.769143 0.521010
O O4 0.277912 0.780524 0.302757
O O5 0.452235 0.263359 0.357650
O O6 0.427314 0.274182 0.240652
O O7 0.404346 0.000000 0.357393
O O8 0.148035 0.726984 0.225073
O O9 0.103131 0.724812 0.132911
O O10 0.034273 0.792408 0.351517
O O11 0.123642 0.000000 0.180907
O O12 0.213096 0.500000 0.824045
O O13 0.283794 0.231926 0.738602
O O14 0.159430 0.208041 0.919019
O O15 0.654380 0.500000 0.305395
O O16 0.591265 0.763343 0.441201
O O17 0.517851 0.000000 0.597083
O O18 0.034140 0.500000 0.882861
O O19 0.957359 0.706342 0.920585
O O20 0.000000 0.780628 0.000000
O O21 0.074364 0.000000 0.093178
#
# Coordination Sequence:
#
# PCOD9210813 Si02
#       8
#     8   8   8   8   8   8   8   8
#     4  11  23  41  63  92 126 161 200 247 298 354
#     4   9  19  36  59  88 123 156 192 241 295 345
#     4  10  22  40  60  86 121 159 196 244 303 361
#     4  11  24  42  63  86 116 159 206 251 300 358
#     4  10  22  40  61  86 119 158 201 245 298 359
#     4  11  20  35  60  91 123 155 195 244 298 355
#     4  10  21  39  64  90 119 159 199 241 294 355
#     4  11  24  41  61  87 120 157 198 250 305 359
#
# _framework density 22.559532999999998
#
# number of rings (size 3 to 8) (size 9 to 14) (size 15 to 20)
#    0.000    1.625    2.500    1.875    1.750    3.750 
#    0.000    1.250    0.000    0.000    0.000    0.000 
#    0.000    0.000    0.000    0.000    0.000    0.000 
#
# Total GULP energy -178847.174378 kJ/mol
# GULP energy per Si atom -5588.974199 kJ/mol
# Density = 2.250819 g / cm^3
# Si number density = 22.559533 Si / 1000 Ang^3
#
#
#
# Elastic Constant Matrix: (Units=GPa)
#
#
# Indices 1 2 3 4 5 6 
#
# 1 51.5292 -11.1797 2.6633 0.0001 17.0151 -0.0001
# 2 -11.1797 49.3080 -8.5448 -0.0031 1.7308 0.0020
# 3 2.6633 -8.5448 104.5667 -0.0011 10.3021 0.0003
# 4 0.0001 -0.0031 -0.0011 2.2776 0.0005 -3.8581
# 5 17.0151 1.7308 10.3021 0.0005 36.7399 -0.0003
# 6 -0.0001 0.0020 0.0003 -3.8581 -0.0003 11.4631
#
#
#
# Elastic Compliance Matrix: (Units=1/GPa)
#
#
# Indices 1 2 3 4 5 6 
#
# 1 0.024662 0.006197 0.001062 0.000020 -0.012011 0.000006
# 2 0.006197 0.022208 0.002101 0.000058 -0.004505 0.000015
# 3 0.001062 0.002101 0.010044 0.000017 -0.003407 0.000005
# 4 0.000020 0.000058 0.000017 1.021346 -0.000028 0.343750
# 5 -0.012011 -0.004505 -0.003407 -0.000028 0.033949 -0.000008
# 6 0.000006 0.000015 0.000005 0.343750 -0.000008 0.202931
#
#
# Mechanical properties :
#
#
# Convention : Reuss Voigt Hill
#
# Bulk Modulus (GPa) = 13.22167 19.03129 16.12648
# Shear Modulus (GPa) = 3.78320 24.92713 14.35517
#
# Velocity S-wave (km/s) = 1.29639 3.32768 2.52528
# Velocity P-wave (km/s) = 2.84857 4.81861 3.95811
#
# Compressibility (1/GPa) = 0.07563342
#
# Stress axis : x y z
#
# Youngs Moduli (GPa) = 40.54764 45.02880 99.56637
#
# Poissons Ratio (x) = -0.27906 -0.10570
# Poissons Ratio (y) = -0.25129 -0.20917
# Poissons Ratio (z) = -0.04305 -0.09460
#
# Static dielectric constant tensor:
#      x y z
#    x 1.842180 0.000000 0.032560 
#    y 0.000000 1.846240 0.000000 
#    z 0.032560 0.000000 1.832400 
# 
# From -- ./inp_files/249707.got.cif
#   From: 2010.05.17/outbox.cif.g08.bks.cpg/sg12_125_cif.got.tgz:249707.got - 2010.06.03 13:09:07.
