data_PCOD9210368
_publ_section_title
;
Structure prediction by ZEFSAII (Michael W. Deem and Ramdas Pophale) SiO2 
 PCOD9210368
Probable space group: C 2/M
;
_chemical_formula_sum "Si O2"
_cell_formula_units_Z 64
_cell_length_a 12.536669
_cell_length_b 19.637865
_cell_length_c 22.699569
_cell_angle_alpha 90.000000
_cell_angle_beta 145.225475
_cell_angle_gamma 90.000000
_cell_volume 3187.383176
_symmetry_space_group_name_H-M "C 2/M"
_symmetry_group_IT_number 12
_symmetry_cell_setting 'monoclinic'
loop_
_space_group_symop_operation_xyz
x,y,z
-x,y,-z
-x,-y,-z
x,-y,z
1/2+x,1/2+y,z
1/2-x,1/2+y,-z
1/2-x,1/2-y,-z
1/2+x,1/2-y,z
loop_
_atom_site_type_symbol
_atom_site_label
_atom_site_fract_x
_atom_site_fract_y
_atom_site_fract_z
Si Si1 0.632227 0.580591 0.721745
Si Si2 0.359567 0.306944 0.820665
Si Si3 0.927408 0.580064 0.101299
Si Si4 0.791362 0.925680 0.879414
Si Si5 0.865096 0.297967 0.991076
Si Si6 0.008913 0.184766 0.763921
Si Si7 0.601858 0.658582 0.483264
Si Si8 0.057780 0.271348 0.371029
O O1 0.605584 0.500000 0.717193
O O2 0.585554 0.621841 0.760258
O O3 0.499510 0.609061 0.609300
O O4 0.849989 0.591987 0.803374
O O5 0.312014 0.369558 0.840152
O O6 0.527122 0.260610 0.923553
O O7 0.395621 0.332337 0.771040
O O8 0.166674 0.266384 0.734003
O O9 0.890126 0.500000 0.069441
O O10 0.850200 0.591053 0.131887
O O11 0.829820 0.635841 0.015270
O O12 0.738701 0.000000 0.832027
O O13 0.000000 0.929999 0.000000
O O14 0.682336 0.274501 0.872570
O O15 0.000000 0.321284 0.000000
O O16 0.890404 0.228990 0.664318
O O17 0.500000 0.653074 0.500000
O O18 0.830234 0.657483 0.585826
O O19 0.586920 0.733548 0.446650
#
# Coordination Sequence:
#
# PCOD9210368 Si02
#       8
#     8   8   8   8   8   8   8   8
#     4  10  22  41  64  91 119 155 207 264 316 371
#     4  12  24  36  62  91 124 170 206 258 301 366
#     4  10  22  40  63  87 127 171 208 258 305 369
#     4  10  23  41  57  82 123 172 214 248 302 362
#     4  12  21  36  58  95 128 161 212 252 300 357
#     4  11  23  39  58  91 128 166 204 248 313 366
#     4  10  21  39  62  86 116 153 194 257 319 378
#     4  10  22  38  58  88 121 154 199 253 312 375
#
# _framework density 20.079166000000001
#
# number of rings (size 3 to 8) (size 9 to 14) (size 15 to 20)
#    0.000    1.375    2.500    3.000    3.500    1.500 
#    0.000    0.625    0.000    0.750    0.000    0.000 
#    0.000    0.000    0.000    0.000    0.000    0.000 
#
# Total GULP energy -178412.870459 kJ/mol
# GULP energy per Si atom -5575.402202 kJ/mol
# Density = 2.003347 g / cm^3
# Si number density = 20.079166 Si / 1000 Ang^3
#
#
#
# Elastic Constant Matrix: (Units=GPa)
#
#
# Indices 1 2 3 4 5 6 
#
# 1 132.6954 59.2187 30.0893 0.0001 -29.9949 0.0000
# 2 59.2187 82.4367 36.1795 0.0001 -19.9651 0.0001
# 3 30.0893 36.1795 86.1708 0.0004 -14.9699 0.0000
# 4 0.0001 0.0001 0.0004 29.1935 0.0001 -6.4124
# 5 -29.9949 -19.9651 -14.9699 0.0001 30.1163 0.0000
# 6 0.0000 0.0001 0.0000 -6.4124 0.0000 37.3948
#
#
#
# Elastic Compliance Matrix: (Units=1/GPa)
#
#
# Indices 1 2 3 4 5 6 
#
# 1 0.012428 -0.007047 -0.000046 0.000000 0.007684 0.000000
# 2 -0.007047 0.020539 -0.005491 0.000000 0.003869 0.000000
# 3 -0.000046 -0.005491 0.014542 0.000000 0.003542 0.000000
# 4 0.000000 0.000000 0.000000 0.035595 0.000000 0.006104
# 5 0.007684 0.003869 0.003542 0.000000 0.045183 0.000000
# 6 0.000000 0.000000 0.000000 0.006104 0.000000 0.027788
#
#
# Mechanical properties :
#
#
# Convention : Reuss Voigt Hill
#
# Bulk Modulus (GPa) = 44.75982 61.36421 53.06202
# Shear Modulus (GPa) = 26.49855 31.06195 28.78025
#
# Velocity S-wave (km/s) = 3.63671 3.93743 3.79005
# Velocity P-wave (km/s) = 6.32252 7.16230 6.75548
#
# Compressibility (1/GPa) = 0.02234146
#
# Stress axis : x y z
#
# Youngs Moduli (GPa) = 80.46296 48.68737 68.76732
#
# Poissons Ratio (x) = 0.34308 0.00318
# Poissons Ratio (y) = 0.56699 0.37760
# Poissons Ratio (z) = 0.00372 0.26734
#
# Static dielectric constant tensor:
#      x y z
#    x 1.718100 0.000000 -0.034010 
#    y 0.000000 1.768150 0.000000 
#    z -0.034010 0.000000 1.467800 
# 
# From -- ./inp_files/306808.got.cif
#   From: 2010.05.17/outbox.cif.g08.bks.cpg/sg12_154_cif.got.tgz:306808.got - 2010.06.03 13:09:07.
