data_PCOD9210286
_publ_section_title
;
Structure prediction by ZEFSAII (Michael W. Deem and Ramdas Pophale) SiO2 
 PCOD9210286
Probable space group: C 2/M
;
_chemical_formula_sum "Si O2"
_cell_formula_units_Z 64
_cell_length_a 24.843207
_cell_length_b 23.616956
_cell_length_c 5.380304
_cell_angle_alpha 90.000000
_cell_angle_beta 85.365031
_cell_angle_gamma 90.000000
_cell_volume 3146.413615
_symmetry_space_group_name_H-M "C 2/M"
_symmetry_group_IT_number 12
_symmetry_cell_setting 'monoclinic'
loop_
_space_group_symop_operation_xyz
x,y,z
-x,y,-z
-x,-y,-z
x,-y,z
1/2+x,1/2+y,z
1/2-x,1/2+y,-z
1/2-x,1/2-y,-z
1/2+x,1/2-y,z
loop_
_atom_site_type_symbol
_atom_site_label
_atom_site_fract_x
_atom_site_fract_y
_atom_site_fract_z
Si Si1 0.289474 0.435654 0.916774
Si Si2 0.258396 0.152014 0.460269
Si Si3 0.386374 0.144081 0.920128
Si Si4 0.465885 0.312017 0.271217
Si Si5 0.555394 0.179587 0.598739
Si Si6 0.305523 0.234631 0.105096
Si Si7 0.850088 0.153472 0.173609
Si Si8 0.181373 0.438984 0.285954
O O1 0.300499 0.500000 0.817707
O O2 0.270746 0.386655 0.736777
O O3 0.339735 0.405394 0.035832
O O4 0.237868 0.441496 0.115975
O O5 0.288097 0.210245 0.379794
O O6 0.206745 0.161805 0.656930
O O7 0.306066 0.110613 0.528674
O O8 0.408299 0.172271 0.659409
O O9 0.368048 0.080372 0.866847
O O10 0.422626 0.151477 0.154388
O O11 0.331187 0.177856 0.987892
O O12 0.500000 0.330692 0.500000
O O13 0.453055 0.245348 0.322947
O O14 0.408306 0.344368 0.280062
O O15 0.500000 0.317631 0.000000
O O16 0.500000 0.156434 0.500000
O O17 0.347393 0.285350 0.037771
O O18 0.250000 0.250000 0.000000
O O19 0.172038 0.500000 0.406756
#
# Coordination Sequence:
#
# PCOD9210286 Si02
#       8
#     8   8   8   8   8   8   8   8
#     4  10  21  39  61  88 128 171 219 255 306 382
#     4  11  21  38  58  94 128 180 207 258 315 385
#     4  12  23  40  64  93 126 174 210 262 328 380
#     4  11  25  42  65  94 125 165 214 269 325 388
#     4  11  24  41  64  89 125 165 220 270 321 382
#     4  12  22  35  57  95 137 167 199 255 328 399
#     4  11  24  37  63  89 132 167 206 267 323 387
#     4  10  22  39  59  91 128 172 223 261 302 380
#
# _framework density 20.340620999999999
#
# number of rings (size 3 to 8) (size 9 to 14) (size 15 to 20)
#    0.000    1.000    3.750    4.125    3.500    0.500 
#    0.000    0.000    0.000    3.000    0.000    0.000 
#    0.000    0.000    0.000    0.000    0.000    0.000 
#
# Total GULP energy -178199.590697 kJ/mol
# GULP energy per Si atom -5568.737209 kJ/mol
# Density = 2.029432 g / cm^3
# Si number density = 20.340621 Si / 1000 Ang^3
#
#
#
# Elastic Constant Matrix: (Units=GPa)
#
#
# Indices 1 2 3 4 5 6 
#
# 1 109.1726 12.6570 31.7249 0.0000 29.7930 0.0000
# 2 12.6570 76.3925 10.7836 0.0000 11.4711 0.0000
# 3 31.7249 10.7836 77.2816 0.0000 10.7450 0.0000
# 4 0.0000 0.0000 0.0000 17.0854 0.0000 1.5602
# 5 29.7930 11.4711 10.7450 0.0000 42.1184 0.0000
# 6 0.0000 0.0000 0.0000 1.5602 0.0000 5.1244
#
#
#
# Elastic Compliance Matrix: (Units=1/GPa)
#
#
# Indices 1 2 3 4 5 6 
#
# 1 0.012463 -0.000344 -0.003997 0.000000 -0.007703 0.000000
# 2 -0.000344 0.013814 -0.001345 0.000000 -0.003176 0.000000
# 3 -0.003997 -0.001345 0.014851 0.000000 -0.000595 0.000000
# 4 0.000000 0.000000 0.000000 0.060203 0.000000 -0.018330
# 5 -0.007703 -0.003176 -0.000595 0.000000 0.030208 0.000000
# 6 0.000000 0.000000 0.000000 -0.018330 0.000000 0.200724
#
#
# Mechanical properties :
#
#
# Convention : Reuss Voigt Hill
#
# Bulk Modulus (GPa) = 33.60674 41.46420 37.53547
# Shear Modulus (GPa) = 14.14208 26.71106 20.42657
#
# Velocity S-wave (km/s) = 2.63964 3.62773 3.17239
# Velocity P-wave (km/s) = 5.08411 6.16250 5.64909
#
# Compressibility (1/GPa) = 0.02975593
#
# Stress axis : x y z
#
# Youngs Moduli (GPa) = 80.23535 72.39026 67.33547
#
# Poissons Ratio (x) = 0.02491 0.26917
# Poissons Ratio (y) = 0.02761 0.09055
# Poissons Ratio (z) = 0.32073 0.09735
#
# Static dielectric constant tensor:
#      x y z
#    x 1.768260 0.000000 -0.003000 
#    y 0.000000 1.780530 0.000000 
#    z -0.003000 0.000000 1.878200 
# 
# From -- ./inp_files/26047.got.cif
#   From: 2010.05.17/outbox.cif.g08.bks.cpg/sg12_14_cif.got.tgz:26047.got - 2010.06.03 13:09:07.
