data_PCOD9210789
_publ_section_title
;
Structure prediction by ZEFSAII (Michael W. Deem and Ramdas Pophale) SiO2 
 PCOD9210789
Probable space group: C 2/M
;
_chemical_formula_sum "Si O2"
_cell_formula_units_Z 48
_cell_length_a 10.658648
_cell_length_b 15.646364
_cell_length_c 15.247033
_cell_angle_alpha 90.000000
_cell_angle_beta 78.936444
_cell_angle_gamma 90.000000
_cell_volume 2495.476859
_symmetry_space_group_name_H-M "C 2/M"
_symmetry_group_IT_number 12
_symmetry_cell_setting 'monoclinic'
loop_
_space_group_symop_operation_xyz
x,y,z
-x,y,-z
-x,-y,-z
x,-y,z
1/2+x,1/2+y,z
1/2-x,1/2+y,-z
1/2-x,1/2-y,-z
1/2+x,1/2-y,z
loop_
_atom_site_type_symbol
_atom_site_label
_atom_site_fract_x
_atom_site_fract_y
_atom_site_fract_z
Si Si1 0.796077 0.687625 0.323108
Si Si2 0.813260 0.322771 0.110586
Si Si3 0.192985 0.500000 0.681994
Si Si4 0.102609 0.500000 0.337487
Si Si5 0.587851 0.000000 0.882462
Si Si6 0.203473 0.500000 0.135849
Si Si7 0.059167 0.311218 0.397091
Si Si8 0.137632 0.855704 0.981948
O O1 0.807816 0.687056 0.215816
O O2 0.754951 0.590855 0.356120
O O3 0.683055 0.752485 0.362995
O O4 0.938362 0.701725 0.345846
O O5 0.887532 0.409565 0.076450
O O6 0.869305 0.235886 0.064377
O O7 0.681920 0.337212 0.075283
O O8 0.189333 0.500000 0.788250
O O9 0.043473 0.500000 0.677442
O O10 0.200096 0.500000 0.242214
O O11 0.108425 0.409748 0.386379
O O12 0.555408 0.000000 0.131084
O O13 0.267622 0.416623 0.084688
O O14 0.000000 0.294147 0.500000
O O15 0.000000 0.897378 0.000000
#
# Coordination Sequence:
#
# PCOD9210789 Si02
#       8
#     8   8   4   4   4   4   8   8
#     4  10  21  39  64  87 121 160 200 242 301 366
#     4  10  23  39  60  87 115 164 200 245 290 355
#     4   7  16  36  58  85 110 156 193 235 283 358
#     4   9  19  38  63  86 117 157 201 240 296 360
#     4   9  19  36  62  79 108 151 215 232 278 351
#     4  11  22  40  61  88 116 162 199 248 290 351
#     4  11  22  39  64  94 121 153 198 254 303 358
#     4  11  25  37  56  87 126 153 200 253 296 338
#
# _framework density 19.234801999999998
#
# number of rings (size 3 to 8) (size 9 to 14) (size 15 to 20)
#    0.000    2.000    0.000    3.500    7.000    0.667 
#    0.000    1.250    0.000    0.000    0.000    0.000 
#    0.000    0.000    0.000    0.000    0.000    0.000 
#
# Total GULP energy -133735.005612 kJ/mol
# GULP energy per Si atom -5572.291900 kJ/mol
# Density = 1.919102 g / cm^3
# Si number density = 19.234802 Si / 1000 Ang^3
#
#
#
# Elastic Constant Matrix: (Units=GPa)
#
#
# Indices 1 2 3 4 5 6 
#
# 1 86.7540 58.5283 30.0340 0.0000 -9.8402 0.0000
# 2 58.5283 165.4089 21.2896 0.0000 -5.6725 0.0000
# 3 30.0340 21.2896 72.7269 0.0000 0.2408 0.0000
# 4 0.0000 0.0000 0.0000 27.7358 0.0000 -18.1669
# 5 -9.8402 -5.6725 0.2408 0.0000 14.6382 0.0000
# 6 0.0000 0.0000 0.0000 -18.1669 0.0000 49.4379
#
#
#
# Elastic Compliance Matrix: (Units=1/GPa)
#
#
# Indices 1 2 3 4 5 6 
#
# 1 0.018446 -0.005388 -0.006075 0.000000 0.010412 0.000000
# 2 -0.005388 0.007946 -0.000099 0.000000 -0.000541 0.000000
# 3 -0.006075 -0.000099 0.016302 0.000000 -0.004390 0.000000
# 4 0.000000 0.000000 0.000000 0.047483 0.000000 0.017449
# 5 0.010412 -0.000541 -0.004390 0.000000 0.075176 0.000000
# 6 0.000000 0.000000 0.000000 0.017449 0.000000 0.026639
#
#
# Mechanical properties :
#
#
# Convention : Reuss Voigt Hill
#
# Bulk Modulus (GPa) = 51.09749 60.51041 55.80395
# Shear Modulus (GPa) = 22.55900 32.69826 27.62863
#
# Velocity S-wave (km/s) = 3.42836 4.12752 3.79408
# Velocity P-wave (km/s) = 6.50341 7.36494 6.94754
#
# Compressibility (1/GPa) = 0.01957043
#
# Stress axis : x y z
#
# Youngs Moduli (GPa) = 54.21258 125.84436 61.34065
#
# Poissons Ratio (x) = 0.67804 0.37264
# Poissons Ratio (y) = 0.29209 0.00609
# Poissons Ratio (z) = 0.32933 0.01250
#
# Static dielectric constant tensor:
#      x y z
#    x 1.664470 0.000000 0.036070 
#    y 0.000000 1.700280 0.000000 
#    z 0.036070 0.000000 1.694260 
# 
# From -- ./inp_files/204437.got.cif
#   From: 2010.05.17/outbox.cif.g08.bks.cpg/sg12_103_cif.got.tgz:204437.got - 2010.06.03 13:09:07.
