data_PCOD9210319
_publ_section_title
;
Structure prediction by ZEFSAII (Michael W. Deem and Ramdas Pophale) SiO2 
 PCOD9210319
Probable space group: C 2/M
;
_chemical_formula_sum "Si O2"
_cell_formula_units_Z 44
_cell_length_a 14.730238
_cell_length_b 9.339813
_cell_length_c 18.538834
_cell_angle_alpha 90.000000
_cell_angle_beta 69.361899
_cell_angle_gamma 90.000000
_cell_volume 2386.850236
_symmetry_space_group_name_H-M "C 2/M"
_symmetry_group_IT_number 12
_symmetry_cell_setting 'monoclinic'
loop_
_space_group_symop_operation_xyz
x,y,z
-x,y,-z
-x,-y,-z
x,-y,z
1/2+x,1/2+y,z
1/2-x,1/2+y,-z
1/2-x,1/2-y,-z
1/2+x,1/2-y,z
loop_
_atom_site_type_symbol
_atom_site_label
_atom_site_fract_x
_atom_site_fract_y
_atom_site_fract_z
Si Si1 0.283753 0.500000 0.523418
Si Si2 0.006695 0.000000 0.585217
Si Si3 0.886130 0.500000 0.542089
Si Si4 0.484435 0.331019 0.084684
Si Si5 0.660956 0.712793 0.366161
Si Si6 0.778597 0.824537 0.200146
Si Si7 0.801669 0.828489 0.918278
O O1 0.376207 0.500000 0.440924
O O2 0.183610 0.500000 0.508264
O O3 0.294808 0.629676 0.577134
O O4 0.000000 0.000000 0.500000
O O5 0.939598 0.866917 0.628400
O O6 0.863610 0.364135 0.595587
O O7 0.000000 0.500000 0.500000
O O8 0.464633 0.500000 0.078669
O O9 0.390795 0.282625 0.154901
O O10 0.583701 0.318055 0.099761
O O11 0.500000 0.267186 0.000000
O O12 0.733679 0.739978 0.280285
O O13 0.725878 0.762106 0.144244
O O14 0.769280 0.000000 0.209491
O O15 0.777377 0.000000 0.920859
O O16 0.750000 0.750000 0.000000
#
# Coordination Sequence:
#
# PCOD9210319 Si02
#       7
#     4   4   4   8   8   8   8
#     4  10  22  42  66  86 119 163 203 239 289 394
#     4   8  18  40  64  82 115 157 197 238 285 376
#     4  12  22  40  64  90 119 156 198 245 309 357
#     4   9  18  37  61  82 114 166 205 233 291 370
#     4  10  21  39  61  92 118 154 197 252 309 348
#     4  11  22  41  61  87 129 156 198 260 304 356
#     4  11  22  38  64  90 117 163 211 249 296 357
#
# _framework density 18.434336999999999
#
# number of rings (size 3 to 8) (size 9 to 14) (size 15 to 20)
#    0.000    2.000    2.727    2.727    2.545    0.000 
#    6.545    2.727    0.000    0.000    0.000    0.000 
#    0.000    0.000    0.000    0.000    0.000    0.000 
#
# Total GULP energy -122514.906635 kJ/mol
# GULP energy per Si atom -5568.859392 kJ/mol
# Density = 1.839238 g / cm^3
# Si number density = 18.434337 Si / 1000 Ang^3
#
#
#
# Elastic Constant Matrix: (Units=GPa)
#
#
# Indices 1 2 3 4 5 6 
#
# 1 98.5670 30.7239 66.0315 0.0000 -24.8226 0.0000
# 2 30.7239 104.5437 44.1706 0.0000 -11.5627 0.0000
# 3 66.0315 44.1706 137.3061 0.0000 -39.7504 0.0000
# 4 0.0000 0.0000 0.0000 40.5671 0.0000 6.3235
# 5 -24.8226 -11.5627 -39.7504 0.0000 27.0475 0.0000
# 6 0.0000 0.0000 0.0000 6.3235 0.0000 30.6669
#
#
#
# Elastic Compliance Matrix: (Units=1/GPa)
#
#
# Indices 1 2 3 4 5 6 
#
# 1 0.015717 -0.001730 -0.005292 0.000000 0.005908 0.000000
# 2 -0.001730 0.011272 -0.003235 0.000000 -0.001524 0.000000
# 3 -0.005292 -0.003235 0.015773 0.000000 0.016942 0.000000
# 4 0.000000 0.000000 0.000000 0.025469 0.000000 -0.005252
# 5 0.005908 -0.001524 0.016942 0.000000 0.066641 0.000000
# 6 0.000000 0.000000 0.000000 -0.005252 0.000000 0.033691
#
#
# Mechanical properties :
#
#
# Convention : Reuss Voigt Hill
#
# Bulk Modulus (GPa) = 44.94600 69.14096 57.04348
# Shear Modulus (GPa) = 25.44592 32.95568 29.20080
#
# Velocity S-wave (km/s) = 3.71934 4.23275 3.98432
# Velocity P-wave (km/s) = 6.54823 7.84068 7.22342
#
# Compressibility (1/GPa) = 0.02224892
#
# Stress axis : x y z
#
# Youngs Moduli (GPa) = 63.62336 88.71356 63.39810
#
# Poissons Ratio (x) = 0.15346 0.33549
# Poissons Ratio (y) = 0.11006 0.20512
# Poissons Ratio (z) = 0.33668 0.28702
#
# Static dielectric constant tensor:
#      x y z
#    x 1.659380 0.000000 -0.021050 
#    y 0.000000 1.613170 0.000000 
#    z -0.021050 0.000000 1.659770 
# 
# From -- ./inp_files/267084.got.cif
#   From: 2010.05.17/outbox.cif.g08.bks.cpg/sg12_134_cif.got.tgz:267084.got - 2010.06.03 13:09:07.
