data_PCOD9210647
_publ_section_title
;
Structure prediction by ZEFSAII (Michael W. Deem and Ramdas Pophale) SiO2 
 PCOD9210647
Probable space group: C 2/M
;
_chemical_formula_sum "Si O2"
_cell_formula_units_Z 48
_cell_length_a 9.391896
_cell_length_b 27.014216
_cell_length_c 9.238431
_cell_angle_alpha 90.000000
_cell_angle_beta 90.854342
_cell_angle_gamma 90.000000
_cell_volume 2343.665246
_symmetry_space_group_name_H-M "C 2/M"
_symmetry_group_IT_number 12
_symmetry_cell_setting 'monoclinic'
loop_
_space_group_symop_operation_xyz
x,y,z
-x,y,-z
-x,-y,-z
x,-y,z
1/2+x,1/2+y,z
1/2-x,1/2+y,-z
1/2-x,1/2-y,-z
1/2+x,1/2-y,z
loop_
_atom_site_type_symbol
_atom_site_label
_atom_site_fract_x
_atom_site_fract_y
_atom_site_fract_z
Si Si1 0.600796 0.372080 0.639992
Si Si2 0.421445 0.557538 0.844979
Si Si3 0.078150 0.395044 0.352844
Si Si4 0.783748 0.761211 0.331656
Si Si5 0.015656 0.298223 0.172875
Si Si6 0.401853 0.056870 0.127788
O O1 0.500000 0.370506 0.500000
O O2 0.513715 0.404344 0.753414
O O3 0.753675 0.398780 0.618344
O O4 0.639860 0.315051 0.678094
O O5 0.418937 0.500000 0.788332
O O6 0.258198 0.577100 0.855978
O O7 0.500000 0.555436 0.000000
O O8 0.054670 0.351817 0.235355
O O9 0.000000 0.381636 0.500000
O O10 0.993906 0.439563 0.275478
O O11 0.750000 0.750000 0.500000
O O12 0.641810 0.764012 0.234661
O O13 0.878787 0.719755 0.258795
O O14 0.000000 0.296308 0.000000
O O15 0.374617 0.000000 0.087273
O O16 0.500000 0.077464 0.000000
#
# Coordination Sequence:
#
# PCOD9210647 Si02
#       6
#     8   8   8   8   8   8
#     4  11  23  39  61  90 121 161 209 257 310 372
#     4  10  22  40  62  90 125 164 205 254 313 374
#     4  11  23  39  60  86 119 162 208 258 319 382
#     4  11  23  42  64  90 125 166 208 257 322 387
#     4  11  23  39  61  90 122 158 205 259 314 378
#     4  10  21  39  63  90 122 162 208 259 317 383
#
# _framework density 20.480740000000001
#
# number of rings (size 3 to 8) (size 9 to 14) (size 15 to 20)
#    0.000    1.333    0.000    6.500    0.000    6.000 
#    0.000    0.000    0.000    0.000    0.000    0.000 
#    0.000    0.000    0.000    0.000    0.000    0.000 
#
# Total GULP energy -133950.887442 kJ/mol
# GULP energy per Si atom -5581.286977 kJ/mol
# Density = 2.043412 g / cm^3
# Si number density = 20.480740 Si / 1000 Ang^3
#
#
#
# Elastic Constant Matrix: (Units=GPa)
#
#
# Indices 1 2 3 4 5 6 
#
# 1 149.7917 14.7371 52.3956 0.0000 -12.1532 0.0000
# 2 14.7371 41.2986 13.2789 0.0000 -13.5728 0.0000
# 3 52.3956 13.2789 133.9716 0.0000 2.9899 0.0000
# 4 0.0000 0.0000 0.0000 29.8471 0.0000 4.0510
# 5 -12.1532 -13.5728 2.9899 0.0000 33.9917 0.0000
# 6 0.0000 0.0000 0.0000 4.0510 0.0000 16.7862
#
#
#
# Elastic Compliance Matrix: (Units=1/GPa)
#
#
# Indices 1 2 3 4 5 6 
#
# 1 0.008092 -0.000966 -0.003131 0.000000 0.002783 0.000000
# 2 -0.000966 0.029259 -0.002781 0.000000 0.011582 0.000000
# 3 -0.003131 -0.002781 0.009032 0.000000 -0.003024 0.000000
# 4 0.000000 0.000000 0.000000 0.034639 0.000000 -0.008359
# 5 0.002783 0.011582 -0.003024 0.000000 0.035305 0.000000
# 6 0.000000 0.000000 0.000000 -0.008359 0.000000 0.061590
#
#
# Mechanical properties :
#
#
# Convention : Reuss Voigt Hill
#
# Bulk Modulus (GPa) = 30.64928 53.98724 42.31826
# Shear Modulus (GPa) = 24.68543 32.43502 28.56022
#
# Velocity S-wave (km/s) = 3.47551 3.98387 3.73834
# Velocity P-wave (km/s) = 5.57700 6.89774 6.27223
#
# Compressibility (1/GPa) = 0.03262719
#
# Stress axis : x y z
#
# Youngs Moduli (GPa) = 123.57895 34.17713 110.71842
#
# Poissons Ratio (x) = 0.03302 0.34667
# Poissons Ratio (y) = 0.11941 0.30787
# Poissons Ratio (z) = 0.38693 0.09504
#
# Static dielectric constant tensor:
#      x y z
#    x 1.818610 0.000000 -0.010190 
#    y 0.000000 1.797750 0.000000 
#    z -0.010190 0.000000 1.687170 
# 
# From -- ./inp_files/42224.got.cif
#   From: 2010.05.17/outbox.cif.g08.bks.cpg/sg12_22_cif.got.tgz:42224.got - 2010.06.03 13:09:07.
