data_PCOD9210051
_publ_section_title
;
Structure prediction by ZEFSAII (Michael W. Deem and Ramdas Pophale) SiO2 
 PCOD9210051
Probable space group: C 2/M
;
_chemical_formula_sum "Si O2"
_cell_formula_units_Z 42
_cell_length_a 28.617382
_cell_length_b 7.886825
_cell_length_c 10.019696
_cell_angle_alpha 90.000000
_cell_angle_beta 62.545503
_cell_angle_gamma 90.000000
_cell_volume 2006.757743
_symmetry_space_group_name_H-M "C 2/M"
_symmetry_group_IT_number 12
_symmetry_cell_setting 'monoclinic'
loop_
_space_group_symop_operation_xyz
x,y,z
-x,y,-z
-x,-y,-z
x,-y,z
1/2+x,1/2+y,z
1/2-x,1/2+y,-z
1/2-x,1/2-y,-z
1/2+x,1/2-y,z
loop_
_atom_site_type_symbol
_atom_site_label
_atom_site_fract_x
_atom_site_fract_y
_atom_site_fract_z
Si Si1 0.477622 0.190290 0.853733
Si Si2 0.201853 0.296907 0.468776
Si Si3 0.587643 0.203002 0.324337
Si Si4 0.294616 0.202531 0.837947
Si Si5 0.083805 0.189150 0.630177
Si Si6 0.500000 0.500000 0.000000
O O1 0.453016 0.229996 0.740729
O O2 0.540685 0.189661 0.749787
O O3 0.459937 0.000000 0.916582
O O4 0.466880 0.346624 0.964777
O O5 0.196137 0.500000 0.474060
O O6 0.250000 0.250000 0.500000
O O7 0.213797 0.234986 0.302283
O O8 0.144598 0.224018 0.582976
O O9 0.646232 0.253512 0.199910
O O10 0.578293 0.294325 0.477218
O O11 0.587470 0.000000 0.354485
O O12 0.294676 0.000000 0.830927
O O13 0.250000 0.250000 0.000000
O O14 0.068045 0.000000 0.697948
#
# Coordination Sequence:
#
# PCOD9210051 Si02
#       6
#     8   8   8   8   8   2
#     4  11  23  43  64  87 124 166 199 257 312 363
#     4  10  21  39  59  86 121 159 203 256 312 371
#     4   9  20  38  62  88 118 154 199 252 316 369
#     4   9  19  37  57  85 118 153 198 248 301 368
#     4  11  21  36  63  94 119 150 203 259 309 371
#     4  12  26  44  58  90 128 160 218 246 292 392
#
# _framework density 20.929283000000002
#
# number of rings (size 3 to 8) (size 9 to 14) (size 15 to 20)
#    0.000    1.905    0.952    4.286    1.333    6.095 
#    3.429    0.000    0.000    0.000    0.000    0.000 
#    0.000    0.000    0.000    0.000    0.000    0.000 
#
# Total GULP energy -117006.719123 kJ/mol
# GULP energy per Si atom -5571.748530 kJ/mol
# Density = 2.088165 g / cm^3
# Si number density = 20.929283 Si / 1000 Ang^3
#
#
#
# Elastic Constant Matrix: (Units=GPa)
#
#
# Indices 1 2 3 4 5 6 
#
# 1 128.3116 16.8008 33.5497 0.0000 14.5418 0.0000
# 2 16.8008 98.2996 2.5521 0.0000 12.4275 0.0000
# 3 33.5497 2.5521 33.4414 0.0000 -5.7698 0.0000
# 4 0.0000 0.0000 0.0000 32.7848 0.0000 4.2755
# 5 14.5418 12.4275 -5.7698 0.0000 30.6026 0.0000
# 6 0.0000 0.0000 0.0000 4.2755 0.0000 28.1813
#
#
#
# Elastic Compliance Matrix: (Units=1/GPa)
#
#
# Indices 1 2 3 4 5 6 
#
# 1 0.012441 -0.000727 -0.013846 0.000000 -0.008227 0.000000
# 2 -0.000727 0.010852 -0.000827 0.000000 -0.004217 0.000000
# 3 -0.013846 -0.000827 0.046564 0.000000 0.015694 0.000000
# 4 0.000000 0.000000 0.000000 0.031118 0.000000 -0.004721
# 5 -0.008227 -0.004217 0.015694 0.000000 0.041258 0.000000
# 6 0.000000 0.000000 0.000000 -0.004721 0.000000 0.036201
#
#
# Mechanical properties :
#
#
# Convention : Reuss Voigt Hill
#
# Bulk Modulus (GPa) = 25.60204 40.65088 33.12646
# Shear Modulus (GPa) = 22.49702 32.12373 27.31038
#
# Velocity S-wave (km/s) = 3.28213 3.92199 3.61624
# Velocity P-wave (km/s) = 5.15969 6.32254 5.77048
#
# Compressibility (1/GPa) = 0.03905938
#
# Stress axis : x y z
#
# Youngs Moduli (GPa) = 80.37733 92.15025 21.47566
#
# Poissons Ratio (x) = 0.06698 0.29734
# Poissons Ratio (y) = 0.05842 0.01775
# Poissons Ratio (z) = 1.11287 0.07617
#
# Static dielectric constant tensor:
#      x y z
#    x 1.739960 0.000000 -0.020080 
#    y 0.000000 1.765790 0.000000 
#    z -0.020080 0.000000 1.939310 
# 
# From -- ./inp_files/107869.got.cif
#   From: 2010.05.17/outbox.cif.g08.bks.cpg/sg12_54_cif.got.tgz:107869.got - 2010.06.03 13:09:07.
