data_PCOD9210831
_publ_section_title
;
Structure prediction by ZEFSAII (Michael W. Deem and Ramdas Pophale) SiO2 
 PCOD9210831
Probable space group: C 2/M
;
_chemical_formula_sum "Si O2"
_cell_formula_units_Z 64
_cell_length_a 32.265991
_cell_length_b 8.910486
_cell_length_c 18.309582
_cell_angle_alpha 90.000000
_cell_angle_beta 139.172318
_cell_angle_gamma 90.000000
_cell_volume 3441.601814
_symmetry_space_group_name_H-M "C 2/M"
_symmetry_group_IT_number 12
_symmetry_cell_setting 'monoclinic'
loop_
_space_group_symop_operation_xyz
x,y,z
-x,y,-z
-x,-y,-z
x,-y,z
1/2+x,1/2+y,z
1/2-x,1/2+y,-z
1/2-x,1/2-y,-z
1/2+x,1/2-y,z
loop_
_atom_site_type_symbol
_atom_site_label
_atom_site_fract_x
_atom_site_fract_y
_atom_site_fract_z
Si Si1 0.029717 0.820518 0.312218
Si Si2 0.343860 0.178995 0.583941
Si Si3 0.817093 0.178098 0.111342
Si Si4 0.293761 0.320949 0.664169
Si Si5 0.537465 0.179133 0.476443
Si Si6 0.602385 0.322039 0.927588
Si Si7 0.197172 0.678631 0.167388
Si Si8 0.826457 0.321168 0.278245
O O1 0.094181 0.744864 0.371228
O O2 0.015850 0.765216 0.375757
O O3 0.970775 0.780246 0.181410
O O4 0.035964 0.000000 0.320384
O O5 0.331837 0.254568 0.646379
O O6 0.280589 0.209362 0.452006
O O7 0.349213 0.000000 0.599011
O O8 0.863718 0.200178 0.105453
O O9 0.839696 0.256985 0.215392
O O10 0.809787 0.000000 0.114034
O O11 0.750000 0.250000 0.000000
O O12 0.302180 0.500000 0.679453
O O13 0.312089 0.244562 0.764256
O O14 0.500000 0.222116 0.500000
O O15 0.612086 0.206695 0.590020
O O16 0.528535 0.000000 0.454075
O O17 0.606655 0.500000 0.950210
O O18 0.640932 0.231596 0.039278
O O19 0.201164 0.500000 0.174517
O O20 0.263002 0.745454 0.223947
O O21 0.816471 0.500000 0.260636
#
# Coordination Sequence:
#
# PCOD9210831 Si02
#       8
#     8   8   8   8   8   8   8   8
#     4  11  23  39  61  87 117 157 198 239 290 349
#     4  10  21  39  64  93 121 153 191 233 285 347
#     4  11  21  35  56  81 111 151 198 245 294 345
#     4  10  21  39  64  91 122 153 185 235 293 345
#     4  10  22  39  58  83 116 156 197 242 293 343
#     4  10  23  41  58  80 116 157 197 242 294 349
#     4  12  24  37  58  87 116 150 194 242 292 346
#     4  11  22  36  56  82 116 153 193 243 296 349
#
# _framework density 18.595991999999999
#
# number of rings (size 3 to 8) (size 9 to 14) (size 15 to 20)
#    0.000    1.375    1.250    4.500    0.000    7.250 
#    0.000    0.625    0.000    3.750    0.000    0.000 
#    0.000    0.000    0.000    0.000    0.000    0.000 
#
# Total GULP energy -178948.074529 kJ/mol
# GULP energy per Si atom -5592.127329 kJ/mol
# Density = 1.855367 g / cm^3
# Si number density = 18.595992 Si / 1000 Ang^3
#
#
#
# Elastic Constant Matrix: (Units=GPa)
#
#
# Indices 1 2 3 4 5 6 
#
# 1 86.4390 43.8756 49.8441 0.0000 -1.5216 0.0000
# 2 43.8756 80.5757 62.9880 0.0000 -8.2238 0.0000
# 3 49.8441 62.9880 98.8935 0.0000 -13.4279 0.0000
# 4 0.0000 0.0000 0.0000 24.0104 0.0000 -9.3755
# 5 -1.5216 -8.2238 -13.4279 0.0000 32.6433 0.0000
# 6 0.0000 0.0000 0.0000 -9.3755 0.0000 29.9595
#
#
#
# Elastic Compliance Matrix: (Units=1/GPa)
#
#
# Indices 1 2 3 4 5 6 
#
# 1 0.017599 -0.005252 -0.005924 0.000000 -0.002940 0.000000
# 2 -0.005252 0.026287 -0.014013 0.000000 0.000614 0.000000
# 3 -0.005924 -0.014013 0.022778 0.000000 0.005564 0.000000
# 4 0.000000 0.000000 0.000000 0.047446 0.000000 0.014848
# 5 -0.002940 0.000614 0.005564 0.000000 0.032940 0.000000
# 6 0.000000 0.000000 0.000000 0.014848 0.000000 0.038025
#
#
# Mechanical properties :
#
#
# Convention : Reuss Voigt Hill
#
# Bulk Modulus (GPa) = 61.39965 64.36929 62.88447
# Shear Modulus (GPa) = 20.75698 24.60266 22.67982
#
# Velocity S-wave (km/s) = 3.34459 3.64126 3.49608
# Velocity P-wave (km/s) = 6.92852 7.23659 7.08423
#
# Compressibility (1/GPa) = 0.01628674
#
# Stress axis : x y z
#
# Youngs Moduli (GPa) = 56.82081 38.04137 43.90158
#
# Poissons Ratio (x) = 0.19980 0.26008
# Poissons Ratio (y) = 0.29843 0.61517
# Poissons Ratio (z) = 0.33662 0.53306
#
# Static dielectric constant tensor:
#      x y z
#    x 1.623920 0.000000 0.005070 
#    y 0.000000 1.617940 0.000000 
#    z 0.005070 0.000000 1.632370 
# 
# From -- ./inp_files/295682.got.cif
#   From: 2010.05.17/outbox.cif.g08.bks.cpg/sg12_148_cif.got.tgz:295682.got - 2010.06.03 13:09:07.
