data_PCOD9210082
_publ_section_title
;
Structure prediction by ZEFSAII (Michael W. Deem and Ramdas Pophale) SiO2 
 PCOD9210082
Probable space group: C 2/M
;
_chemical_formula_sum "Si O2"
_cell_formula_units_Z 56
_cell_length_a 15.476514
_cell_length_b 8.941379
_cell_length_c 22.200866
_cell_angle_alpha 90.000000
_cell_angle_beta 99.832937
_cell_angle_gamma 90.000000
_cell_volume 3027.055655
_symmetry_space_group_name_H-M "C 2/M"
_symmetry_group_IT_number 12
_symmetry_cell_setting 'monoclinic'
loop_
_space_group_symop_operation_xyz
x,y,z
-x,y,-z
-x,-y,-z
x,-y,z
1/2+x,1/2+y,z
1/2-x,1/2+y,-z
1/2-x,1/2-y,-z
1/2+x,1/2-y,z
loop_
_atom_site_type_symbol
_atom_site_label
_atom_site_fract_x
_atom_site_fract_y
_atom_site_fract_z
Si Si1 0.267725 0.319802 0.590112
Si Si2 0.103242 0.819479 0.503807
Si Si3 0.234984 0.677027 0.063013
Si Si4 0.317109 0.319868 0.731526
Si Si5 0.484816 0.175759 0.812409
Si Si6 0.448955 0.322830 0.931307
Si Si7 0.822863 0.675930 0.183980
O O1 0.257855 0.500000 0.586432
O O2 0.175058 0.248144 0.558714
O O3 0.348353 0.281023 0.554202
O O4 0.292725 0.275813 0.660859
O O5 0.000000 0.772728 0.500000
O O6 0.103633 0.000000 0.509226
O O7 0.237862 0.500000 0.057499
O O8 0.141623 0.734966 0.074862
O O9 0.301964 0.732760 0.121467
O O10 0.250000 0.750000 0.000000
O O11 0.327115 0.500000 0.733901
O O12 0.404954 0.245445 0.766546
O O13 0.240485 0.279799 0.769373
O O14 0.494895 0.258320 0.877691
O O15 0.575721 0.193026 0.787980
O O16 0.469691 0.000000 0.821710
O O17 0.433567 0.500000 0.922280
O O18 0.500000 0.300335 0.000000
O O19 0.807064 0.500000 0.168680
#
# Coordination Sequence:
#
# PCOD9210082 Si02
#       7
#     8   8   8   8   8   8   8
#     4   9  19  35  56  84 115 155 202 239 288 348
#     4   9  18  34  56  84 120 156 194 244 295 340
#     4  12  24  38  59  85 113 146 189 239 293 353
#     4  10  21  39  60  81 116 159 195 240 295 356
#     4  11  23  38  58  85 113 147 192 241 291 352
#     4  11  23  39  59  83 112 147 188 237 296 355
#     4  10  22  40  59  81 114 151 189 238 297 351
#
# _framework density 18.499825000000001
#
# number of rings (size 3 to 8) (size 9 to 14) (size 15 to 20)
#    0.000    1.714    1.429    3.000    0.000    6.571 
#    0.000    0.000    0.000    0.000    0.000    0.000 
#    0.000    0.000    0.000    0.000    0.000    0.000 
#
# Total GULP energy -156297.527007 kJ/mol
# GULP energy per Si atom -5582.054536 kJ/mol
# Density = 1.845772 g / cm^3
# Si number density = 18.499825 Si / 1000 Ang^3
#
#
#
# Elastic Constant Matrix: (Units=GPa)
#
#
# Indices 1 2 3 4 5 6 
#
# 1 157.8315 56.1777 75.9006 0.0000 2.4959 0.0000
# 2 56.1777 54.5424 55.7918 0.0000 6.2776 0.0000
# 3 75.9006 55.7918 144.1199 0.0000 13.4985 0.0000
# 4 0.0000 0.0000 0.0000 24.9470 0.0000 6.7680
# 5 2.4959 6.2776 13.4985 0.0000 12.8106 0.0000
# 6 0.0000 0.0000 0.0000 6.7680 0.0000 25.7396
#
#
#
# Elastic Compliance Matrix: (Units=1/GPa)
#
#
# Indices 1 2 3 4 5 6 
#
# 1 0.010699 -0.008864 -0.002679 0.000000 0.005082 0.000000
# 2 -0.008864 0.037787 -0.009306 0.000000 -0.006984 0.000000
# 3 -0.002679 -0.009306 0.012733 0.000000 -0.008334 0.000000
# 4 0.000000 0.000000 0.000000 0.043164 0.000000 -0.011350
# 5 0.005082 -0.006984 -0.008334 0.000000 0.089274 0.000000
# 6 0.000000 0.000000 0.000000 -0.011350 0.000000 0.041835
#
#
# Mechanical properties :
#
#
# Convention : Reuss Voigt Hill
#
# Bulk Modulus (GPa) = 51.22757 81.35933 66.29345
# Shear Modulus (GPa) = 17.62445 23.94102 20.78273
#
# Velocity S-wave (km/s) = 3.08990 3.60129 3.35535
# Velocity P-wave (km/s) = 6.36246 7.83367 7.13608
#
# Compressibility (1/GPa) = 0.01952074
#
# Stress axis : x y z
#
# Youngs Moduli (GPa) = 93.46723 26.46408 78.53847
#
# Poissons Ratio (x) = 0.23458 0.21041
# Poissons Ratio (y) = 0.82851 0.73085
# Poissons Ratio (z) = 0.25040 0.24627
#
# Static dielectric constant tensor:
#      x y z
#    x 1.671750 0.000000 -0.031280 
#    y 0.000000 1.605070 0.000000 
#    z -0.031280 0.000000 1.657270 
# 
# From -- ./inp_files/308895.got.cif
#   From: 2010.05.17/outbox.cif.g08.bks.cpg/sg12_155_cif.got.tgz:308895.got - 2010.06.03 13:09:07.
