data_PCOD9210011
_publ_section_title
;
Structure prediction by ZEFSAII (Michael W. Deem and Ramdas Pophale) SiO2 
 PCOD9210011
Probable space group: C 2/M
;
_chemical_formula_sum "Si O2"
_cell_formula_units_Z 64
_cell_length_a 15.453169
_cell_length_b 7.698329
_cell_length_c 24.407408
_cell_angle_alpha 90.000000
_cell_angle_beta 93.029926
_cell_angle_gamma 90.000000
_cell_volume 2899.533572
_symmetry_space_group_name_H-M "C 2/M"
_symmetry_group_IT_number 12
_symmetry_cell_setting 'monoclinic'
loop_
_space_group_symop_operation_xyz
x,y,z
-x,y,-z
-x,-y,-z
x,-y,z
1/2+x,1/2+y,z
1/2-x,1/2+y,-z
1/2-x,1/2-y,-z
1/2+x,1/2-y,z
loop_
_atom_site_type_symbol
_atom_site_label
_atom_site_fract_x
_atom_site_fract_y
_atom_site_fract_z
Si Si1 0.931122 0.303268 0.746413
Si Si2 0.822191 0.795736 0.394587
Si Si3 0.891839 0.711026 0.287802
Si Si4 0.245707 0.711066 0.917084
Si Si5 0.099732 0.707178 0.996737
Si Si6 0.242183 0.202112 0.205456
Si Si7 0.364005 0.301620 0.629711
Si Si8 0.401445 0.711089 0.509672
O O1 0.935316 0.500000 0.766930
O O2 0.856638 0.212412 0.778255
O O3 0.901912 0.299974 0.681898
O O4 0.027402 0.229324 0.746210
O O5 0.895382 0.773749 0.350758
O O6 0.739448 0.697406 0.368750
O O7 0.845619 0.729233 0.455872
O O8 0.802579 0.000000 0.398020
O O9 0.894828 0.500000 0.290481
O O10 0.805082 0.774934 0.254566
O O11 0.243987 0.500000 0.917362
O O12 0.335904 0.761912 0.949654
O O13 0.245169 0.775583 0.854693
O O14 0.161124 0.772188 0.948594
O O15 0.091564 0.500000 0.988790
O O16 0.000000 0.773611 0.000000
O O17 0.266506 0.000000 0.202514
O O18 0.396886 0.500000 0.633380
O O19 0.379704 0.227041 0.569650
O O20 0.500000 0.754376 0.500000
O O21 0.393575 0.500000 0.510535
#
# Coordination Sequence:
#
# PCOD9210011 Si02
#       8
#     8   8   8   8   8   8   8   8
#     4  11  23  38  58  85 112 144 193 244 286 339
#     4  11  21  35  57  82 108 140 186 234 279 343
#     4  10  22  39  58  81 112 149 187 233 293 347
#     4   9  19  35  56  84 117 154 195 234 278 330
#     4   9  18  34  58  87 119 155 193 231 281 334
#     4  10  21  39  59  80 114 157 192 230 286 344
#     4  11  21  36  57  78 108 147 183 227 292 350
#     4   9  19  34  52  77 106 139 180 227 282 346
#
# _framework density 22.072514999999999
#
# number of rings (size 3 to 8) (size 9 to 14) (size 15 to 20)
#    0.000    2.000    1.250    2.250    0.000    3.750 
#    0.000    4.375    0.000    4.500    0.000    0.000 
#    0.000    0.000    0.000    0.000    0.000    0.000 
#
# Total GULP energy -178629.457146 kJ/mol
# GULP energy per Si atom -5582.170536 kJ/mol
# Density = 2.202228 g / cm^3
# Si number density = 22.072515 Si / 1000 Ang^3
#
#
#
# Elastic Constant Matrix: (Units=GPa)
#
#
# Indices 1 2 3 4 5 6 
#
# 1 104.9268 -0.4273 32.0371 0.0000 -19.7072 0.0000
# 2 -0.4273 43.5739 -0.8915 0.0000 -0.9701 0.0000
# 3 32.0371 -0.8915 128.6885 0.0000 -19.9501 0.0000
# 4 0.0000 0.0000 0.0000 -7.9577 0.0000 14.0448
# 5 -19.7072 -0.9701 -19.9501 0.0000 17.0453 0.0000
# 6 0.0000 0.0000 0.0000 14.0448 0.0000 5.4682
#
#
#
# Elastic Compliance Matrix: (Units=1/GPa)
#
#
# Indices 1 2 3 4 5 6 
#
# 1 0.012295 0.000389 -0.001040 0.000000 0.013020 0.000000
# 2 0.000389 0.023012 0.000410 0.000000 0.002239 0.000000
# 3 -0.001040 0.000410 0.009590 0.000000 0.010045 0.000000
# 4 0.000000 0.000000 0.000000 -0.022711 0.000000 0.058333
# 5 0.013020 0.002239 0.010045 0.000000 0.085606 0.000000
# 6 0.000000 0.000000 0.000000 0.058333 0.000000 0.033051
#
#
# Mechanical properties :
#
#
# Convention : Reuss Voigt Hill
#
# Bulk Modulus (GPa) = 22.51516 37.62508 30.07012
# Shear Modulus (GPa) = 32.02503 19.34256 25.68379
#
# Velocity S-wave (km/s) = 3.81320 2.96348 3.41487
# Velocity P-wave (km/s) = 5.44151 5.36589 5.40383
#
# Compressibility (1/GPa) = 0.04441452
#
# Stress axis : x y z
#
# Youngs Moduli (GPa) = 81.33432 43.45643 104.27928
#
# Poissons Ratio (x) = -0.01691 0.10841
# Poissons Ratio (y) = -0.03165 -0.04272
# Poissons Ratio (z) = 0.08456 -0.01780
#
# Static dielectric constant tensor:
#      x y z
#    x 1.835020 0.000000 -0.025410 
#    y 0.000000 1.834420 0.000000 
#    z -0.025410 0.000000 1.817920 
# 
# From -- ./inp_files/338701.got.cif
#   From: 2010.05.17/outbox.cif.g08.bks.cpg/sg12_170_cif.got.tgz:338701.got - 2010.06.03 13:09:07.
