data_PCOD9210864
_publ_section_title
;
Structure prediction by ZEFSAII (Michael W. Deem and Ramdas Pophale) SiO2 
 PCOD9210864
Probable space group: C 2/M
;
_chemical_formula_sum "Si O2"
_cell_formula_units_Z 40
_cell_length_a 11.686063
_cell_length_b 20.886415
_cell_length_c 8.447976
_cell_angle_alpha 90.000000
_cell_angle_beta 65.312991
_cell_angle_gamma 90.000000
_cell_volume 1873.522513
_symmetry_space_group_name_H-M "C 2/M"
_symmetry_group_IT_number 12
_symmetry_cell_setting 'monoclinic'
loop_
_space_group_symop_operation_xyz
x,y,z
-x,y,-z
-x,-y,-z
x,-y,z
1/2+x,1/2+y,z
1/2-x,1/2+y,-z
1/2-x,1/2-y,-z
1/2+x,1/2-y,z
loop_
_atom_site_type_symbol
_atom_site_label
_atom_site_fract_x
_atom_site_fract_y
_atom_site_fract_z
Si Si1 0.367903 0.311380 0.774578
Si Si2 0.525033 0.070608 0.673785
Si Si3 0.321160 0.570589 0.571112
Si Si4 0.080471 0.886483 0.809513
Si Si5 0.177008 0.671112 0.164850
O O1 0.359272 0.367206 0.649815
O O2 0.492489 0.327200 0.804782
O O3 0.365379 0.237270 0.727938
O O4 0.246679 0.317462 0.958303
O O5 0.500000 0.073769 0.500000
O O6 0.672333 0.076356 0.623271
O O7 0.441625 0.126094 0.794535
O O8 0.482848 0.000000 0.752938
O O9 0.342785 0.500000 0.632770
O O10 0.392989 0.573014 0.362168
O O11 0.215760 0.863627 0.793593
O O12 0.000000 0.916820 0.000000
#
# Coordination Sequence:
#
# PCOD9210864 Si02
#       5
#     8   8   8   8   8
#     4  10  24  40  62  95 127 165 208 259 315 370
#     4  10  21  39  64  92 124 164 209 256 308 371
#     4  11  24  42  63  93 129 165 211 262 313 371
#     4  10  22  41  62  89 124 168 211 254 318 377
#     4  10  22  42  64  90 128 166 210 256 308 381
#
# _framework density 21.350158
#
# number of rings (size 3 to 8) (size 9 to 14) (size 15 to 20)
#    0.000    1.800    2.000    0.600    2.800    6.000 
#    0.000    6.000    0.000    0.000    0.000    0.000 
#    0.000    0.000    0.000    0.000    0.000    0.000 
#
# Total GULP energy -111673.984091 kJ/mol
# GULP energy per Si atom -5583.699205 kJ/mol
# Density = 2.130156 g / cm^3
# Si number density = 21.350158 Si / 1000 Ang^3
#
#
#
# Elastic Constant Matrix: (Units=GPa)
#
#
# Indices 1 2 3 4 5 6 
#
# 1 97.1596 37.5413 15.7831 0.0000 -18.4876 0.0000
# 2 37.5413 134.8132 50.8513 0.0000 -15.0820 0.0000
# 3 15.7831 50.8513 74.3360 0.0000 -6.2670 0.0000
# 4 0.0000 0.0000 0.0000 22.3853 0.0000 -4.9009
# 5 -18.4876 -15.0820 -6.2670 0.0000 30.5817 0.0000
# 6 0.0000 0.0000 0.0000 -4.9009 0.0000 18.5878
#
#
#
# Elastic Compliance Matrix: (Units=1/GPa)
#
#
# Indices 1 2 3 4 5 6 
#
# 1 0.012562 -0.002689 -0.000305 0.000000 0.006205 0.000000
# 2 -0.002689 0.010976 -0.006735 0.000000 0.002407 0.000000
# 3 -0.000305 -0.006735 0.018142 0.000000 0.000212 0.000000
# 4 0.000000 0.000000 0.000000 0.047409 0.000000 0.012500
# 5 0.006205 0.002407 0.000212 0.000000 0.037681 0.000000
# 6 0.000000 0.000000 0.000000 0.012500 0.000000 0.057094
#
#
# Mechanical properties :
#
#
# Convention : Reuss Voigt Hill
#
# Bulk Modulus (GPa) = 44.99734 57.18447 51.09090
# Shear Modulus (GPa) = 23.72726 27.78650 25.75688
#
# Velocity S-wave (km/s) = 3.33729 3.61150 3.47710
# Velocity P-wave (km/s) = 5.99764 6.65077 6.33263
#
# Compressibility (1/GPa) = 0.02222354
#
# Stress axis : x y z
#
# Youngs Moduli (GPa) = 79.60808 91.10758 55.12098
#
# Poissons Ratio (x) = 0.24498 0.01679
# Poissons Ratio (y) = 0.21406 0.37121
# Poissons Ratio (z) = 0.02424 0.61357
#
# Static dielectric constant tensor:
#      x y z
#    x 1.740160 0.000000 0.009370 
#    y 0.000000 1.780910 0.000000 
#    z 0.009370 0.000000 1.796640 
# 
# From -- ./inp_files/48503.got.cif
#   From: 2010.05.17/outbox.cif.g08.bks.cpg/sg12_25_cif.got.tgz:48503.got - 2010.06.03 13:09:07.
