data_PCOD9210261
_publ_section_title
;
Structure prediction by ZEFSAII (Michael W. Deem and Ramdas Pophale) SiO2 
 PCOD9210261
Probable space group: C 2/M
;
_chemical_formula_sum "Si O2"
_cell_formula_units_Z 56
_cell_length_a 31.296073
_cell_length_b 8.953765
_cell_length_c 23.910187
_cell_angle_alpha 90.000000
_cell_angle_beta 25.937139
_cell_angle_gamma 90.000000
_cell_volume 2930.503099
_symmetry_space_group_name_H-M "C 2/M"
_symmetry_group_IT_number 12
_symmetry_cell_setting 'monoclinic'
loop_
_space_group_symop_operation_xyz
x,y,z
-x,y,-z
-x,-y,-z
x,-y,z
1/2+x,1/2+y,z
1/2-x,1/2+y,-z
1/2-x,1/2-y,-z
1/2+x,1/2-y,z
loop_
_atom_site_type_symbol
_atom_site_label
_atom_site_fract_x
_atom_site_fract_y
_atom_site_fract_z
Si Si1 0.289220 0.820911 0.896527
Si Si2 0.000131 0.822467 0.647534
Si Si3 0.506734 0.323084 0.058559
Si Si4 0.834013 0.325264 0.328938
Si Si5 0.630562 0.174442 0.581410
Si Si6 0.784071 0.820282 0.137965
Si Si7 0.098656 0.178922 0.417043
O O1 0.398712 0.761994 0.757588
O O2 0.227588 0.778465 0.913684
O O3 0.288473 0.000000 0.902425
O O4 0.250000 0.750000 0.000000
O O5 0.047458 0.770565 0.649671
O O6 0.075951 0.786168 0.508417
O O7 0.982644 0.000000 0.667055
O O8 0.494957 0.500000 0.085213
O O9 0.420334 0.232111 0.188720
O O10 0.500000 0.305324 0.000000
O O11 0.612110 0.274875 0.958317
O O12 0.812577 0.500000 0.345093
O O13 0.735650 0.231067 0.436444
O O14 0.866705 0.306361 0.355005
O O15 0.616538 0.000000 0.585114
O O16 0.693612 0.754338 0.279215
O O17 0.778164 0.000000 0.148090
O O18 0.000000 0.222463 0.500000
O O19 0.109313 0.000000 0.398915
#
# Coordination Sequence:
#
# PCOD9210261 Si02
#       7
#     8   8   8   8   8   8   8
#     4  11  24  41  61  90 125 164 208 252 303 365
#     4  11  23  39  62  92 123 159 201 250 303 361
#     4  10  23  42  62  88 122 162 204 250 306 364
#     4  10  22  41  63  90 120 157 203 250 303 361
#     4  10  22  40  63  91 122 159 199 249 305 360
#     4  10  23  41  62  89 120 161 206 251 304 361
#     4  10  21  39  61  87 120 157 197 244 300 355
#
# _framework density 19.109347
#
# number of rings (size 3 to 8) (size 9 to 14) (size 15 to 20)
#    0.000    1.714    1.429    1.714    4.000    4.571 
#    0.000    0.000    0.000    0.000    0.000    0.000 
#    0.000    0.000    0.000    0.000    0.000    0.000 
#
# Total GULP energy -156473.731177 kJ/mol
# GULP energy per Si atom -5588.347542 kJ/mol
# Density = 1.906585 g / cm^3
# Si number density = 19.109347 Si / 1000 Ang^3
#
#
#
# Elastic Constant Matrix: (Units=GPa)
#
#
# Indices 1 2 3 4 5 6 
#
# 1 75.7763 27.6598 11.5144 0.0022 -5.2669 -0.0011
# 2 27.6598 38.4898 21.8724 0.0110 13.5714 -0.0085
# 3 11.5144 21.8724 67.0440 0.0123 13.8950 -0.0092
# 4 0.0022 0.0110 0.0123 37.9659 -0.0044 3.1156
# 5 -5.2669 13.5714 13.8950 -0.0044 19.3322 0.0025
# 6 -0.0011 -0.0085 -0.0092 3.1156 0.0025 15.6430
#
#
#
# Elastic Compliance Matrix: (Units=1/GPa)
#
#
# Indices 1 2 3 4 5 6 
#
# 1 0.024814 -0.026430 -0.001041 0.000011 0.026062 -0.000020
# 2 -0.026430 0.066046 -0.006940 -0.000025 -0.048578 0.000043
# 3 -0.001041 -0.006940 0.019279 -0.000006 -0.009269 0.000010
# 4 0.000011 -0.000025 -0.000006 0.026777 0.000031 -0.005333
# 5 0.026062 -0.048578 -0.009269 0.000031 0.099591 -0.000052
# 6 -0.000020 0.000043 0.000010 -0.005333 -0.000052 0.064988
#
#
# Mechanical properties :
#
#
# Convention : Reuss Voigt Hill
#
# Bulk Modulus (GPa) = 24.20229 33.71148 28.95688
# Shear Modulus (GPa) = 13.01779 22.60579 17.81179
#
# Velocity S-wave (km/s) = 2.61286 3.44316 3.05634
# Velocity P-wave (km/s) = 4.66855 5.78678 5.25748
#
# Compressibility (1/GPa) = 0.04131841
#
# Stress axis : x y z
#
# Youngs Moduli (GPa) = 40.30020 15.14090 51.86918
#
# Poissons Ratio (x) = 0.40017 0.05397
# Poissons Ratio (y) = 1.06513 0.35997
# Poissons Ratio (z) = 0.04194 0.10508
#
# Static dielectric constant tensor:
#      x y z
#    x 1.671040 0.000000 0.010970 
#    y 0.000000 1.639890 0.000000 
#    z 0.010970 0.000000 1.626500 
# 
# From -- ./inp_files/329541.got.cif
#   From: 2010.05.17/outbox.cif.g08.bks.cpg/sg12_165_cif.got.tgz:329541.got - 2010.06.03 13:09:07.
