data_PCOD9210814
_publ_section_title
;
Structure prediction by ZEFSAII (Michael W. Deem and Ramdas Pophale) SiO2 
 PCOD9210814
Probable space group: C 2/M
;
_chemical_formula_sum "Si O2"
_cell_formula_units_Z 64
_cell_length_a 33.172821
_cell_length_b 9.106548
_cell_length_c 20.525043
_cell_angle_alpha 90.000000
_cell_angle_beta 30.061415
_cell_angle_gamma 90.000000
_cell_volume 3105.957936
_symmetry_space_group_name_H-M "C 2/M"
_symmetry_group_IT_number 12
_symmetry_cell_setting 'monoclinic'
loop_
_space_group_symop_operation_xyz
x,y,z
-x,y,-z
-x,-y,-z
x,-y,z
1/2+x,1/2+y,z
1/2-x,1/2+y,-z
1/2-x,1/2-y,-z
1/2+x,1/2-y,z
loop_
_atom_site_type_symbol
_atom_site_label
_atom_site_fract_x
_atom_site_fract_y
_atom_site_fract_z
Si Si1 0.940246 0.825859 0.643364
Si Si2 0.266161 0.339337 0.541441
Si Si3 0.675735 0.177741 0.906728
Si Si4 0.255210 0.325187 0.922582
Si Si5 0.977130 0.325067 0.353820
Si Si6 0.693964 0.678543 0.379547
Si Si7 0.514661 0.822886 0.054566
Si Si8 0.454667 0.335702 0.256454
O O1 0.844861 0.805956 0.766615
O O2 0.000000 0.785463 0.500000
O O3 0.962788 0.734757 0.675829
O O4 0.954098 0.000000 0.636199
O O5 0.228295 0.500000 0.588469
O O6 0.250000 0.250000 0.500000
O O7 0.250018 0.281336 0.636300
O O8 0.362718 0.351081 0.407471
O O9 0.690259 0.229554 0.960193
O O10 0.755603 0.214537 0.754543
O O11 0.598944 0.222981 0.971097
O O12 0.671068 0.000000 0.916255
O O13 0.243728 0.500000 0.947621
O O14 0.250000 0.250000 0.000000
O O15 0.976441 0.500000 0.351324
O O16 0.889965 0.262575 0.498181
O O17 0.994874 0.259236 0.257379
O O18 0.681492 0.500000 0.398814
O O19 0.508968 0.000000 0.065416
O O20 0.500000 0.780340 0.000000
O O21 0.452895 0.746896 0.190191
O O22 0.488980 0.500000 0.203010
#
# Coordination Sequence:
#
# PCOD9210814 Si02
#       8
#     8   8   8   8   8   8   8   8
#     4  10  21  39  64  90 119 162 211 252 301 371
#     4   9  19  32  53  81 109 144 186 239 295 350
#     4   9  19  38  62  86 117 158 200 241 292 355
#     4  10  22  39  61  89 122 161 205 253 303 362
#     4  11  22  36  59  90 122 153 192 253 309 355
#     4   9  18  36  59  82 113 156 199 238 290 361
#     4  10  22  38  61  91 120 154 199 249 301 357
#     4  10  22  40  58  80 115 157 201 243 293 363
#
# _framework density 20.605557999999998
#
# number of rings (size 3 to 8) (size 9 to 14) (size 15 to 20)
#    0.000    2.250    0.000    3.000    3.500    5.500 
#    0.000    2.500    0.000    0.000    0.000    0.000 
#    0.000    0.000    0.000    0.000    0.000    0.000 
#
# Total GULP energy -178474.362997 kJ/mol
# GULP energy per Si atom -5577.323844 kJ/mol
# Density = 2.055866 g / cm^3
# Si number density = 20.605558 Si / 1000 Ang^3
#
#
#
# Elastic Constant Matrix: (Units=GPa)
#
#
# Indices 1 2 3 4 5 6 
#
# 1 144.3355 44.8556 29.3470 0.0030 30.5418 -0.0010
# 2 44.8556 47.1054 11.5478 0.0007 7.2335 0.0004
# 3 29.3470 11.5478 65.0102 0.0024 21.1028 -0.0005
# 4 0.0030 0.0007 0.0024 17.6120 -0.0006 2.5588
# 5 30.5418 7.2335 21.1028 -0.0006 35.8800 0.0001
# 6 -0.0010 0.0004 -0.0005 2.5588 0.0001 28.1331
#
#
#
# Elastic Compliance Matrix: (Units=1/GPa)
#
#
# Indices 1 2 3 4 5 6 
#
# 1 0.011764 -0.009783 -0.001190 -0.000002 -0.007342 0.000001
# 2 -0.009783 0.030539 -0.002117 0.000001 0.003416 -0.000001
# 3 -0.001190 -0.002117 0.019563 -0.000003 -0.010067 0.000001
# 4 -0.000002 0.000001 -0.000003 0.057540 0.000004 -0.005233
# 5 -0.007342 0.003416 -0.010067 0.000004 0.039352 -0.000001
# 6 0.000001 -0.000001 0.000001 -0.005233 -0.000001 0.036021
#
#
# Mechanical properties :
#
#
# Convention : Reuss Voigt Hill
#
# Bulk Modulus (GPa) = 28.02186 47.55023 37.78604
# Shear Modulus (GPa) = 21.47257 27.70507 24.58882
#
# Velocity S-wave (km/s) = 3.23162 3.67078 3.45818
# Velocity P-wave (km/s) = 5.24912 6.41036 5.85858
#
# Compressibility (1/GPa) = 0.03568642
#
# Stress axis : x y z
#
# Youngs Moduli (GPa) = 85.00456 32.74459 51.11707
#
# Poissons Ratio (x) = 0.32035 0.06081
# Poissons Ratio (y) = 0.83162 0.10823
# Poissons Ratio (z) = 0.10112 0.06933
#
# Static dielectric constant tensor:
#      x y z
#    x 1.783530 0.000000 -0.022740 
#    y 0.000000 1.709000 0.000000 
#    z -0.022740 0.000000 1.784190 
# 
# From -- ./inp_files/295598.got.cif
#   From: 2010.05.17/outbox.cif.g08.bks.cpg/sg12_148_cif.got.tgz:295598.got - 2010.06.03 13:09:07.
