data_PCOD9210479
_publ_section_title
;
Structure prediction by ZEFSAII (Michael W. Deem and Ramdas Pophale) SiO2 
 PCOD9210479
Probable space group: C 2/M
;
_chemical_formula_sum "Si O2"
_cell_formula_units_Z 64
_cell_length_a 30.194992
_cell_length_b 8.562949
_cell_length_c 18.823421
_cell_angle_alpha 90.000000
_cell_angle_beta 40.647620
_cell_angle_gamma 90.000000
_cell_volume 3170.355387
_symmetry_space_group_name_H-M "C 2/M"
_symmetry_group_IT_number 12
_symmetry_cell_setting 'monoclinic'
loop_
_space_group_symop_operation_xyz
x,y,z
-x,y,-z
-x,-y,-z
x,-y,z
1/2+x,1/2+y,z
1/2-x,1/2+y,-z
1/2-x,1/2-y,-z
1/2+x,1/2-y,z
loop_
_atom_site_type_symbol
_atom_site_label
_atom_site_fract_x
_atom_site_fract_y
_atom_site_fract_z
Si Si1 0.545799 0.817638 0.592542
Si Si2 0.811913 0.689637 0.214614
Si Si3 0.082964 0.186572 0.311500
Si Si4 0.160593 0.187519 0.361535
Si Si5 0.824883 0.311949 0.927911
Si Si6 0.687492 0.186804 0.622878
Si Si7 0.043552 0.816604 0.748224
Si Si8 0.403882 0.188884 0.975532
O O1 0.490041 0.767993 0.602468
O O2 0.619279 0.772953 0.473463
O O3 0.530001 0.720753 0.682267
O O4 0.540419 0.000000 0.615132
O O5 0.816270 0.500000 0.211545
O O6 0.739506 0.728656 0.267962
O O7 0.811478 0.744191 0.296496
O O8 0.871434 0.742769 0.089484
O O9 0.126234 0.226440 0.328463
O O10 0.124181 0.243559 0.192686
O O11 0.073860 0.000000 0.320986
O O12 0.154444 0.000000 0.379705
O O13 0.824548 0.500000 0.924631
O O14 0.853791 0.268322 0.970744
O O15 0.750000 0.250000 0.000000
O O16 0.750000 0.250000 0.500000
O O17 0.614483 0.234480 0.680795
O O18 0.693301 0.000000 0.616474
O O19 0.978833 0.753460 0.870023
O O20 0.050803 0.000000 0.750418
O O21 0.407669 0.000000 0.971260
#
# Coordination Sequence:
#
# PCOD9210479 Si02
#       8
#     8   8   8   8   8   8   8   8
#     4  12  24  39  60  89 124 164 211 265 317 378
#     4   9  20  40  66  92 122 161 206 254 312 376
#     4  11  22  37  59  88 124 164 210 259 315 379
#     4  10  21  39  62  90 124 166 209 256 315 383
#     4  11  22  36  59  87 123 167 216 267 314 371
#     4  11  23  42  69  99 129 165 210 261 315 380
#     4  12  25  42  65  92 126 168 211 263 323 383
#     4  10  21  41  65  91 123 164 212 261 311 375
#
# _framework density 20.187010999999998
#
# number of rings (size 3 to 8) (size 9 to 14) (size 15 to 20)
#    0.000    1.250    1.250    5.250    0.000    6.500 
#    0.000    5.000    0.000    0.000    0.000    0.000 
#    0.000    0.000    0.000    0.000    0.000    0.000 
#
# Total GULP energy -178946.268083 kJ/mol
# GULP energy per Si atom -5592.070878 kJ/mol
# Density = 2.014106 g / cm^3
# Si number density = 20.187011 Si / 1000 Ang^3
#
#
#
# Elastic Constant Matrix: (Units=GPa)
#
#
# Indices 1 2 3 4 5 6 
#
# 1 86.4140 7.9899 47.9447 -0.0020 -8.3962 0.0023
# 2 7.9899 34.7410 25.3315 0.0145 -0.8018 -0.0052
# 3 47.9447 25.3315 158.0246 0.0136 -1.1902 -0.0056
# 4 -0.0020 0.0145 0.0136 35.9893 -0.0074 -5.4299
# 5 -8.3962 -0.8018 -1.1902 -0.0074 34.5438 0.0012
# 6 0.0023 -0.0052 -0.0056 -5.4299 0.0012 24.7860
#
#
#
# Elastic Compliance Matrix: (Units=1/GPa)
#
#
# Indices 1 2 3 4 5 6 
#
# 1 0.014286 -0.000076 -0.004297 0.000003 0.003323 -0.000002
# 2 -0.000076 0.032606 -0.005200 -0.000011 0.000559 0.000003
# 3 -0.004297 -0.005200 0.008459 -0.000001 -0.000874 0.000001
# 4 0.000003 -0.000011 -0.000001 0.028736 0.000006 0.006295
# 5 0.003323 0.000559 -0.000874 0.000006 0.029739 0.000000
# 6 -0.000002 0.000003 0.000001 0.006295 0.000000 0.041724
#
#
# Mechanical properties :
#
#
# Convention : Reuss Voigt Hill
#
# Bulk Modulus (GPa) = 27.61961 49.07909 38.34935
# Shear Modulus (GPa) = 26.77169 32.25805 29.51487
#
# Velocity S-wave (km/s) = 3.64563 4.00179 3.82785
# Velocity P-wave (km/s) = 5.60646 6.76146 6.21087
#
# Compressibility (1/GPa) = 0.03620615
#
# Stress axis : x y z
#
# Youngs Moduli (GPa) = 69.99716 30.66917 118.21907
#
# Poissons Ratio (x) = 0.00232 0.50803
# Poissons Ratio (y) = 0.00529 0.61470
# Poissons Ratio (z) = 0.30080 0.15947
#
# Static dielectric constant tensor:
#      x y z
#    x 1.716540 0.000000 0.006950 
#    y 0.000000 1.685510 0.000000 
#    z 0.006950 0.000000 1.687560 
# 
# From -- ./inp_files/295651.got.cif
#   From: 2010.05.17/outbox.cif.g08.bks.cpg/sg12_148_cif.got.tgz:295651.got - 2010.06.03 13:09:07.
