data_PCOD9210188
_publ_section_title
;
Structure prediction by ZEFSAII (Michael W. Deem and Ramdas Pophale) SiO2 
 PCOD9210188
Probable space group: C 2/M
;
_chemical_formula_sum "Si O2"
_cell_formula_units_Z 50
_cell_length_a 7.580883
_cell_length_b 18.911097
_cell_length_c 17.182183
_cell_angle_alpha 90.000000
_cell_angle_beta 63.431739
_cell_angle_gamma 90.000000
_cell_volume 2203.168350
_symmetry_space_group_name_H-M "C 2/M"
_symmetry_group_IT_number 12
_symmetry_cell_setting 'monoclinic'
loop_
_space_group_symop_operation_xyz
x,y,z
-x,y,-z
-x,-y,-z
x,-y,z
1/2+x,1/2+y,z
1/2-x,1/2+y,-z
1/2-x,1/2-y,-z
1/2+x,1/2-y,z
loop_
_atom_site_type_symbol
_atom_site_label
_atom_site_fract_x
_atom_site_fract_y
_atom_site_fract_z
Si Si1 0.771982 0.168416 0.519365
Si Si2 0.958720 0.665734 0.832530
Si Si3 0.682423 0.921854 0.676365
Si Si4 0.000000 0.000000 0.000000
Si Si5 0.634232 0.580305 0.640457
Si Si6 0.419768 0.319911 0.200872
Si Si7 0.322518 0.645921 0.983391
O O1 0.750000 0.250000 0.500000
O O2 0.648326 0.137093 0.616325
O O3 0.000000 0.161969 0.500000
O O4 0.739933 0.118866 0.450888
O O5 0.757965 0.662774 0.822115
O O6 0.079946 0.599639 0.777124
O O7 0.076334 0.736244 0.786186
O O8 0.882584 0.666098 0.936040
O O9 0.914114 0.924428 0.648447
O O10 0.619572 0.000000 0.662700
O O11 0.138422 0.937020 0.010610
O O12 0.697153 0.500000 0.646397
O O13 0.613796 0.631518 0.718217
O O14 0.625383 0.335721 0.115395
O O15 0.500000 0.681405 0.000000
#
# Coordination Sequence:
#
# PCOD9210188 Si02
#       7
#     8   8   8   2   8   8   8
#     4  10  21  39  61  83 113 150 187 230 284 342
#     4  11  22  37  58  85 115 154 193 238 282 338
#     4  10  22  39  60  85 115 150 190 235 286 341
#     4   8  16  36  56  84 110 146 198 228 294 336
#     4  10  22  39  60  85 115 150 190 235 286 341
#     4  11  22  37  58  85 115 154 193 238 282 338
#     4   8  19  33  57  80 114 147 189 232 282 335
#
# _framework density 22.694590000000002
#
# number of rings (size 3 to 8) (size 9 to 14) (size 15 to 20)
#    0.480    1.600    0.000    2.880    2.240    6.400 
#    0.000    2.400    0.000    4.800    0.000    0.000 
#    0.000    0.000    0.000    0.000    0.000    0.000 
#
# Total GULP energy -139310.855300 kJ/mol
# GULP energy per Si atom -5572.434212 kJ/mol
# Density = 2.264294 g / cm^3
# Si number density = 22.694590 Si / 1000 Ang^3
#
#
#
# Elastic Constant Matrix: (Units=GPa)
#
#
# Indices 1 2 3 4 5 6 
#
# 1 33.4108 0.3530 6.4055 0.0000 -2.6662 0.0000
# 2 0.3530 115.8622 14.3221 0.0000 5.1057 0.0000
# 3 6.4055 14.3221 96.6407 0.0000 3.7531 0.0000
# 4 0.0000 0.0000 0.0000 10.2718 0.0000 -5.9559
# 5 -2.6662 5.1057 3.7531 0.0000 27.5107 0.0000
# 6 0.0000 0.0000 0.0000 -5.9559 0.0000 11.3159
#
#
#
# Elastic Compliance Matrix: (Units=1/GPa)
#
#
# Indices 1 2 3 4 5 6 
#
# 1 0.030604 0.000030 -0.002159 0.000000 0.003255 0.000000
# 2 0.000030 0.008851 -0.001257 0.000000 -0.001468 0.000000
# 3 -0.002159 -0.001257 0.010733 0.000000 -0.001440 0.000000
# 4 0.000000 0.000000 0.000000 0.140114 0.000000 0.073746
# 5 0.003255 -0.001468 -0.001440 0.000000 0.037134 0.000000
# 6 0.000000 0.000000 0.000000 0.073746 0.000000 0.127186
#
#
# Mechanical properties :
#
#
# Convention : Reuss Voigt Hill
#
# Bulk Modulus (GPa) = 23.03295 32.00832 27.52063
# Shear Modulus (GPa) = 13.30264 24.80855 19.05559
#
# Velocity S-wave (km/s) = 2.42370 3.30987 2.90082
# Velocity P-wave (km/s) = 4.24306 5.36111 4.83451
#
# Compressibility (1/GPa) = 0.04341607
#
# Stress axis : x y z
#
# Youngs Moduli (GPa) = 32.67560 112.98290 93.17141
#
# Poissons Ratio (x) = -0.00342 0.20119
# Poissons Ratio (y) = -0.00099 0.11709
# Poissons Ratio (z) = 0.07056 0.14198
#
# Static dielectric constant tensor:
#      x y z
#    x 1.869230 0.000000 -0.013800 
#    y 0.000000 1.814010 0.000000 
#    z -0.013800 0.000000 1.883340 
# 
# From -- ./inp_files/256947.got.cif
#   From: 2010.05.17/outbox.cif.g08.bks.cpg/sg12_129_cif.got.tgz:256947.got - 2010.06.03 13:09:07.
