data_PCOD9210953
_publ_section_title
;
Structure prediction by ZEFSAII (Michael W. Deem and Ramdas Pophale) SiO2 
 PCOD9210953
Probable space group: C 2/M
;
_chemical_formula_sum "Si O2"
_cell_formula_units_Z 60
_cell_length_a 11.486915
_cell_length_b 23.443314
_cell_length_c 20.775331
_cell_angle_alpha 90.000000
_cell_angle_beta 149.278406
_cell_angle_gamma 90.000000
_cell_volume 2858.104934
_symmetry_space_group_name_H-M "C 2/M"
_symmetry_group_IT_number 12
_symmetry_cell_setting 'monoclinic'
loop_
_space_group_symop_operation_xyz
x,y,z
-x,y,-z
-x,-y,-z
x,-y,z
1/2+x,1/2+y,z
1/2-x,1/2+y,-z
1/2-x,1/2-y,-z
1/2+x,1/2-y,z
loop_
_atom_site_type_symbol
_atom_site_label
_atom_site_fract_x
_atom_site_fract_y
_atom_site_fract_z
Si Si1 0.407532 0.650388 0.272813
Si Si2 0.605961 0.562498 0.903042
Si Si3 0.302978 0.130523 0.262080
Si Si4 0.152920 0.434451 0.844883
Si Si5 0.287578 0.638175 0.361335
Si Si6 0.085689 0.732134 0.363113
Si Si7 0.000000 0.601015 0.000000
Si Si8 0.169153 0.433371 0.519224
O O1 0.363578 0.659616 0.327834
O O2 0.509565 0.709107 0.294702
O O3 0.168813 0.636202 0.126115
O O4 0.594965 0.600066 0.357011
O O5 0.494569 0.500000 0.842064
O O6 0.418222 0.611361 0.803222
O O7 0.704885 0.567190 0.021993
O O8 0.821708 0.566763 0.958955
O O9 0.257560 0.105492 0.169515
O O10 0.373120 0.196157 0.290730
O O11 0.526657 0.098037 0.395385
O O12 0.148556 0.500000 0.820669
O O13 0.904463 0.409126 0.740418
O O14 0.500000 0.611993 0.500000
O O15 0.199119 0.689428 0.365203
O O16 0.250000 0.750000 0.500000
O O17 0.209942 0.500000 0.524676
O O18 0.000000 0.429606 0.500000
#
# Coordination Sequence:
#
# PCOD9210953 Si02
#       8
#     8   8   8   8   8   8   4   8
#     4  12  25  46  66  99 135 182 228 277 346 408
#     4  11  23  42  68  98 138 186 230 275 343 421
#     4  11  22  41  69 100 134 171 230 286 345 406
#     4  10  21  39  64  98 139 177 220 276 339 410
#     4  11  22  40  69  97 133 169 229 280 337 410
#     4  11  23  45  70  99 131 179 222 286 347 405
#     4  12  27  46  64  94 142 186 231 280 340 418
#     4  11  24  41  67 103 138 173 226 289 347 409
#
# _framework density 20.992930999999999
#
# number of rings (size 3 to 8) (size 9 to 14) (size 15 to 20)
#    0.000    0.933    4.000    3.400    0.000    6.667 
#    4.800    1.333    0.000    0.000    0.000    0.000 
#    0.000    0.000    0.000    0.000    0.000    0.000 
#
# Total GULP energy -167707.218688 kJ/mol
# GULP energy per Si atom -5590.240623 kJ/mol
# Density = 2.094515 g / cm^3
# Si number density = 20.992931 Si / 1000 Ang^3
#
#
#
# Elastic Constant Matrix: (Units=GPa)
#
#
# Indices 1 2 3 4 5 6 
#
# 1 69.6481 8.0809 17.9105 0.0018 1.4609 0.0005
# 2 8.0809 107.5520 37.4900 0.0026 9.2856 0.0010
# 3 17.9105 37.4900 105.0237 0.0169 9.2204 0.0053
# 4 0.0018 0.0026 0.0169 25.1558 0.0030 -2.3833
# 5 1.4609 9.2856 9.2204 0.0030 41.8839 -0.0004
# 6 0.0005 0.0010 0.0053 -2.3833 -0.0004 17.2227
#
#
#
# Elastic Compliance Matrix: (Units=1/GPa)
#
#
# Indices 1 2 3 4 5 6 
#
# 1 0.015024 -0.000274 -0.002471 0.000001 0.000081 0.000000
# 2 -0.000274 0.010724 -0.003644 0.000002 -0.001566 0.000001
# 3 -0.002471 -0.003644 0.011385 -0.000007 -0.001612 -0.000004
# 4 0.000001 0.000002 -0.000007 0.040280 -0.000002 0.005574
# 5 0.000081 -0.001566 -0.001612 -0.000002 0.024575 0.000001
# 6 0.000000 0.000001 -0.000004 0.005574 0.000001 0.058834
#
#
# Mechanical properties :
#
#
# Convention : Reuss Voigt Hill
#
# Bulk Modulus (GPa) = 41.06119 45.46517 43.26318
# Shear Modulus (GPa) = 27.51507 31.43532 29.47519
#
# Velocity S-wave (km/s) = 3.62426 3.87385 3.75113
# Velocity P-wave (km/s) = 6.09227 6.45859 6.27810
#
# Compressibility (1/GPa) = 0.02435390
#
# Stress axis : x y z
#
# Youngs Moduli (GPa) = 66.56232 93.25095 87.83210
#
# Poissons Ratio (x) = 0.02558 0.21705
# Poissons Ratio (y) = 0.01826 0.32004
# Poissons Ratio (z) = 0.16449 0.33979
#
# Static dielectric constant tensor:
#      x y z
#    x 1.819060 0.000000 0.001740 
#    y 0.000000 1.746600 0.000000 
#    z 0.001740 0.000000 1.733280 
# 
# From -- ./inp_files/307323.got.cif
#   From: 2010.05.17/outbox.cif.g08.bks.cpg/sg12_154_cif.got.tgz:307323.got - 2010.06.03 13:09:07.
