data_PCOD9210145
_publ_section_title
;
Structure prediction by ZEFSAII (Michael W. Deem and Ramdas Pophale) SiO2 
 PCOD9210145
Probable space group: C 2/M
;
_chemical_formula_sum "Si O2"
_cell_formula_units_Z 48
_cell_length_a 6.960634
_cell_length_b 33.397690
_cell_length_c 8.814567
_cell_angle_alpha 90.000000
_cell_angle_beta 85.162819
_cell_angle_gamma 90.000000
_cell_volume 2041.816195
_symmetry_space_group_name_H-M "C 2/M"
_symmetry_group_IT_number 12
_symmetry_cell_setting 'monoclinic'
loop_
_space_group_symop_operation_xyz
x,y,z
-x,y,-z
-x,-y,-z
x,-y,z
1/2+x,1/2+y,z
1/2-x,1/2+y,-z
1/2-x,1/2-y,-z
1/2+x,1/2-y,z
loop_
_atom_site_type_symbol
_atom_site_label
_atom_site_fract_x
_atom_site_fract_y
_atom_site_fract_z
Si Si1 0.688109 0.095687 0.302610
Si Si2 0.153309 0.274357 0.372512
Si Si3 0.996933 0.954525 0.180988
Si Si4 0.733810 0.389913 0.361492
Si Si5 0.286264 0.174503 0.856443
Si Si6 0.746219 0.194107 0.799918
O O1 0.778441 0.053719 0.249990
O O2 0.787880 0.108073 0.455125
O O3 0.459670 0.098578 0.330081
O O4 0.730147 0.127654 0.166206
O O5 0.250000 0.250000 0.500000
O O6 0.300001 0.305603 0.286624
O O7 0.162524 0.236329 0.253152
O O8 0.000000 0.295884 0.500000
O O9 0.120579 0.922228 0.266930
O O10 0.057652 0.000000 0.208761
O O11 0.000000 0.948088 0.000000
O O12 0.700271 0.345502 0.297566
O O13 0.505798 0.192693 0.808289
O O14 0.218932 0.187115 0.024200
#
# Coordination Sequence:
#
# PCOD9210145 Si02
#       6
#     8   8   8   8   8   8
#     4  10  22  41  68  95 126 170 211 264 321 382
#     4  12  23  37  57  84 121 161 205 261 311 366
#     4  11  25  44  66  97 134 168 210 263 319 386
#     4  10  22  41  68  96 127 167 216 263 321 382
#     4  10  21  39  61  85 123 164 211 260 313 377
#     4  10  21  39  60  87 122 165 211 258 314 377
#
# _framework density 23.508483999999999
#
# number of rings (size 3 to 8) (size 9 to 14) (size 15 to 20)
#    0.000    1.500    1.667    3.000    2.333    6.667 
#    0.000    5.000    0.000    0.000    0.000    0.000 
#    0.000    0.000    0.000    0.000    0.000    0.000 
#
# Total GULP energy -133752.018737 kJ/mol
# GULP energy per Si atom -5573.000781 kJ/mol
# Density = 2.345498 g / cm^3
# Si number density = 23.508484 Si / 1000 Ang^3
#
#
#
# Elastic Constant Matrix: (Units=GPa)
#
#
# Indices 1 2 3 4 5 6 
#
# 1 68.2726 35.6717 12.3523 0.0000 9.3251 0.0000
# 2 35.6717 146.3978 59.3233 0.0000 0.7544 0.0000
# 3 12.3523 59.3233 169.2547 0.0000 -26.9548 0.0000
# 4 0.0000 0.0000 0.0000 31.8740 0.0000 -2.7378
# 5 9.3251 0.7544 -26.9548 0.0000 14.4126 0.0000
# 6 0.0000 0.0000 0.0000 -2.7378 0.0000 28.0421
#
#
#
# Elastic Compliance Matrix: (Units=1/GPa)
#
#
# Indices 1 2 3 4 5 6 
#
# 1 0.019487 -0.003373 -0.003162 0.000000 -0.018344 0.000000
# 2 -0.003373 0.009255 -0.003884 0.000000 -0.005567 0.000000
# 3 -0.003162 -0.003884 0.011192 0.000000 0.023181 0.000000
# 4 0.000000 0.000000 0.000000 0.031639 0.000000 0.003089
# 5 -0.018344 -0.005567 0.023181 0.000000 0.124897 0.000000
# 6 0.000000 0.000000 0.000000 0.003089 0.000000 0.035962
#
#
# Mechanical properties :
#
#
# Convention : Reuss Voigt Hill
#
# Bulk Modulus (GPa) = 52.36370 66.51330 59.43850
# Shear Modulus (GPa) = 19.25782 33.30427 26.28104
#
# Velocity S-wave (km/s) = 2.86525 3.76798 3.34719
# Velocity P-wave (km/s) = 5.76792 6.87641 6.34641
#
# Compressibility (1/GPa) = 0.01909720
#
# Stress axis : x y z
#
# Youngs Moduli (GPa) = 51.31652 108.04759 89.34884
#
# Poissons Ratio (x) = 0.36440 0.28248
# Poissons Ratio (y) = 0.17307 0.34706
# Poissons Ratio (z) = 0.16224 0.41970
#
# Static dielectric constant tensor:
#      x y z
#    x -3.236180 0.000000 7.252510 
#    y 0.000000 2.094200 0.000000 
#    z 7.252510 0.000000 -6.884630 
# 
# From -- ./inp_files/42142.got.cif
#   From: 2010.05.17/outbox.cif.g08.bks.cpg/sg12_22_cif.got.tgz:42142.got - 2010.06.03 13:09:07.
