data_PCOD9210065
_publ_section_title
;
Structure prediction by ZEFSAII (Michael W. Deem and Ramdas Pophale) SiO2 
 PCOD9210065
Probable space group: C 2/M
;
_chemical_formula_sum "Si O2"
_cell_formula_units_Z 40
_cell_length_a 5.364417
_cell_length_b 27.616643
_cell_length_c 13.371448
_cell_angle_alpha 90.000000
_cell_angle_beta 73.584727
_cell_angle_gamma 90.000000
_cell_volume 1900.196605
_symmetry_space_group_name_H-M "C 2/M"
_symmetry_group_IT_number 12
_symmetry_cell_setting 'monoclinic'
loop_
_space_group_symop_operation_xyz
x,y,z
-x,y,-z
-x,-y,-z
x,-y,z
1/2+x,1/2+y,z
1/2-x,1/2+y,-z
1/2-x,1/2-y,-z
1/2+x,1/2-y,z
loop_
_atom_site_type_symbol
_atom_site_label
_atom_site_fract_x
_atom_site_fract_y
_atom_site_fract_z
Si Si1 0.346630 0.230860 0.131849
Si Si2 0.500000 0.141606 0.000000
Si Si3 0.653370 0.769140 0.368151
Si Si4 0.302179 0.500000 0.679175
Si Si5 0.000000 0.079260 0.000000
Si Si6 0.500000 0.858394 0.500000
Si Si7 0.500000 0.420740 0.500000
Si Si8 0.802182 0.000000 0.179175
O O1 0.595555 0.264937 0.090820
O O2 0.250000 0.250000 0.250000
O O3 0.456154 0.177305 0.100340
O O4 0.240119 0.110569 0.014726
O O5 0.404446 0.735063 0.409180
O O6 0.543846 0.822695 0.399660
O O7 0.374311 0.454208 0.600947
O O8 0.499998 0.500000 0.750000
O O9 0.999998 0.500000 0.749999
O O10 0.125688 0.045792 0.899053
O O11 0.759881 0.889431 0.485274
#
# Coordination Sequence:
#
# PCOD9210065 Si02
#       8
#     8   4   8   4   4   4   4   4
#     4  10  21  39  59  88 133 185 220 273 335 380
#     4  12  22  42  66  99 138 173 240 280 314 404
#     4  10  21  39  59  88 133 185 220 273 335 380
#     4  11  24  51  74 100 146 173 210 281 372 408
#     4  11  26  45  72 109 132 177 228 283 336 419
#     4  12  22  42  66  99 138 173 240 280 314 404
#     4  11  26  45  72 109 132 177 228 283 336 419
#     4  11  24  51  74 100 146 173 210 281 372 408
#
# _framework density 21.050453000000001
#
# number of rings (size 3 to 8) (size 9 to 14) (size 15 to 20)
#    0.000    1.200    0.000    6.000    0.000    3.200 
#   43.200    0.000    0.000    0.000    0.000    0.000 
#    0.000    0.000    0.000    0.000    0.000    0.000 
#
# Total GULP energy -111401.095149 kJ/mol
# GULP energy per Si atom -5570.054757 kJ/mol
# Density = 2.100254 g / cm^3
# Si number density = 21.050453 Si / 1000 Ang^3
#
#
#
# Elastic Constant Matrix: (Units=GPa)
#
#
# Indices 1 2 3 4 5 6 
#
# 1 203.2006 61.1558 52.1927 0.0000 -28.1359 0.0000
# 2 61.1558 132.8573 53.4735 0.0000 -18.8594 0.0000
# 3 52.1927 53.4735 166.0239 0.0000 -28.4589 0.0000
# 4 0.0000 0.0000 0.0000 -6.4002 0.0000 -7.0525
# 5 -28.1359 -18.8594 -28.4589 0.0000 47.6664 0.0000
# 6 0.0000 0.0000 0.0000 -7.0525 0.0000 44.9186
#
#
#
# Elastic Compliance Matrix: (Units=1/GPa)
#
#
# Indices 1 2 3 4 5 6 
#
# 1 0.006094 -0.002149 -0.000839 0.000000 0.002246 0.000000
# 2 -0.002149 0.009573 -0.002201 0.000000 0.001205 0.000000
# 3 -0.000839 -0.002201 0.007533 0.000000 0.003131 0.000000
# 4 0.000000 0.000000 0.000000 -0.133200 0.000000 -0.020913
# 5 0.002246 0.001205 0.003131 0.000000 0.024651 0.000000
# 6 0.000000 0.000000 0.000000 -0.020913 0.000000 0.018979
#
#
# Mechanical properties :
#
#
# Convention : Reuss Voigt Hill
#
# Bulk Modulus (GPa) = 77.98819 92.85842 85.42330
# Shear Modulus (GPa) = -96.67868 39.58762 -28.54553
#
# Velocity S-wave (km/s) = -6.78431 4.34130 -3.68646
# Velocity P-wave (km/s) = 4.92346 8.32690 4.74852
#
# Compressibility (1/GPa) = 0.01282245
#
# Stress axis : x y z
#
# Youngs Moduli (GPa) = 164.08370 104.45997 132.75583
#
# Poissons Ratio (x) = 0.22447 0.11135
# Poissons Ratio (y) = 0.35260 0.29222
# Poissons Ratio (z) = 0.13762 0.22994
#
# Static dielectric constant tensor:
#      x y z
#    x 1.789380 0.000000 0.027340 
#    y 0.000000 1.759910 0.000000 
#    z 0.027340 0.000000 1.914190 
# 
# From -- ./inp_files/191572.got.cif
#   From: 2010.05.17/outbox.cif.g08.bks.cpg/sg12_96_cif.got.tgz:191572.got - 2010.06.03 13:09:07.
