data_PCOD9210108
_publ_section_title
;
Structure prediction by ZEFSAII (Michael W. Deem and Ramdas Pophale) SiO2 
 PCOD9210108
Probable space group: C 2/M
;
_chemical_formula_sum "Si O2"
_cell_formula_units_Z 48
_cell_length_a 18.964699
_cell_length_b 31.757396
_cell_length_c 7.541674
_cell_angle_alpha 90.000000
_cell_angle_beta 148.010082
_cell_angle_gamma 90.000000
_cell_volume 2406.278995
_symmetry_space_group_name_H-M "C 2/M"
_symmetry_group_IT_number 12
_symmetry_cell_setting 'monoclinic'
loop_
_space_group_symop_operation_xyz
x,y,z
-x,y,-z
-x,-y,-z
x,-y,z
1/2+x,1/2+y,z
1/2-x,1/2+y,-z
1/2-x,1/2-y,-z
1/2+x,1/2-y,z
loop_
_atom_site_type_symbol
_atom_site_label
_atom_site_fract_x
_atom_site_fract_y
_atom_site_fract_z
Si Si1 0.275364 0.393721 0.219143
Si Si2 0.762452 0.383765 0.282604
Si Si3 0.890506 0.259759 0.893418
Si Si4 0.009850 0.173806 0.729942
Si Si5 0.340705 0.451107 0.656386
Si Si6 0.534974 0.841310 0.780776
O O1 0.387575 0.358130 0.502624
O O2 0.307354 0.436799 0.385425
O O3 0.256146 0.396851 0.965605
O O4 0.142492 0.377588 0.029074
O O5 0.735055 0.421841 0.360580
O O6 0.900098 0.357380 0.589164
O O7 0.642640 0.351433 0.059822
O O8 0.750000 0.250000 0.500000
O O9 0.000000 0.280170 0.000000
O O10 0.967484 0.218370 0.127014
O O11 0.884824 0.297397 0.020620
O O12 0.000000 0.182918 0.500000
O O13 0.311944 0.500000 0.627515
O O14 0.500000 0.444433 0.000000
O O15 0.500000 0.839541 0.500000
#
# Coordination Sequence:
#
# PCOD9210108 Si02
#       6
#     8   8   8   8   8   8
#     4  10  22  40  65  90 122 165 209 251 308 375
#     4  10  22  41  64  91 123 166 208 253 312 372
#     4  12  25  35  56  93 124 161 212 262 303 352
#     4  10  21  39  60  83 121 168 208 254 303 363
#     4  11  24  40  67  98 126 157 198 262 322 377
#     4  10  23  42  61  86 126 172 208 253 309 365
#
# _framework density 19.947811999999999
#
# number of rings (size 3 to 8) (size 9 to 14) (size 15 to 20)
#    0.000    1.500    1.667    2.500    7.000    0.667 
#    0.000   10.000    0.000    3.000    0.000    0.000 
#    0.000    0.000    0.000    0.000    0.000    0.000 
#
# Total GULP energy -133738.582258 kJ/mol
# GULP energy per Si atom -5572.440927 kJ/mol
# Density = 1.990241 g / cm^3
# Si number density = 19.947812 Si / 1000 Ang^3
#
#
#
# Elastic Constant Matrix: (Units=GPa)
#
#
# Indices 1 2 3 4 5 6 
#
# 1 53.3080 43.6025 36.0619 0.0000 4.3736 0.0000
# 2 43.6025 105.8994 42.5797 0.0000 -17.1380 0.0000
# 3 36.0619 42.5797 108.5938 0.0000 14.4815 0.0000
# 4 0.0000 0.0000 0.0000 -132.6866 0.0000 177.7357
# 5 4.3736 -17.1380 14.4815 0.0000 23.7946 0.0000
# 6 0.0000 0.0000 0.0000 177.7357 0.0000 -192.7677
#
#
#
# Elastic Compliance Matrix: (Units=1/GPa)
#
#
# Indices 1 2 3 4 5 6 
#
# 1 0.035142 -0.015589 -0.003481 0.000000 -0.015568 0.000000
# 2 -0.015589 0.022207 -0.006580 0.000000 0.022865 0.000000
# 3 -0.003481 -0.006580 0.014683 0.000000 -0.013035 0.000000
# 4 0.000000 0.000000 0.000000 0.032062 0.000000 0.029562
# 5 -0.015568 0.022865 -0.013035 0.000000 0.069289 0.000000
# 6 0.000000 0.000000 0.000000 0.029562 0.000000 0.022069
#
#
# Mechanical properties :
#
#
# Convention : Reuss Voigt Hill
#
# Bulk Modulus (GPa) = 48.23458 56.92106 52.57782
# Shear Modulus (GPa) = 19.71108 -50.62816 -15.45854
#
# Velocity S-wave (km/s) = 3.14687 -5.04335 -2.78681
# Velocity P-wave (km/s) = 6.11854 2.30585 4.00747
#
# Compressibility (1/GPa) = 0.02073201
#
# Stress axis : x y z
#
# Youngs Moduli (GPa) = 28.45590 45.03032 68.10568
#
# Poissons Ratio (x) = 0.70197 0.23711
# Poissons Ratio (y) = 0.44360 0.44812
# Poissons Ratio (z) = 0.09907 0.29629
#
# Static dielectric constant tensor:
#      x y z
#    x 1.688150 0.000000 -0.073240 
#    y 0.000000 1.660600 0.000000 
#    z -0.073240 0.000000 1.695250 
# 
# From -- ./inp_files/91445.got.cif
#   From: 2010.05.17/outbox.cif.g08.bks.cpg/sg12_46_cif.got.tgz:91445.got - 2010.06.03 13:09:07.
