data_PCOD9210510
_publ_section_title
;
Structure prediction by ZEFSAII (Michael W. Deem and Ramdas Pophale) SiO2 
 PCOD9210510
Probable space group: C 2/M
;
_chemical_formula_sum "Si O2"
_cell_formula_units_Z 60
_cell_length_a 24.872918
_cell_length_b 9.638151
_cell_length_c 22.440321
_cell_angle_alpha 90.000000
_cell_angle_beta 143.094182
_cell_angle_gamma 90.000000
_cell_volume 3230.454075
_symmetry_space_group_name_H-M "C 2/M"
_symmetry_group_IT_number 12
_symmetry_cell_setting 'monoclinic'
loop_
_space_group_symop_operation_xyz
x,y,z
-x,y,-z
-x,-y,-z
x,-y,z
1/2+x,1/2+y,z
1/2-x,1/2+y,-z
1/2-x,1/2-y,-z
1/2+x,1/2-y,z
loop_
_atom_site_type_symbol
_atom_site_label
_atom_site_fract_x
_atom_site_fract_y
_atom_site_fract_z
Si Si1 0.746608 0.000000 0.476554
Si Si2 0.174410 0.836300 0.041710
Si Si3 0.588414 0.831549 0.612557
Si Si4 0.540952 0.336266 0.815552
Si Si5 0.337393 0.720505 0.642332
Si Si6 0.607009 0.163119 0.094598
Si Si7 0.725371 0.337501 0.284994
Si Si8 0.886195 0.664392 0.228249
O O1 0.682763 0.877539 0.392227
O O2 0.810124 0.879408 0.564102
O O3 0.114194 0.802840 0.931041
O O4 0.160682 0.000000 0.044410
O O5 0.145575 0.740800 0.070943
O O6 0.279900 0.817959 0.123730
O O7 0.500000 0.781655 0.500000
O O8 0.679138 0.794431 0.658197
O O9 0.592648 0.789250 0.685349
O O10 0.585803 0.000000 0.610416
O O11 0.548175 0.500000 0.809392
O O12 0.441177 0.304261 0.749438
O O13 0.560497 0.249269 0.773651
O O14 0.278146 0.678483 0.647194
O O15 0.650421 0.241488 0.189070
O O16 0.630012 0.000000 0.115018
O O17 0.500000 0.175987 0.000000
O O18 0.710564 0.500000 0.256838
O O19 0.906436 0.500000 0.241724
#
# Coordination Sequence:
#
# PCOD9210510 Si02
#       8
#     4   8   8   8   8   8   8   8
#     4  10  24  42  64  86 130 160 206 262 318 364
#     4  10  21  41  64  88 125 164 211 258 307 379
#     4   9  19  37  61  93 121 157 209 257 299 368
#     4  11  23  39  62  93 127 163 211 259 311 380
#     4  11  23  43  63  95 122 164 211 259 318 377
#     4  11  24  38  59  93 129 164 205 256 316 372
#     4  11  21  40  67  90 125 166 205 255 312 375
#     4  10  21  39  62  92 125 162 211 257 310 372
#
# _framework density 18.573239999999998
#
# number of rings (size 3 to 8) (size 9 to 14) (size 15 to 20)
#    0.000    1.600    2.667    1.600    1.867    5.333 
#    2.400    0.000    0.000    0.800    0.000    0.000 
#    0.000    0.000    0.000    0.000    0.000    0.000 
#
# Total GULP energy -167006.971832 kJ/mol
# GULP energy per Si atom -5566.899061 kJ/mol
# Density = 1.853097 g / cm^3
# Si number density = 18.573240 Si / 1000 Ang^3
#
#
#
# Elastic Constant Matrix: (Units=GPa)
#
#
# Indices 1 2 3 4 5 6 
#
# 1 49.1881 15.5256 -4.2729 0.0000 -4.3944 0.0000
# 2 15.5256 83.9181 17.0358 0.0000 4.2579 0.0000
# 3 -4.2729 17.0358 88.1179 0.0000 1.8068 0.0000
# 4 0.0000 0.0000 0.0000 20.2619 0.0000 1.6748
# 5 -4.3944 4.2579 1.8068 0.0000 10.2750 0.0000
# 6 0.0000 0.0000 0.0000 1.6748 0.0000 27.1818
#
#
#
# Elastic Compliance Matrix: (Units=1/GPa)
#
#
# Indices 1 2 3 4 5 6 
#
# 1 0.023214 -0.005279 0.001905 0.000000 0.011781 0.000000
# 2 -0.005279 0.013838 -0.002777 0.000000 -0.007504 0.000000
# 3 0.001905 -0.002777 0.011981 0.000000 -0.000141 0.000000
# 4 0.000000 0.000000 0.000000 0.049606 0.000000 -0.003056
# 5 0.011781 -0.007504 -0.000141 0.000000 0.105497 0.000000
# 6 0.000000 0.000000 0.000000 -0.003056 0.000000 0.036978
#
#
# Mechanical properties :
#
#
# Convention : Reuss Voigt Hill
#
# Bulk Modulus (GPa) = 27.22655 30.86680 29.04667
# Shear Modulus (GPa) = 18.82106 24.40612 21.61359
#
# Velocity S-wave (km/s) = 3.18676 3.62891 3.41500
# Velocity P-wave (km/s) = 5.31332 5.84925 5.58771
#
# Compressibility (1/GPa) = 0.03672886
#
# Stress axis : x y z
#
# Youngs Moduli (GPa) = 43.07668 72.26659 83.46805
#
# Poissons Ratio (x) = 0.38152 -0.15899
# Poissons Ratio (y) = 0.22742 0.23182
# Poissons Ratio (z) = -0.08205 0.20071
#
# Static dielectric constant tensor:
#      x y z
#    x 1.631230 0.000000 -0.006570 
#    y 0.000000 1.615300 0.000000 
#    z -0.006570 0.000000 1.648780 
# 
# From -- ./inp_files/324634.got.cif
#   From: 2010.05.17/outbox.cif.g08.bks.cpg/sg12_163_cif.got.tgz:324634.got - 2010.06.03 13:09:07.
