data_PCOD9210561
_publ_section_title
;
Structure prediction by ZEFSAII (Michael W. Deem and Ramdas Pophale) SiO2 
 PCOD9210561
Probable space group: C 2/M
;
_chemical_formula_sum "Si O2"
_cell_formula_units_Z 40
_cell_length_a 14.764911
_cell_length_b 14.626968
_cell_length_c 13.289898
_cell_angle_alpha 90.000000
_cell_angle_beta 133.036639
_cell_angle_gamma 90.000000
_cell_volume 2097.853290
_symmetry_space_group_name_H-M "C 2/M"
_symmetry_group_IT_number 12
_symmetry_cell_setting 'monoclinic'
loop_
_space_group_symop_operation_xyz
x,y,z
-x,y,-z
-x,-y,-z
x,-y,z
1/2+x,1/2+y,z
1/2-x,1/2+y,-z
1/2-x,1/2-y,-z
1/2+x,1/2-y,z
loop_
_atom_site_type_symbol
_atom_site_label
_atom_site_fract_x
_atom_site_fract_y
_atom_site_fract_z
Si Si1 0.874356 0.263121 0.654881
Si Si2 0.728524 0.852023 0.941210
Si Si3 0.020462 0.395132 0.125011
Si Si4 0.457686 0.892462 0.352567
Si Si5 0.004639 0.897059 0.122477
O O1 0.750000 0.250000 0.500000
O O2 0.871937 0.339745 0.739229
O O3 0.924663 0.173723 0.750936
O O4 0.967466 0.312731 0.647781
O O5 0.610983 0.888626 0.916051
O O6 0.681583 0.868273 0.790273
O O7 0.750000 0.750000 0.000000
O O8 0.861853 0.897663 0.050753
O O9 0.056103 0.500000 0.143249
O O10 0.000000 0.354811 0.000000
O O11 0.500000 0.887516 0.500000
O O12 0.481166 0.000000 0.340343
O O13 0.056780 0.000000 0.168074
O O14 0.000000 0.870859 0.000000
#
# Coordination Sequence:
#
# PCOD9210561 Si02
#       5
#     8   8   8   8   8
#     4  11  23  38  58  85 122 154 190 243 294 354
#     4  11  20  37  64  87 119 154 193 249 293 351
#     4  10  21  39  63  87 113 150 196 242 292 353
#     4  10  22  39  62  89 117 154 198 242 294 352
#     4  11  24  40  61  89 120 157 200 247 298 350
#
# _framework density 19.067111000000001
#
# number of rings (size 3 to 8) (size 9 to 14) (size 15 to 20)
#    0.000    1.400    4.000    4.200    2.800    1.600 
#    0.000    0.000    0.000    0.600    0.000    0.000 
#    0.000    0.000    0.000    0.000    0.000    0.000 
#
# Total GULP energy -111352.907484 kJ/mol
# GULP energy per Si atom -5567.645374 kJ/mol
# Density = 1.902371 g / cm^3
# Si number density = 19.067111 Si / 1000 Ang^3
#
#
#
# Elastic Constant Matrix: (Units=GPa)
#
#
# Indices 1 2 3 4 5 6 
#
# 1 44.9089 20.3692 35.9097 0.0000 -14.5260 0.0000
# 2 20.3692 155.0742 76.3536 0.0000 -14.1474 0.0000
# 3 35.9097 76.3536 183.7370 0.0000 -15.7176 0.0000
# 4 0.0000 0.0000 0.0000 11.7192 0.0000 -43.2603
# 5 -14.5260 -14.1474 -15.7176 0.0000 34.8779 0.0000
# 6 0.0000 0.0000 0.0000 -43.2603 0.0000 -19.1763
#
#
#
# Elastic Compliance Matrix: (Units=1/GPa)
#
#
# Indices 1 2 3 4 5 6 
#
# 1 0.029488 -0.000690 -0.004628 0.000000 0.009916 0.000000
# 2 -0.000690 0.008239 -0.003149 0.000000 0.001635 0.000000
# 3 -0.004628 -0.003149 0.007678 0.000000 0.000255 0.000000
# 4 0.000000 0.000000 0.000000 0.009148 0.000000 -0.020638
# 5 0.009916 0.001635 0.000255 0.000000 0.033580 0.000000
# 6 0.000000 0.000000 0.000000 -0.020638 0.000000 -0.005591
#
#
# Mechanical properties :
#
#
# Convention : Reuss Voigt Hill
#
# Bulk Modulus (GPa) = 35.12427 72.10947 53.61687
# Shear Modulus (GPa) = 45.88582 22.22332 34.05457
#
# Velocity S-wave (km/s) = 4.91097 3.41769 4.23074
# Velocity P-wave (km/s) = 7.11465 7.31266 7.21434
#
# Compressibility (1/GPa) = 0.02847034
#
# Stress axis : x y z
#
# Youngs Moduli (GPa) = 33.91167 121.37688 130.25042
#
# Poissons Ratio (x) = 0.08374 0.60284
# Poissons Ratio (y) = 0.02340 0.41015
# Poissons Ratio (z) = 0.15695 0.38221
#
# Static dielectric constant tensor:
#      x y z
#    x 1.999570 0.000000 0.036600 
#    y 0.000000 1.691890 0.000000 
#    z 0.036600 0.000000 1.699200 
# 
# From -- ./inp_files/215066.got.cif
#   From: 2010.05.17/outbox.cif.g08.bks.cpg/sg12_108_cif.got.tgz:215066.got - 2010.06.03 13:09:07.
