data_PCOD9210205
_publ_section_title
;
Structure prediction by ZEFSAII (Michael W. Deem and Ramdas Pophale) SiO2 
 PCOD9210205
Probable space group: C 2/M
;
_chemical_formula_sum "Si O2"
_cell_formula_units_Z 64
_cell_length_a 31.222697
_cell_length_b 7.972492
_cell_length_c 11.957273
_cell_angle_alpha 90.000000
_cell_angle_beta 92.850936
_cell_angle_gamma 90.000000
_cell_volume 2972.752814
_symmetry_space_group_name_H-M "C 2/M"
_symmetry_group_IT_number 12
_symmetry_cell_setting 'monoclinic'
loop_
_space_group_symop_operation_xyz
x,y,z
-x,y,-z
-x,-y,-z
x,-y,z
1/2+x,1/2+y,z
1/2-x,1/2+y,-z
1/2-x,1/2-y,-z
1/2+x,1/2-y,z
loop_
_atom_site_type_symbol
_atom_site_label
_atom_site_fract_x
_atom_site_fract_y
_atom_site_fract_z
Si Si1 0.564324 0.796803 0.563506
Si Si2 0.541046 0.299434 0.075281
Si Si3 0.689323 0.698242 0.816076
Si Si4 0.978143 0.297832 0.674352
Si Si5 0.365038 0.706032 0.986515
Si Si6 0.158663 0.195553 0.579729
Si Si7 0.217292 0.192399 0.159399
Si Si8 0.785268 0.308834 0.594242
O O1 0.526010 0.747574 0.641988
O O2 0.551423 0.747685 0.434922
O O3 0.609030 0.715785 0.600362
O O4 0.567645 0.000000 0.566703
O O5 0.541858 0.500000 0.058498
O O6 0.534939 0.267270 0.206322
O O7 0.587453 0.234945 0.039453
O O8 0.500000 0.233291 0.000000
O O9 0.682216 0.500000 0.804949
O O10 0.684417 0.765755 0.689900
O O11 0.737386 0.724991 0.866022
O O12 0.652976 0.761788 0.895387
O O13 0.977292 0.500000 0.678512
O O14 0.366081 0.500000 0.984559
O O15 0.326853 0.760570 0.897904
O O16 0.170865 0.292179 0.469016
O O17 0.169380 0.000000 0.562719
O O18 0.213924 0.204713 0.292780
O O19 0.220613 0.000000 0.124015
O O20 0.776421 0.500000 0.625608
O O21 0.750000 0.250000 0.500000
#
# Coordination Sequence:
#
# PCOD9210205 Si02
#       8
#     8   8   8   8   8   8   8   8
#     4   9  20  39  61  86 119 157 194 243 300 356
#     4  10  22  39  62  88 118 156 198 246 302 358
#     4  10  21  39  61  84 120 160 199 247 300 352
#     4   9  20  40  62  85 118 156 196 244 302 353
#     4   9  21  40  60  87 119 156 199 251 301 349
#     4  11  23  36  59  91 121 156 197 244 296 354
#     4  11  22  38  62  88 120 156 201 252 299 353
#     4  12  24  40  60  85 121 159 198 240 295 355
#
# _framework density 21.528866000000001
#
# number of rings (size 3 to 8) (size 9 to 14) (size 15 to 20)
#    0.000    1.875    1.250    3.000    3.500    1.750 
#    0.000    3.125    0.000    0.000    0.000    0.000 
#    0.000    0.000    0.000    0.000    0.000    0.000 
#
# Total GULP energy -178744.594032 kJ/mol
# GULP energy per Si atom -5585.768564 kJ/mol
# Density = 2.147987 g / cm^3
# Si number density = 21.528866 Si / 1000 Ang^3
#
#
#
# Elastic Constant Matrix: (Units=GPa)
#
#
# Indices 1 2 3 4 5 6 
#
# 1 139.4740 1.7508 49.4105 0.0000 -13.0898 0.0000
# 2 1.7508 22.4122 -5.0683 0.0000 0.4014 0.0000
# 3 49.4105 -5.0683 98.2477 0.0000 -24.3822 0.0000
# 4 0.0000 0.0000 0.0000 21.8105 0.0000 -5.4436
# 5 -13.0898 0.4014 -24.3822 0.0000 27.6488 0.0000
# 6 0.0000 0.0000 0.0000 -5.4436 0.0000 21.5191
#
#
#
# Elastic Compliance Matrix: (Units=1/GPa)
#
#
# Indices 1 2 3 4 5 6 
#
# 1 0.008790 -0.001696 -0.004441 0.000000 0.000270 0.000000
# 2 -0.001696 0.045542 0.003634 0.000000 0.001741 0.000000
# 3 -0.004441 0.003634 0.015444 0.000000 0.011464 0.000000
# 4 0.000000 0.000000 0.000000 0.048939 0.000000 0.012380
# 5 0.000270 0.001741 0.011464 0.000000 0.046380 0.000000
# 6 0.000000 0.000000 0.000000 0.012380 0.000000 0.049602
#
#
# Mechanical properties :
#
#
# Convention : Reuss Voigt Hill
#
# Bulk Modulus (GPa) = 15.43911 39.14665 27.29288
# Shear Modulus (GPa) = 20.72171 28.46509 24.59340
#
# Velocity S-wave (km/s) = 3.10580 3.64013 3.38353
# Velocity P-wave (km/s) = 4.47752 5.99084 5.28859
#
# Compressibility (1/GPa) = 0.06477057
#
# Stress axis : x y z
#
# Youngs Moduli (GPa) = 113.76975 21.95794 64.74812
#
# Poissons Ratio (x) = 0.03724 0.28755
# Poissons Ratio (y) = 0.19293 -0.23531
# Poissons Ratio (z) = 0.50526 -0.07980
#
# Static dielectric constant tensor:
#      x y z
#    x 1.797910 0.000000 0.001260 
#    y 0.000000 1.783410 0.000000 
#    z 0.001260 0.000000 1.780550 
# 
# From -- ./inp_files/187421.got.cif
#   From: 2010.05.17/outbox.cif.g08.bks.cpg/sg12_94_cif.got.tgz:187421.got - 2010.06.03 13:09:07.
