data_PCOD9210252
_publ_section_title
;
Structure prediction by ZEFSAII (Michael W. Deem and Ramdas Pophale) SiO2 
 PCOD9210252
Probable space group: C 2/M
;
_chemical_formula_sum "Si O2"
_cell_formula_units_Z 48
_cell_length_a 19.623939
_cell_length_b 8.048954
_cell_length_c 30.938252
_cell_angle_alpha 90.000000
_cell_angle_beta 151.321108
_cell_angle_gamma 90.000000
_cell_volume 2345.159812
_symmetry_space_group_name_H-M "C 2/M"
_symmetry_group_IT_number 12
_symmetry_cell_setting 'monoclinic'
loop_
_space_group_symop_operation_xyz
x,y,z
-x,y,-z
-x,-y,-z
x,-y,z
1/2+x,1/2+y,z
1/2-x,1/2+y,-z
1/2-x,1/2-y,-z
1/2+x,1/2-y,z
loop_
_atom_site_type_symbol
_atom_site_label
_atom_site_fract_x
_atom_site_fract_y
_atom_site_fract_z
Si Si1 0.839353 0.699317 0.918450
Si Si2 0.366955 0.304783 0.762530
Si Si3 0.338104 0.309355 0.424871
Si Si4 0.195655 0.698639 0.749808
Si Si5 0.178741 0.798889 0.915302
Si Si6 0.882574 0.800775 0.545040
O O1 0.850057 0.500000 0.928783
O O2 0.744922 0.735772 0.823685
O O3 0.764758 0.762571 0.920990
O O4 0.000000 0.763856 0.000000
O O5 0.389703 0.500000 0.783423
O O6 0.254392 0.284274 0.661673
O O7 0.298943 0.234672 0.768917
O O8 0.516970 0.235879 0.829549
O O9 0.500000 0.314920 0.500000
O O10 0.284340 0.500000 0.396843
O O11 0.345678 0.235075 0.476775
O O12 0.207611 0.500000 0.757528
O O13 0.033679 0.740617 0.647168
O O14 0.176067 0.000000 0.910441
O O15 0.250000 0.750000 0.000000
O O16 0.750000 0.750000 0.500000
O O17 0.892983 0.000000 0.547680
#
# Coordination Sequence:
#
# PCOD9210252 Si02
#       6
#     8   8   8   8   8   8
#     4  10  22  40  62  88 120 158 200 246 301 360
#     4  10  22  38  59  87 120 156 198 247 297 350
#     4  10  21  39  61  87 117 155 202 245 290 346
#     4  11  23  39  60  88 120 158 202 246 301 358
#     4  10  22  40  61  89 118 151 195 243 298 355
#     4  11  24  41  61  87 122 159 200 248 297 355
#
# _framework density 20.467690000000001
#
# number of rings (size 3 to 8) (size 9 to 14) (size 15 to 20)
#    0.000    1.667    1.667    2.000    2.333    4.000 
#    0.000    0.000    0.000    0.000    0.000    0.000 
#    0.000    0.000    0.000    0.000    0.000    0.000 
#
# Total GULP energy -134022.663423 kJ/mol
# GULP energy per Si atom -5584.277643 kJ/mol
# Density = 2.042110 g / cm^3
# Si number density = 20.467690 Si / 1000 Ang^3
#
#
#
# Elastic Constant Matrix: (Units=GPa)
#
#
# Indices 1 2 3 4 5 6 
#
# 1 217.3929 4.7867 91.0785 0.0000 -2.8882 -0.0003
# 2 4.7867 11.7600 -5.9916 -0.0002 7.9818 -0.0004
# 3 91.0785 -5.9916 116.7695 -0.0001 3.6757 -0.0001
# 4 0.0000 -0.0002 -0.0001 19.2413 0.0000 -2.4310
# 5 -2.8882 7.9818 3.6757 0.0000 39.4741 -0.0001
# 6 -0.0003 -0.0004 -0.0001 -2.4310 -0.0001 13.7251
#
#
#
# Elastic Compliance Matrix: (Units=1/GPa)
#
#
# Indices 1 2 3 4 5 6 
#
# 1 0.007470 -0.008157 -0.006332 0.000000 0.002786 0.000000
# 2 -0.008157 0.111405 0.012845 0.000002 -0.024320 0.000004
# 3 -0.006332 0.012845 0.014300 0.000000 -0.004392 0.000000
# 4 0.000000 0.000002 0.000000 0.053161 0.000000 0.009416
# 5 0.002786 -0.024320 -0.004392 0.000000 0.030863 -0.000001
# 6 0.000000 0.000004 0.000000 0.009416 -0.000001 0.074527
#
#
# Mechanical properties :
#
#
# Convention : Reuss Voigt Hill
#
# Bulk Modulus (GPa) = 7.69914 58.40772 33.05343
# Shear Modulus (GPa) = 14.77924 31.55802 23.16863
#
# Velocity S-wave (km/s) = 2.69006 3.93089 3.36811
# Velocity P-wave (km/s) = 3.66311 7.01435 5.59551
#
# Compressibility (1/GPa) = 0.12988465
#
# Stress axis : x y z
#
# Youngs Moduli (GPa) = 133.87539 8.97624 69.92786
#
# Poissons Ratio (x) = 0.07322 0.44282
# Poissons Ratio (y) = 1.09208 -0.89820
# Poissons Ratio (z) = 0.84776 -0.11530
#
# Static dielectric constant tensor:
#      x y z
#    x 1.720280 0.000000 0.024910 
#    y 0.000000 1.760490 0.000000 
#    z 0.024910 0.000000 1.691060 
# 
# From -- ./inp_files/244750.got.cif
#   From: 2010.05.17/outbox.cif.g08.bks.cpg/sg12_123_cif.got.tgz:244750.got - 2010.06.03 13:09:07.
