data_PCOD9210355
_publ_section_title
;
Structure prediction by ZEFSAII (Michael W. Deem and Ramdas Pophale) SiO2 
 PCOD9210355
Probable space group: C 2/M
;
_chemical_formula_sum "Si O2"
_cell_formula_units_Z 50
_cell_length_a 30.938886
_cell_length_b 7.246445
_cell_length_c 31.762117
_cell_angle_alpha 90.000000
_cell_angle_beta 162.550409
_cell_angle_gamma 90.000000
_cell_volume 2135.340855
_symmetry_space_group_name_H-M "C 2/M"
_symmetry_group_IT_number 12
_symmetry_cell_setting 'monoclinic'
loop_
_space_group_symop_operation_xyz
x,y,z
-x,y,-z
-x,-y,-z
x,-y,z
1/2+x,1/2+y,z
1/2-x,1/2+y,-z
1/2-x,1/2-y,-z
1/2+x,1/2-y,z
loop_
_atom_site_type_symbol
_atom_site_label
_atom_site_fract_x
_atom_site_fract_y
_atom_site_fract_z
Si Si1 0.535655 0.273877 0.649517
Si Si2 0.500000 0.500000 0.000000
Si Si3 0.078797 0.721133 0.134514
Si Si4 0.184420 0.788001 0.872000
Si Si5 0.640140 0.276546 0.656446
Si Si6 0.465107 0.776640 0.182306
Si Si7 0.702300 0.223634 0.339608
O O1 0.532929 0.500000 0.647465
O O2 0.617976 0.210180 0.767738
O O3 0.615740 0.217531 0.681397
O O4 0.367972 0.215447 0.492394
O O5 0.463832 0.338110 0.002372
O O6 0.056037 0.500000 0.110594
O O7 0.221322 0.782978 0.240905
O O8 0.112699 0.770679 0.214212
O O9 0.066178 0.783672 0.799315
O O10 0.220845 0.000000 0.895948
O O11 0.329878 0.710861 0.028105
O O12 0.500000 0.222336 0.500000
O O13 0.646633 0.500000 0.662344
O O14 0.612389 0.718369 0.296934
O O15 0.461685 0.000000 0.179765
O O16 0.706717 0.000000 0.343592
#
# Coordination Sequence:
#
# PCOD9210355 Si02
#       7
#     8   2   8   8   8   8   8
#     4   9  16  28  54  87 112 137 190 241 283 346
#     4  12  26  40  54  86 124 160 202 254 276 354
#     4  10  21  39  62  85 119 159 198 240 300 350
#     4   9  18  32  50  75 104 144 186 231 283 346
#     4   9  15  29  58  87 108 146 192 236 290 354
#     4   9  18  33  53  74 108 145 184 230 285 344
#     4   9  17  32  57  85 108 145 186 236 291 347
#
# _framework density 23.415465000000001
#
# number of rings (size 3 to 8) (size 9 to 14) (size 15 to 20)
#    0.000    2.720    1.600    0.240    0.000    1.920 
#    1.440    5.200   10.560    0.000    0.000    0.000 
#    0.000    0.000    0.000    0.000    0.000    0.000 
#
# Total GULP energy -139420.781079 kJ/mol
# GULP energy per Si atom -5576.831243 kJ/mol
# Density = 2.336217 g / cm^3
# Si number density = 23.415465 Si / 1000 Ang^3
#
#
#
# Elastic Constant Matrix: (Units=GPa)
#
#
# Indices 1 2 3 4 5 6 
#
# 1 126.1086 -11.6325 27.1957 -0.0047 -11.9551 0.0127
# 2 -11.6325 115.6182 -4.1953 -0.0172 -8.0846 0.0099
# 3 27.1957 -4.1953 32.4230 -0.0107 -8.9967 0.0105
# 4 -0.0047 -0.0172 -0.0107 67.0898 -0.0073 -38.1122
# 5 -11.9551 -8.0846 -8.9967 -0.0073 50.2055 0.0070
# 6 0.0127 0.0099 0.0105 -38.1122 0.0070 26.7561
#
#
#
# Elastic Compliance Matrix: (Units=1/GPa)
#
#
# Indices 1 2 3 4 5 6 
#
# 1 0.009787 0.000775 -0.007816 -0.000008 0.001055 -0.000013
# 2 0.000775 0.008889 0.000998 0.000001 0.001795 -0.000004
# 3 -0.007816 0.000998 0.038994 -0.000006 0.005287 -0.000021
# 4 -0.000008 0.000001 -0.000006 0.078115 -0.000007 0.111269
# 5 0.001055 0.001795 0.005287 -0.000007 0.021406 -0.000019
# 6 -0.000013 -0.000004 -0.000021 0.111269 -0.000019 0.195869
#
#
# Mechanical properties :
#
#
# Convention : Reuss Voigt Hill
#
# Bulk Modulus (GPa) = 21.93744 32.98730 27.46237
# Shear Modulus (GPa) = 13.14612 46.32907 29.73760
#
# Velocity S-wave (km/s) = 2.37202 4.45293 3.56757
# Velocity P-wave (km/s) = 4.10988 6.36840 5.35946
#
# Compressibility (1/GPa) = 0.04558418
#
# Stress axis : x y z
#
# Youngs Moduli (GPa) = 102.18002 112.50073 25.64466
#
# Poissons Ratio (x) = -0.08716 0.20044
# Poissons Ratio (y) = -0.07917 -0.02560
# Poissons Ratio (z) = 0.79863 -0.11231
#
# Static dielectric constant tensor:
#      x y z
#    x 1.830740 -0.000010 -0.004470 
#    y -0.000010 2.022790 0.000000 
#    z -0.004470 0.000000 1.986440 
# 
# From -- ./inp_files/384873.got.cif
#   From: 2010.05.17/outbox.cif.g08.bks.cpg/sg12_193_cif.got.tgz:384873.got - 2010.06.03 13:09:07.
