data_PCOD9210023
_publ_section_title
;
Structure prediction by ZEFSAII (Michael W. Deem and Ramdas Pophale) SiO2 
 PCOD9210023
Probable space group: C 2/M
;
_chemical_formula_sum "Si O2"
_cell_formula_units_Z 58
_cell_length_a 14.795464
_cell_length_b 8.551747
_cell_length_c 20.170363
_cell_angle_alpha 90.000000
_cell_angle_beta 68.893597
_cell_angle_gamma 90.000000
_cell_volume 2380.885069
_symmetry_space_group_name_H-M "C 2/M"
_symmetry_group_IT_number 12
_symmetry_cell_setting 'monoclinic'
loop_
_space_group_symop_operation_xyz
x,y,z
-x,y,-z
-x,-y,-z
x,-y,z
1/2+x,1/2+y,z
1/2-x,1/2+y,-z
1/2-x,1/2-y,-z
1/2+x,1/2-y,z
loop_
_atom_site_type_symbol
_atom_site_label
_atom_site_fract_x
_atom_site_fract_y
_atom_site_fract_z
Si Si1 0.888620 0.327353 0.032672
Si Si2 0.428360 0.321502 0.188554
Si Si3 0.069526 0.809696 0.370217
Si Si4 0.371274 0.174113 0.888376
Si Si5 0.203679 0.177161 0.447259
Si Si6 0.000000 0.000000 0.000000
Si Si7 0.090838 0.322628 0.668816
Si Si8 0.719348 0.317522 0.214456
O O1 0.850000 0.500000 0.073018
O O2 0.841324 0.321621 0.972385
O O3 0.913913 0.139297 0.039757
O O4 0.000000 0.365011 0.000000
O O5 0.449907 0.500000 0.166277
O O6 0.515121 0.216344 0.139303
O O7 0.432224 0.296241 0.266581
O O8 0.322863 0.265432 0.194197
O O9 0.116036 0.755018 0.427272
O O10 0.140863 0.762618 0.290229
O O11 0.966745 0.734082 0.380502
O O12 0.063099 0.000000 0.372974
O O13 0.319864 0.285776 0.849133
O O14 0.357734 0.000000 0.865447
O O15 0.250000 0.250000 0.500000
O O16 0.294667 0.174920 0.372835
O O17 0.176187 0.000000 0.471691
O O18 0.061169 0.500000 0.694199
O O19 0.731053 0.500000 0.225762
#
# Coordination Sequence:
#
# PCOD9210023 Si02
#       8
#     8   8   8   8   8   2   8   8
#     4   8  17  31  52  83 115 156 200 243 294 349
#     4  12  24  36  56  86 119 155 195 235 290 350
#     4  10  21  39  59  83 113 147 184 230 286 345
#     4  11  22  37  59  87 121 154 197 243 292 347
#     4  10  23  42  61  81 111 147 186 233 284 340
#     4   8  14  28  56  78 116 152 206 242 294 334
#     4  11  22  39  60  83 114 147 186 234 287 343
#     4  11  22  37  58  85 119 153 192 236 291 351
#
# _framework density 24.360690000000002
#
# number of rings (size 3 to 8) (size 9 to 14) (size 15 to 20)
#    0.414    1.241    2.759    2.483    1.931    2.759 
#    0.000    2.759    0.000    0.828    0.000    0.000 
#    0.000    0.000    0.000    0.000    0.000    0.000 
#
# Total GULP energy -161457.403939 kJ/mol
# GULP energy per Si atom -5567.496688 kJ/mol
# Density = 2.430524 g / cm^3
# Si number density = 24.360690 Si / 1000 Ang^3
#
#
#
# Elastic Constant Matrix: (Units=GPa)
#
#
# Indices 1 2 3 4 5 6 
#
# 1 79.5847 -16.2745 8.6362 0.0000 12.8821 0.0000
# 2 -16.2745 102.8500 11.2649 0.0000 -9.1324 0.0000
# 3 8.6362 11.2649 61.5151 0.0000 32.2523 0.0000
# 4 0.0000 0.0000 0.0000 31.6560 0.0000 10.4904
# 5 12.8821 -9.1324 32.2523 0.0000 37.8960 0.0000
# 6 0.0000 0.0000 0.0000 10.4904 0.0000 40.8508
#
#
#
# Elastic Compliance Matrix: (Units=1/GPa)
#
#
# Indices 1 2 3 4 5 6 
#
# 1 0.013609 0.001795 -0.000073 0.000000 -0.004131 0.000000
# 2 0.001795 0.011346 -0.006218 0.000000 0.007416 0.000000
# 3 -0.000073 -0.006218 0.032825 0.000000 -0.029410 0.000000
# 4 0.000000 0.000000 0.000000 0.034528 0.000000 -0.008867
# 5 -0.004131 0.007416 -0.029410 0.000000 0.054610 0.000000
# 6 0.000000 0.000000 0.000000 -0.008867 0.000000 0.026756
#
#
# Mechanical properties :
#
#
# Convention : Reuss Voigt Hill
#
# Bulk Modulus (GPa) = 20.49741 27.91144 24.20443
# Shear Modulus (GPa) = 25.13455 38.10211 31.61833
#
# Velocity S-wave (km/s) = 3.21560 3.95914 3.60658
# Velocity P-wave (km/s) = 4.71372 5.69053 5.22500
#
# Compressibility (1/GPa) = 0.04878664
#
# Stress axis : x y z
#
# Youngs Moduli (GPa) = 73.48143 88.13328 30.46489
#
# Poissons Ratio (x) = -0.15816 0.00223
# Poissons Ratio (y) = -0.13187 0.18944
# Poissons Ratio (z) = 0.00537 0.54803
#
# Static dielectric constant tensor:
#      x y z
#    x 1.808200 0.000000 -0.056020 
#    y 0.000000 1.950700 0.000000 
#    z -0.056020 0.000000 2.020760 
# 
# From -- ./inp_files/338036.got.cif
#   From: 2010.05.17/outbox.cif.g08.bks.cpg/sg12_170_cif.got.tgz:338036.got - 2010.06.03 13:09:07.
