data_PCOD9210699
_publ_section_title
;
Structure prediction by ZEFSAII (Michael W. Deem and Ramdas Pophale) SiO2 
 PCOD9210699
Probable space group: C 2/M
;
_chemical_formula_sum "Si O2"
_cell_formula_units_Z 32
_cell_length_a 21.528099
_cell_length_b 15.393737
_cell_length_c 16.617194
_cell_angle_alpha 90.000000
_cell_angle_beta 165.094510
_cell_angle_gamma 90.000000
_cell_volume 1416.515290
_symmetry_space_group_name_H-M "C 2/M"
_symmetry_group_IT_number 12
_symmetry_cell_setting 'monoclinic'
loop_
_space_group_symop_operation_xyz
x,y,z
-x,y,-z
-x,-y,-z
x,-y,z
1/2+x,1/2+y,z
1/2-x,1/2+y,-z
1/2-x,1/2-y,-z
1/2+x,1/2-y,z
loop_
_atom_site_type_symbol
_atom_site_label
_atom_site_fract_x
_atom_site_fract_y
_atom_site_fract_z
Si Si1 0.560893 0.398669 0.216977
Si Si2 0.405242 0.903462 0.073330
Si Si3 0.451904 0.674563 0.257749
Si Si4 0.752040 0.749212 0.767429
O O1 0.497753 0.500000 0.129315
O O2 0.508788 0.365181 0.242694
O O3 0.849606 0.389901 0.569133
O O4 0.095017 0.163689 0.034117
O O5 0.419514 0.000000 0.055415
O O6 0.172991 0.895170 0.839796
O O7 0.380443 0.828385 0.976781
O O8 0.679241 0.715397 0.588585
O O9 0.250000 0.750000 0.000000
O O10 0.500000 0.764495 0.500000
#
# Coordination Sequence:
#
# PCOD9210699 Si02
#       4
#     8   8   8   8
#     4  11  23  42  65  92 126 166 205 255 313 371
#     4  10  22  40  63  91 125 158 204 261 308 365
#     4  11  22  40  62  91 122 167 206 248 314 365
#     4  10  21  39  63  92 123 161 205 257 308 364
#
# _framework density 22.59065
#
# number of rings (size 3 to 8) (size 9 to 14) (size 15 to 20)
#    0.000    1.500    5.000    1.500    0.000    7.000 
#    0.000    2.500    0.000    3.000    0.000    0.000 
#    0.000    0.000    0.000    0.000    0.000    0.000 
#
# Total GULP energy -89581.675723 kJ/mol
# GULP energy per Si atom -5598.854733 kJ/mol
# Density = 2.253923 g / cm^3
# Si number density = 22.590650 Si / 1000 Ang^3
#
#
#
# Elastic Constant Matrix: (Units=GPa)
#
#
# Indices 1 2 3 4 5 6 
#
# 1 68.0234 27.3167 27.6246 -0.0137 18.5536 -0.0007
# 2 27.3167 183.8039 87.8671 -0.0259 -16.3016 -0.0197
# 3 27.6246 87.8671 112.3469 -0.0203 -12.2615 -0.0099
# 4 -0.0137 -0.0259 -0.0203 39.7141 -0.0118 3.1814
# 5 18.5536 -16.3016 -12.2615 -0.0118 22.2213 -0.0169
# 6 -0.0007 -0.0197 -0.0099 3.1814 -0.0169 9.6593
#
#
#
# Elastic Compliance Matrix: (Units=1/GPa)
#
#
# Indices 1 2 3 4 5 6 
#
# 1 0.026639 -0.002983 -0.007325 0.000000 -0.028472 -0.000061
# 2 -0.002983 0.009189 -0.005795 0.000002 0.006034 0.000022
# 3 -0.007325 -0.005795 0.016427 0.000004 0.010929 0.000022
# 4 0.000000 0.000002 0.000004 0.025862 0.000011 -0.008518
# 5 -0.028472 0.006034 0.010929 0.000011 0.079232 0.000156
# 6 -0.000061 0.000022 0.000022 -0.008518 0.000156 0.106333
#
#
# Mechanical properties :
#
#
# Convention : Reuss Voigt Hill
#
# Bulk Modulus (GPa) = 49.87411 72.19901 61.03656
# Shear Modulus (GPa) = 16.52497 29.07665 22.80081
#
# Velocity S-wave (km/s) = 2.70755 3.59152 3.18040
# Velocity P-wave (km/s) = 5.64798 7.01625 6.36897
#
# Compressibility (1/GPa) = 0.02005048
#
# Stress axis : x y z
#
# Youngs Moduli (GPa) = 37.53865 108.82161 60.87430
#
# Poissons Ratio (x) = 0.32457 0.44590
# Poissons Ratio (y) = 0.11196 0.35277
# Poissons Ratio (z) = 0.27497 0.63063
#
# Static dielectric constant tensor:
#      x y z
#    x 1.845210 0.000000 0.018970 
#    y 0.000000 1.814970 0.000000 
#    z 0.018970 0.000000 1.846360 
# 
# From -- ./inp_files/59677.got.cif
#   From: 2010.05.17/outbox.cif.g08.bks.cpg/sg12_30_cif.got.tgz:59677.got - 2010.06.03 13:09:07.
