data_PCOD9210312
_publ_section_title
;
Structure prediction by ZEFSAII (Michael W. Deem and Ramdas Pophale) SiO2 
 PCOD9210312
Probable space group: C 2/M
;
_chemical_formula_sum "Si O2"
_cell_formula_units_Z 42
_cell_length_a 18.834626
_cell_length_b 18.370834
_cell_length_c 5.944940
_cell_angle_alpha 90.000000
_cell_angle_beta 66.562178
_cell_angle_gamma 90.000000
_cell_volume 1887.277487
_symmetry_space_group_name_H-M "C 2/M"
_symmetry_group_IT_number 12
_symmetry_cell_setting 'monoclinic'
loop_
_space_group_symop_operation_xyz
x,y,z
-x,y,-z
-x,-y,-z
x,-y,z
1/2+x,1/2+y,z
1/2-x,1/2+y,-z
1/2-x,1/2-y,-z
1/2+x,1/2-y,z
loop_
_atom_site_type_symbol
_atom_site_label
_atom_site_fract_x
_atom_site_fract_y
_atom_site_fract_z
Si Si1 0.571063 0.736843 0.735406
Si Si2 0.299215 0.205516 0.122151
Si Si3 0.758718 0.916334 0.480382
Si Si4 0.933839 0.078469 0.272653
Si Si5 0.883153 0.633405 0.637466
Si Si6 0.000000 0.500000 0.500000
O O1 0.561418 0.658606 0.626064
O O2 0.576866 0.803210 0.557110
O O3 0.500000 0.743916 0.000000
O O4 0.653453 0.743322 0.765237
O O5 0.366031 0.162722 0.905531
O O6 0.250000 0.250000 0.000000
O O7 0.249820 0.143144 0.309682
O O8 0.846739 0.920310 0.285015
O O9 0.698655 0.887887 0.371975
O O10 0.738122 0.000000 0.575557
O O11 0.938995 0.000000 0.389994
O O12 0.000000 0.077780 0.000000
O O13 0.934133 0.562956 0.572197
#
# Coordination Sequence:
#
# PCOD9210312 Si02
#       6
#     8   8   8   8   8   2
#     4  10  21  40  61  90 126 172 214 262 327 383
#     4  11  23  38  62  93 124 171 218 268 318 387
#     4  10  21  39  61  91 125 167 210 261 323 380
#     4   9  18  35  63  90 118 156 209 264 318 385
#     4  11  23  40  61  91 131 174 216 270 315 386
#     4  12  24  40  62  96 128 176 222 258 324 386
#
# _framework density 22.254280000000001
#
# number of rings (size 3 to 8) (size 9 to 14) (size 15 to 20)
#    0.000    1.714    0.952    3.429    1.333    3.048 
#    0.000    3.333    0.000    4.571    0.000   26.000 
#    0.000    0.000    0.000    0.000    0.000    0.000 
#
# Total GULP energy -116977.042804 kJ/mol
# GULP energy per Si atom -5570.335372 kJ/mol
# Density = 2.220363 g / cm^3
# Si number density = 22.254280 Si / 1000 Ang^3
#
#
#
# Elastic Constant Matrix: (Units=GPa)
#
#
# Indices 1 2 3 4 5 6 
#
# 1 103.0261 43.5726 28.1807 0.0000 -17.4393 0.0000
# 2 43.5726 243.7679 50.9452 0.0000 -7.4147 0.0000
# 3 28.1807 50.9452 54.8832 0.0000 -15.6687 0.0000
# 4 0.0000 0.0000 0.0000 26.5287 0.0000 12.2821
# 5 -17.4393 -7.4147 -15.6687 0.0000 33.3599 0.0000
# 6 0.0000 0.0000 0.0000 12.2821 0.0000 49.5710
#
#
#
# Elastic Compliance Matrix: (Units=1/GPa)
#
#
# Indices 1 2 3 4 5 6 
#
# 1 0.011976 -0.001214 -0.003825 0.000000 0.004194 0.000000
# 2 -0.001214 0.005259 -0.004741 0.000000 -0.001693 0.000000
# 3 -0.003825 -0.004741 0.027386 0.000000 0.009809 0.000000
# 4 0.000000 0.000000 0.000000 0.042579 0.000000 -0.010550
# 5 0.004194 -0.001693 0.009809 0.000000 0.036400 0.000000
# 6 0.000000 0.000000 0.000000 -0.010550 0.000000 0.022787
#
#
# Mechanical properties :
#
#
# Convention : Reuss Voigt Hill
#
# Bulk Modulus (GPa) = 39.90378 71.89711 55.90045
# Shear Modulus (GPa) = 28.68606 40.49051 34.58829
#
# Velocity S-wave (km/s) = 3.59418 4.27013 3.94665
# Velocity P-wave (km/s) = 5.93245 7.52922 6.77802
#
# Compressibility (1/GPa) = 0.02506028
#
# Stress axis : x y z
#
# Youngs Moduli (GPa) = 83.50165 190.16443 36.51456
#
# Poissons Ratio (x) = 0.23079 0.13968
# Poissons Ratio (y) = 0.10134 0.17313
# Poissons Ratio (z) = 0.31942 0.90164
#
# Static dielectric constant tensor:
#      x y z
#    x 1.819640 0.000000 0.012520 
#    y 0.000000 1.835840 0.000000 
#    z 0.012520 0.000000 1.875650 
# 
# From -- ./inp_files/20369.got.cif
#   From: 2010.05.17/outbox.cif.g08.bks.cpg/sg12_11_cif.got.tgz:20369.got - 2010.06.03 13:09:07.
