data_PCOD9210287
_publ_section_title
;
Structure prediction by ZEFSAII (Michael W. Deem and Ramdas Pophale) SiO2 
 PCOD9210287
Probable space group: C 2/M
;
_chemical_formula_sum "Si O2"
_cell_formula_units_Z 48
_cell_length_a 10.575181
_cell_length_b 15.147435
_cell_length_c 19.864575
_cell_angle_alpha 90.000000
_cell_angle_beta 48.065506
_cell_angle_gamma 90.000000
_cell_volume 2367.152317
_symmetry_space_group_name_H-M "C 2/M"
_symmetry_group_IT_number 12
_symmetry_cell_setting 'monoclinic'
loop_
_space_group_symop_operation_xyz
x,y,z
-x,y,-z
-x,-y,-z
x,-y,z
1/2+x,1/2+y,z
1/2-x,1/2+y,-z
1/2-x,1/2-y,-z
1/2+x,1/2-y,z
loop_
_atom_site_type_symbol
_atom_site_label
_atom_site_fract_x
_atom_site_fract_y
_atom_site_fract_z
Si Si1 0.171849 0.598984 0.410856
Si Si2 0.316153 0.103429 0.171873
Si Si3 0.179594 0.845281 0.510529
Si Si4 0.968688 0.893478 0.210482
Si Si5 0.449476 0.732197 0.943109
Si Si6 0.306024 0.602243 0.636990
O O1 0.124999 0.500000 0.404364
O O2 0.283042 0.595022 0.438557
O O3 0.296468 0.637412 0.310143
O O4 0.000000 0.643060 0.500000
O O5 0.451016 0.174735 0.099032
O O6 0.299861 0.116796 0.258208
O O7 0.133709 0.119262 0.200287
O O8 0.360513 0.000000 0.143862
O O9 0.250000 0.750000 0.500000
O O10 0.266526 0.879566 0.411136
O O11 0.977256 0.842057 0.578097
O O12 0.992178 0.837651 0.134447
O O13 0.956920 0.000000 0.203634
O O14 0.500000 0.699387 0.000000
O O15 0.250000 0.750000 0.000000
O O16 0.359426 0.500000 0.618995
#
# Coordination Sequence:
#
# PCOD9210287 Si02
#       6
#     8   8   8   8   8   8
#     4  10  21  39  61  88 130 177 216 260 324 394
#     4  10  22  42  72  97 127 176 228 274 335 413
#     4  11  22  31  55  89 124 164 214 263 308 366
#     4  10  22  44  72  97 132 182 227 275 339 413
#     4  12  26  46  72 104 134 172 219 292 353 406
#     4  10  21  40  61  84 121 172 218 265 310 376
#
# _framework density 20.277529000000001
#
# number of rings (size 3 to 8) (size 9 to 14) (size 15 to 20)
#    0.000    1.500    3.333    2.000    4.667    1.333 
#    3.000    0.000    0.000    0.000    0.000    0.000 
#    0.000    0.000    0.000    0.000    0.000    0.000 
#
# Total GULP energy -133871.928299 kJ/mol
# GULP energy per Si atom -5577.997012 kJ/mol
# Density = 2.023138 g / cm^3
# Si number density = 20.277529 Si / 1000 Ang^3
#
#
#
# Elastic Constant Matrix: (Units=GPa)
#
#
# Indices 1 2 3 4 5 6 
#
# 1 70.1291 19.5269 68.8980 0.0000 11.6539 0.0000
# 2 19.5269 81.9602 55.5639 0.0000 -2.3091 0.0000
# 3 68.8980 55.5639 153.9809 -0.0002 12.8244 0.0000
# 4 0.0000 0.0000 -0.0002 33.2013 0.0001 8.4030
# 5 11.6539 -2.3091 12.8244 0.0001 44.2833 0.0000
# 6 0.0000 0.0000 0.0000 8.4030 0.0000 45.6962
#
#
#
# Elastic Compliance Matrix: (Units=1/GPa)
#
#
# Indices 1 2 3 4 5 6 
#
# 1 0.026195 0.001890 -0.012129 0.000000 -0.003283 0.000000
# 2 0.001890 0.016585 -0.007030 0.000000 0.002403 0.000000
# 3 -0.012129 -0.007030 0.014575 0.000000 -0.001395 0.000000
# 4 0.000000 0.000000 0.000000 0.031589 0.000000 -0.005809
# 5 -0.003283 0.002403 -0.001395 0.000000 0.023975 0.000000
# 6 0.000000 0.000000 0.000000 -0.005809 0.000000 0.022952
#
#
# Mechanical properties :
#
#
# Convention : Reuss Voigt Hill
#
# Bulk Modulus (GPa) = 43.83210 66.00531 54.91871
# Shear Modulus (GPa) = 28.08742 35.44159 31.76451
#
# Velocity S-wave (km/s) = 3.72580 4.18524 3.96218
# Velocity P-wave (km/s) = 6.33812 7.48175 6.93355
#
# Compressibility (1/GPa) = 0.02281433
#
# Stress axis : x y z
#
# Youngs Moduli (GPa) = 38.17495 60.29698 68.61267
#
# Poissons Ratio (x) = -0.11393 0.83223
# Poissons Ratio (y) = -0.07213 0.48236
# Poissons Ratio (z) = 0.46304 0.42390
#
# Static dielectric constant tensor:
#      x y z
#    x 1.786770 0.000000 0.019560 
#    y 0.000000 1.726530 0.000000 
#    z 0.019560 0.000000 1.728830 
# 
# From -- ./inp_files/305622.got.cif
#   From: 2010.05.17/outbox.cif.g08.bks.cpg/sg12_153_cif.got.tgz:305622.got - 2010.06.03 13:09:07.
