data_PCOD9210116
_publ_section_title
;
Structure prediction by ZEFSAII (Michael W. Deem and Ramdas Pophale) SiO2 
 PCOD9210116
Probable space group: C 2/M
;
_chemical_formula_sum "Si O2"
_cell_formula_units_Z 58
_cell_length_a 16.646772
_cell_length_b 14.302226
_cell_length_c 12.366838
_cell_angle_alpha 90.000000
_cell_angle_beta 90.084073
_cell_angle_gamma 90.000000
_cell_volume 2944.366528
_symmetry_space_group_name_H-M "C 2/M"
_symmetry_group_IT_number 12
_symmetry_cell_setting 'monoclinic'
loop_
_space_group_symop_operation_xyz
x,y,z
-x,y,-z
-x,-y,-z
x,-y,z
1/2+x,1/2+y,z
1/2-x,1/2+y,-z
1/2-x,1/2-y,-z
1/2+x,1/2-y,z
loop_
_atom_site_type_symbol
_atom_site_label
_atom_site_fract_x
_atom_site_fract_y
_atom_site_fract_z
Si Si1 0.116317 0.691283 0.190163
Si Si2 0.685905 0.889665 0.628350
Si Si3 0.000000 0.000000 0.500000
Si Si4 0.181268 0.102976 0.191826
Si Si5 0.719701 0.887329 0.384626
Si Si6 0.807464 0.336762 0.026174
Si Si7 0.566958 0.210390 0.789356
Si Si8 0.401599 0.601722 0.317773
O O1 0.129185 0.803733 0.174108
O O2 0.163235 0.661302 0.297401
O O3 0.022299 0.672221 0.198364
O O4 0.155959 0.636585 0.089164
O O5 0.767859 0.881117 0.698009
O O6 0.699403 0.857214 0.506325
O O7 0.615681 0.837783 0.691868
O O8 0.667199 0.000000 0.626158
O O9 0.042810 0.920016 0.578452
O O10 0.248841 0.099649 0.097743
O O11 0.141261 0.000000 0.198740
O O12 0.812731 0.868790 0.356365
O O13 0.709699 0.000000 0.379475
O O14 0.880426 0.307041 0.103880
O O15 0.750000 0.250000 0.000000
O O16 0.564242 0.319578 0.759574
O O17 0.393251 0.500000 0.261944
#
# Coordination Sequence:
#
# PCOD9210116 Si02
#       8
#     8   8   2   8   8   8   8   8
#     4  11  23  36  57  90 119 157 194 245 298 362
#     4   9  20  38  59  83 113 157 200 249 283 351
#     4   8  20  36  56  88 120 150 194 244 290 342
#     4   9  19  37  60  86 113 150 198 241 292 349
#     4  10  21  39  60  84 116 157 204 241 297 356
#     4   9  19  39  61  80 110 152 203 246 287 346
#     4  11  22  37  59  86 124 155 192 247 310 347
#     4   9  20  38  57  85 120 158 199 242 291 358
#
# _framework density 19.698633999999998
#
# number of rings (size 3 to 8) (size 9 to 14) (size 15 to 20)
#    0.414    1.931    0.000    2.897    0.000    6.621 
#    2.483    5.517    0.000    8.276    0.000    0.000 
#    0.000    0.000    0.000    0.000    0.000    0.000 
#
# Total GULP energy -161475.573595 kJ/mol
# GULP energy per Si atom -5568.123227 kJ/mol
# Density = 1.965380 g / cm^3
# Si number density = 19.698634 Si / 1000 Ang^3
#
#
#
# Elastic Constant Matrix: (Units=GPa)
#
#
# Indices 1 2 3 4 5 6 
#
# 1 43.3603 8.4249 8.0765 0.0000 4.1018 0.0000
# 2 8.4249 37.7587 15.2910 0.0000 4.6326 0.0000
# 3 8.0765 15.2910 97.7296 0.0000 -2.8901 0.0000
# 4 0.0000 0.0000 0.0000 -243.8834 0.0000 -59.3443
# 5 4.1018 4.6326 -2.8901 0.0000 21.5114 0.0000
# 6 0.0000 0.0000 0.0000 -59.3443 0.0000 1.6395
#
#
#
# Elastic Compliance Matrix: (Units=1/GPa)
#
#
# Indices 1 2 3 4 5 6 
#
# 1 0.024562 -0.004409 -0.001456 0.000000 -0.003930 0.000000
# 2 -0.004409 0.030066 -0.004524 0.000000 -0.006242 0.000000
# 3 -0.001456 -0.004524 0.011142 0.000000 0.002749 0.000000
# 4 0.000000 0.000000 0.000000 -0.000418 0.000000 -0.015133
# 5 -0.003930 -0.006242 0.002749 0.000000 0.048950 0.000000
# 6 0.000000 0.000000 0.000000 -0.015133 0.000000 0.062190
#
#
# Mechanical properties :
#
#
# Convention : Reuss Voigt Hill
#
# Bulk Modulus (GPa) = 22.22657 26.93705 24.58181
# Shear Modulus (GPa) = 23.55522 -34.34277 -5.39377
#
# Velocity S-wave (km/s) = 3.46176 -4.17994 -1.65653
# Velocity P-wave (km/s) = 5.22361 3.09704 2.97443
#
# Compressibility (1/GPa) = 0.04499121
#
# Stress axis : x y z
#
# Youngs Moduli (GPa) = 40.71300 33.26049 89.75156
#
# Poissons Ratio (x) = 0.14663 0.13070
# Poissons Ratio (y) = 0.17949 0.40607
# Poissons Ratio (z) = 0.05929 0.15048
#
# Static dielectric constant tensor:
#      x y z
#    x 1.650270 0.000000 -0.016110 
#    y 0.000000 1.731700 0.000000 
#    z -0.016110 0.000000 1.676180 
# 
# From -- ./inp_files/156095.got.cif
#   From: 2010.05.17/outbox.cif.g08.bks.cpg/sg12_79_cif.got.tgz:156095.got - 2010.06.03 13:09:07.
