data_PCOD9210356
_publ_section_title
;
Structure prediction by ZEFSAII (Michael W. Deem and Ramdas Pophale) SiO2 
 PCOD9210356
Probable space group: C 2/M
;
_chemical_formula_sum "Si O2"
_cell_formula_units_Z 48
_cell_length_a 30.609668
_cell_length_b 8.947570
_cell_length_c 11.917969
_cell_angle_alpha 90.000000
_cell_angle_beta 119.717305
_cell_angle_gamma 90.000000
_cell_volume 2834.827995
_symmetry_space_group_name_H-M "C 2/M"
_symmetry_group_IT_number 12
_symmetry_cell_setting 'monoclinic'
loop_
_space_group_symop_operation_xyz
x,y,z
-x,y,-z
-x,-y,-z
x,-y,z
1/2+x,1/2+y,z
1/2-x,1/2+y,-z
1/2-x,1/2-y,-z
1/2+x,1/2-y,z
loop_
_atom_site_type_symbol
_atom_site_label
_atom_site_fract_x
_atom_site_fract_y
_atom_site_fract_z
Si Si1 0.695234 0.820247 0.918933
Si Si2 0.427877 0.823192 0.618848
Si Si3 0.622296 0.676339 0.646610
Si Si4 0.444850 0.321843 0.882157
Si Si5 0.041241 0.671113 0.690812
Si Si6 0.388172 0.826875 0.006112
O O1 0.666227 0.755626 0.773713
O O2 0.660850 0.783131 0.984201
O O3 0.697088 0.000000 0.913810
O O4 0.750000 0.750000 0.000000
O O5 0.386980 0.743848 0.488153
O O6 0.432908 0.755297 0.748916
O O7 0.482474 0.801986 0.629729
O O8 0.418591 0.000000 0.613170
O O9 0.630356 0.500000 0.652724
O O10 0.571774 0.716083 0.652425
O O11 0.445663 0.500000 0.868631
O O12 0.500000 0.275759 0.000000
O O13 0.403787 0.273589 0.921907
O O14 0.049605 0.500000 0.659862
O O15 0.066632 0.679228 0.845629
O O16 0.382892 0.000000 0.963815
#
# Coordination Sequence:
#
# PCOD9210356 Si02
#       6
#     8   8   8   8   8   8
#     4  10  21  39  62  86 108 136 177 224 276 327
#     4  11  21  34  52  72 105 150 188 221 263 319
#     4  11  22  34  51  78 110 140 176 224 275 323
#     4  11  22  33  49  77 112 147 186 227 264 310
#     4   9  18  32  50  73 104 144 185 221 262 318
#     4   9  18  34  54  78 107 143 184 220 261 320
#
# _framework density 16.932245000000002
#
# number of rings (size 3 to 8) (size 9 to 14) (size 15 to 20)
#    0.000    1.833    1.667    4.500    0.000    7.333 
#    0.000    0.000    0.000    1.000    0.000    0.000 
#    0.000    0.000    0.000    0.000    0.000    0.000 
#
# Total GULP energy -133990.893716 kJ/mol
# GULP energy per Si atom -5582.953905 kJ/mol
# Density = 1.689371 g / cm^3
# Si number density = 16.932245 Si / 1000 Ang^3
#
#
#
# Elastic Constant Matrix: (Units=GPa)
#
#
# Indices 1 2 3 4 5 6 
#
# 1 79.1898 50.4113 60.8112 0.0000 13.9377 0.0000
# 2 50.4113 92.3446 73.7609 0.0000 1.8740 0.0000
# 3 60.8112 73.7609 132.8987 0.0000 -3.2668 0.0000
# 4 0.0000 0.0000 0.0000 31.1708 0.0000 10.2260
# 5 13.9377 1.8740 -3.2668 0.0000 16.1464 0.0000
# 6 0.0000 0.0000 0.0000 10.2260 0.0000 -164.3968
#
#
#
# Elastic Compliance Matrix: (Units=1/GPa)
#
#
# Indices 1 2 3 4 5 6 
#
# 1 0.030178 -0.007830 -0.010131 0.000000 -0.027191 0.000000
# 2 -0.007830 0.021810 -0.008460 0.000000 0.002516 0.000000
# 3 -0.010131 -0.008460 0.017181 0.000000 0.013204 0.000000
# 4 0.000000 0.000000 0.000000 0.031440 0.000000 0.001956
# 5 -0.027191 0.002516 0.013204 0.000000 0.087785 0.000000
# 6 0.000000 0.000000 0.000000 0.001956 0.000000 -0.005961
#
#
# Mechanical properties :
#
#
# Convention : Reuss Voigt Hill
#
# Bulk Modulus (GPa) = 61.25414 74.93331 68.09372
# Shear Modulus (GPa) = 20.77124 -15.45261 2.65932
#
# Velocity S-wave (km/s) = 3.50627 -3.02423 1.25458
# Velocity P-wave (km/s) = 7.25579 5.67065 6.51163
#
# Compressibility (1/GPa) = 0.01632543
#
# Stress axis : x y z
#
# Youngs Moduli (GPa) = 33.13639 45.85025 58.20538
#
# Poissons Ratio (x) = 0.35901 0.58970
# Poissons Ratio (y) = 0.25946 0.49243
# Poissons Ratio (z) = 0.33572 0.38791
#
# Static dielectric constant tensor:
#      x y z
#    x 1.557320 0.000000 -0.004060 
#    y 0.000000 1.566850 0.000000 
#    z -0.004060 0.000000 1.576460 
# 
# From -- ./inp_files/179198.got.cif
#   From: 2010.05.17/outbox.cif.g08.bks.cpg/sg12_90_cif.got.tgz:179198.got - 2010.06.03 13:09:07.
