data_PCOD9210716
_publ_section_title
;
Structure prediction by ZEFSAII (Michael W. Deem and Ramdas Pophale) SiO2 
 PCOD9210716
Probable space group: C 2/M
;
_chemical_formula_sum "Si O2"
_cell_formula_units_Z 48
_cell_length_a 14.360978
_cell_length_b 15.202622
_cell_length_c 11.716326
_cell_angle_alpha 90.000000
_cell_angle_beta 113.461263
_cell_angle_gamma 90.000000
_cell_volume 2346.493199
_symmetry_space_group_name_H-M "C 2/M"
_symmetry_group_IT_number 12
_symmetry_cell_setting 'monoclinic'
loop_
_space_group_symop_operation_xyz
x,y,z
-x,y,-z
-x,-y,-z
x,-y,z
1/2+x,1/2+y,z
1/2-x,1/2+y,-z
1/2-x,1/2-y,-z
1/2+x,1/2-y,z
loop_
_atom_site_type_symbol
_atom_site_label
_atom_site_fract_x
_atom_site_fract_y
_atom_site_fract_z
Si Si1 0.312114 0.095112 0.705714
Si Si2 0.845017 0.247126 0.885658
Si Si3 0.047196 0.101640 0.214752
Si Si4 0.391325 0.250237 0.164888
Si Si5 0.048298 0.341277 0.410632
Si Si6 0.394205 0.645605 0.508915
O O1 0.355194 0.172989 0.803358
O O2 0.375265 0.098717 0.620010
O O3 0.197112 0.114650 0.613866
O O4 0.320365 0.000000 0.765500
O O5 0.894644 0.160812 0.851655
O O6 0.724099 0.239854 0.849955
O O7 0.893327 0.270529 0.031283
O O8 0.108080 0.107947 0.364230
O O9 0.941020 0.151831 0.191228
O O10 0.034627 0.000000 0.175725
O O11 0.461699 0.191982 0.280870
O O12 0.105548 0.251572 0.477857
O O13 0.000000 0.381065 0.500000
O O14 0.500000 0.621793 0.500000
#
# Coordination Sequence:
#
# PCOD9210716 Si02
#       6
#     8   8   8   8   8   8
#     4  12  24  38  63  94 127 171 213 256 314 389
#     4  11  23  42  65  91 133 168 217 262 323 385
#     4  11  23  40  69 100 129 167 219 276 329 384
#     4  10  23  42  65  91 129 173 206 264 328 382
#     4  10  21  39  65  89 122 164 209 256 321 377
#     4  10  21  39  63  92 129 163 208 270 328 378
#
# _framework density 20.456057000000001
#
# number of rings (size 3 to 8) (size 9 to 14) (size 15 to 20)
#    0.000    1.333    3.333    4.500    2.333    5.000 
#    0.000    5.000    0.000    0.000    0.000    0.000 
#    0.000    0.000    0.000    0.000    0.000    0.000 
#
# Total GULP energy -134112.294800 kJ/mol
# GULP energy per Si atom -5588.012283 kJ/mol
# Density = 2.040950 g / cm^3
# Si number density = 20.456057 Si / 1000 Ang^3
#
#
#
# Elastic Constant Matrix: (Units=GPa)
#
#
# Indices 1 2 3 4 5 6 
#
# 1 102.0969 46.4450 38.3097 0.0000 -10.8046 0.0000
# 2 46.4450 78.6539 35.8099 0.0000 7.0476 0.0000
# 3 38.3097 35.8099 93.4576 0.0000 -15.0154 0.0000
# 4 0.0000 0.0000 0.0000 -6.6750 0.0000 9.2243
# 5 -10.8046 7.0476 -15.0154 0.0000 35.8464 0.0000
# 6 0.0000 0.0000 0.0000 9.2243 0.0000 -12.7598
#
#
#
# Elastic Compliance Matrix: (Units=1/GPa)
#
#
# Indices 1 2 3 4 5 6 
#
# 1 0.014925 -0.008340 -0.002076 0.000000 0.005269 0.000000
# 2 -0.008340 0.021319 -0.006247 0.000000 -0.009322 0.000000
# 3 -0.002076 -0.006247 0.015055 0.000000 0.006909 0.000000
# 4 0.000000 0.000000 0.000000********** 0.000000**********
# 5 0.005269 -0.009322 0.006909 0.000000 0.034212 0.000000
# 6 0.000000 0.000000 0.000000********** 0.000000-79.515992
#
#
# Mechanical properties :
#
#
# Convention : Reuss Voigt Hill
#
# Bulk Modulus (GPa) = 55.64434 57.25976 56.45205
# Shear Modulus (GPa) = -0.02161 13.52524 6.75182
#
# Velocity S-wave (km/s) = -0.10289 2.57414 1.81874
# Velocity P-wave (km/s) = 5.21985 6.07349 5.66278
#
# Compressibility (1/GPa) = 0.01797128
#
# Stress axis : x y z
#
# Youngs Moduli (GPa) = 67.00073 46.90750 66.42407
#
# Poissons Ratio (x) = 0.39122 0.13788
# Poissons Ratio (y) = 0.55881 0.41498
# Poissons Ratio (z) = 0.13908 0.29305
#
# Static dielectric constant tensor:
#      x y z
#    x 1.754770 0.000000 -0.012280 
#    y 0.000000 1.719410 0.000000 
#    z -0.012280 0.000000 1.734090 
# 
# From -- ./inp_files/143905.got.cif
#   From: 2010.05.17/outbox.cif.g08.bks.cpg/sg12_72_cif.got.tgz:143905.got - 2010.06.03 13:09:07.
