data_PCOD9210987
_publ_section_title
;
Structure prediction by ZEFSAII (Michael W. Deem and Ramdas Pophale) SiO2 
 PCOD9210987
Probable space group: C 2/M
;
_chemical_formula_sum "Si O2"
_cell_formula_units_Z 42
_cell_length_a 9.397904
_cell_length_b 27.156972
_cell_length_c 6.822830
_cell_angle_alpha 90.000000
_cell_angle_beta 86.834999
_cell_angle_gamma 90.000000
_cell_volume 1738.657162
_symmetry_space_group_name_H-M "C 2/M"
_symmetry_group_IT_number 12
_symmetry_cell_setting 'monoclinic'
loop_
_space_group_symop_operation_xyz
x,y,z
-x,y,-z
-x,-y,-z
x,-y,z
1/2+x,1/2+y,z
1/2-x,1/2+y,-z
1/2-x,1/2-y,-z
1/2+x,1/2-y,z
loop_
_atom_site_type_symbol
_atom_site_label
_atom_site_fract_x
_atom_site_fract_y
_atom_site_fract_z
Si Si1 0.500000 0.500000 0.000000
Si Si2 0.149698 0.596546 0.542288
Si Si3 0.352884 0.556318 0.226113
Si Si4 0.023476 0.787982 0.225907
Si Si5 0.245303 0.135592 0.078739
Si Si6 0.197161 0.306185 0.287678
O O1 0.517044 0.545072 0.174180
O O2 0.280035 0.566003 0.436784
O O3 0.160463 0.607917 0.769832
O O4 0.150180 0.649345 0.430433
O O5 0.000000 0.571626 0.500000
O O6 0.318754 0.500000 0.139166
O O7 0.301544 0.598982 0.089744
O O8 0.118416 0.837533 0.207549
O O9 0.108685 0.743530 0.316528
O O10 0.134659 0.798258 0.685764
O O11 0.000000 0.775127 0.000000
O O12 0.317430 0.177955 0.940397
#
# Coordination Sequence:
#
# PCOD9210987 Si02
#       6
#     2   8   8   8   8   8
#     4   8  20  44  72  94 126 164 212 270 330 398
#     4  11  26  42  63  98 134 172 220 267 325 395
#     4   9  22  43  69  94 127 165 214 272 324 396
#     4  10  21  39  65  92 125 177 222 268 324 387
#     4  10  22  41  66  93 129 174 213 272 333 381
#     4  10  24  41  63  92 134 175 225 272 321 392
#
# _framework density 24.156575
#
# number of rings (size 3 to 8) (size 9 to 14) (size 15 to 20)
#    0.571    1.524    0.000    2.286   12.000    4.952 
#    0.000    1.905    0.000    0.000    0.000    0.000 
#    0.000    0.000    0.000    0.000    0.000    0.000 
#
# Total GULP energy -117006.332457 kJ/mol
# GULP energy per Si atom -5571.730117 kJ/mol
# Density = 2.410159 g / cm^3
# Si number density = 24.156575 Si / 1000 Ang^3
#
#
#
# Elastic Constant Matrix: (Units=GPa)
#
#
# Indices 1 2 3 4 5 6 
#
# 1 47.3466 17.0610 22.5682 0.0000 -6.9112 0.0000
# 2 17.0610 95.9786 11.9908 0.0000 -6.5420 0.0000
# 3 22.5682 11.9908 110.3825 0.0000 -10.1890 0.0000
# 4 0.0000 0.0000 0.0000 14.6195 0.0000 -22.0018
# 5 -6.9112 -6.5420 -10.1890 0.0000 27.5613 0.0000
# 6 0.0000 0.0000 0.0000 -22.0018 0.0000 27.4801
#
#
#
# Elastic Compliance Matrix: (Units=1/GPa)
#
#
# Indices 1 2 3 4 5 6 
#
# 1 0.025079 -0.003652 -0.004380 0.000000 0.003803 0.000000
# 2 -0.003652 0.011219 -0.000322 0.000000 0.001628 0.000000
# 3 -0.004380 -0.000322 0.010231 0.000000 0.002607 0.000000
# 4 0.000000 0.000000 0.000000 -0.333764 0.000000 -0.267227
# 5 0.003803 0.001628 0.002607 0.000000 0.038587 0.000000
# 6 0.000000 0.000000 0.000000 -0.267227 0.000000 -0.177564
#
#
# Mechanical properties :
#
#
# Convention : Reuss Voigt Hill
#
# Bulk Modulus (GPa) = 33.53173 39.66083 36.59628
# Shear Modulus (GPa) = -12.51361 27.40470 7.44555
#
# Velocity S-wave (km/s) = -2.27848 3.37183 1.75752
# Velocity P-wave (km/s) = 2.64371 5.62253 4.39329
#
# Compressibility (1/GPa) = 0.02982250
#
# Stress axis : x y z
#
# Youngs Moduli (GPa) = 39.87321 89.13202 97.74658
#
# Poissons Ratio (x) = 0.32548 0.42812
# Poissons Ratio (y) = 0.14560 0.03146
# Poissons Ratio (z) = 0.17464 0.02869
#
# Static dielectric constant tensor:
#      x y z
#    x 2.012780 0.000000 -0.031460 
#    y 0.000000 1.969620 0.000000 
#    z -0.031460 0.000000 1.987490 
# 
# From -- ./inp_files/8480.got.cif
#   From: 2010.05.17/outbox.cif.g08.bks.cpg/sg12_5_cif.got.tgz:8480.got - 2010.06.03 13:09:07.
