data_PCOD9210480
_publ_section_title
;
Structure prediction by ZEFSAII (Michael W. Deem and Ramdas Pophale) SiO2 
 PCOD9210480
Probable space group: C 2/M
;
_chemical_formula_sum "Si O2"
_cell_formula_units_Z 56
_cell_length_a 19.175180
_cell_length_b 9.189631
_cell_length_c 16.604733
_cell_angle_alpha 90.000000
_cell_angle_beta 75.765052
_cell_angle_gamma 90.000000
_cell_volume 2836.126741
_symmetry_space_group_name_H-M "C 2/M"
_symmetry_group_IT_number 12
_symmetry_cell_setting 'monoclinic'
loop_
_space_group_symop_operation_xyz
x,y,z
-x,y,-z
-x,-y,-z
x,-y,z
1/2+x,1/2+y,z
1/2-x,1/2+y,-z
1/2-x,1/2-y,-z
1/2+x,1/2-y,z
loop_
_atom_site_type_symbol
_atom_site_label
_atom_site_fract_x
_atom_site_fract_y
_atom_site_fract_z
Si Si1 0.916818 0.325993 0.525125
Si Si2 0.202212 0.173075 0.340509
Si Si3 0.603266 0.831208 0.926748
Si Si4 0.039810 0.827256 0.792704
Si Si5 0.643471 0.825463 0.635224
Si Si6 0.273254 0.668580 0.855407
Si Si7 0.095487 0.671081 0.114634
O O1 0.916809 0.500000 0.537416
O O2 0.867951 0.252585 0.606659
O O3 0.879910 0.295770 0.449398
O O4 0.000000 0.277273 0.500000
O O5 0.274436 0.217721 0.368295
O O6 0.216516 0.199846 0.242262
O O7 0.193355 0.000000 0.353882
O O8 0.572020 0.724349 0.869154
O O9 0.689611 0.817812 0.900168
O O10 0.585487 0.000000 0.910161
O O11 0.578701 0.804915 0.024960
O O12 0.089660 0.755873 0.710560
O O13 0.959833 0.760739 0.815087
O O14 0.038518 0.000000 0.785846
O O15 0.637994 0.000000 0.651078
O O16 0.294169 0.500000 0.864037
O O17 0.324552 0.773564 0.890538
O O18 0.089040 0.500000 0.132468
#
# Coordination Sequence:
#
# PCOD9210480 Si02
#       7
#     8   8   8   8   8   8   8
#     4  10  23  40  62  94 125 155 198 251 299 356
#     4  10  21  39  64  89 120 163 201 244 302 361
#     4  10  21  42  65  87 121 164 206 250 307 370
#     4  12  25  39  61  92 124 160 207 259 304 357
#     4  10  21  42  65  86 122 166 203 245 304 364
#     4  10  21  39  62  90 125 160 203 254 304 360
#     4  11  24  39  61  89 122 166 208 251 308 366
#
# _framework density 19.745239000000002
#
# number of rings (size 3 to 8) (size 9 to 14) (size 15 to 20)
#    0.000    1.571    1.429    3.000    2.000    5.429 
#    0.000    0.000    0.000    0.000    0.000    0.000 
#    0.000    0.000    0.000    0.000    0.000    0.000 
#
# Total GULP energy -156574.214212 kJ/mol
# GULP energy per Si atom -5591.936222 kJ/mol
# Density = 1.970030 g / cm^3
# Si number density = 19.745239 Si / 1000 Ang^3
#
#
#
# Elastic Constant Matrix: (Units=GPa)
#
#
# Indices 1 2 3 4 5 6 
#
# 1 39.9257 16.7102 15.8919 0.0000 -10.7880 0.0000
# 2 16.7102 34.2867 27.0344 0.0000 -4.8842 0.0000
# 3 15.8919 27.0344 67.6858 0.0000 -26.5248 0.0000
# 4 0.0000 0.0000 0.0000 25.2583 0.0000 2.6441
# 5 -10.7880 -4.8842 -26.5248 0.0000 35.4900 0.0000
# 6 0.0000 0.0000 0.0000 2.6441 0.0000 19.7773
#
#
#
# Elastic Compliance Matrix: (Units=1/GPa)
#
#
# Indices 1 2 3 4 5 6 
#
# 1 0.033889 -0.017411 0.002963 0.000000 0.010120 0.000000
# 2 -0.017411 0.054011 -0.023541 0.000000 -0.015453 0.000000
# 3 0.002963 -0.023541 0.031910 0.000000 0.021510 0.000000
# 4 0.000000 0.000000 0.000000 0.040153 0.000000 -0.005368
# 5 0.010120 -0.015453 0.021510 0.000000 0.045203 0.000000
# 6 0.000000 0.000000 0.000000 -0.005368 0.000000 0.051281
#
#
# Mechanical properties :
#
#
# Convention : Reuss Voigt Hill
#
# Bulk Modulus (GPa) = 22.81371 29.01904 25.91637
# Shear Modulus (GPa) = 14.40777 21.58921 17.99849
#
# Velocity S-wave (km/s) = 2.70420 3.31023 3.02244
# Velocity P-wave (km/s) = 4.61837 5.41653 5.03330
#
# Compressibility (1/GPa) = 0.04383330
#
# Stress axis : x y z
#
# Youngs Moduli (GPa) = 29.50853 18.51461 31.33781
#
# Poissons Ratio (x) = 0.32236 -0.09286
# Poissons Ratio (y) = 0.51377 0.73771
# Poissons Ratio (z) = -0.08744 0.43585
#
# Static dielectric constant tensor:
#      x y z
#    x 1.704910 0.000000 0.006360 
#    y 0.000000 1.653440 0.000000 
#    z 0.006360 0.000000 1.663720 
# 
# From -- ./inp_files/275097.got.cif
#   From: 2010.05.17/outbox.cif.g08.bks.cpg/sg12_138_cif.got.tgz:275097.got - 2010.06.03 13:09:07.
