data_PCOD9210580
_publ_section_title
;
Structure prediction by ZEFSAII (Michael W. Deem and Ramdas Pophale) SiO2 
 PCOD9210580
Probable space group: C 2/M
;
_chemical_formula_sum "Si O2"
_cell_formula_units_Z 48
_cell_length_a 9.324558
_cell_length_b 19.071299
_cell_length_c 12.836534
_cell_angle_alpha 90.000000
_cell_angle_beta 102.386179
_cell_angle_gamma 90.000000
_cell_volume 2229.606317
_symmetry_space_group_name_H-M "C 2/M"
_symmetry_group_IT_number 12
_symmetry_cell_setting 'monoclinic'
loop_
_space_group_symop_operation_xyz
x,y,z
-x,y,-z
-x,-y,-z
x,-y,z
1/2+x,1/2+y,z
1/2-x,1/2+y,-z
1/2-x,1/2-y,-z
1/2+x,1/2-y,z
loop_
_atom_site_type_symbol
_atom_site_label
_atom_site_fract_x
_atom_site_fract_y
_atom_site_fract_z
Si Si1 0.878997 0.156158 0.745085
Si Si2 0.617521 0.759022 0.708634
Si Si3 0.075290 0.080911 0.912672
Si Si4 0.340505 0.579591 0.529665
Si Si5 0.892842 0.415095 0.886645
Si Si6 0.856911 0.653021 0.658255
O O1 0.737267 0.188965 0.777734
O O2 0.834682 0.135806 0.621219
O O3 0.011769 0.212239 0.764330
O O4 0.951670 0.088124 0.806036
O O5 0.721963 0.707030 0.659324
O O6 0.495586 0.806189 0.632001
O O7 0.230315 0.107721 0.897539
O O8 0.105569 0.000000 0.943390
O O9 0.000000 0.116720 0.000000
O O10 0.500000 0.585808 0.500000
O O11 0.326744 0.500000 0.566609
O O12 0.214123 0.595158 0.426407
O O13 0.897990 0.500000 0.872411
O O14 0.912023 0.378414 0.777503
O O15 0.000000 0.398280 0.000000
#
# Coordination Sequence:
#
# PCOD9210580 Si02
#       6
#     8   8   8   8   8   8
#     4  11  22  42  60  91 120 156 199 245 287 361
#     4  10  24  39  63  84 124 162 199 233 298 344
#     4  10  21  39  63  88 118 156 198 248 300 349
#     4  11  22  38  66  93 118 155 194 246 301 346
#     4  10  21  39  63  88 118 156 198 248 300 349
#     4  11  22  42  60  91 120 156 199 245 287 361
#
# _framework density 21.528465000000001
#
# number of rings (size 3 to 8) (size 9 to 14) (size 15 to 20)
#    0.000    1.500    3.333    1.000    2.333    7.333 
#    0.000    8.333    0.000    0.000    0.000    0.000 
#    0.000    0.000    0.000    0.000    0.000    0.000 
#
# Total GULP energy -133830.928668 kJ/mol
# GULP energy per Si atom -5576.288695 kJ/mol
# Density = 2.147947 g / cm^3
# Si number density = 21.528465 Si / 1000 Ang^3
#
#
#
# Elastic Constant Matrix: (Units=GPa)
#
#
# Indices 1 2 3 4 5 6 
#
# 1 114.3879 32.4564 26.1796 0.0000 19.7023 0.0000
# 2 32.4564 61.1131 25.3826 0.0000 11.1486 0.0000
# 3 26.1796 25.3826 107.1093 0.0000 13.4395 0.0000
# 4 0.0000 0.0000 0.0000 -13.7544 0.0000 7.3367
# 5 19.7023 11.1486 13.4395 0.0000 25.1905 0.0000
# 6 0.0000 0.0000 0.0000 7.3367 0.0000 20.1652
#
#
#
# Elastic Compliance Matrix: (Units=1/GPa)
#
#
# Indices 1 2 3 4 5 6 
#
# 1 0.011318 -0.004469 -0.000905 0.000000 -0.006392 0.000000
# 2 -0.004469 0.020849 -0.003354 0.000000 -0.003942 0.000000
# 3 -0.000905 -0.003354 0.010800 0.000000 -0.003570 0.000000
# 4 0.000000 0.000000 0.000000 -0.060888 0.000000 0.022153
# 5 -0.006392 -0.003942 -0.003570 0.000000 0.048346 0.000000
# 6 0.000000 0.000000 0.000000 0.022153 0.000000 0.041531
#
#
# Mechanical properties :
#
#
# Convention : Reuss Voigt Hill
#
# Bulk Modulus (GPa) = 39.19874 50.07193 44.63534
# Shear Modulus (GPa) = 51.06437 19.55971 35.31204
#
# Velocity S-wave (km/s) = 4.87555 3.01749 4.05439
# Velocity P-wave (km/s) = 7.06697 5.95393 6.53419
#
# Compressibility (1/GPa) = 0.02551102
#
# Stress axis : x y z
#
# Youngs Moduli (GPa) = 88.35241 47.96480 92.59079
#
# Poissons Ratio (x) = 0.21435 0.08383
# Poissons Ratio (y) = 0.39485 0.31052
# Poissons Ratio (z) = 0.07999 0.16086
#
# Static dielectric constant tensor:
#      x y z
#    x 1.772270 0.000000 -0.011450 
#    y 0.000000 1.819110 0.000000 
#    z -0.011450 0.000000 1.810160 
# 
# From -- ./inp_files/197182.got.cif
#   From: 2010.05.17/outbox.cif.g08.bks.cpg/sg12_99_cif.got.tgz:197182.got - 2010.06.03 13:09:07.
