data_PCOD9210327
_publ_section_title
;
Structure prediction by ZEFSAII (Michael W. Deem and Ramdas Pophale) SiO2 
 PCOD9210327
Probable space group: C 2/M
;
_chemical_formula_sum "Si O2"
_cell_formula_units_Z 56
_cell_length_a 9.341938
_cell_length_b 29.830298
_cell_length_c 17.166554
_cell_angle_alpha 90.000000
_cell_angle_beta 32.035283
_cell_angle_gamma 90.000000
_cell_volume 2537.552905
_symmetry_space_group_name_H-M "C 2/M"
_symmetry_group_IT_number 12
_symmetry_cell_setting 'monoclinic'
loop_
_space_group_symop_operation_xyz
x,y,z
-x,y,-z
-x,-y,-z
x,-y,z
1/2+x,1/2+y,z
1/2-x,1/2+y,-z
1/2-x,1/2-y,-z
1/2+x,1/2-y,z
loop_
_atom_site_type_symbol
_atom_site_label
_atom_site_fract_x
_atom_site_fract_y
_atom_site_fract_z
Si Si1 0.871338 0.396006 0.742444
Si Si2 0.500000 0.839602 0.000000
Si Si3 0.299371 0.796869 0.831418
Si Si4 0.742994 0.500000 0.180180
Si Si5 0.273517 0.717926 0.737684
Si Si6 0.414782 0.410423 0.833690
Si Si7 0.237160 0.935648 0.332136
Si Si8 0.094605 0.863858 0.590344
O O1 0.985457 0.432198 0.750103
O O2 0.125542 0.382525 0.570756
O O3 0.796712 0.349736 0.818107
O O4 0.631920 0.414242 0.800912
O O5 0.653854 0.808607 0.868073
O O6 0.687376 0.874259 0.961119
O O7 0.330706 0.768336 0.737791
O O8 0.544227 0.784425 0.776952
O O9 0.000000 0.784852 0.000000
O O10 0.699401 0.459348 0.135676
O O11 0.751797 0.462195 0.245932
O O12 0.544870 0.688748 0.599985
O O13 0.552856 0.385061 0.695481
O O14 0.000000 0.951661 0.500000
O O15 0.143430 0.885885 0.351406
#
# Coordination Sequence:
#
# PCOD9210327 Si02
#       8
#     8   4   8   4   8   8   8   8
#     4  11  22  39  63  92 125 163 212 257 306 369
#     4  10  22  43  68  82 128 172 202 249 322 366
#     4  12  25  38  62  93 126 164 218 255 297 359
#     4  10  21  39  61  93 123 159 206 256 316 375
#     4  11  23  40  61  91 123 166 214 257 300 362
#     4  10  22  39  65  92 121 162 210 258 310 374
#     4   9  18  37  61  86 121 165 201 246 316 373
#     4   9  20  40  60  85 126 168 200 251 319 369
#
# _framework density 22.068505999999999
#
# number of rings (size 3 to 8) (size 9 to 14) (size 15 to 20)
#    0.000    1.714    2.143    1.929    4.000    1.429 
#    0.000    9.286    0.000    0.857    0.000    0.000 
#    0.000    0.000    0.000    0.000    0.000    0.000 
#
# Total GULP energy -155910.294758 kJ/mol
# GULP energy per Si atom -5568.224813 kJ/mol
# Density = 2.201828 g / cm^3
# Si number density = 22.068506 Si / 1000 Ang^3
#
#
#
# Elastic Constant Matrix: (Units=GPa)
#
#
# Indices 1 2 3 4 5 6 
#
# 1 149.1077 33.9657 3.9067 0.0000 -20.4530 0.0000
# 2 33.9657 87.5201 11.1432 0.0000 -5.0349 0.0000
# 3 3.9067 11.1432 30.8261 0.0000 -9.0961 0.0000
# 4 0.0000 0.0000 0.0000 118.9566 0.0000 -10.5342
# 5 -20.4530 -5.0349 -9.0961 0.0000 24.4913 0.0000
# 6 0.0000 0.0000 0.0000 -10.5342 0.0000 24.4651
#
#
#
# Elastic Compliance Matrix: (Units=1/GPa)
#
#
# Indices 1 2 3 4 5 6 
#
# 1 0.008334 -0.003100 0.002168 0.000000 0.007127 0.000000
# 2 -0.003100 0.013151 -0.004860 0.000000 -0.001690 0.000000
# 3 0.002168 -0.004860 0.038366 0.000000 0.015060 0.000000
# 4 0.000000 0.000000 0.000000 0.008740 0.000000 0.003763
# 5 0.007127 -0.001690 0.015060 0.000000 0.052029 0.000000
# 6 0.000000 0.000000 0.000000 0.003763 0.000000 0.042495
#
#
# Mechanical properties :
#
#
# Convention : Reuss Voigt Hill
#
# Bulk Modulus (GPa) = 20.71859 40.60944 30.66402
# Shear Modulus (GPa) = 26.20730 48.14515 37.17623
#
# Velocity S-wave (km/s) = 3.44981 4.67585 4.10882
# Velocity P-wave (km/s) = 5.02762 6.89876 6.03614
#
# Compressibility (1/GPa) = 0.04826582
#
# Stress axis : x y z
#
# Youngs Moduli (GPa) = 119.99616 76.04226 26.06471
#
# Poissons Ratio (x) = 0.23574 -0.05650
# Poissons Ratio (y) = 0.37201 0.12667
# Poissons Ratio (z) = -0.26011 0.36954
#
# Static dielectric constant tensor:
#      x y z
#    x 1.784500 0.000000 -0.002540 
#    y 0.000000 1.753440 0.000000 
#    z -0.002540 0.000000 1.896670 
# 
# From -- ./inp_files/259850.got.cif
#   From: 2010.05.17/outbox.cif.g08.bks.cpg/sg12_130_cif.got.tgz:259850.got - 2010.06.03 13:09:07.
