data_PCOD9210112
_publ_section_title
;
Structure prediction by ZEFSAII (Michael W. Deem and Ramdas Pophale) SiO2 
 PCOD9210112
Probable space group: C 2/M
;
_chemical_formula_sum "Si O2"
_cell_formula_units_Z 56
_cell_length_a 15.671721
_cell_length_b 8.030825
_cell_length_c 24.534033
_cell_angle_alpha 90.000000
_cell_angle_beta 117.143985
_cell_angle_gamma 90.000000
_cell_volume 2747.697157
_symmetry_space_group_name_H-M "C 2/M"
_symmetry_group_IT_number 12
_symmetry_cell_setting 'monoclinic'
loop_
_space_group_symop_operation_xyz
x,y,z
-x,y,-z
-x,-y,-z
x,-y,z
1/2+x,1/2+y,z
1/2-x,1/2+y,-z
1/2-x,1/2-y,-z
1/2+x,1/2-y,z
loop_
_atom_site_type_symbol
_atom_site_label
_atom_site_fract_x
_atom_site_fract_y
_atom_site_fract_z
Si Si1 0.805208 0.307020 0.856328
Si Si2 0.422352 0.203618 0.431770
Si Si3 0.987325 0.299932 0.654975
Si Si4 0.662839 0.304846 0.013489
Si Si5 0.907833 0.696248 0.207698
Si Si6 0.228513 0.800661 0.431534
Si Si7 0.989840 0.297249 0.117026
O O1 0.790810 0.500000 0.838599
O O2 0.705240 0.217341 0.816705
O O3 0.899224 0.245561 0.852146
O O4 0.830253 0.290020 0.927576
O O5 0.500000 0.253927 0.500000
O O6 0.457435 0.261904 0.382886
O O7 0.316910 0.258504 0.419743
O O8 0.422147 0.000000 0.431212
O O9 0.999159 0.500000 0.658666
O O10 0.033143 0.233153 0.724149
O O11 0.874993 0.263788 0.616549
O O12 0.672205 0.500000 0.028194
O O13 0.566657 0.269840 0.951747
O O14 0.750000 0.250000 0.000000
O O15 0.929519 0.500000 0.211298
O O16 0.938382 0.762612 0.157279
O O17 0.250000 0.750000 0.500000
O O18 0.226715 0.000000 0.428659
O O19 0.985876 0.500000 0.112833
#
# Coordination Sequence:
#
# PCOD9210112 Si02
#       7
#     8   8   8   8   8   8   8
#     4  11  23  39  61  87 119 157 196 243 296 345
#     4   9  17  33  57  82 113 149 184 227 286 347
#     4  10  21  39  60  84 115 154 196 237 287 345
#     4  12  23  37  61  91 119 152 196 247 299 349
#     4  10  22  40  61  83 115 159 199 238 288 350
#     4  11  21  35  58  86 114 148 187 235 292 346
#     4  10  22  40  60  86 121 158 195 242 298 347
#
# _framework density 20.380703
#
# number of rings (size 3 to 8) (size 9 to 14) (size 15 to 20)
#    0.000    1.571    2.857    2.571    0.000    4.571 
#    0.000    2.143    0.000    0.000    0.000    0.000 
#    0.000    0.000    0.000    0.000    0.000    0.000 
#
# Total GULP energy -156472.651700 kJ/mol
# GULP energy per Si atom -5588.308989 kJ/mol
# Density = 2.033432 g / cm^3
# Si number density = 20.380703 Si / 1000 Ang^3
#
#
#
# Elastic Constant Matrix: (Units=GPa)
#
#
# Indices 1 2 3 4 5 6 
#
# 1 113.0696 -8.9747 24.6940 0.0000 17.0357 0.0000
# 2 -8.9747 13.6975 -9.1533 0.0000 -6.9262 0.0000
# 3 24.6940 -9.1533 110.1351 0.0000 18.4693 0.0000
# 4 0.0000 0.0000 0.0000 14.6424 0.0000 10.8823
# 5 17.0357 -6.9262 18.4693 0.0000 18.1648 0.0000
# 6 0.0000 0.0000 0.0000 10.8823 0.0000 25.5919
#
#
#
# Elastic Compliance Matrix: (Units=1/GPa)
#
#
# Indices 1 2 3 4 5 6 
#
# 1 0.010415 0.002184 -0.000790 0.000000 -0.008132 0.000000
# 2 0.002184 0.091303 0.001933 0.000000 0.030799 0.000000
# 3 -0.000790 0.001933 0.011055 0.000000 -0.009762 0.000000
# 4 0.000000 0.000000 0.000000 0.099851 0.000000 -0.042459
# 5 -0.008132 0.030799 -0.009762 0.000000 0.084347 0.000000
# 6 0.000000 0.000000 0.000000 -0.042459 0.000000 0.057130
#
#
# Mechanical properties :
#
#
# Convention : Reuss Voigt Hill
#
# Bulk Modulus (GPa) = 8.37320 27.78158 18.07739
# Shear Modulus (GPa) = 12.91139 27.03556 19.97348
#
# Velocity S-wave (km/s) = 2.51969 3.64610 3.13392
# Velocity P-wave (km/s) = 3.54718 5.60235 4.68875
#
# Compressibility (1/GPa) = 0.11942870
#
# Stress axis : x y z
#
# Youngs Moduli (GPa) = 96.01369 10.95249 90.46005
#
# Poissons Ratio (x) = -0.02392 0.07147
# Poissons Ratio (y) = -0.20973 -0.17490
# Poissons Ratio (z) = 0.07586 -0.02118
#
# Static dielectric constant tensor:
#      x y z
#    x 1.726830 0.000000 0.000980 
#    y 0.000000 1.769480 0.000000 
#    z 0.000980 0.000000 1.732300 
# 
# From -- ./inp_files/338492.got.cif
#   From: 2010.05.17/outbox.cif.g08.bks.cpg/sg12_170_cif.got.tgz:338492.got - 2010.06.03 13:09:07.
