data_PCOD9210827
_publ_section_title
;
Structure prediction by ZEFSAII (Michael W. Deem and Ramdas Pophale) SiO2 
 PCOD9210827
Probable space group: C 2/M
;
_chemical_formula_sum "Si O2"
_cell_formula_units_Z 64
_cell_length_a 19.224289
_cell_length_b 19.562064
_cell_length_c 15.748667
_cell_angle_alpha 90.000000
_cell_angle_beta 34.989220
_cell_angle_gamma 90.000000
_cell_volume 3396.122482
_symmetry_space_group_name_H-M "C 2/M"
_symmetry_group_IT_number 12
_symmetry_cell_setting 'monoclinic'
loop_
_space_group_symop_operation_xyz
x,y,z
-x,y,-z
-x,-y,-z
x,-y,z
1/2+x,1/2+y,z
1/2-x,1/2+y,-z
1/2-x,1/2-y,-z
1/2+x,1/2-y,z
loop_
_atom_site_type_symbol
_atom_site_label
_atom_site_fract_x
_atom_site_fract_y
_atom_site_fract_z
Si Si1 0.973846 0.817906 0.625906
Si Si2 0.267390 0.580429 0.828373
Si Si3 0.108550 0.620762 0.837288
Si Si4 0.854586 0.577740 0.388574
Si Si5 0.728053 0.216100 0.113346
Si Si6 0.007100 0.230285 0.084497
Si Si7 0.130019 0.580873 0.142464
Si Si8 0.156473 0.812779 0.596631
O O1 0.893023 0.884493 0.728142
O O2 0.888891 0.752731 0.730541
O O3 0.000000 0.819273 0.500000
O O4 0.088176 0.816989 0.574592
O O5 0.279200 0.500000 0.798730
O O6 0.218452 0.618723 0.793647
O O7 0.175748 0.588646 0.999314
O O8 0.138490 0.583310 0.720618
O O9 0.059344 0.696080 0.861272
O O10 0.000000 0.586973 0.000000
O O11 0.838617 0.500000 0.430503
O O12 0.742194 0.622986 0.528630
O O13 0.987761 0.600377 0.287358
O O14 0.704016 0.135508 0.123975
O O15 0.750000 0.250000 0.000000
O O16 0.850225 0.234621 0.040547
O O17 0.941459 0.196966 0.230766
O O18 0.000000 0.194328 0.000000
O O19 0.143653 0.500000 0.150132
O O20 0.250000 0.750000 0.500000
#
# Coordination Sequence:
#
# PCOD9210827 Si02
#       8
#     8   8   8   8   8   8   8   8
#     4  12  26  39  61  94 129 168 210 259 321 374
#     4  11  22  37  59  89 130 172 209 247 304 389
#     4  11  19  32  56  89 129 165 204 245 297 378
#     4  11  22  36  58  88 124 166 206 253 317 377
#     4  12  21  42  66  90 121 163 212 269 305 366
#     4  11  24  39  65  94 121 162 215 261 316 366
#     4  10  21  39  64  91 119 163 213 261 321 371
#     4  12  24  41  61  90 127 166 207 265 313 374
#
# _framework density 18.845020999999999
#
# number of rings (size 3 to 8) (size 9 to 14) (size 15 to 20)
#    0.000    0.750    5.000    4.125    1.750    1.250 
#    0.000    0.625    0.000    1.875    0.000    0.000 
#    0.000    0.000    0.000    0.000    0.000    0.000 
#
# Total GULP energy -178758.178665 kJ/mol
# GULP energy per Si atom -5586.193083 kJ/mol
# Density = 1.880213 g / cm^3
# Si number density = 18.845021 Si / 1000 Ang^3
#
#
#
# Elastic Constant Matrix: (Units=GPa)
#
#
# Indices 1 2 3 4 5 6 
#
# 1 100.6216 38.6614 21.1790 0.0001 -23.3820 0.0000
# 2 38.6614 96.7516 32.9174 0.0000 -14.9626 0.0000
# 3 21.1790 32.9174 67.3380 0.0003 -8.7847 -0.0002
# 4 0.0001 0.0000 0.0003 28.2392 -0.0001 -6.9008
# 5 -23.3820 -14.9626 -8.7847 -0.0001 35.7027 0.0001
# 6 0.0000 0.0000 -0.0002 -6.9008 0.0001 19.8757
#
#
#
# Elastic Compliance Matrix: (Units=1/GPa)
#
#
# Indices 1 2 3 4 5 6 
#
# 1 0.013257 -0.003760 -0.001451 0.000000 0.006749 0.000000
# 2 -0.003760 0.013992 -0.005386 0.000000 0.002076 0.000000
# 3 -0.001451 -0.005386 0.018102 0.000000 0.001247 0.000000
# 4 0.000000 0.000000 0.000000 0.038695 0.000000 0.013435
# 5 0.006749 0.002076 0.001247 0.000000 0.033606 0.000000
# 6 0.000000 0.000000 0.000000 0.013435 0.000000 0.054977
#
#
# Mechanical properties :
#
#
# Convention : Reuss Voigt Hill
#
# Bulk Modulus (GPa) = 41.39674 50.02522 45.71098
# Shear Modulus (GPa) = 24.76773 28.22706 26.49739
#
# Velocity S-wave (km/s) = 3.62924 3.87441 3.75383
# Velocity P-wave (km/s) = 6.29098 6.82773 6.56485
#
# Compressibility (1/GPa) = 0.02415649
#
# Stress axis : x y z
#
# Youngs Moduli (GPa) = 75.43411 71.47043 55.24103
#
# Poissons Ratio (x) = 0.26872 0.08016
# Poissons Ratio (y) = 0.28362 0.29755
# Poissons Ratio (z) = 0.10946 0.38496
#
# Static dielectric constant tensor:
#      x y z
#    x 1.794390 0.000000 -0.104820 
#    y 0.000000 1.676050 0.000000 
#    z -0.104820 0.000000 1.737190 
# 
# From -- ./inp_files/285208.got.cif
#   From: 2010.05.17/outbox.cif.g08.bks.cpg/sg12_143_cif.got.tgz:285208.got - 2010.06.03 13:09:07.
