data_PCOD9210097
_publ_section_title
;
Structure prediction by ZEFSAII (Michael W. Deem and Ramdas Pophale) SiO2 
 PCOD9210097
Probable space group: C 2/M
;
_chemical_formula_sum "Si O2"
_cell_formula_units_Z 56
_cell_length_a 14.390519
_cell_length_b 8.738035
_cell_length_c 26.460307
_cell_angle_alpha 90.000000
_cell_angle_beta 123.249113
_cell_angle_gamma 90.000000
_cell_volume 2782.559317
_symmetry_space_group_name_H-M "C 2/M"
_symmetry_group_IT_number 12
_symmetry_cell_setting 'monoclinic'
loop_
_space_group_symop_operation_xyz
x,y,z
-x,y,-z
-x,-y,-z
x,-y,z
1/2+x,1/2+y,z
1/2-x,1/2+y,-z
1/2-x,1/2-y,-z
1/2+x,1/2-y,z
loop_
_atom_site_type_symbol
_atom_site_label
_atom_site_fract_x
_atom_site_fract_y
_atom_site_fract_z
Si Si1 0.643309 0.683663 0.995256
Si Si2 0.603173 0.684919 0.099896
Si Si3 0.240403 0.816097 0.325151
Si Si4 0.484063 0.819988 0.697916
Si Si5 0.338406 0.823095 0.456969
Si Si6 0.583062 0.325395 0.422106
Si Si7 0.784271 0.818581 0.228440
O O1 0.646544 0.500000 0.994034
O O2 0.526338 0.730618 0.935092
O O3 0.750000 0.750000 0.000000
O O4 0.638856 0.724478 0.053231
O O5 0.610286 0.500000 0.107563
O O6 0.682778 0.764110 0.163560
O O7 0.116961 0.771927 0.306989
O O8 0.323265 0.766076 0.395200
O O9 0.262235 0.734512 0.279115
O O10 0.249310 0.000000 0.322828
O O11 0.479871 0.780915 0.636684
O O12 0.601717 0.763884 0.753804
O O13 0.468332 0.000000 0.700509
O O14 0.411875 0.731786 0.518918
O O15 0.211850 0.822094 0.441266
O O16 0.373068 0.000000 0.466533
O O17 0.543558 0.500000 0.406305
O O18 0.798125 0.000000 0.230115
#
# Coordination Sequence:
#
# PCOD9210097 Si02
#       7
#     8   8   8   8   8   8   8
#     4   9  19  37  64  92 120 153 190 232 278 329
#     4   9  20  40  60  84 120 159 192 229 281 336
#     4  10  21  39  60  83 113 150 194 245 296 351
#     4  11  22  38  59  82 112 152 196 244 295 350
#     4   8  15  28  49  76 105 140 183 233 294 354
#     4   9  16  28  49  77 108 142 184 237 294 351
#     4  12  25  40  59  86 119 157 198 240 288 344
#
# _framework density 20.125357999999999
#
# number of rings (size 3 to 8) (size 9 to 14) (size 15 to 20)
#    0.000    2.286    0.000    5.143    0.000    6.286 
#    0.000    5.000    0.000    4.286    0.000    0.000 
#    0.000    0.000    0.000    0.000    0.000    0.000 
#
# Total GULP energy -156479.563652 kJ/mol
# GULP energy per Si atom -5588.555845 kJ/mol
# Density = 2.007955 g / cm^3
# Si number density = 20.125358 Si / 1000 Ang^3
#
#
#
# Elastic Constant Matrix: (Units=GPa)
#
#
# Indices 1 2 3 4 5 6 
#
# 1 82.2947 -6.8543 28.9869 0.0000 14.9721 0.0000
# 2 -6.8543 51.2283 19.9753 0.0000 6.0739 0.0000
# 3 28.9869 19.9753 85.4282 0.0000 21.1886 0.0000
# 4 0.0000 0.0000 0.0000 30.4407 0.0000 -0.1110
# 5 14.9721 6.0739 21.1886 0.0000 20.1272 0.0000
# 6 0.0000 0.0000 0.0000 -0.1110 0.0000 26.3479
#
#
#
# Elastic Compliance Matrix: (Units=1/GPa)
#
#
# Indices 1 2 3 4 5 6 
#
# 1 0.015616 0.004778 -0.004300 0.000000 -0.008532 0.000000
# 2 0.004778 0.022979 -0.005945 0.000000 -0.004230 0.000000
# 3 -0.004300 -0.005945 0.018022 0.000000 -0.013980 0.000000
# 4 0.000000 0.000000 0.000000 0.032851 0.000000 0.000138
# 5 -0.008532 -0.004230 -0.013980 0.000000 0.072024 0.000000
# 6 0.000000 0.000000 0.000000 0.000138 0.000000 0.037954
#
#
# Mechanical properties :
#
#
# Convention : Reuss Voigt Hill
#
# Bulk Modulus (GPa) = 21.88991 33.68522 27.78757
# Shear Modulus (GPa) = 22.16213 27.17270 24.66741
#
# Velocity S-wave (km/s) = 3.32204 3.67846 3.50478
# Velocity P-wave (km/s) = 5.06113 5.90046 5.49684
#
# Compressibility (1/GPa) = 0.04568315
#
# Stress axis : x y z
#
# Youngs Moduli (GPa) = 64.03653 43.51729 55.48683
#
# Poissons Ratio (x) = -0.20791 0.23858
# Poissons Ratio (y) = -0.30594 0.32988
# Poissons Ratio (z) = 0.27534 0.25872
#
# Static dielectric constant tensor:
#      x y z
#    x 1.764240 0.000000 0.003370 
#    y 0.000000 1.669190 0.000000 
#    z 0.003370 0.000000 1.694890 
# 
# From -- ./inp_files/339002.got.cif
#   From: 2010.05.17/outbox.cif.g08.bks.cpg/sg12_170_cif.got.tgz:339002.got - 2010.06.03 13:09:07.
