data_PCOD9210166
_publ_section_title
;
Structure prediction by ZEFSAII (Michael W. Deem and Ramdas Pophale) SiO2 
 PCOD9210166
Probable space group: C 2/M
;
_chemical_formula_sum "Si O2"
_cell_formula_units_Z 64
_cell_length_a 18.323227
_cell_length_b 16.737351
_cell_length_c 14.446209
_cell_angle_alpha 90.000000
_cell_angle_beta 131.887468
_cell_angle_gamma 90.000000
_cell_volume 3298.242225
_symmetry_space_group_name_H-M "C 2/M"
_symmetry_group_IT_number 12
_symmetry_cell_setting 'monoclinic'
loop_
_space_group_symop_operation_xyz
x,y,z
-x,y,-z
-x,-y,-z
x,-y,z
1/2+x,1/2+y,z
1/2-x,1/2+y,-z
1/2-x,1/2-y,-z
1/2+x,1/2-y,z
loop_
_atom_site_type_symbol
_atom_site_label
_atom_site_fract_x
_atom_site_fract_y
_atom_site_fract_z
Si Si1 0.346934 0.696422 0.913265
Si Si2 0.958640 0.591700 0.172376
Si Si3 0.224936 0.092342 0.002194
Si Si4 0.500393 0.832547 0.604006
Si Si5 0.352271 0.283565 0.550952
Si Si6 0.952865 0.245296 0.824702
Si Si7 0.665489 0.697579 0.790124
Si Si8 0.616375 0.593367 0.577730
O O1 0.367219 0.721028 0.824252
O O2 0.268540 0.758664 0.884523
O O3 0.300188 0.614471 0.912419
O O4 0.450720 0.706611 0.050680
O O5 0.976153 0.500000 0.156968
O O6 0.992260 0.604513 0.307152
O O7 0.017005 0.660794 0.164764
O O8 0.840497 0.605461 0.076135
O O9 0.159049 0.147251 0.878942
O O10 0.203909 0.000000 0.966903
O O11 0.500000 0.865084 0.500000
O O12 0.399973 0.783362 0.526312
O O13 0.584324 0.765303 0.697758
O O14 0.250000 0.250000 0.500000
O O15 0.422376 0.288149 0.699487
O O16 0.352560 0.363218 0.490545
O O17 0.667589 0.636471 0.706867
O O18 0.500000 0.603934 0.500000
O O19 0.637628 0.500000 0.592372
#
# Coordination Sequence:
#
# PCOD9210166 Si02
#       8
#     8   8   8   8   8   8   8   8
#     4  11  22  39  63  90 119 162 207 247 292 369
#     4  10  21  39  60  91 127 156 196 254 307 354
#     4  11  22  36  61  94 124 154 196 254 309 352
#     4  11  21  37  62  89 119 162 211 245 292 365
#     4  11  21  39  60  87 118 163 201 243 298 359
#     4  10  23  40  60  89 121 164 207 238 301 367
#     4  12  19  38  63  93 120 158 203 248 302 361
#     4  11  23  39  61  94 125 154 201 256 306 355
#
# _framework density 19.404274999999998
#
# number of rings (size 3 to 8) (size 9 to 14) (size 15 to 20)
#    0.000    1.125    5.000    3.000    0.000    0.250 
#    0.000    9.375    0.000    0.000    0.000    0.000 
#    0.000    0.000    0.000    0.000    0.000    0.000 
#
# Total GULP energy -178430.996931 kJ/mol
# GULP energy per Si atom -5575.968654 kJ/mol
# Density = 1.936011 g / cm^3
# Si number density = 19.404275 Si / 1000 Ang^3
#
#
#
# Elastic Constant Matrix: (Units=GPa)
#
#
# Indices 1 2 3 4 5 6 
#
# 1 78.0045 26.0387 5.1641 0.0000 -8.7064 0.0000
# 2 26.0387 69.0179 11.2137 0.0000 -4.4187 0.0000
# 3 5.1641 11.2137 45.7084 0.0000 -9.2400 0.0000
# 4 0.0000 0.0000 0.0000 -2.8291 0.0000 -0.2893
# 5 -8.7064 -4.4187 -9.2400 0.0000 34.0950 0.0000
# 6 0.0000 0.0000 0.0000 -0.2893 0.0000 14.8928
#
#
#
# Elastic Compliance Matrix: (Units=1/GPa)
#
#
# Indices 1 2 3 4 5 6 
#
# 1 0.014993 -0.005501 0.000302 0.000000 0.003197 0.000000
# 2 -0.005501 0.017141 -0.003617 0.000000 -0.000163 0.000000
# 3 0.000302 -0.003617 0.023965 0.000000 0.006103 0.000000
# 4 0.000000 0.000000 0.000000 -0.352770 0.000000 -0.006853
# 5 0.003197 -0.000163 0.006103 0.000000 0.031779 0.000000
# 6 0.000000 0.000000 0.000000 -0.006853 0.000000 0.067013
#
#
# Mechanical properties :
#
#
# Convention : Reuss Voigt Hill
#
# Bulk Modulus (GPa) = 25.99579 30.84043 28.41811
# Shear Modulus (GPa) = -29.86418 19.25270 -5.30574
#
# Velocity S-wave (km/s) = -3.92733 3.15332 -1.65537
# Velocity P-wave (km/s) = 2.67193 5.40241 3.32015
#
# Compressibility (1/GPa) = 0.03846777
#
# Stress axis : x y z
#
# Youngs Moduli (GPa) = 66.69835 58.33800 41.72796
#
# Poissons Ratio (x) = 0.32090 -0.01260
# Poissons Ratio (y) = 0.36689 0.15093
# Poissons Ratio (z) = -0.02014 0.21100
#
# Static dielectric constant tensor:
#      x y z
#    x 1.346520 0.000000 -0.161870 
#    y 0.000000 1.686180 0.000000 
#    z -0.161870 0.000000 1.645870 
# 
# From -- ./inp_files/225745.got.cif
#   From: 2010.05.17/outbox.cif.g08.bks.cpg/sg12_113_cif.got.tgz:225745.got - 2010.06.03 13:09:07.
