data_PCOD9210806
_publ_section_title
;
Structure prediction by ZEFSAII (Michael W. Deem and Ramdas Pophale) SiO2 
 PCOD9210806
Probable space group: C 2/M
;
_chemical_formula_sum "Si O2"
_cell_formula_units_Z 40
_cell_length_a 14.922323
_cell_length_b 15.361456
_cell_length_c 14.842436
_cell_angle_alpha 90.000000
_cell_angle_beta 141.731348
_cell_angle_gamma 90.000000
_cell_volume 2107.219814
_symmetry_space_group_name_H-M "C 2/M"
_symmetry_group_IT_number 12
_symmetry_cell_setting 'monoclinic'
loop_
_space_group_symop_operation_xyz
x,y,z
-x,y,-z
-x,-y,-z
x,-y,z
1/2+x,1/2+y,z
1/2-x,1/2+y,-z
1/2-x,1/2-y,-z
1/2+x,1/2-y,z
loop_
_atom_site_type_symbol
_atom_site_label
_atom_site_fract_x
_atom_site_fract_y
_atom_site_fract_z
Si Si1 0.141156 0.175803 0.547344
Si Si2 0.914925 0.099561 0.024235
Si Si3 0.097544 0.788372 0.308288
Si Si4 0.658337 0.831165 0.890677
Si Si5 0.214794 0.500000 0.258251
Si Si6 0.867153 0.500000 0.007851
O O1 0.109543 0.165108 0.414984
O O2 0.258308 0.254918 0.629563
O O3 0.000000 0.193333 0.500000
O O4 0.214231 0.087635 0.644673
O O5 0.003932 0.152449 0.168432
O O6 0.905482 0.000000 0.045206
O O7 0.000000 0.106042 0.000000
O O8 0.753534 0.136361 0.882732
O O9 0.002560 0.701383 0.252494
O O10 0.750000 0.750000 0.000000
O O11 0.664572 0.910905 0.964719
O O12 0.222054 0.500000 0.155341
O O13 0.041566 0.500000 0.135541
#
# Coordination Sequence:
#
# PCOD9210806 Si02
#       6
#     8   8   8   8   4   4
#     4  11  25  41  62  91 125 172 214 252 314 391
#     4  10  22  37  62  92 118 159 210 264 317 368
#     4  10  24  42  61  89 128 170 210 257 318 379
#     4  10  21  39  64  89 126 164 203 264 323 376
#     4  11  25  40  64  97 127 159 212 267 331 385
#     4  11  22  42  67  97 129 158 207 279 334 370
#
# _framework density 18.982357
#
# number of rings (size 3 to 8) (size 9 to 14) (size 15 to 20)
#    0.000    1.600    3.000    0.300    9.800    1.600 
#    0.000    0.000    0.000    0.600    0.000    0.000 
#    0.000    0.000    0.000    0.000    0.000    0.000 
#
# Total GULP energy -111365.125301 kJ/mol
# GULP energy per Si atom -5568.256265 kJ/mol
# Density = 1.893915 g / cm^3
# Si number density = 18.982357 Si / 1000 Ang^3
#
#
#
# Elastic Constant Matrix: (Units=GPa)
#
#
# Indices 1 2 3 4 5 6 
#
# 1 97.0415 54.1199 42.8867 0.0000 34.1255 0.0000
# 2 54.1199 86.8422 37.3026 0.0000 -5.2374 0.0000
# 3 42.8867 37.3026 81.2415 0.0000 -4.4726 0.0000
# 4 0.0000 0.0000 0.0000 27.4785 0.0000 5.7946
# 5 34.1255 -5.2374 -4.4726 0.0000 25.5012 0.0000
# 6 0.0000 0.0000 0.0000 5.7946 0.0000 21.8663
#
#
#
# Elastic Compliance Matrix: (Units=1/GPa)
#
#
# Indices 1 2 3 4 5 6 
#
# 1 -3.488807 1.964431 1.230856 0.000000 5.288034 -0.000005
# 2 1.964431 -1.091678 -0.699578 0.000000 -2.975696 0.000003
# 3 1.230856 -0.699578 -0.418868 0.000000 -1.864268 0.000002
# 4 0.000000 0.000000 0.000000 0.038546 0.000000 -0.010215
# 5 5.288034 -2.975696 -1.864268 0.000000 -7.975320 0.000008
# 6 -0.000005 0.000003 0.000002 -0.010215 0.000008 0.048439
#
#
# Mechanical properties :
#
#
# Convention : Reuss Voigt Hill
#
# Bulk Modulus (GPa) = -126.00217 59.30484 -33.34867
# Shear Modulus (GPa) = -0.27961 23.69026 11.70532
#
# Velocity S-wave (km/s) = -0.38422 3.53656 2.48592
# Velocity P-wave (km/s) = 8.16820 6.92721 3.06050
#
# Compressibility (1/GPa) = -0.00793637
#
# Stress axis : x y z
#
# Youngs Moduli (GPa) = -0.28663 -0.91602 -2.38739
#
# Poissons Ratio (x) = 1.79946 2.93853
# Poissons Ratio (y) = 0.56307 -1.67016
# Poissons Ratio (z) = 0.35280 -0.64083
#
# Static dielectric constant tensor:
#      x y z
#    x 1.708520 0.000000 0.037910 
#    y 0.000000 1.648070 0.000000 
#    z 0.037910 0.000000 1.666030 
# 
# From -- ./inp_files/215094.got.cif
#   From: 2010.05.17/outbox.cif.g08.bks.cpg/sg12_108_cif.got.tgz:215094.got - 2010.06.03 13:09:07.
