data_PCOD9210892
_publ_section_title
;
Structure prediction by ZEFSAII (Michael W. Deem and Ramdas Pophale) SiO2 
 PCOD9210892
Probable space group: C 2/M
;
_chemical_formula_sum "Si O2"
_cell_formula_units_Z 48
_cell_length_a 24.096897
_cell_length_b 8.222828
_cell_length_c 11.102876
_cell_angle_alpha 90.000000
_cell_angle_beta 80.373485
_cell_angle_gamma 90.000000
_cell_volume 2168.996969
_symmetry_space_group_name_H-M "C 2/M"
_symmetry_group_IT_number 12
_symmetry_cell_setting 'monoclinic'
loop_
_space_group_symop_operation_xyz
x,y,z
-x,y,-z
-x,-y,-z
x,-y,z
1/2+x,1/2+y,z
1/2-x,1/2+y,-z
1/2-x,1/2-y,-z
1/2+x,1/2-y,z
loop_
_atom_site_type_symbol
_atom_site_label
_atom_site_fract_x
_atom_site_fract_y
_atom_site_fract_z
Si Si1 0.876981 0.318222 0.694787
Si Si2 0.335633 0.689510 0.211891
Si Si3 0.505507 0.313094 0.362131
Si Si4 0.773166 0.812743 0.866402
Si Si5 0.041340 0.800803 0.876564
Si Si6 0.186333 0.188163 0.507423
O O1 0.899649 0.500000 0.697209
O O2 0.928202 0.195212 0.689380
O O3 0.827017 0.287876 0.806048
O O4 0.847487 0.291152 0.576903
O O5 0.324813 0.500000 0.183226
O O6 0.279616 0.788099 0.203099
O O7 0.393252 0.744548 0.128197
O O8 0.343474 0.694861 0.352553
O O9 0.500000 0.240456 0.500000
O O10 0.485150 0.500000 0.379932
O O11 0.476846 0.244098 0.251181
O O12 0.789384 0.000000 0.865945
O O13 0.750000 0.750000 0.000000
O O14 0.039581 0.000000 0.874758
O O15 0.000000 0.748588 0.000000
O O16 0.250000 0.250000 0.500000
O O17 0.187525 0.000000 0.466444
#
# Coordination Sequence:
#
# PCOD9210892 Si02
#       6
#     8   8   8   8   8   8
#     4  12  25  41  63  94 130 167 213 265 319 381
#     4  10  21  39  64  93 126 161 205 260 315 381
#     4  10  21  40  65  93 126 169 217 265 322 387
#     4  12  26  43  64  91 126 167 211 261 323 386
#     4   9  19  36  61  92 121 159 209 259 314 380
#     4  11  21  36  60  91 126 163 205 254 314 380
#
# _framework density 22.130044000000002
#
# number of rings (size 3 to 8) (size 9 to 14) (size 15 to 20)
#    0.000    1.333    1.667    4.500    2.333    3.667 
#    0.000    0.833    0.000    1.000    0.000    0.000 
#    0.000    0.000    0.000    0.000    0.000    0.000 
#
# Total GULP energy -134142.055291 kJ/mol
# GULP energy per Si atom -5589.252304 kJ/mol
# Density = 2.207968 g / cm^3
# Si number density = 22.130044 Si / 1000 Ang^3
#
#
#
# Elastic Constant Matrix: (Units=GPa)
#
#
# Indices 1 2 3 4 5 6 
#
# 1 61.5617 -15.2829 5.9285 0.0000 -17.3835 0.0000
# 2 -15.2829 49.4497 4.4499 0.0000 0.3458 0.0000
# 3 5.9285 4.4499 96.5783 0.0000 -11.7902 0.0000
# 4 0.0000 0.0000 0.0000 17.2318 0.0000 0.3173
# 5 -17.3835 0.3458 -11.7902 0.0000 39.4874 0.0000
# 6 0.0000 0.0000 0.0000 0.3173 0.0000 22.2537
#
#
#
# Elastic Compliance Matrix: (Units=1/GPa)
#
#
# Indices 1 2 3 4 5 6 
#
# 1 0.020313 0.006259 -0.000467 0.000000 0.008748 0.000000
# 2 0.006259 0.022244 -0.001138 0.000000 0.002221 0.000000
# 3 -0.000467 -0.001138 0.010805 0.000000 0.003031 0.000000
# 4 0.000000 0.000000 0.000000 0.058047 0.000000 -0.000828
# 5 0.008748 0.002221 0.003031 0.000000 0.030061 0.000000
# 6 0.000000 0.000000 0.000000 -0.000828 0.000000 0.044948
#
#
# Mechanical properties :
#
#
# Convention : Reuss Voigt Hill
#
# Bulk Modulus (GPa) = 15.95688 21.97562 18.96625
# Shear Modulus (GPa) = 25.25237 29.96089 27.60663
#
# Velocity S-wave (km/s) = 3.38167 3.68347 3.53579
# Velocity P-wave (km/s) = 4.74065 5.29551 5.02574
#
# Compressibility (1/GPa) = 0.06266888
#
# Stress axis : x y z
#
# Youngs Moduli (GPa) = 49.22992 44.95642 92.54657
#
# Poissons Ratio (x) = -0.28137 0.04325
# Poissons Ratio (y) = -0.30812 0.10532
# Poissons Ratio (z) = 0.02301 0.05116
#
# Static dielectric constant tensor:
#      x y z
#    x 1.783410 0.000000 0.039550 
#    y 0.000000 1.822830 0.000000 
#    z 0.039550 0.000000 1.858690 
# 
# From -- ./inp_files/172899.got.cif
#   From: 2010.05.17/outbox.cif.g08.bks.cpg/sg12_87_cif.got.tgz:172899.got - 2010.06.03 13:09:07.
