data_PCOD9210955
_publ_section_title
;
Structure prediction by ZEFSAII (Michael W. Deem and Ramdas Pophale) SiO2 
 PCOD9210955
Probable space group: C 2/M
;
_chemical_formula_sum "Si O2"
_cell_formula_units_Z 44
_cell_length_a 28.762078
_cell_length_b 7.645714
_cell_length_c 10.544065
_cell_angle_alpha 90.000000
_cell_angle_beta 110.798115
_cell_angle_gamma 90.000000
_cell_volume 2167.616471
_symmetry_space_group_name_H-M "C 2/M"
_symmetry_group_IT_number 12
_symmetry_cell_setting 'monoclinic'
loop_
_space_group_symop_operation_xyz
x,y,z
-x,y,-z
-x,-y,-z
x,-y,z
1/2+x,1/2+y,z
1/2-x,1/2+y,-z
1/2-x,1/2-y,-z
1/2+x,1/2-y,z
loop_
_atom_site_type_symbol
_atom_site_label
_atom_site_fract_x
_atom_site_fract_y
_atom_site_fract_z
Si Si1 0.087925 0.500000 0.274796
Si Si2 0.543349 0.301911 0.646873
Si Si3 0.225189 0.293005 0.609820
Si Si4 0.711917 0.707691 0.077671
Si Si5 0.974860 0.500000 0.173553
Si Si6 0.113350 0.801318 0.497827
Si Si7 0.133141 0.500000 0.051887
O O1 0.096468 0.668614 0.372485
O O2 0.127725 0.500000 0.199549
O O3 0.030628 0.500000 0.171708
O O4 0.500000 0.300448 0.500000
O O5 0.550218 0.500000 0.699915
O O6 0.591343 0.245492 0.612443
O O7 0.529055 0.170037 0.741624
O O8 0.215342 0.500000 0.606219
O O9 0.250000 0.250000 0.500000
O O10 0.259988 0.250282 0.762813
O O11 0.172409 0.200022 0.564209
O O12 0.700228 0.500000 0.063488
O O13 0.663520 0.831504 0.030599
O O14 0.750000 0.750000 0.000000
O O15 0.924046 0.500000 0.046119
O O16 0.095315 0.000000 0.456279
#
# Coordination Sequence:
#
# PCOD9210955 Si02
#       7
#     4   8   8   8   4   8   4
#     4  12  24  46  66  97 138 181 224 283 337 399
#     4  10  21  39  65 100 131 165 215 284 341 389
#     4  11  24  40  65 100 135 173 219 273 342 412
#     4  11  26  47  70  98 135 179 228 280 336 407
#     4  12  25  42  69  94 136 185 234 275 328 403
#     4  11  23  38  67 100 132 169 216 276 346 404
#     4  12  29  45  68  96 137 184 233 275 332 394
#
# _framework density 20.298794999999998
#
# number of rings (size 3 to 8) (size 9 to 14) (size 15 to 20)
#    0.000    0.909    3.636    2.727    5.091    2.909 
#    0.000    0.000    0.000    3.273    0.000    0.000 
#    0.000    0.000    0.000    0.000    0.000    0.000 
#
# Total GULP energy -122997.329358 kJ/mol
# GULP energy per Si atom -5590.787698 kJ/mol
# Density = 2.025259 g / cm^3
# Si number density = 20.298795 Si / 1000 Ang^3
#
#
#
# Elastic Constant Matrix: (Units=GPa)
#
#
# Indices 1 2 3 4 5 6 
#
# 1 134.1421 33.0776 19.0395 0.0000 -10.3065 0.0000
# 2 33.0776 102.5214 32.8799 0.0000 -0.7249 0.0000
# 3 19.0395 32.8799 65.0176 0.0000 -4.9097 0.0000
# 4 0.0000 0.0000 0.0000 37.6085 0.0000 6.9996
# 5 -10.3065 -0.7249 -4.9097 0.0000 40.7086 0.0000
# 6 0.0000 0.0000 0.0000 6.9996 0.0000 31.0406
#
#
#
# Elastic Compliance Matrix: (Units=1/GPa)
#
#
# Indices 1 2 3 4 5 6 
#
# 1 0.008334 -0.002315 -0.001124 0.000000 0.001933 0.000000
# 2 -0.002315 0.012296 -0.005619 0.000000 -0.001045 0.000000
# 3 -0.001124 -0.005619 0.018692 0.000000 0.001870 0.000000
# 4 0.000000 0.000000 0.000000 0.027755 0.000000 -0.006259
# 5 0.001933 -0.001045 0.001870 0.000000 0.025261 0.000000
# 6 0.000000 0.000000 0.000000 -0.006259 0.000000 0.033627
#
#
# Mechanical properties :
#
#
# Convention : Reuss Voigt Hill
#
# Bulk Modulus (GPa) = 47.15563 52.40838 49.78200
# Shear Modulus (GPa) = 33.08008 36.31714 34.69861
#
# Velocity S-wave (km/s) = 4.04128 4.23440 4.13897
# Velocity P-wave (km/s) = 6.71246 7.05559 6.88616
#
# Compressibility (1/GPa) = 0.02120637
#
# Stress axis : x y z
#
# Youngs Moduli (GPa) = 119.99639 81.33003 53.49783
#
# Poissons Ratio (x) = 0.18825 0.06012
# Poissons Ratio (y) = 0.27775 0.30061
# Poissons Ratio (z) = 0.13486 0.45700
#
# Static dielectric constant tensor:
#      x y z
#    x 1.776600 0.000000 0.010910 
#    y 0.000000 1.715370 0.000000 
#    z 0.010910 0.000000 1.724720 
# 
# From -- ./inp_files/108340.got.cif
#   From: 2010.05.17/outbox.cif.g08.bks.cpg/sg12_55_cif.got.tgz:108340.got - 2010.06.03 13:09:07.
