data_PCOD9210571
_publ_section_title
;
Structure prediction by ZEFSAII (Michael W. Deem and Ramdas Pophale) SiO2 
 PCOD9210571
Probable space group: C 2/M
;
_chemical_formula_sum "Si O2"
_cell_formula_units_Z 48
_cell_length_a 8.924271
_cell_length_b 30.858171
_cell_length_c 14.809350
_cell_angle_alpha 90.000000
_cell_angle_beta 140.797518
_cell_angle_gamma 90.000000
_cell_volume 2577.740581
_symmetry_space_group_name_H-M "C 2/M"
_symmetry_group_IT_number 12
_symmetry_cell_setting 'monoclinic'
loop_
_space_group_symop_operation_xyz
x,y,z
-x,y,-z
-x,-y,-z
x,-y,z
1/2+x,1/2+y,z
1/2-x,1/2+y,-z
1/2-x,1/2-y,-z
1/2+x,1/2-y,z
loop_
_atom_site_type_symbol
_atom_site_label
_atom_site_fract_x
_atom_site_fract_y
_atom_site_fract_z
Si Si1 0.220506 0.123343 0.351762
Si Si2 0.617696 0.450182 0.772911
Si Si3 0.991227 0.204473 0.338233
Si Si4 0.619341 0.205612 0.318578
Si Si5 0.244268 0.128567 0.153408
Si Si6 0.114033 0.449688 0.909801
O O1 0.500000 0.130034 0.500000
O O2 0.064000 0.164255 0.309912
O O3 0.202406 0.116391 0.237007
O O4 0.099481 0.082149 0.342763
O O5 0.542875 0.500000 0.729280
O O6 0.839543 0.442756 0.809718
O O7 0.731935 0.444712 0.926435
O O8 0.189956 0.203652 0.510565
O O9 0.000544 0.247973 0.283068
O O10 0.750396 0.203189 0.283403
O O11 0.443512 0.165384 0.243247
O O12 0.311455 0.086001 0.127592
O O13 0.000000 0.146688 0.000000
O O14 0.141725 0.500000 0.893225
#
# Coordination Sequence:
#
# PCOD9210571 Si02
#       6
#     8   8   8   8   8   8
#     4  12  23  38  59  89 125 159 196 243 301 355
#     4   9  19  38  62  87 119 160 202 244 295 355
#     4  10  21  39  64  85 117 156 202 241 290 363
#     4  10  21  39  63  88 114 158 201 242 293 353
#     4  12  23  38  60  92 125 154 198 250 295 351
#     4   9  19  38  63  87 117 161 204 241 295 358
#
# _framework density 18.620958999999999
#
# number of rings (size 3 to 8) (size 9 to 14) (size 15 to 20)
#    0.000    1.667    3.333    3.000    2.333    1.333 
#    0.000    3.333    0.000    2.000    0.000    0.000 
#    0.000    0.000    0.000    0.000    0.000    0.000 
#
# Total GULP energy -133920.245865 kJ/mol
# GULP energy per Si atom -5580.010244 kJ/mol
# Density = 1.857858 g / cm^3
# Si number density = 18.620959 Si / 1000 Ang^3
#
#
#
# Elastic Constant Matrix: (Units=GPa)
#
#
# Indices 1 2 3 4 5 6 
#
# 1 112.5936 70.7523 9.5153 0.0000 5.7991 0.0000
# 2 70.7523 115.8483 -0.3340 0.0000 10.1241 0.0000
# 3 9.5153 -0.3340 15.5099 0.0000 3.8713 0.0000
# 4 0.0000 0.0000 0.0000 24.3696 0.0000 7.0546
# 5 5.7991 10.1241 3.8713 0.0000 27.8873 0.0000
# 6 0.0000 0.0000 0.0000 7.0546 0.0000 3.3701
#
#
#
# Elastic Compliance Matrix: (Units=1/GPa)
#
#
# Indices 1 2 3 4 5 6 
#
# 1 0.015877 -0.009877 -0.010384 0.000000 0.001726 0.000000
# 2 -0.009877 0.015076 0.007497 0.000000 -0.004460 0.000000
# 3 -0.010384 0.007497 0.073701 0.000000 -0.010794 0.000000
# 4 0.000000 0.000000 0.000000 0.104143 0.000000 -0.218002
# 5 0.001726 -0.004460 -0.010794 0.000000 0.038617 0.000000
# 6 0.000000 0.000000 0.000000 -0.218002 0.000000 0.753069
#
#
# Mechanical properties :
#
#
# Convention : Reuss Voigt Hill
#
# Bulk Modulus (GPa) = 12.63805 44.86878 28.75342
# Shear Modulus (GPa) = 4.75111 22.05994 13.40553
#
# Velocity S-wave (km/s) = 1.59907 3.44566 2.68604
# Velocity P-wave (km/s) = 3.19548 6.32283 5.00946
#
# Compressibility (1/GPa) = 0.07912611
#
# Stress axis : x y z
#
# Youngs Moduli (GPa) = 62.98453 66.33173 13.56838
#
# Poissons Ratio (x) = 0.65518 0.14089
# Poissons Ratio (y) = 0.62212 -0.10173
# Poissons Ratio (z) = 0.65402 -0.49732
#
# Static dielectric constant tensor:
#      x y z
#    x 1.644260 0.000000 0.032510 
#    y 0.000000 1.627800 0.000000 
#    z 0.032510 0.000000 1.702800 
# 
# From -- ./inp_files/200110.got.cif
#   From: 2010.05.17/outbox.cif.g08.bks.cpg/sg12_101_cif.got.tgz:200110.got - 2010.06.03 13:09:07.
