data_PCOD9210363
_publ_section_title
;
Structure prediction by ZEFSAII (Michael W. Deem and Ramdas Pophale) SiO2 
 PCOD9210363
Probable space group: C 2/M
;
_chemical_formula_sum "Si O2"
_cell_formula_units_Z 48
_cell_length_a 14.566860
_cell_length_b 17.146042
_cell_length_c 15.154227
_cell_angle_alpha 90.000000
_cell_angle_beta 31.821879
_cell_angle_gamma 90.000000
_cell_volume 1995.745514
_symmetry_space_group_name_H-M "C 2/M"
_symmetry_group_IT_number 12
_symmetry_cell_setting 'monoclinic'
loop_
_space_group_symop_operation_xyz
x,y,z
-x,y,-z
-x,-y,-z
x,-y,z
1/2+x,1/2+y,z
1/2-x,1/2+y,-z
1/2-x,1/2-y,-z
1/2+x,1/2-y,z
loop_
_atom_site_type_symbol
_atom_site_label
_atom_site_fract_x
_atom_site_fract_y
_atom_site_fract_z
Si Si1 0.371902 0.638001 0.188642
Si Si2 0.811899 0.086916 0.421216
Si Si3 0.369723 0.820130 0.191088
Si Si4 0.419879 0.134251 0.701777
Si Si5 0.083462 0.821199 0.294812
Si Si6 0.658352 0.090252 0.046274
O O1 0.411106 0.592598 0.245888
O O2 0.364783 0.729512 0.222955
O O3 0.185519 0.613829 0.300026
O O4 0.500000 0.631543 0.000000
O O5 0.615229 0.105530 0.554367
O O6 0.895733 0.145684 0.422956
O O7 0.826612 0.000000 0.444823
O O8 0.181624 0.842581 0.305759
O O9 0.465320 0.876528 0.181063
O O10 0.500000 0.821454 0.000000
O O11 0.417511 0.228084 0.708478
O O12 0.318018 0.101257 0.869355
O O13 0.208745 0.857044 0.117218
O O14 0.672727 0.000000 0.008696
#
# Coordination Sequence:
#
# PCOD9210363 Si02
#       6
#     8   8   8   8   8   8
#     4  10  21  40  64  87 114 153 202 245 287 350
#     4  12  25  39  58  87 123 157 194 246 302 350
#     4   8  18  36  60  88 115 148 193 242 290 344
#     4  11  23  40  60  84 120 161 198 240 293 354
#     4  10  21  39  62  86 114 158 205 241 283 350
#     4  11  21  36  62  92 122 153 192 246 298 346
#
# _framework density 24.051162000000001
#
# number of rings (size 3 to 8) (size 9 to 14) (size 15 to 20)
#    0.000    1.667    0.000    5.500    0.000    6.000 
#    0.000    2.500    0.000    2.000    0.000    0.000 
#    0.000    0.000    0.000    0.000    0.000    0.000 
#
# Total GULP energy -134343.984425 kJ/mol
# GULP energy per Si atom -5597.666018 kJ/mol
# Density = 2.399642 g / cm^3
# Si number density = 24.051162 Si / 1000 Ang^3
#
#
#
# Elastic Constant Matrix: (Units=GPa)
#
#
# Indices 1 2 3 4 5 6 
#
# 1 78.8563 8.5378 1.1645 -0.0028 -9.7443 0.0155
# 2 8.5378 43.1659 -9.6799 0.0029 -1.4811 0.0190
# 3 1.1645 -9.6799 75.5504 -0.0025 -13.7596 0.0043
# 4 -0.0028 0.0029 -0.0025 -0.3533 0.0022 -67.1369
# 5 -9.7443 -1.4811 -13.7596 0.0022 40.4664 -0.0029
# 6 0.0155 0.0190 0.0043 -67.1369 -0.0029 -250.9652
#
#
#
# Elastic Compliance Matrix: (Units=1/GPa)
#
#
# Indices 1 2 3 4 5 6 
#
# 1 0.013341 -0.002522 0.000042 0.000004 0.003135 -0.000001
# 2 -0.002522 0.024487 0.003442 0.000003 0.001459 0.000001
# 3 0.000042 0.003442 0.014606 0.000003 0.005102 0.000000
# 4 0.000004 0.000003 0.000003 0.056796 -0.000002 -0.015194
# 5 0.003135 0.001459 0.005102 -0.000002 0.027255 0.000001
# 6 -0.000001 0.000001 0.000000 -0.015194 0.000001 0.000080
#
#
# Mechanical properties :
#
#
# Convention : Reuss Voigt Hill
#
# Bulk Modulus (GPa) = 18.39622 21.95752 20.17687
# Shear Modulus (GPa) = 32.73109 -29.00042 1.86534
#
# Velocity S-wave (km/s) = 3.69303 -3.47620 0.88162
# Velocity P-wave (km/s) = 5.08429 2.63868 3.07306
#
# Compressibility (1/GPa) = 0.05435900
#
# Stress axis : x y z
#
# Youngs Moduli (GPa) = 74.95670 40.83772 68.46575
#
# Poissons Ratio (x) = 0.10298 -0.00289
# Poissons Ratio (y) = 0.18902 -0.23566
# Poissons Ratio (z) = -0.00316 -0.14057
#
# Static dielectric constant tensor:
#      x y z
#    x 1.892140 0.000000 -0.030020 
#    y 0.000000 1.839510 0.000000 
#    z -0.030020 0.000000 2.069870 
# 
# From -- ./inp_files/271616.got.cif
#   From: 2010.05.17/outbox.cif.g08.bks.cpg/sg12_136_cif.got.tgz:271616.got - 2010.06.03 13:09:07.
