data_PCOD9210136
_publ_section_title
;
Structure prediction by ZEFSAII (Michael W. Deem and Ramdas Pophale) SiO2 
 PCOD9210136
Probable space group: C 2/M
;
_chemical_formula_sum "Si O2"
_cell_formula_units_Z 56
_cell_length_a 8.373978
_cell_length_b 18.088308
_cell_length_c 26.403557
_cell_angle_alpha 90.000000
_cell_angle_beta 44.175520
_cell_angle_gamma 90.000000
_cell_volume 2786.999850
_symmetry_space_group_name_H-M "C 2/M"
_symmetry_group_IT_number 12
_symmetry_cell_setting 'monoclinic'
loop_
_space_group_symop_operation_xyz
x,y,z
-x,y,-z
-x,-y,-z
x,-y,z
1/2+x,1/2+y,z
1/2-x,1/2+y,-z
1/2-x,1/2-y,-z
1/2+x,1/2-y,z
loop_
_atom_site_type_symbol
_atom_site_label
_atom_site_fract_x
_atom_site_fract_y
_atom_site_fract_z
Si Si1 0.252938 0.793814 0.552276
Si Si2 0.014168 0.207211 0.771305
Si Si3 0.745919 0.677701 0.354994
Si Si4 0.842446 0.587101 0.986295
Si Si5 0.002643 0.312973 0.858649
Si Si6 0.187216 0.918204 0.865824
Si Si7 0.152738 0.581320 0.285610
O O1 0.500000 0.833910 0.500000
O O2 0.250000 0.750000 0.500000
O O3 0.252053 0.733714 0.597664
O O4 0.011317 0.836432 0.606161
O O5 0.775862 0.180679 0.802081
O O6 0.111900 0.278700 0.720203
O O7 0.975959 0.231454 0.838973
O O8 0.206588 0.145443 0.719163
O O9 0.891577 0.606504 0.337489
O O10 0.872049 0.500000 0.961956
O O11 0.908427 0.653016 0.932720
O O12 0.575870 0.596456 0.060709
O O13 0.000000 0.593721 0.000000
O O14 0.859809 0.362168 0.852097
O O15 0.229813 0.919955 0.796412
O O16 0.240977 0.000000 0.873531
O O17 0.171326 0.500000 0.304113
#
# Coordination Sequence:
#
# PCOD9210136 Si02
#       7
#     8   8   8   8   8   8   8
#     4   9  19  33  63 102 123 158 207 245 292 362
#     4  12  23  38  61  91 124 163 207 270 313 369
#     4  11  18  38  63  91 130 163 200 258 299 360
#     4  10  22  41  63  85 119 165 209 267 333 393
#     4  12  22  38  60  84 118 158 215 262 331 363
#     4  10  21  39  60  86 120 162 214 262 324 391
#     4  11  23  40  62  91 127 171 211 259 320 380
#
# _framework density 20.093291000000001
#
# number of rings (size 3 to 8) (size 9 to 14) (size 15 to 20)
#    0.000    1.286    4.286    1.714    0.000    3.429 
#    0.000   10.000    0.000    4.286    0.000    0.000 
#    0.000    0.000    0.000    0.000    0.000    0.000 
#
# Total GULP energy -156105.189765 kJ/mol
# GULP energy per Si atom -5575.185349 kJ/mol
# Density = 2.004756 g / cm^3
# Si number density = 20.093291 Si / 1000 Ang^3
#
#
#
# Elastic Constant Matrix: (Units=GPa)
#
#
# Indices 1 2 3 4 5 6 
#
# 1 97.4994 25.3507 28.5998 0.0005 -30.3526 -0.0018
# 2 25.3507 80.6283 15.1025 -0.0007 -15.7177 -0.0015
# 3 28.5998 15.1025 76.6812 -0.0049 -18.3091 -0.0082
# 4 0.0005 -0.0007 -0.0049 20.6764 0.0001 -11.6227
# 5 -30.3526 -15.7177 -18.3091 0.0001 52.5533 0.0025
# 6 -0.0018 -0.0015 -0.0082 -11.6227 0.0025 6.6710
#
#
#
# Elastic Compliance Matrix: (Units=1/GPa)
#
#
# Indices 1 2 3 4 5 6 
#
# 1 0.013738 -0.002542 -0.003174 -0.000142 0.006068 -0.000251
# 2 -0.002542 0.013873 -0.001248 0.000013 0.002246 0.000023
# 3 -0.003174 -0.001248 0.015209 0.000620 0.003092 0.001097
# 4 -0.000142 0.000013 0.000620 2.345561 -0.000061 4.086631
# 5 0.006068 0.002246 0.003092 -0.000061 0.024282 -0.000109
# 6 -0.000251 0.000023 0.001097 4.086631 -0.000109 7.269971
#
#
# Mechanical properties :
#
#
# Convention : Reuss Voigt Hill
#
# Bulk Modulus (GPa) = 34.61153 43.65724 39.13438
# Shear Modulus (GPa) = 0.51514 28.36385 14.43949
#
# Velocity S-wave (km/s) = 0.50688 3.76121 2.68362
# Velocity P-wave (km/s) = 4.19588 6.37470 5.39639
#
# Compressibility (1/GPa) = 0.02889211
#
# Stress axis : x y z
#
# Youngs Moduli (GPa) = 72.79316 72.08010 65.74988
#
# Poissons Ratio (x) = 0.18321 0.20871
# Poissons Ratio (y) = 0.18502 0.08206
# Poissons Ratio (z) = 0.23106 0.08996
#
# Static dielectric constant tensor:
#      x y z
#    x 1.722060 0.000000 0.029220 
#    y 0.000000 1.688490 0.000000 
#    z 0.029220 0.000000 1.754870 
# 
# From -- ./inp_files/356667.got.cif
#   From: 2010.05.17/outbox.cif.g08.bks.cpg/sg12_179_cif.got.tgz:356667.got - 2010.06.03 13:09:07.
