data_PCOD9210179
_publ_section_title
;
Structure prediction by ZEFSAII (Michael W. Deem and Ramdas Pophale) SiO2 
 PCOD9210179
Probable space group: C 2/M
;
_chemical_formula_sum "Si O2"
_cell_formula_units_Z 32
_cell_length_a 12.379960
_cell_length_b 15.336054
_cell_length_c 9.191224
_cell_angle_alpha 90.000000
_cell_angle_beta 56.231216
_cell_angle_gamma 90.000000
_cell_volume 1450.632601
_symmetry_space_group_name_H-M "C 2/M"
_symmetry_group_IT_number 12
_symmetry_cell_setting 'monoclinic'
loop_
_space_group_symop_operation_xyz
x,y,z
-x,y,-z
-x,-y,-z
x,-y,z
1/2+x,1/2+y,z
1/2-x,1/2+y,-z
1/2-x,1/2-y,-z
1/2+x,1/2-y,z
loop_
_atom_site_type_symbol
_atom_site_label
_atom_site_fract_x
_atom_site_fract_y
_atom_site_fract_z
Si Si1 0.018727 0.096132 0.814583
Si Si2 0.381388 0.897006 0.189219
Si Si3 0.800029 0.663057 0.544850
Si Si4 0.882642 0.798904 0.690994
O O1 0.171420 0.107012 0.666840
O O2 0.938221 0.175884 0.805730
O O3 0.975444 0.000000 0.792119
O O4 0.000000 0.098069 0.000000
O O5 0.392987 0.879229 0.354161
O O6 0.249870 0.850453 0.235691
O O7 0.368365 0.000000 0.177989
O O8 0.500000 0.865735 0.000000
O O9 0.750000 0.750000 0.500000
O O10 0.857374 0.700637 0.652643
O O11 0.000000 0.832433 0.500000
#
# Coordination Sequence:
#
# PCOD9210179 Si02
#       4
#     8   8   8   8
#     4  11  24  43  69  99 129 172 227 276 320 387
#     4  10  21  39  66  99 136 174 214 269 332 390
#     4  10  21  39  61 100 132 167 214 274 325 381
#     4  11  22  42  68  97 126 174 225 261 326 392
#
# _framework density 22.059342999999998
#
# number of rings (size 3 to 8) (size 9 to 14) (size 15 to 20)
#    0.000    1.500    5.000    1.500    0.000    6.000 
#    4.500    0.000    0.000    1.500    0.000    0.000 
#    0.000    4.000    0.000    0.000    0.000    0.000 
#
# Total GULP energy -89291.805976 kJ/mol
# GULP energy per Si atom -5580.737873 kJ/mol
# Density = 2.200913 g / cm^3
# Si number density = 22.059343 Si / 1000 Ang^3
#
#
#
# Elastic Constant Matrix: (Units=GPa)
#
#
# Indices 1 2 3 4 5 6 
#
# 1 111.2503 36.9252 46.1819 0.0000 -7.6543 0.0000
# 2 36.9252 45.3596 30.1721 0.0000 -4.0065 0.0000
# 3 46.1819 30.1721 126.8735 0.0000 -17.4741 0.0000
# 4 0.0000 0.0000 0.0000 32.8724 0.0000 -1.8022
# 5 -7.6543 -4.0065 -17.4741 0.0000 39.0597 0.0000
# 6 0.0000 0.0000 0.0000 -1.8022 0.0000 35.4959
#
#
#
# Elastic Compliance Matrix: (Units=1/GPa)
#
#
# Indices 1 2 3 4 5 6 
#
# 1 0.013027 -0.008853 -0.002568 0.000000 0.000496 0.000000
# 2 -0.008853 0.032205 -0.004497 0.000000 -0.000443 0.000000
# 3 -0.002568 -0.004497 0.010394 0.000000 0.003685 0.000000
# 4 0.000000 0.000000 0.000000 0.030506 0.000000 0.001549
# 5 0.000496 -0.000443 0.003685 0.000000 0.027302 0.000000
# 6 0.000000 0.000000 0.000000 0.001549 0.000000 0.028251
#
#
# Mechanical properties :
#
#
# Convention : Reuss Voigt Hill
#
# Bulk Modulus (GPa) = 42.03596 56.67132 49.35364
# Shear Modulus (GPa) = 27.55550 32.83255 30.19403
#
# Velocity S-wave (km/s) = 3.53817 3.86213 3.70369
# Velocity P-wave (km/s) = 5.98237 6.75531 6.38056
#
# Compressibility (1/GPa) = 0.02378916
#
# Stress axis : x y z
#
# Youngs Moduli (GPa) = 76.76144 31.05094 96.21065
#
# Poissons Ratio (x) = 0.27489 0.24710
# Poissons Ratio (y) = 0.67955 0.43270
# Poissons Ratio (z) = 0.19715 0.13965
#
# Static dielectric constant tensor:
#      x y z
#    x 1.873670 0.000000 0.047090 
#    y 0.000000 1.855990 0.000000 
#    z 0.047090 0.000000 1.834240 
# 
# From -- ./inp_files/46446.got.cif
#   From: 2010.05.17/outbox.cif.g08.bks.cpg/sg12_24_cif.got.tgz:46446.got - 2010.06.03 13:09:07.
