data_PCOD9210657
_publ_section_title
;
Structure prediction by ZEFSAII (Michael W. Deem and Ramdas Pophale) SiO2 
 PCOD9210657
Probable space group: C 2/M
;
_chemical_formula_sum "Si O2"
_cell_formula_units_Z 64
_cell_length_a 18.791971
_cell_length_b 13.758052
_cell_length_c 16.300321
_cell_angle_alpha 90.000000
_cell_angle_beta 130.312979
_cell_angle_gamma 90.000000
_cell_volume 3213.495520
_symmetry_space_group_name_H-M "C 2/M"
_symmetry_group_IT_number 12
_symmetry_cell_setting 'monoclinic'
loop_
_space_group_symop_operation_xyz
x,y,z
-x,y,-z
-x,-y,-z
x,-y,z
1/2+x,1/2+y,z
1/2-x,1/2+y,-z
1/2-x,1/2-y,-z
1/2+x,1/2-y,z
loop_
_atom_site_type_symbol
_atom_site_label
_atom_site_fract_x
_atom_site_fract_y
_atom_site_fract_z
Si Si1 0.888060 0.246102 0.238241
Si Si2 0.187014 0.801394 0.056813
Si Si3 0.975100 0.390186 0.577123
Si Si4 0.892623 0.609348 0.946334
Si Si5 0.036804 0.889111 0.838166
Si Si6 0.344657 0.615483 0.784411
Si Si7 0.287423 0.613235 0.299032
Si Si8 0.287804 0.233065 0.437555
O O1 0.795424 0.282040 0.122416
O O2 0.956994 0.185759 0.231659
O O3 0.849702 0.174172 0.280787
O O4 0.939854 0.338092 0.314194
O O5 0.134595 0.697485 0.015089
O O6 0.176009 0.840313 0.141905
O O7 0.133779 0.875175 0.958576
O O8 0.958313 0.500000 0.594310
O O9 0.885258 0.322521 0.517934
O O10 0.000000 0.394543 0.500000
O O11 0.879785 0.500000 0.970802
O O12 0.818851 0.617608 0.815778
O O13 0.000000 0.619225 0.000000
O O14 0.951744 0.868426 0.836680
O O15 0.026600 0.000000 0.801811
O O16 0.327674 0.500000 0.773772
O O17 0.279913 0.666283 0.668532
O O18 0.313893 0.500000 0.321709
O O19 0.295867 0.667167 0.391998
O O20 0.250000 0.250000 0.500000
#
# Coordination Sequence:
#
# PCOD9210657 Si02
#       8
#     8   8   8   8   8   8   8   8
#     4  11  22  43  62  91 128 168 209 262 310 374
#     4  11  21  38  64  91 128 165 209 255 315 378
#     4  11  23  43  69  93 122 164 216 263 318 377
#     4   9  17  32  57  87 120 162 206 247 301 368
#     4  11  24  39  62  94 129 166 208 257 310 377
#     4  11  22  40  63  92 125 162 206 259 320 377
#     4  10  21  39  63  90 125 168 209 255 315 381
#     4  12  24  42  64  92 127 161 208 270 321 380
#
# _framework density 19.916008000000001
#
# number of rings (size 3 to 8) (size 9 to 14) (size 15 to 20)
#    0.000    1.250    3.750    3.375    0.000    4.500 
#    0.000    2.500    0.000    0.000    0.000    0.000 
#    0.000    0.000    0.000    0.000    0.000    0.000 
#
# Total GULP energy -178860.454222 kJ/mol
# GULP energy per Si atom -5589.389194 kJ/mol
# Density = 1.987068 g / cm^3
# Si number density = 19.916008 Si / 1000 Ang^3
#
#
#
# Elastic Constant Matrix: (Units=GPa)
#
#
# Indices 1 2 3 4 5 6 
#
# 1 61.8727 21.7052 8.3904 0.0000 -1.9498 0.0000
# 2 21.7052 92.5141 21.2816 0.0000 4.6872 0.0000
# 3 8.3904 21.2816 42.3146 0.0000 0.1205 0.0000
# 4 0.0000 0.0000 0.0000 9.0467 0.0000 20.0116
# 5 -1.9498 4.6872 0.1205 0.0000 37.3660 0.0000
# 6 0.0000 0.0000 0.0000 20.0116 0.0000 11.0264
#
#
#
# Elastic Compliance Matrix: (Units=1/GPa)
#
#
# Indices 1 2 3 4 5 6 
#
# 1 0.017782 -0.003881 -0.001578 0.000000 0.001420 0.000000
# 2 -0.003881 0.013157 -0.005842 0.000000 -0.001834 0.000000
# 3 -0.001578 -0.005842 0.026882 0.000000 0.000564 0.000000
# 4 0.000000 0.000000 0.000000 -0.036668 0.000000 0.066548
# 5 0.001420 -0.001834 0.000564 0.000000 0.027065 0.000000
# 6 0.000000 0.000000 0.000000 0.066548 0.000000 -0.030084
#
#
# Mechanical properties :
#
#
# Convention : Reuss Voigt Hill
#
# Bulk Modulus (GPa) = 28.39420 33.27286 30.83353
# Shear Modulus (GPa) = 95.28266 21.17610 58.22938
#
# Velocity S-wave (km/s) = 6.92431 3.26432 5.41303
# Velocity P-wave (km/s) = 8.84398 5.56332 7.38805
#
# Compressibility (1/GPa) = 0.03521846
#
# Stress axis : x y z
#
# Youngs Moduli (GPa) = 56.23536 76.00803 37.19954
#
# Poissons Ratio (x) = 0.29498 0.05871
# Poissons Ratio (y) = 0.21824 0.21732
# Poissons Ratio (z) = 0.08875 0.44405
#
# Static dielectric constant tensor:
#      x y z
#    x 1.684360 0.000000 0.005750 
#    y 0.000000 1.691050 0.000000 
#    z 0.005750 0.000000 1.694320 
# 
# From -- ./inp_files/225731.got.cif
#   From: 2010.05.17/outbox.cif.g08.bks.cpg/sg12_113_cif.got.tgz:225731.got - 2010.06.03 13:09:07.
