data_PCOD9210513
_publ_section_title
;
Structure prediction by ZEFSAII (Michael W. Deem and Ramdas Pophale) SiO2 
 PCOD9210513
Probable space group: C 2/M
;
_chemical_formula_sum "Si O2"
_cell_formula_units_Z 64
_cell_length_a 15.529866
_cell_length_b 15.492019
_cell_length_c 18.295324
_cell_angle_alpha 90.000000
_cell_angle_beta 136.888319
_cell_angle_gamma 90.000000
_cell_volume 3008.189443
_symmetry_space_group_name_H-M "C 2/M"
_symmetry_group_IT_number 12
_symmetry_cell_setting 'monoclinic'
loop_
_space_group_symop_operation_xyz
x,y,z
-x,y,-z
-x,-y,-z
x,-y,z
1/2+x,1/2+y,z
1/2-x,1/2+y,-z
1/2-x,1/2-y,-z
1/2+x,1/2-y,z
loop_
_atom_site_type_symbol
_atom_site_label
_atom_site_fract_x
_atom_site_fract_y
_atom_site_fract_z
Si Si1 0.706250 0.839885 0.687607
Si Si2 0.318180 0.101370 0.614503
Si Si3 0.628789 0.644083 0.621249
Si Si4 0.728973 0.647074 0.991663
Si Si5 0.329826 0.398083 0.617548
Si Si6 0.117839 0.852867 0.779852
Si Si7 0.899471 0.350442 0.229703
Si Si8 0.536542 0.401628 0.106751
O O1 0.642138 0.748082 0.633277
O O2 0.735243 0.880598 0.626318
O O3 0.631775 0.886412 0.708259
O O4 0.848208 0.837610 0.807903
O O5 0.245100 0.112975 0.644780
O O6 0.230646 0.136680 0.494821
O O7 0.453619 0.144794 0.695960
O O8 0.339300 0.000000 0.614520
O O9 0.500000 0.620271 0.500000
O O10 0.628905 0.611666 0.704665
O O11 0.718471 0.613196 0.901745
O O12 0.589155 0.628565 0.932631
O O13 0.750000 0.750000 0.000000
O O14 0.822832 0.612259 0.112607
O O15 0.343954 0.500000 0.618212
O O16 0.472309 0.364318 0.714897
O O17 0.139187 0.749881 0.788491
O O18 0.571992 0.500000 0.152089
O O19 0.500000 0.404722 0.000000
#
# Coordination Sequence:
#
# PCOD9210513 Si02
#       8
#     8   8   8   8   8   8   8   8
#     4  11  23  37  62  96 127 157 206 258 312 380
#     4  11  26  43  61  88 125 169 210 258 320 380
#     4  11  24  42  66  91 118 164 215 264 318 370
#     4  10  21  39  62  92 126 167 211 253 304 361
#     4  11  23  38  61  91 124 162 205 259 315 372
#     4  10  21  39  64  93 116 157 215 266 304 355
#     4  10  23  41  61  91 129 166 204 252 316 379
#     4  11  22  38  62  92 128 169 209 253 309 374
#
# _framework density 21.275254
#
# number of rings (size 3 to 8) (size 9 to 14) (size 15 to 20)
#    0.000    1.375    3.750    1.125    5.250    3.250 
#    0.000    1.875    0.000    0.750    0.000    0.000 
#    0.000    0.000    0.000    0.000    0.000    0.000 
#
# Total GULP energy -178563.166174 kJ/mol
# GULP energy per Si atom -5580.098943 kJ/mol
# Density = 2.122683 g / cm^3
# Si number density = 21.275254 Si / 1000 Ang^3
#
#
#
# Elastic Constant Matrix: (Units=GPa)
#
#
# Indices 1 2 3 4 5 6 
#
# 1 125.5132 -2.0856 48.2264 0.0000 -24.0313 0.0000
# 2 -2.0856 32.9490 -2.1973 0.0000 -9.4720 0.0000
# 3 48.2264 -2.1973 103.3470 0.0000 -20.6534 0.0000
# 4 0.0000 0.0000 0.0000 59.6237 0.0000 14.4689
# 5 -24.0313 -9.4720 -20.6534 0.0000 34.9205 0.0000
# 6 0.0000 0.0000 0.0000 14.4689 0.0000 75.4709
#
#
#
# Elastic Compliance Matrix: (Units=1/GPa)
#
#
# Indices 1 2 3 4 5 6 
#
# 1 0.010505 0.002013 -0.003749 0.000000 0.005558 0.000000
# 2 0.002013 0.034042 0.002162 0.000000 0.011898 0.000000
# 3 -0.003749 0.002162 0.012557 0.000000 0.005434 0.000000
# 4 0.000000 0.000000 0.000000 0.017590 0.000000 -0.003372
# 5 0.005558 0.011898 0.005434 0.000000 0.038902 0.000000
# 6 0.000000 0.000000 0.000000 -0.003372 0.000000 0.013897
#
#
# Mechanical properties :
#
#
# Convention : Reuss Voigt Hill
#
# Bulk Modulus (GPa) = 17.25415 38.85513 28.05464
# Shear Modulus (GPa) = 34.25599 48.52740 41.39169
#
# Velocity S-wave (km/s) = 4.01700 4.78109 4.41560
# Velocity P-wave (km/s) = 5.44450 6.98435 6.26194
#
# Compressibility (1/GPa) = 0.05795706
#
# Stress axis : x y z
#
# Youngs Moduli (GPa) = 95.18991 29.37569 79.63502
#
# Poissons Ratio (x) = -0.05913 0.29852
# Poissons Ratio (y) = -0.19160 -0.17218
# Poissons Ratio (z) = 0.35683 -0.06351
#
# Static dielectric constant tensor:
#      x y z
#    x 1.772550 0.000000 -0.078510 
#    y 0.000000 1.765000 0.000000 
#    z -0.078510 0.000000 1.795790 
# 
# From -- ./inp_files/271731.got.cif
#   From: 2010.05.17/outbox.cif.g08.bks.cpg/sg12_136_cif.got.tgz:271731.got - 2010.06.03 13:09:07.
