data_PCOD9210384
_publ_section_title
;
Structure prediction by ZEFSAII (Michael W. Deem and Ramdas Pophale) SiO2 
 PCOD9210384
Probable space group: C 2/M
;
_chemical_formula_sum "Si O2"
_cell_formula_units_Z 48
_cell_length_a 19.386255
_cell_length_b 8.650906
_cell_length_c 32.806983
_cell_angle_alpha 90.000000
_cell_angle_beta 27.890320
_cell_angle_gamma 90.000000
_cell_volume 2573.735535
_symmetry_space_group_name_H-M "C 2/M"
_symmetry_group_IT_number 12
_symmetry_cell_setting 'monoclinic'
loop_
_space_group_symop_operation_xyz
x,y,z
-x,y,-z
-x,-y,-z
x,-y,z
1/2+x,1/2+y,z
1/2-x,1/2+y,-z
1/2-x,1/2-y,-z
1/2+x,1/2-y,z
loop_
_atom_site_type_symbol
_atom_site_label
_atom_site_fract_x
_atom_site_fract_y
_atom_site_fract_z
Si Si1 0.662936 0.314872 0.840655
Si Si2 0.952530 0.815294 0.649064
Si Si3 0.092805 0.684899 0.656509
Si Si4 0.914485 0.685407 0.503088
Si Si5 0.300395 0.684777 0.849094
Si Si6 0.676346 0.314800 0.997793
O O1 0.683545 0.500000 0.829789
O O2 0.788437 0.238708 0.747117
O O3 0.692175 0.252890 0.870952
O O4 0.498080 0.278838 0.912573
O O5 0.057860 0.745760 0.629220
O O6 0.000194 0.751781 0.580526
O O7 0.962156 0.000000 0.645101
O O8 0.087071 0.500000 0.659641
O O9 0.251012 0.744378 0.588063
O O10 0.961755 0.752108 0.752828
O O11 0.905093 0.500000 0.504586
O O12 0.000000 0.723808 0.500000
O O13 0.300014 0.500000 0.846881
O O14 0.251028 0.741416 0.919009
O O15 0.692212 0.500000 0.987851
O O16 0.750000 0.250000 0.000000
#
# Coordination Sequence:
#
# PCOD9210384 Si02
#       6
#     8   8   8   8   8   8
#     4  10  21  39  62  87 116 151 193 240 290 341
#     4  11  22  38  62  89 117 150 193 240 287 342
#     4  11  22  39  63  88 117 151 193 241 287 340
#     4  11  24  41  60  84 118 156 193 236 289 346
#     4  11  22  38  62  89 117 151 194 240 288 343
#     4  11  24  40  59  85 119 157 195 238 290 346
#
# _framework density 18.649933999999998
#
# number of rings (size 3 to 8) (size 9 to 14) (size 15 to 20)
#    0.000    1.167    0.000    9.000    0.000    7.333 
#    0.000    1.667    0.000    0.000    0.000    0.000 
#    0.000    0.000    0.000    0.000    0.000    0.000 
#
# Total GULP energy -134273.519221 kJ/mol
# GULP energy per Si atom -5594.729968 kJ/mol
# Density = 1.860749 g / cm^3
# Si number density = 18.649934 Si / 1000 Ang^3
#
#
#
# Elastic Constant Matrix: (Units=GPa)
#
#
# Indices 1 2 3 4 5 6 
#
# 1 134.7993 60.3638 82.2206 -0.0004 -46.0556 -0.0070
# 2 60.3638 113.4365 40.3586 0.0042 -32.7026 -0.0022
# 3 82.2206 40.3586 73.6674 -0.0022 -41.9379 -0.0022
# 4 -0.0004 0.0042 -0.0022 34.0615 -0.0004 0.6817
# 5 -46.0556 -32.7026 -41.9379 -0.0004 -25.6515 -0.0025
# 6 -0.0070 -0.0022 -0.0022 0.6817 -0.0025 33.8122
#
#
#
# Elastic Compliance Matrix: (Units=1/GPa)
#
#
# Indices 1 2 3 4 5 6 
#
# 1 0.024646 -0.004010 -0.024649 -0.000001 0.001162 0.000003
# 2 -0.004010 0.011378 -0.003064 -0.000002 -0.002296 0.000000
# 3 -0.024649 -0.003064 0.036350 0.000002 -0.011267 -0.000004
# 4 -0.000001 -0.000002 0.000002 0.029370 -0.000001 -0.000592
# 5 0.001162 -0.002296 -0.011267 -0.000001 -0.019723 -0.000002
# 6 0.000003 0.000000 -0.000004 -0.000592 -0.000002 0.029587
#
#
# Mechanical properties :
#
#
# Convention : Reuss Voigt Hill
#
# Bulk Modulus (GPa) = 112.02331 76.42102 94.22217
# Shear Modulus (GPa) = 28.08504 17.70845 22.89674
#
# Velocity S-wave (km/s) = 3.88481 3.08477 3.50767
# Velocity P-wave (km/s) = 8.96209 7.33166 8.18756
#
# Compressibility (1/GPa) = 0.00892671
#
# Stress axis : x y z
#
# Youngs Moduli (GPa) = 40.57496 87.88890 27.51044
#
# Poissons Ratio (x) = 0.35247 0.67810
# Poissons Ratio (y) = 0.16272 0.08430
# Poissons Ratio (z) = 1.00013 0.26931
#
# Static dielectric constant tensor:
#      x y z
#    x 1.611310 0.000000 -0.007440 
#    y 0.000000 1.622520 0.000000 
#    z -0.007440 0.000000 1.625730 
# 
# From -- ./inp_files/377908.got.cif
#   From: 2010.05.17/outbox.cif.g08.bks.cpg/sg12_189_cif.got.tgz:377908.got - 2010.06.03 13:09:07.
