data_PCOD9210300
_publ_section_title
;
Structure prediction by ZEFSAII (Michael W. Deem and Ramdas Pophale) SiO2 
 PCOD9210300
Probable space group: C 2/M
;
_chemical_formula_sum "Si O2"
_cell_formula_units_Z 60
_cell_length_a 8.504112
_cell_length_b 18.351652
_cell_length_c 20.016580
_cell_angle_alpha 90.000000
_cell_angle_beta 99.016768
_cell_angle_gamma 90.000000
_cell_volume 3085.274364
_symmetry_space_group_name_H-M "C 2/M"
_symmetry_group_IT_number 12
_symmetry_cell_setting 'monoclinic'
loop_
_space_group_symop_operation_xyz
x,y,z
-x,y,-z
-x,-y,-z
x,-y,z
1/2+x,1/2+y,z
1/2-x,1/2+y,-z
1/2-x,1/2-y,-z
1/2+x,1/2-y,z
loop_
_atom_site_type_symbol
_atom_site_label
_atom_site_fract_x
_atom_site_fract_y
_atom_site_fract_z
Si Si1 0.273551 0.417733 0.193826
Si Si2 0.654287 0.205817 0.280827
Si Si3 0.413891 0.789445 0.377139
Si Si4 0.500000 0.326814 0.500000
Si Si5 0.485267 0.306936 0.159236
Si Si6 0.755030 0.784552 0.926474
Si Si7 0.474297 0.079631 0.077352
Si Si8 0.189323 0.587342 0.535399
O O1 0.286713 0.500000 0.217446
O O2 0.206885 0.366446 0.246889
O O3 0.443710 0.386902 0.181810
O O4 0.142764 0.414979 0.125788
O O5 0.562748 0.186291 0.342842
O O6 0.804257 0.250408 0.315959
O O7 0.562233 0.257362 0.221718
O O8 0.463836 0.729454 0.436304
O O9 0.321333 0.858080 0.402146
O O10 0.660788 0.376017 0.496365
O O11 0.314992 0.273324 0.129960
O O12 0.577434 0.304879 0.094978
O O13 0.640458 0.854023 0.913899
O O14 0.750000 0.750000 0.000000
O O15 0.405464 0.000000 0.090218
O O16 0.500000 0.082308 0.000000
O O17 0.219207 0.500000 0.546161
O O18 0.000000 0.592771 0.500000
#
# Coordination Sequence:
#
# PCOD9210300 Si02
#       8
#     8   8   8   4   8   8   8   8
#     4  11  24  43  65  94 132 175 220 275 340 397
#     4  12  23  41  66  94 126 178 218 276 322 399
#     4  12  23  42  72  95 130 176 231 266 332 407
#     4  12  23  46  71 104 138 186 224 284 345 410
#     4  12  22  40  61  90 131 165 217 272 325 394
#     4  12  22  36  64  95 123 166 223 270 326 398
#     4  10  21  39  61  89 127 167 212 271 336 392
#     4  11  24  43  69 107 143 173 221 287 348 407
#
# _framework density 19.447216999999998
#
# number of rings (size 3 to 8) (size 9 to 14) (size 15 to 20)
#    0.000    0.533    6.000    3.400    0.000    1.067 
#    0.000    3.333    0.000    4.000    0.000    0.000 
#    0.000    0.000    0.000    0.000    0.000    0.000 
#
# Total GULP energy -167274.370778 kJ/mol
# GULP energy per Si atom -5575.812359 kJ/mol
# Density = 1.940295 g / cm^3
# Si number density = 19.447217 Si / 1000 Ang^3
#
#
#
# Elastic Constant Matrix: (Units=GPa)
#
#
# Indices 1 2 3 4 5 6 
#
# 1 89.4998 41.7928 31.5774 0.0000 -26.7295 0.0000
# 2 41.7928 159.6942 52.5553 0.0000 -7.9025 0.0000
# 3 31.5774 52.5553 91.7781 0.0000 -4.5063 0.0000
# 4 0.0000 0.0000 0.0000 128.5522 0.0000 33.2220
# 5 -26.7295 -7.9025 -4.5063 0.0000 35.3607 0.0000
# 6 0.0000 0.0000 0.0000 33.2220 0.0000 42.7025
#
#
#
# Elastic Compliance Matrix: (Units=1/GPa)
#
#
# Indices 1 2 3 4 5 6 
#
# 1 0.017385 -0.002686 -0.003852 0.000000 0.012051 0.000000
# 2 -0.002686 0.008179 -0.003793 0.000000 -0.000686 0.000000
# 3 -0.003852 -0.003793 0.014298 0.000000 -0.001937 0.000000
# 4 0.000000 0.000000 0.000000 0.009737 0.000000 -0.007575
# 5 0.012051 -0.000686 -0.001937 0.000000 0.036989 0.000000
# 6 0.000000 0.000000 0.000000 -0.007575 0.000000 0.029311
#
#
# Mechanical properties :
#
#
# Convention : Reuss Voigt Hill
#
# Bulk Modulus (GPa) = 52.08150 65.86924 58.97537
# Shear Modulus (GPa) = 34.97428 55.65951 45.31690
#
# Velocity S-wave (km/s) = 4.24538 5.35565 4.83250
# Velocity P-wave (km/s) = 7.13233 8.49637 7.84405
#
# Compressibility (1/GPa) = 0.01920068
#
# Stress axis : x y z
#
# Youngs Moduli (GPa) = 57.51939 122.25959 69.93864
#
# Poissons Ratio (x) = 0.32837 0.26940
# Poissons Ratio (y) = 0.15449 0.26530
# Poissons Ratio (z) = 0.22156 0.46377
#
# Static dielectric constant tensor:
#      x y z
#    x 1.756610 0.000000 -0.011090 
#    y 0.000000 1.719780 0.000000 
#    z -0.011090 0.000000 1.672990 
# 
# From -- ./inp_files/300829.got.cif
#   From: 2010.05.17/outbox.cif.g08.bks.cpg/sg12_151_cif.got.tgz:300829.got - 2010.06.03 13:09:07.
