data_PCOD9210811
_publ_section_title
;
Structure prediction by ZEFSAII (Michael W. Deem and Ramdas Pophale) SiO2 
 PCOD9210811
Probable space group: C 2/M
;
_chemical_formula_sum "Si O2"
_cell_formula_units_Z 48
_cell_length_a 25.439936
_cell_length_b 8.912688
_cell_length_c 14.259799
_cell_angle_alpha 90.000000
_cell_angle_beta 138.558791
_cell_angle_gamma 90.000000
_cell_volume 2139.924652
_symmetry_space_group_name_H-M "C 2/M"
_symmetry_group_IT_number 12
_symmetry_cell_setting 'monoclinic'
loop_
_space_group_symop_operation_xyz
x,y,z
-x,y,-z
-x,-y,-z
x,-y,z
1/2+x,1/2+y,z
1/2-x,1/2+y,-z
1/2-x,1/2-y,-z
1/2+x,1/2-y,z
loop_
_atom_site_type_symbol
_atom_site_label
_atom_site_fract_x
_atom_site_fract_y
_atom_site_fract_z
Si Si1 0.332426 0.673529 0.502032
Si Si2 0.756507 0.178266 0.112154
Si Si3 0.669620 0.671166 0.274875
Si Si4 0.510637 0.321395 0.737532
Si Si5 0.417508 0.821417 0.340697
Si Si6 0.094961 0.676354 0.011414
O O1 0.316103 0.500000 0.453518
O O2 0.337586 0.679238 0.622552
O O3 0.259508 0.775503 0.374568
O O4 0.420446 0.716747 0.588585
O O5 0.837231 0.241603 0.265966
O O6 0.678779 0.209196 0.070381
O O7 0.763445 0.000000 0.111148
O O8 0.750000 0.250000 0.000000
O O9 0.657540 0.500000 0.228898
O O10 0.609621 0.775134 0.137540
O O11 0.521465 0.500000 0.741413
O O12 0.568677 0.229215 0.748018
O O13 0.529845 0.271750 0.868725
O O14 0.500000 0.775544 0.500000
O O15 0.408701 0.000000 0.336253
O O16 0.078082 0.500000 0.981173
#
# Coordination Sequence:
#
# PCOD9210811 Si02
#       6
#     8   8   8   8   8   8
#     4   9  21  41  62  89 122 155 196 247 297 352
#     4  11  23  40  63  87 119 160 200 246 294 349
#     4  10  21  39  64  90 119 157 199 242 296 357
#     4  11  23  40  63  88 119 157 199 246 297 352
#     4  11  25  42  60  88 124 157 197 246 296 354
#     4  11  24  40  60  89 123 156 199 247 294 351
#
# _framework density 22.430696000000001
#
# number of rings (size 3 to 8) (size 9 to 14) (size 15 to 20)
#    0.000    1.500    1.667    2.500    2.333    6.000 
#    0.000    3.333    0.000    0.000    0.000    0.000 
#    0.000    0.000    0.000    0.000    0.000    0.000 
#
# Total GULP energy -134309.584171 kJ/mol
# GULP energy per Si atom -5596.232674 kJ/mol
# Density = 2.237964 g / cm^3
# Si number density = 22.430696 Si / 1000 Ang^3
#
#
#
# Elastic Constant Matrix: (Units=GPa)
#
#
# Indices 1 2 3 4 5 6 
#
# 1 44.7422 7.7117 -9.6536 0.0000 9.7852 0.0000
# 2 7.7117 25.0788 12.9857 0.0000 7.9378 0.0000
# 3 -9.6536 12.9857 87.2983 0.0000 3.4666 0.0000
# 4 0.0000 0.0000 0.0000 37.8677 0.0000 2.5751
# 5 9.7852 7.9378 3.4666 0.0000 32.8967 0.0000
# 6 0.0000 0.0000 0.0000 2.5751 0.0000 19.9581
#
#
#
# Elastic Compliance Matrix: (Units=1/GPa)
#
#
# Indices 1 2 3 4 5 6 
#
# 1 0.026085 -0.008317 0.004368 0.000000 -0.006213 0.000000
# 2 -0.008317 0.049238 -0.007903 0.000000 -0.008574 0.000000
# 3 0.004368 -0.007903 0.013145 0.000000 -0.000777 0.000000
# 4 0.000000 0.000000 0.000000 0.026641 0.000000 -0.003437
# 5 -0.006213 -0.008574 -0.000777 0.000000 0.034397 0.000000
# 6 0.000000 0.000000 0.000000 -0.003437 0.000000 0.050548
#
#
# Mechanical properties :
#
#
# Convention : Reuss Voigt Hill
#
# Bulk Modulus (GPa) = 15.44068 19.91189 17.67628
# Shear Modulus (GPa) = 20.37943 27.88287 24.13115
#
# Velocity S-wave (km/s) = 3.01749 3.52954 3.28351
# Velocity P-wave (km/s) = 4.36337 5.05040 4.71940
#
# Compressibility (1/GPa) = 0.06476400
#
# Stress axis : x y z
#
# Youngs Moduli (GPa) = 38.33632 20.30961 76.07726
#
# Poissons Ratio (x) = 0.16891 -0.33233
# Poissons Ratio (y) = 0.31883 0.60126
# Poissons Ratio (z) = -0.16747 0.16051
#
# Static dielectric constant tensor:
#      x y z
#    x 1.878770 0.000000 -0.033370 
#    y 0.000000 1.743550 0.000000 
#    z -0.033370 0.000000 1.850910 
# 
# From -- ./inp_files/244877.got.cif
#   From: 2010.05.17/outbox.cif.g08.bks.cpg/sg12_123_cif.got.tgz:244877.got - 2010.06.03 13:09:07.
