data_PCOD9210624
_publ_section_title
;
Structure prediction by ZEFSAII (Michael W. Deem and Ramdas Pophale) SiO2 
 PCOD9210624
Probable space group: C 2/M
;
_chemical_formula_sum "Si O2"
_cell_formula_units_Z 56
_cell_length_a 21.926881
_cell_length_b 16.454171
_cell_length_c 15.078991
_cell_angle_alpha 90.000000
_cell_angle_beta 151.435069
_cell_angle_gamma 90.000000
_cell_volume 2601.317053
_symmetry_space_group_name_H-M "C 2/M"
_symmetry_group_IT_number 12
_symmetry_cell_setting 'monoclinic'
loop_
_space_group_symop_operation_xyz
x,y,z
-x,y,-z
-x,-y,-z
x,-y,z
1/2+x,1/2+y,z
1/2-x,1/2+y,-z
1/2-x,1/2-y,-z
1/2+x,1/2-y,z
loop_
_atom_site_type_symbol
_atom_site_label
_atom_site_fract_x
_atom_site_fract_y
_atom_site_fract_z
Si Si1 0.154604 0.328598 0.908740
Si Si2 0.178218 0.404447 0.745185
Si Si3 0.130054 0.682393 0.131422
Si Si4 0.346512 0.598208 0.300952
Si Si5 0.585316 0.687846 0.923789
Si Si6 0.320721 0.687523 0.652446
Si Si7 0.402031 0.095284 0.551663
O O1 0.152650 0.357149 0.803472
O O2 0.133715 0.231201 0.895101
O O3 0.014287 0.365378 0.752140
O O4 0.265891 0.368876 0.111824
O O5 0.154814 0.500000 0.726846
O O6 0.111454 0.376559 0.568966
O O7 0.327039 0.383453 0.927042
O O8 0.258417 0.632206 0.270497
O O9 0.149142 0.755358 0.225273
O O10 0.100972 0.733416 0.006029
O O11 0.000000 0.638226 0.000000
O O12 0.500000 0.621379 0.500000
O O13 0.342651 0.500000 0.295159
O O14 0.442089 0.659588 0.751378
O O15 0.250000 0.750000 0.500000
O O16 0.230205 0.616649 0.570311
O O17 0.423594 0.000000 0.574953
#
# Coordination Sequence:
#
# PCOD9210624 Si02
#       7
#     8   8   8   8   8   8   8
#     4  11  22  42  65  93 130 174 222 263 320 400
#     4  11  23  39  62  96 137 172 210 266 329 399
#     4   9  20  39  60  87 123 164 214 267 321 394
#     4  10  22  41  65  92 127 169 216 280 338 385
#     4  10  21  39  63  89 124 169 219 267 321 383
#     4  11  21  40  62  89 125 167 214 271 320 385
#     4  11  23  40  65  98 134 172 214 268 332 391
#
# _framework density 21.527557000000002
#
# number of rings (size 3 to 8) (size 9 to 14) (size 15 to 20)
#    0.000    1.571    2.857    2.143    0.000    3.143 
#    5.143    2.143    0.000    0.000    0.000    0.000 
#    0.000    0.000    0.000    0.000    0.000    0.000 
#
# Total GULP energy -155895.818767 kJ/mol
# GULP energy per Si atom -5567.707813 kJ/mol
# Density = 2.147856 g / cm^3
# Si number density = 21.527557 Si / 1000 Ang^3
#
#
#
# Elastic Constant Matrix: (Units=GPa)
#
#
# Indices 1 2 3 4 5 6 
#
# 1 59.8314 12.1411 19.5877 0.0000 9.4029 0.0000
# 2 12.1411 51.0637 22.1180 0.0000 7.9471 0.0000
# 3 19.5877 22.1180 123.8161 0.0000 22.4653 0.0000
# 4 0.0000 0.0000 0.0000 -6.5266 0.0000 -17.7112
# 5 9.4029 7.9471 22.4653 0.0000 43.2496 0.0000
# 6 0.0000 0.0000 0.0000 -17.7112 0.0000 20.0269
#
#
#
# Elastic Compliance Matrix: (Units=1/GPa)
#
#
# Indices 1 2 3 4 5 6 
#
# 1 0.018359 -0.003165 -0.001899 0.000000 -0.002423 0.000000
# 2 -0.003165 0.021951 -0.003106 0.000000 -0.001732 0.000000
# 3 -0.001899 -0.003106 0.009664 0.000000 -0.004036 0.000000
# 4 0.000000 0.000000 0.000000 -0.045066 0.000000 -0.039855
# 5 -0.002423 -0.001732 -0.004036 0.000000 0.026063 0.000000
# 6 0.000000 0.000000 0.000000 -0.039855 0.000000 0.014687
#
#
# Mechanical properties :
#
#
# Convention : Reuss Voigt Hill
#
# Bulk Modulus (GPa) = 29.73343 38.04498 33.88920
# Shear Modulus (GPa) = 68.29678 23.40761 45.85219
#
# Velocity S-wave (km/s) = 5.63863 3.30105 4.62012
# Velocity P-wave (km/s) = 7.49893 5.67805 6.65110
#
# Compressibility (1/GPa) = 0.03363218
#
# Stress axis : x y z
#
# Youngs Moduli (GPa) = 54.47064 45.55615 103.47492
#
# Poissons Ratio (x) = 0.14420 0.19652
# Poissons Ratio (y) = 0.17241 0.32142
# Poissons Ratio (z) = 0.10345 0.14151
#
# Static dielectric constant tensor:
#      x y z
#    x 1.685730 0.000000 0.245380 
#    y 0.000000 1.728880 0.000000 
#    z 0.245380 0.000000 1.842670 
# 
# From -- ./inp_files/234697.got.cif
#   From: 2010.05.17/outbox.cif.g08.bks.cpg/sg12_118_cif.got.tgz:234697.got - 2010.06.03 13:09:07.
