data_PCOD9210144
_publ_section_title
;
Structure prediction by ZEFSAII (Michael W. Deem and Ramdas Pophale) SiO2 
 PCOD9210144
Probable space group: C 2/M
;
_chemical_formula_sum "Si O2"
_cell_formula_units_Z 42
_cell_length_a 19.229905
_cell_length_b 7.473769
_cell_length_c 14.238913
_cell_angle_alpha 90.000000
_cell_angle_beta 116.287494
_cell_angle_gamma 90.000000
_cell_volume 1834.780869
_symmetry_space_group_name_H-M "C 2/M"
_symmetry_group_IT_number 12
_symmetry_cell_setting 'monoclinic'
loop_
_space_group_symop_operation_xyz
x,y,z
-x,y,-z
-x,-y,-z
x,-y,z
1/2+x,1/2+y,z
1/2-x,1/2+y,-z
1/2-x,1/2-y,-z
1/2+x,1/2-y,z
loop_
_atom_site_type_symbol
_atom_site_label
_atom_site_fract_x
_atom_site_fract_y
_atom_site_fract_z
Si Si1 0.091916 0.793292 0.471803
Si Si2 0.977465 0.209529 0.087799
Si Si3 0.500000 0.000000 0.500000
Si Si4 0.632965 0.785331 0.290708
Si Si5 0.707970 0.718054 0.706545
Si Si6 0.827228 0.785458 0.105495
O O1 0.136358 0.777459 0.400031
O O2 0.147394 0.729051 0.589731
O O3 0.020736 0.658218 0.434767
O O4 0.070269 0.000000 0.471792
O O5 0.902121 0.285721 0.094858
O O6 0.052444 0.222986 0.198157
O O7 0.959454 0.000000 0.060566
O O8 0.000000 0.288476 0.000000
O O9 0.706358 0.723491 0.273514
O O10 0.633842 0.000000 0.291277
O O11 0.708256 0.500000 0.707169
O O12 0.683895 0.782061 0.795001
O O13 0.836656 0.000000 0.119740
O O14 0.750000 0.750000 0.000000
#
# Coordination Sequence:
#
# PCOD9210144 Si02
#       6
#     8   8   2   8   8   8
#     4  11  24  44  68  95 137 178 212 272 333 381
#     4  10  22  39  60  89 126 170 219 271 332 397
#     4  12  26  44  64 106 134 164 234 268 314 410
#     4  11  22  40  64  95 129 167 224 275 323 399
#     4   9  21  40  64  90 128 174 215 268 331 389
#     4  10  21  39  60  87 121 162 212 266 330 394
#
# _framework density 22.891017999999999
#
# number of rings (size 3 to 8) (size 9 to 14) (size 15 to 20)
#    0.000    1.714    0.952    2.571    2.667    1.143 
#    5.143    0.000    0.000    0.000    0.000    0.000 
#    0.000    0.000    0.000    0.000    0.000    0.000 
#
# Total GULP energy -117224.626568 kJ/mol
# GULP energy per Si atom -5582.125075 kJ/mol
# Density = 2.283892 g / cm^3
# Si number density = 22.891018 Si / 1000 Ang^3
#
#
#
# Elastic Constant Matrix: (Units=GPa)
#
#
# Indices 1 2 3 4 5 6 
#
# 1 219.8051 15.9031 93.4871 0.0000 -29.9160 0.0000
# 2 15.9031 89.8041 -25.3572 0.0000 -11.9044 0.0000
# 3 93.4871 -25.3572 148.4431 0.0000 -30.3039 0.0000
# 4 0.0000 0.0000 0.0000 26.6793 0.0000 -0.6191
# 5 -29.9160 -11.9044 -30.3039 0.0000 45.4502 0.0000
# 6 0.0000 0.0000 0.0000 -0.6191 0.0000 -15.4835
#
#
#
# Elastic Compliance Matrix: (Units=1/GPa)
#
#
# Indices 1 2 3 4 5 6 
#
# 1 0.006735 -0.002344 -0.004471 0.000000 0.000838 0.000000
# 2 -0.002344 0.013629 0.004883 0.000000 0.005283 0.000000
# 3 -0.004471 0.004883 0.011629 0.000000 0.006090 0.000000
# 4 0.000000 0.000000 0.000000 0.037447 0.000000 -0.001497
# 5 0.000838 0.005283 0.006090 0.000000 0.027998 0.000000
# 6 0.000000 0.000000 0.000000 -0.001497 0.000000 -0.064525
#
#
# Mechanical properties :
#
#
# Convention : Reuss Voigt Hill
#
# Bulk Modulus (GPa) = 35.54930 69.56869 52.55900
# Shear Modulus (GPa) = 108.33360 36.26385 72.29873
#
# Velocity S-wave (km/s) = 6.88684 3.98451 5.62605
# Velocity P-wave (km/s) = 8.87703 7.18510 8.07550
#
# Compressibility (1/GPa) = 0.02812995
#
# Stress axis : x y z
#
# Youngs Moduli (GPa) = 148.48799 73.37105 85.98863
#
# Poissons Ratio (x) = 0.17197 0.38442
# Poissons Ratio (y) = 0.34803 -0.41986
# Poissons Ratio (z) = 0.66383 -0.35825
#
# Static dielectric constant tensor:
#      x y z
#    x 1.892020 0.000000 -0.000300 
#    y 0.000000 1.864660 0.000000 
#    z -0.000300 0.000000 1.820390 
# 
# From -- ./inp_files/221828.got.cif
#   From: 2010.05.17/outbox.cif.g08.bks.cpg/sg12_111_cif.got.tgz:221828.got - 2010.06.03 13:09:07.
