data_PCOD9210186
_publ_section_title
;
Structure prediction by ZEFSAII (Michael W. Deem and Ramdas Pophale) SiO2 
 PCOD9210186
Probable space group: C 2/M
;
_chemical_formula_sum "Si O2"
_cell_formula_units_Z 60
_cell_length_a 22.235189
_cell_length_b 20.596036
_cell_length_c 6.318345
_cell_angle_alpha 90.000000
_cell_angle_beta 108.008884
_cell_angle_gamma 90.000000
_cell_volume 2751.770708
_symmetry_space_group_name_H-M "C 2/M"
_symmetry_group_IT_number 12
_symmetry_cell_setting 'monoclinic'
loop_
_space_group_symop_operation_xyz
x,y,z
-x,y,-z
-x,-y,-z
x,-y,z
1/2+x,1/2+y,z
1/2-x,1/2+y,-z
1/2-x,1/2-y,-z
1/2+x,1/2-y,z
loop_
_atom_site_type_symbol
_atom_site_label
_atom_site_fract_x
_atom_site_fract_y
_atom_site_fract_z
Si Si1 0.246264 0.318226 0.209292
Si Si2 0.569374 0.238800 0.564599
Si Si3 0.562961 0.356366 0.217072
Si Si4 0.667261 0.860362 0.469014
Si Si5 0.569404 0.924146 0.048522
Si Si6 0.469350 0.500000 0.714436
Si Si7 0.825566 0.570978 0.123708
Si Si8 0.650231 0.294138 0.983228
O O1 0.231457 0.335618 0.433511
O O2 0.316809 0.318885 0.197686
O O3 0.213101 0.372860 0.029766
O O4 0.205229 0.252935 0.129423
O O5 0.500000 0.206807 0.500000
O O6 0.561695 0.301246 0.399687
O O7 0.627141 0.194972 0.542657
O O8 0.590091 0.255863 0.826094
O O9 0.563990 0.429343 0.312585
O O10 0.500000 0.351295 0.000000
O O11 0.622776 0.342050 0.128376
O O12 0.619421 0.885916 0.241266
O O13 0.682689 0.918889 0.639739
O O14 0.567831 0.000000 0.112494
O O15 0.500000 0.896963 0.000000
O O16 0.600048 0.921922 0.849816
O O17 0.500000 0.500000 0.500000
O O18 0.500000 0.500000 0.000000
O O19 0.806137 0.500000 0.026336
#
# Coordination Sequence:
#
# PCOD9210186 Si02
#       8
#     8   8   8   8   8   4   8   8
#     4  10  23  42  63  87 126 171 221 270 334 390
#     4  12  24  36  63  98 131 163 214 271 338 404
#     4  11  23  43  69  96 132 171 216 271 346 417
#     4  11  22  35  59  91 120 169 210 271 324 388
#     4   9  20  35  52  80 119 164 212 260 314 381
#     4  10  24  44  74 102 144 190 222 276 361 447
#     4  10  21  39  61  82 120 167 216 265 322 385
#     4  11  23  42  65  95 126 169 217 275 331 413
#
# _framework density 21.804141999999999
#
# number of rings (size 3 to 8) (size 9 to 14) (size 15 to 20)
#    0.000    1.467    4.000    0.800    3.733    2.667 
#    1.200    2.000    0.000    0.000    0.000    0.000 
#    0.000    0.000    0.000    0.000    0.000    0.000 
#
# Total GULP energy -167209.784877 kJ/mol
# GULP energy per Si atom -5573.659496 kJ/mol
# Density = 2.175451 g / cm^3
# Si number density = 21.804142 Si / 1000 Ang^3
#
#
#
# Elastic Constant Matrix: (Units=GPa)
#
#
# Indices 1 2 3 4 5 6 
#
# 1 90.4551 22.0597 19.1106 0.0000 -20.6839 0.0000
# 2 22.0597 78.7473 15.3500 0.0000 -19.1946 0.0000
# 3 19.1106 15.3500 66.7629 0.0000 -17.4632 0.0000
# 4 0.0000 0.0000 0.0000 25.8567 0.0000 -26.4638
# 5 -20.6839 -19.1946 -17.4632 0.0000 37.1625 0.0000
# 6 0.0000 0.0000 0.0000 -26.4638 0.0000 -6.6027
#
#
#
# Elastic Compliance Matrix: (Units=1/GPa)
#
#
# Indices 1 2 3 4 5 6 
#
# 1 0.013182 -0.002004 -0.001897 0.000000 0.005410 0.000000
# 2 -0.002004 0.014978 -0.001298 0.000000 0.006011 0.000000
# 3 -0.001897 -0.001298 0.017522 0.000000 0.006507 0.000000
# 4 0.000000 0.000000 0.000000 0.007580 0.000000 -0.030381
# 5 0.005410 0.006011 0.006507 0.000000 0.036083 0.000000
# 6 0.000000 0.000000 0.000000 -0.030381 0.000000 -0.029684
#
#
# Mechanical properties :
#
#
# Convention : Reuss Voigt Hill
#
# Bulk Modulus (GPa) = 28.34163 38.77843 33.56003
# Shear Modulus (GPa) = 61.10907 23.24630 42.17769
#
# Velocity S-wave (km/s) = 5.29974 3.26872 4.40294
# Velocity P-wave (km/s) = 7.10465 5.66300 6.42439
#
# Compressibility (1/GPa) = 0.03528378
#
# Stress axis : x y z
#
# Youngs Moduli (GPa) = 75.86151 66.76255 57.07095
#
# Poissons Ratio (x) = 0.13380 0.10829
# Poissons Ratio (y) = 0.15204 0.07407
# Poissons Ratio (z) = 0.14394 0.08665
#
# Static dielectric constant tensor:
#      x y z
#    x 1.827800 0.000000 -0.044940 
#    y 0.000000 1.813330 0.000000 
#    z -0.044940 0.000000 1.880900 
# 
# From -- ./inp_files/21885.got.cif
#   From: 2010.05.17/outbox.cif.g08.bks.cpg/sg12_11_cif.got.tgz:21885.got - 2010.06.03 13:09:07.
