data_PCOD9210495
_publ_section_title
;
Structure prediction by ZEFSAII (Michael W. Deem and Ramdas Pophale) SiO2 
 PCOD9210495
Probable space group: C 2/M
;
_chemical_formula_sum "Si O2"
_cell_formula_units_Z 64
_cell_length_a 31.967270
_cell_length_b 15.700772
_cell_length_c 12.418452
_cell_angle_alpha 90.000000
_cell_angle_beta 30.519004
_cell_angle_gamma 90.000000
_cell_volume 3165.245104
_symmetry_space_group_name_H-M "C 2/M"
_symmetry_group_IT_number 12
_symmetry_cell_setting 'monoclinic'
loop_
_space_group_symop_operation_xyz
x,y,z
-x,y,-z
-x,-y,-z
x,-y,z
1/2+x,1/2+y,z
1/2-x,1/2+y,-z
1/2-x,1/2-y,-z
1/2+x,1/2-y,z
loop_
_atom_site_type_symbol
_atom_site_label
_atom_site_fract_x
_atom_site_fract_y
_atom_site_fract_z
Si Si1 0.198613 0.603134 0.220227
Si Si2 0.402819 0.902823 0.186609
Si Si3 0.906940 0.598757 0.745970
Si Si4 0.503962 0.400155 0.315759
Si Si5 0.516413 0.303906 0.836796
Si Si6 0.622897 0.603683 0.231058
Si Si7 0.807718 0.718324 0.555256
Si Si8 0.628315 0.812142 0.950525
O O1 0.193862 0.500000 0.248841
O O2 0.135378 0.629087 0.269534
O O3 0.193185 0.653782 0.342530
O O4 0.284079 0.627519 0.975817
O O5 0.338741 0.839370 0.386293
O O6 0.380875 0.892601 0.109843
O O7 0.391777 0.000000 0.247377
O O8 0.500000 0.881538 0.000000
O O9 0.880653 0.500000 0.826578
O O10 0.000000 0.596769 0.500000
O O11 0.888676 0.656060 0.890640
O O12 0.504119 0.500000 0.333952
O O13 0.497998 0.386352 0.203512
O O14 0.428293 0.364269 0.553676
O O15 0.582952 0.367465 0.206561
O O16 0.611836 0.278216 0.608656
O O17 0.500000 0.311403 0.000000
O O18 0.447830 0.243483 0.930482
O O19 0.621407 0.500000 0.236716
O O20 0.718492 0.765349 0.741963
#
# Coordination Sequence:
#
# PCOD9210495 Si02
#       8
#     8   8   8   8   8   8   8   8
#     4  10  21  39  62  91 124 161 211 262 311 381
#     4  11  23  44  74  97 122 174 233 276 325 389
#     4  10  23  42  65  93 131 172 216 271 325 386
#     4   9  19  38  64  87 118 166 206 249 305 383
#     4  12  25  43  61  89 130 169 215 269 334 385
#     4   8  16  36  62  89 116 151 205 253 299 361
#     4  12  24  42  66  95 134 169 213 273 335 391
#     4  12  24  44  65  96 137 168 212 274 340 391
#
# _framework density 20.219602999999999
#
# number of rings (size 3 to 8) (size 9 to 14) (size 15 to 20)
#    0.000    1.500    2.500    3.375    1.750    0.750 
#    9.000    1.250    0.000    0.000    0.000    0.000 
#    0.000    0.000    0.000    0.000    0.000    0.000 
#
# Total GULP energy -178263.875897 kJ/mol
# GULP energy per Si atom -5570.746122 kJ/mol
# Density = 2.017358 g / cm^3
# Si number density = 20.219603 Si / 1000 Ang^3
#
#
#
# Elastic Constant Matrix: (Units=GPa)
#
#
# Indices 1 2 3 4 5 6 
#
# 1 88.8162 26.5402 -0.4400 0.0000 -14.1950 0.0000
# 2 26.5402 27.0722 27.7516 0.0000 4.4432 0.0000
# 3 -0.4400 27.7516 19.0359 0.0000 -40.8981 0.0000
# 4 0.0000 0.0000 0.0000 29.7732 0.0000 15.6738
# 5 -14.1950 4.4432 -40.8981 0.0000 15.6609 0.0000
# 6 0.0000 0.0000 0.0000 15.6738 0.0000 36.0108
#
#
#
# Elastic Compliance Matrix: (Units=1/GPa)
#
#
# Indices 1 2 3 4 5 6 
#
# 1 0.011411 -0.003610 -0.006496 0.000000 -0.005596 0.000000
# 2 -0.003610 0.024153 0.012373 0.000000 0.022187 0.000000
# 3 -0.006496 0.012373 -0.003070 0.000000 -0.017414 0.000000
# 4 0.000000 0.000000 0.000000 0.043571 0.000000 -0.018964
# 5 -0.005596 0.022187 -0.017414 0.000000 0.007010 0.000000
# 6 0.000000 0.000000 0.000000 -0.018964 0.000000 0.036024
#
#
# Mechanical properties :
#
#
# Convention : Reuss Voigt Hill
#
# Bulk Modulus (GPa) = 27.00614 26.95865 26.98239
# Shear Modulus (GPa) = 39.39867 21.69380 30.54624
#
# Velocity S-wave (km/s) = 4.41901 3.27908 3.89102
# Velocity P-wave (km/s) = 6.27872 5.26293 5.79313
#
# Compressibility (1/GPa) = 0.03702862
#
# Stress axis : x y z
#
# Youngs Moduli (GPa) = 87.63136 41.40320 -325.77533
#
# Poissons Ratio (x) = 0.14947 -2.11614
# Poissons Ratio (y) = 0.31636 4.03075
# Poissons Ratio (z) = 0.56923 -0.51227
#
# Static dielectric constant tensor:
#      x y z
#    x 1.629390 0.000000 0.113070 
#    y 0.000000 1.792350 0.000000 
#    z 0.113070 0.000000 1.612990 
# 
# From -- ./inp_files/190039.got.cif
#   From: 2010.05.17/outbox.cif.g08.bks.cpg/sg12_96_cif.got.tgz:190039.got - 2010.06.03 13:09:07.
