data_PCOD9210177
_publ_section_title
;
Structure prediction by ZEFSAII (Michael W. Deem and Ramdas Pophale) SiO2 
 PCOD9210177
Probable space group: C 2/M
;
_chemical_formula_sum "Si O2"
_cell_formula_units_Z 52
_cell_length_a 7.421960
_cell_length_b 22.954349
_cell_length_c 23.433957
_cell_angle_alpha 90.000000
_cell_angle_beta 145.262924
_cell_angle_gamma 90.000000
_cell_volume 2274.889790
_symmetry_space_group_name_H-M "C 2/M"
_symmetry_group_IT_number 12
_symmetry_cell_setting 'monoclinic'
loop_
_space_group_symop_operation_xyz
x,y,z
-x,y,-z
-x,-y,-z
x,-y,z
1/2+x,1/2+y,z
1/2-x,1/2+y,-z
1/2-x,1/2-y,-z
1/2+x,1/2-y,z
loop_
_atom_site_type_symbol
_atom_site_label
_atom_site_fract_x
_atom_site_fract_y
_atom_site_fract_z
Si Si1 0.000000 0.904353 0.500000
Si Si2 0.171702 0.568424 0.801691
Si Si3 0.178908 0.105352 0.767657
Si Si4 0.619028 0.701608 0.386293
Si Si5 0.913840 0.000000 0.558892
Si Si6 0.359603 0.065900 0.026908
Si Si7 0.579136 0.170089 0.337669
Si Si8 0.719219 0.500000 0.340999
O O1 0.302474 0.863742 0.575444
O O2 0.932374 0.942524 0.426484
O O3 0.172198 0.500000 0.780633
O O4 0.876785 0.576881 0.767237
O O5 0.151071 0.625108 0.754823
O O6 0.488164 0.574879 0.921970
O O7 0.443930 0.112146 0.885048
O O8 0.979154 0.158319 0.690538
O O9 0.936237 0.056519 0.725653
O O10 0.494454 0.765410 0.335434
O O11 0.392032 0.681206 0.379305
O O12 0.000000 0.702216 0.500000
O O13 0.592370 0.000000 0.437713
O O14 0.844904 0.000000 0.607036
O O15 0.406724 0.000000 0.063496
O O16 0.500000 0.065609 0.000000
#
# Coordination Sequence:
#
# PCOD9210177 Si02
#       8
#     4   8   8   8   4   8   8   4
#     4  11  24  40  58  88 128 165 220 252 334 365
#     4  10  21  40  67  91 129 162 206 261 320 379
#     4  11  22  38  65  91 124 170 210 252 317 380
#     4  11  25  43  63  91 129 171 217 259 308 376
#     4  10  24  36  56  90 130 165 205 282 303 379
#     4  10  21  39  60  96 128 159 204 261 323 375
#     4  11  25  42  63  93 123 175 213 257 314 380
#     4  11  22  38  60  92 127 165 219 249 329 369
#
# _framework density 22.858249000000001
#
# number of rings (size 3 to 8) (size 9 to 14) (size 15 to 20)
#    0.000    1.385    2.308    2.769    6.462    3.692 
#    0.000    0.769    0.000    0.000    0.000    0.000 
#    0.000    0.000    0.000    0.000    0.000    0.000 
#
# Total GULP energy -145222.413107 kJ/mol
# GULP energy per Si atom -5585.477427 kJ/mol
# Density = 2.280622 g / cm^3
# Si number density = 22.858249 Si / 1000 Ang^3
#
#
#
# Elastic Constant Matrix: (Units=GPa)
#
#
# Indices 1 2 3 4 5 6 
#
# 1 62.8504 19.4621 12.4772 -0.0001 2.4201 0.0001
# 2 19.4621 163.1533 70.8950 -0.0001 -6.0608 0.0001
# 3 12.4772 70.8950 150.4509 0.0007 -1.0142 -0.0009
# 4 -0.0001 -0.0001 0.0007 31.2712 -0.0001 -3.8590
# 5 2.4201 -6.0608 -1.0142 -0.0001 35.3198 0.0001
# 6 0.0001 0.0001 -0.0009 -3.8590 0.0001 29.7416
#
#
#
# Elastic Compliance Matrix: (Units=1/GPa)
#
#
# Indices 1 2 3 4 5 6 
#
# 1 0.016633 -0.001804 -0.000539 0.000000 -0.001465 0.000000
# 2 -0.001804 0.007956 -0.003590 0.000000 0.001386 0.000000
# 3 -0.000539 -0.003590 0.008381 0.000000 -0.000338 0.000000
# 4 0.000000 0.000000 0.000000 0.032499 0.000000 0.004217
# 5 -0.001465 0.001386 -0.000338 0.000000 0.028641 0.000000
# 6 0.000000 0.000000 0.000000 0.004217 0.000000 0.034170
#
#
# Mechanical properties :
#
#
# Convention : Reuss Voigt Hill
#
# Bulk Modulus (GPa) = 47.38676 64.68036 56.03356
# Shear Modulus (GPa) = 33.97191 37.50786 35.73988
#
# Velocity S-wave (km/s) = 3.85931 4.05518 3.95846
# Velocity P-wave (km/s) = 6.37454 7.09110 6.74235
#
# Compressibility (1/GPa) = 0.02110294
#
# Stress axis : x y z
#
# Youngs Moduli (GPa) = 60.12169 125.69360 119.32085
#
# Poissons Ratio (x) = 0.22678 0.06432
# Poissons Ratio (y) = 0.10848 0.42836
# Poissons Ratio (z) = 0.03241 0.45124
#
# Static dielectric constant tensor:
#      x y z
#    x 1.935760 0.000000 0.015780 
#    y 0.000000 1.866690 0.000000 
#    z 0.015780 0.000000 1.888760 
# 
# From -- ./inp_files/357062.got.cif
#   From: 2010.05.17/outbox.cif.g08.bks.cpg/sg12_179_cif.got.tgz:357062.got - 2010.06.03 13:09:07.
