data_PCOD9210032
_publ_section_title
;
Structure prediction by ZEFSAII (Michael W. Deem and Ramdas Pophale) SiO2 
 PCOD9210032
Probable space group: C 2/M
;
_chemical_formula_sum "Si O2"
_cell_formula_units_Z 64
_cell_length_a 17.531366
_cell_length_b 19.954378
_cell_length_c 9.233233
_cell_angle_alpha 90.000000
_cell_angle_beta 91.247221
_cell_angle_gamma 90.000000
_cell_volume 3229.273606
_symmetry_space_group_name_H-M "C 2/M"
_symmetry_group_IT_number 12
_symmetry_cell_setting 'monoclinic'
loop_
_space_group_symop_operation_xyz
x,y,z
-x,y,-z
-x,-y,-z
x,-y,z
1/2+x,1/2+y,z
1/2-x,1/2+y,-z
1/2-x,1/2-y,-z
1/2+x,1/2-y,z
loop_
_atom_site_type_symbol
_atom_site_label
_atom_site_fract_x
_atom_site_fract_y
_atom_site_fract_z
Si Si1 0.314558 0.333327 0.271102
Si Si2 0.752577 0.423435 0.983168
Si Si3 0.306554 0.643239 0.725664
Si Si4 0.582174 0.877206 0.968618
Si Si5 0.088629 0.920543 0.505214
Si Si6 0.923699 0.725410 0.274323
Si Si7 0.684446 0.815911 0.487053
Si Si8 0.902989 0.279693 0.763977
O O1 0.269304 0.376643 0.152904
O O2 0.368710 0.381898 0.364972
O O3 0.368180 0.279081 0.195623
O O4 0.258630 0.298669 0.388476
O O5 0.726903 0.500000 0.961694
O O6 0.843620 0.421245 0.007181
O O7 0.716136 0.390715 0.125147
O O8 0.368647 0.600895 0.639470
O O9 0.231205 0.647256 0.618261
O O10 0.345737 0.716127 0.753861
O O11 0.590210 0.814251 0.079954
O O12 0.500000 0.908557 0.000000
O O13 0.580900 0.844864 0.809218
O O14 0.000000 0.901825 0.500000
O O15 0.094847 0.000000 0.525742
O O16 0.883105 0.722020 0.428291
O O17 0.012293 0.743765 0.277644
O O18 0.629870 0.836233 0.348389
#
# Coordination Sequence:
#
# PCOD9210032 Si02
#       8
#     8   8   8   8   8   8   8   8
#     4  11  22  37  60  91 122 157 205 251 302 357
#     4  12  25  42  64  85 117 165 215 259 295 350
#     4  11  22  37  60  91 122 157 205 251 302 357
#     4  10  23  40  61  86 117 159 198 245 313 369
#     4  10  21  39  59  83 123 169 207 246 295 358
#     4  11  21  36  59  90 124 156 190 243 312 374
#     4  11  21  33  58  92 121 157 190 243 305 372
#     4  11  21  36  59  90 124 156 190 243 312 374
#
# _framework density 19.818698999999999
#
# number of rings (size 3 to 8) (size 9 to 14) (size 15 to 20)
#    0.000    1.125    2.500    5.625    0.000    1.250 
#    0.000    1.875    0.000    4.500    0.000    3.500 
#    0.000    0.000    0.000    0.000    0.000    0.000 
#
# Total GULP energy -178199.528570 kJ/mol
# GULP energy per Si atom -5568.735268 kJ/mol
# Density = 1.977359 g / cm^3
# Si number density = 19.818699 Si / 1000 Ang^3
#
#
#
# Elastic Constant Matrix: (Units=GPa)
#
#
# Indices 1 2 3 4 5 6 
#
# 1 124.2977 28.5601 32.9462 0.0000 -15.4839 0.0000
# 2 28.5601 50.2727 13.0094 0.0000 -11.6842 0.0000
# 3 32.9462 13.0094 79.4246 0.0000 -17.8735 0.0000
# 4 0.0000 0.0000 0.0000 2.5745 0.0000 10.8663
# 5 -15.4839 -11.6842 -17.8735 0.0000 27.1494 0.0000
# 6 0.0000 0.0000 0.0000 10.8663 0.0000 21.3982
#
#
#
# Elastic Compliance Matrix: (Units=1/GPa)
#
#
# Indices 1 2 3 4 5 6 
#
# 1 0.010122 -0.004541 -0.003047 0.000000 0.001813 0.000000
# 2 -0.004541 0.024345 -0.000386 0.000000 0.007633 0.000000
# 3 -0.003047 -0.000386 0.015835 0.000000 0.008521 0.000000
# 4 0.000000 0.000000 0.000000 -0.339720 0.000000 0.172515
# 5 0.001813 0.007633 0.008521 0.000000 0.046762 0.000000
# 6 0.000000 0.000000 0.000000 0.172515 0.000000 -0.040873
#
#
# Mechanical properties :
#
#
# Convention : Reuss Voigt Hill
#
# Bulk Modulus (GPa) = 29.10823 44.78071 36.94447
# Shear Modulus (GPa) = -19.52134 22.18971 1.33418
#
# Velocity S-wave (km/s) = -3.14187 3.34972 0.82137
# Velocity P-wave (km/s) = 1.24794 6.13230 4.42507
#
# Compressibility (1/GPa) = 0.03435455
#
# Stress axis : x y z
#
# Youngs Moduli (GPa) = 98.79533 41.07602 63.14993
#
# Poissons Ratio (x) = 0.18651 0.19242
# Poissons Ratio (y) = 0.44858 0.02440
# Poissons Ratio (z) = 0.30104 0.01587
#
# Static dielectric constant tensor:
#      x y z
#    x 1.718220 0.000000 0.020340 
#    y 0.000000 1.707920 0.000000 
#    z 0.020340 0.000000 1.692390 
# 
# From -- ./inp_files/77502.got.cif
#   From: 2010.05.17/outbox.cif.g08.bks.cpg/sg12_39_cif.got.tgz:77502.got - 2010.06.03 13:09:07.
