data_PCOD9210793
_publ_section_title
;
Structure prediction by ZEFSAII (Michael W. Deem and Ramdas Pophale) SiO2 
 PCOD9210793
Probable space group: C 2/M
;
_chemical_formula_sum "Si O2"
_cell_formula_units_Z 42
_cell_length_a 26.544434
_cell_length_b 20.489177
_cell_length_c 11.739504
_cell_angle_alpha 90.000000
_cell_angle_beta 159.458082
_cell_angle_gamma 90.000000
_cell_volume 2240.381078
_symmetry_space_group_name_H-M "C 2/M"
_symmetry_group_IT_number 12
_symmetry_cell_setting 'monoclinic'
loop_
_space_group_symop_operation_xyz
x,y,z
-x,y,-z
-x,-y,-z
x,-y,z
1/2+x,1/2+y,z
1/2-x,1/2+y,-z
1/2-x,1/2-y,-z
1/2+x,1/2-y,z
loop_
_atom_site_type_symbol
_atom_site_label
_atom_site_fract_x
_atom_site_fract_y
_atom_site_fract_z
Si Si1 0.147935 0.393466 0.474169
Si Si2 0.766662 0.332337 0.730547
Si Si3 0.983242 0.251586 0.832382
Si Si4 0.332994 0.426637 0.676655
Si Si5 0.473118 0.076681 0.310592
Si Si6 0.000000 0.500000 0.000000
O O1 0.101676 0.320024 0.349646
O O2 0.300668 0.407367 0.738254
O O3 0.115323 0.407915 0.536540
O O4 0.044517 0.442601 0.187315
O O5 0.611736 0.302578 0.431813
O O6 0.743141 0.376805 0.568920
O O7 0.849381 0.376766 0.996725
O O8 0.867061 0.271436 0.907424
O O9 0.000000 0.231416 0.000000
O O10 0.268089 0.500000 0.522539
O O11 0.500000 0.429014 0.000000
O O12 0.500000 0.089616 0.500000
O O13 0.436521 0.000000 0.219821
#
# Coordination Sequence:
#
# PCOD9210793 Si02
#       6
#     8   8   8   8   8   2
#     4  11  20  33  57  86 117 148 193 233 292 345
#     4  11  23  36  56  85 120 153 195 237 290 353
#     4  11  21  34  53  86 122 157 184 232 296 355
#     4  11  22  34  55  87 122 152 185 239 301 349
#     4  10  21  39  64  88 110 150 203 248 282 331
#     4  12  16  32  60  84 116 136 182 248 284 348
#
# _framework density 18.746811000000001
#
# number of rings (size 3 to 8) (size 9 to 14) (size 15 to 20)
#    0.000    1.143    4.762    2.857    2.667    0.000 
#    0.000    3.810    0.000    1.143    0.000    5.333 
#    0.000    0.000    0.000    0.000    0.000    0.000 
#
# Total GULP energy -117015.202823 kJ/mol
# GULP energy per Si atom -5572.152515 kJ/mol
# Density = 1.870414 g / cm^3
# Si number density = 18.746811 Si / 1000 Ang^3
#
#
#
# Elastic Constant Matrix: (Units=GPa)
#
#
# Indices 1 2 3 4 5 6 
#
# 1 120.1788 22.1398 52.4789 0.0000 -11.7618 0.0000
# 2 22.1398 91.1013 42.4039 0.0000 -1.9197 0.0000
# 3 52.4789 42.4039 70.8577 0.0000 -4.0518 0.0000
# 4 0.0000 0.0000 0.0000 22.3650 0.0000 8.2519
# 5 -11.7618 -1.9197 -4.0518 0.0000 27.8889 0.0000
# 6 0.0000 0.0000 0.0000 8.2519 0.0000 17.9540
#
#
#
# Elastic Compliance Matrix: (Units=1/GPa)
#
#
# Indices 1 2 3 4 5 6 
#
# 1 0.012941 0.001793 -0.010425 0.000000 0.004067 0.000000
# 2 0.001793 0.015465 -0.010567 0.000000 0.000286 0.000000
# 3 -0.010425 -0.010567 0.028098 0.000000 -0.001042 0.000000
# 4 0.000000 0.000000 0.000000 0.053844 0.000000 -0.024747
# 5 0.004067 0.000286 -0.001042 0.000000 0.037440 0.000000
# 6 0.000000 0.000000 0.000000 -0.024747 0.000000 0.067072
#
#
# Mechanical properties :
#
#
# Convention : Reuss Voigt Hill
#
# Bulk Modulus (GPa) = 55.22752 57.35369 56.29060
# Shear Modulus (GPa) = 19.28327 24.64925 21.96626
#
# Velocity S-wave (km/s) = 3.21068 3.63002 3.42677
# Velocity P-wave (km/s) = 6.57786 6.94476 6.76380
#
# Compressibility (1/GPa) = 0.01810691
#
# Stress axis : x y z
#
# Youngs Moduli (GPa) = 77.27482 64.66027 35.59021
#
# Poissons Ratio (x) = -0.11594 0.37102
# Poissons Ratio (y) = -0.13856 0.37607
# Poissons Ratio (z) = 0.80557 0.68325
#
# Static dielectric constant tensor:
#      x y z
#    x 1.831450 0.000000 0.356770 
#    y 0.000000 1.680150 0.000000 
#    z 0.356770 0.000000 2.201930 
# 
# From -- ./inp_files/190249.got.cif
#   From: 2010.05.17/outbox.cif.g08.bks.cpg/sg12_96_cif.got.tgz:190249.got - 2010.06.03 13:09:07.
