data_PCOD9210217
_publ_section_title
;
Structure prediction by ZEFSAII (Michael W. Deem and Ramdas Pophale) SiO2 
 PCOD9210217
Probable space group: C 2/M
;
_chemical_formula_sum "Si O2"
_cell_formula_units_Z 64
_cell_length_a 15.027895
_cell_length_b 24.432453
_cell_length_c 17.813635
_cell_angle_alpha 90.000000
_cell_angle_beta 29.634830
_cell_angle_gamma 90.000000
_cell_volume 3234.134069
_symmetry_space_group_name_H-M "C 2/M"
_symmetry_group_IT_number 12
_symmetry_cell_setting 'monoclinic'
loop_
_space_group_symop_operation_xyz
x,y,z
-x,y,-z
-x,-y,-z
x,-y,z
1/2+x,1/2+y,z
1/2-x,1/2+y,-z
1/2-x,1/2-y,-z
1/2+x,1/2-y,z
loop_
_atom_site_type_symbol
_atom_site_label
_atom_site_fract_x
_atom_site_fract_y
_atom_site_fract_z
Si Si1 0.854091 0.828974 0.232188
Si Si2 0.324759 0.938856 0.576445
Si Si3 0.195634 0.129497 0.389623
Si Si4 0.950348 0.435792 0.313365
Si Si5 0.033632 0.334389 0.050406
Si Si6 0.273112 0.769729 0.819278
Si Si7 0.774693 0.649490 0.938981
Si Si8 0.838932 0.242509 0.514846
O O1 0.775667 0.887164 0.314951
O O2 0.820430 0.811790 0.170317
O O3 0.766161 0.781321 0.348764
O O4 0.065495 0.837497 0.088876
O O5 0.500000 0.942942 0.500000
O O6 0.374087 0.926613 0.453390
O O7 0.237579 0.000000 0.642204
O O8 0.310524 0.084694 0.351593
O O9 0.333104 0.161458 0.232283
O O10 0.161545 0.178198 0.471441
O O11 0.000000 0.112402 0.500000
O O12 0.981897 0.500000 0.281858
O O13 0.135622 0.402195 0.167611
O O14 0.160019 0.354602 0.023909
O O15 0.139958 0.279278 0.943728
O O16 0.000000 0.368812 0.000000
O O17 0.349820 0.798246 0.838374
O O18 0.449873 0.754818 0.643081
O O19 0.750000 0.250000 0.500000
#
# Coordination Sequence:
#
# PCOD9210217 Si02
#       8
#     8   8   8   8   8   8   8   8
#     4  12  23  36  58  91 126 162 202 248 300 364
#     4  10  21  39  61  85 117 157 203 254 306 359
#     4  11  23  39  62  90 120 159 206 256 313 376
#     4  10  23  44  66  87 116 156 205 263 320 373
#     4  11  22  38  56  82 120 158 195 238 296 361
#     4  12  23  37  57  87 129 166 199 241 298 366
#     4  11  23  38  59  84 117 159 203 247 301 368
#     4  12  22  35  58  89 128 165 205 249 301 369
#
# _framework density 19.788913999999998
#
# number of rings (size 3 to 8) (size 9 to 14) (size 15 to 20)
#    0.000    0.875    0.000   10.125    0.000    1.750 
#    0.000    0.000    0.000    9.750    0.000    0.000 
#    0.000    0.000    0.000    0.000    0.000    0.000 
#
# Total GULP energy -178311.634163 kJ/mol
# GULP energy per Si atom -5572.238568 kJ/mol
# Density = 1.974387 g / cm^3
# Si number density = 19.788914 Si / 1000 Ang^3
#
#
#
# Elastic Constant Matrix: (Units=GPa)
#
#
# Indices 1 2 3 4 5 6 
#
# 1 86.1393 -9.2731 17.1840 0.0384 4.0200 -0.0002
# 2 -9.2731 59.8885 33.4109 0.0480 6.4325 0.0214
# 3 17.1840 33.4109 90.1949 0.0343 -11.6115 0.0274
# 4 0.0384 0.0480 0.0343 55.1436 -0.0357 24.1371
# 5 4.0200 6.4325 -11.6115 -0.0357 33.6889 -0.0104
# 6 -0.0002 0.0214 0.0274 24.1371 -0.0104 39.2126
#
#
#
# Elastic Compliance Matrix: (Units=1/GPa)
#
#
# Indices 1 2 3 4 5 6 
#
# 1 0.013420 0.005412 -0.005128 -0.000018 -0.004402 0.000011
# 2 0.005412 0.024944 -0.011477 -0.000029 -0.009364 0.000010
# 3 -0.005128 -0.011477 0.017451 0.000014 0.008818 -0.000012
# 4 -0.000018 -0.000029 0.000014 0.024822 0.000034 -0.015279
# 5 -0.004402 -0.009364 0.008818 0.000034 0.035036 -0.000013
# 6 0.000011 0.000010 -0.000012 -0.015279 -0.000013 0.034907
#
#
# Mechanical properties :
#
#
# Convention : Reuss Voigt Hill
#
# Bulk Modulus (GPa) = 29.91435 35.42959 32.67197
# Shear Modulus (GPa) = 27.15775 38.60244 32.88010
#
# Velocity S-wave (km/s) = 3.70857 4.42148 4.08062
# Velocity P-wave (km/s) = 5.78684 6.63389 6.22479
#
# Compressibility (1/GPa) = 0.03342877
#
# Stress axis : x y z
#
# Youngs Moduli (GPa) = 74.51464 40.08959 57.30446
#
# Poissons Ratio (x) = -0.21696 0.29387
# Poissons Ratio (y) = -0.40326 0.65766
# Poissons Ratio (z) = 0.38213 0.46009
#
# Static dielectric constant tensor:
#      x y z
#    x 1.735640 -0.000020 0.011570 
#    y -0.000020 1.716220 0.000000 
#    z 0.011570 0.000000 1.805280 
# 
# From -- ./inp_files/272801.got.cif
#   From: 2010.05.17/outbox.cif.g08.bks.cpg/sg12_137_cif.got.tgz:272801.got - 2010.06.03 13:09:07.
