data_PCOD9210733
_publ_section_title
;
Structure prediction by ZEFSAII (Michael W. Deem and Ramdas Pophale) SiO2 
 PCOD9210733
Probable space group: C 2/M
;
_chemical_formula_sum "Si O2"
_cell_formula_units_Z 56
_cell_length_a 9.321377
_cell_length_b 30.537607
_cell_length_c 20.736683
_cell_angle_alpha 90.000000
_cell_angle_beta 30.029159
_cell_angle_gamma 90.000000
_cell_volume 2953.976006
_symmetry_space_group_name_H-M "C 2/M"
_symmetry_group_IT_number 12
_symmetry_cell_setting 'monoclinic'
loop_
_space_group_symop_operation_xyz
x,y,z
-x,y,-z
-x,-y,-z
x,-y,z
1/2+x,1/2+y,z
1/2-x,1/2+y,-z
1/2-x,1/2-y,-z
1/2+x,1/2-y,z
loop_
_atom_site_type_symbol
_atom_site_label
_atom_site_fract_x
_atom_site_fract_y
_atom_site_fract_z
Si Si1 0.030786 0.099293 0.298830
Si Si2 0.663492 0.747882 0.781106
Si Si3 0.693679 0.447852 0.486636
Si Si4 0.645588 0.551634 0.764650
Si Si5 0.160380 0.814143 0.998027
Si Si6 0.360909 0.100670 0.983655
Si Si7 0.162524 0.199560 0.645665
O O1 0.373896 0.091177 0.166722
O O2 0.893020 0.080137 0.417157
O O3 0.907690 0.074848 0.283540
O O4 0.964112 0.150746 0.314481
O O5 0.555173 0.719569 0.884013
O O6 0.635884 0.718120 0.728613
O O7 0.976075 0.767942 0.673121
O O8 0.437743 0.787714 0.866246
O O9 0.500000 0.437349 0.500000
O O10 0.659818 0.500000 0.514010
O O11 0.028153 0.439921 0.341836
O O12 0.605031 0.500000 0.771848
O O13 0.413386 0.569482 0.905845
O O14 0.254563 0.850648 0.011357
O O15 0.000000 0.835174 0.000000
O O16 0.500000 0.098392 0.000000
O O17 0.500000 0.198788 0.500000
#
# Coordination Sequence:
#
# PCOD9210733 Si02
#       7
#     8   8   8   8   8   8   8
#     4  11  22  39  64  94 122 164 205 252 306 367
#     4  11  23  40  60  89 114 158 206 250 309 362
#     4  10  22  41  64  92 126 166 207 246 298 368
#     4  10  21  39  63  93 127 162 201 252 308 360
#     4  11  22  38  63  85 117 156 201 256 303 363
#     4  10  22  38  62  93 123 153 204 259 306 363
#     4  12  24  42  62  88 126 160 204 255 309 362
#
# _framework density 18.957498999999999
#
# number of rings (size 3 to 8) (size 9 to 14) (size 15 to 20)
#    0.000    1.286    2.857    3.857    0.000    5.429 
#    0.000    2.143    0.000    3.000    0.000    0.000 
#    0.000    0.000    0.000    0.000    0.000    0.000 
#
# Total GULP energy -156347.031764 kJ/mol
# GULP energy per Si atom -5583.822563 kJ/mol
# Density = 1.891435 g / cm^3
# Si number density = 18.957499 Si / 1000 Ang^3
#
#
#
# Elastic Constant Matrix: (Units=GPa)
#
#
# Indices 1 2 3 4 5 6 
#
# 1 65.3268 36.7905 44.4041 0.0001 -13.7368 0.0002
# 2 36.7905 75.1637 62.4712 -0.0002 -17.1306 -0.0003
# 3 44.4041 62.4712 118.7345 0.0008 -15.1904 0.0010
# 4 0.0001 -0.0002 0.0008 31.5108 -0.0001 4.7409
# 5 -13.7368 -17.1306 -15.1904 -0.0001 20.3309 -0.0003
# 6 0.0002 -0.0003 0.0010 4.7409 -0.0003 18.1594
#
#
#
# Elastic Compliance Matrix: (Units=1/GPa)
#
#
# Indices 1 2 3 4 5 6 
#
# 1 0.023343 -0.005827 -0.004726 0.000000 0.007331 0.000000
# 2 -0.005827 0.027942 -0.011072 0.000000 0.011334 0.000001
# 3 -0.004726 -0.011072 0.015937 0.000000 -0.000616 -0.000001
# 4 0.000000 0.000000 0.000000 0.033033 0.000000 -0.008624
# 5 0.007331 0.011334 -0.000616 0.000000 0.063230 0.000001
# 6 0.000000 0.000001 -0.000001 -0.008624 0.000001 0.057320
#
#
# Mechanical properties :
#
#
# Convention : Reuss Voigt Hill
#
# Bulk Modulus (GPa) = 41.71701 60.72852 51.22277
# Shear Modulus (GPa) = 18.37931 21.70417 20.04174
#
# Velocity S-wave (km/s) = 3.11706 3.38729 3.25498
# Velocity P-wave (km/s) = 5.91676 6.88490 6.41911
#
# Compressibility (1/GPa) = 0.02397104
#
# Stress axis : x y z
#
# Youngs Moduli (GPa) = 42.83882 35.78816 62.74898
#
# Poissons Ratio (x) = 0.20854 0.29656
# Poissons Ratio (y) = 0.24962 0.69478
# Poissons Ratio (z) = 0.20246 0.39626
#
# Static dielectric constant tensor:
#      x y z
#    x 1.656980 0.000000 0.004970 
#    y 0.000000 1.633280 0.000000 
#    z 0.004970 0.000000 1.698150 
# 
# From -- ./inp_files/302983.got.cif
#   From: 2010.05.17/outbox.cif.g08.bks.cpg/sg12_152_cif.got.tgz:302983.got - 2010.06.03 13:09:07.
