data_PCOD9210611
_publ_section_title
;
Structure prediction by ZEFSAII (Michael W. Deem and Ramdas Pophale) SiO2 
 PCOD9210611
Probable space group: C 2/M
;
_chemical_formula_sum "Si O2"
_cell_formula_units_Z 56
_cell_length_a 9.477032
_cell_length_b 28.318917
_cell_length_c 12.057769
_cell_angle_alpha 90.000000
_cell_angle_beta 119.912950
_cell_angle_gamma 90.000000
_cell_volume 2804.961228
_symmetry_space_group_name_H-M "C 2/M"
_symmetry_group_IT_number 12
_symmetry_cell_setting 'monoclinic'
loop_
_space_group_symop_operation_xyz
x,y,z
-x,y,-z
-x,-y,-z
x,-y,z
1/2+x,1/2+y,z
1/2-x,1/2+y,-z
1/2-x,1/2-y,-z
1/2+x,1/2-y,z
loop_
_atom_site_type_symbol
_atom_site_label
_atom_site_fract_x
_atom_site_fract_y
_atom_site_fract_z
Si Si1 0.317100 0.738573 0.907232
Si Si2 0.095751 0.793605 0.644365
Si Si3 0.223097 0.635797 0.808199
Si Si4 0.347445 0.871670 0.657807
Si Si5 0.176393 0.945025 0.741494
Si Si6 0.625677 0.620840 0.367861
Si Si7 0.822593 0.948159 0.990663
O O1 0.195747 0.760696 0.767423
O O2 0.314247 0.682972 0.881288
O O3 0.500000 0.756650 0.000000
O O4 0.250000 0.750000 0.000000
O O5 0.233951 0.828638 0.652455
O O6 0.000000 0.771846 0.500000
O O7 0.964362 0.828217 0.652494
O O8 0.309797 0.617195 0.731205
O O9 0.231430 0.595793 0.904055
O O10 0.031977 0.644552 0.717511
O O11 0.313102 0.914119 0.731792
O O12 0.274338 0.884832 0.510079
O O13 0.007133 0.918258 0.650312
O O14 0.179560 0.000000 0.709726
O O15 0.180882 0.943546 0.877670
O O16 0.752613 0.000000 0.936318
O O17 0.000000 0.946915 0.000000
#
# Coordination Sequence:
#
# PCOD9210611 Si02
#       7
#     8   8   8   8   8   8   8
#     4  12  26  41  64  98 129 165 216 271 322 369
#     4   9  21  44  65  87 125 175 216 255 312 387
#     4  12  24  39  61  92 131 164 202 262 322 375
#     4  10  23  39  61  93 125 163 207 263 314 373
#     4  10  21  40  66  90 120 163 213 260 313 379
#     4  10  21  40  65  89 124 166 215 253 310 381
#     4  10  21  39  63  89 119 163 208 249 311 389
#
# _framework density 19.964625000000002
#
# number of rings (size 3 to 8) (size 9 to 14) (size 15 to 20)
#    0.000    1.571    1.429    3.857    4.000    3.429 
#    0.000    5.000    0.000    2.571    0.000    0.000 
#    0.000    0.000    0.000    0.000    0.000    0.000 
#
# Total GULP energy -156202.406057 kJ/mol
# GULP energy per Si atom -5578.657359 kJ/mol
# Density = 1.991919 g / cm^3
# Si number density = 19.964625 Si / 1000 Ang^3
#
#
#
# Elastic Constant Matrix: (Units=GPa)
#
#
# Indices 1 2 3 4 5 6 
#
# 1 69.1865 -7.9822 12.3690 0.0000 9.2780 0.0000
# 2 -7.9822 63.4012 51.5820 0.0000 -3.1900 0.0000
# 3 12.3690 51.5820 109.7635 0.0000 8.4346 0.0000
# 4 0.0000 0.0000 0.0000 25.4793 0.0000 0.1795
# 5 9.2780 -3.1900 8.4346 0.0000 25.2399 0.0000
# 6 0.0000 0.0000 0.0000 0.1795 0.0000 12.4384
#
#
#
# Elastic Compliance Matrix: (Units=1/GPa)
#
#
# Indices 1 2 3 4 5 6 
#
# 1 0.016264 0.004988 -0.003865 0.000000 -0.004056 0.000000
# 2 0.004988 0.028499 -0.014462 0.000000 0.006601 0.000000
# 3 -0.003865 -0.014462 0.016805 0.000000 -0.006023 0.000000
# 4 0.000000 0.000000 0.000000 0.039252 0.000000 -0.000566
# 5 -0.004056 0.006601 -0.006023 0.000000 0.043958 0.000000
# 6 0.000000 0.000000 0.000000 -0.000566 0.000000 0.080405
#
#
# Mechanical properties :
#
#
# Convention : Reuss Voigt Hill
#
# Bulk Modulus (GPa) = 28.66145 39.36541 34.01343
# Shear Modulus (GPa) = 18.97604 25.05699 22.01651
#
# Velocity S-wave (km/s) = 3.08633 3.54654 3.32441
# Velocity P-wave (km/s) = 5.20460 6.04409 5.63999
#
# Compressibility (1/GPa) = 0.03489007
#
# Stress axis : x y z
#
# Youngs Moduli (GPa) = 61.48478 35.08928 59.50566
#
# Poissons Ratio (x) = -0.17503 0.23000
# Poissons Ratio (y) = -0.30670 0.86057
# Poissons Ratio (z) = 0.23765 0.50746
#
# Static dielectric constant tensor:
#      x y z
#    x 1.666420 0.000000 0.010740 
#    y 0.000000 1.703990 0.000000 
#    z 0.010740 0.000000 1.720500 
# 
# From -- ./inp_files/124374.got.cif
#   From: 2010.05.17/outbox.cif.g08.bks.cpg/sg12_63_cif.got.tgz:124374.got - 2010.06.03 13:09:07.
