data_PCOD9210821
_publ_section_title
;
Structure prediction by ZEFSAII (Michael W. Deem and Ramdas Pophale) SiO2 
 PCOD9210821
Probable space group: C 2/M
;
_chemical_formula_sum "Si O2"
_cell_formula_units_Z 42
_cell_length_a 17.933947
_cell_length_b 8.972361
_cell_length_c 14.597238
_cell_angle_alpha 90.000000
_cell_angle_beta 111.332437
_cell_angle_gamma 90.000000
_cell_volume 2187.909611
_symmetry_space_group_name_H-M "C 2/M"
_symmetry_group_IT_number 12
_symmetry_cell_setting 'monoclinic'
loop_
_space_group_symop_operation_xyz
x,y,z
-x,y,-z
-x,-y,-z
x,-y,z
1/2+x,1/2+y,z
1/2-x,1/2+y,-z
1/2-x,1/2-y,-z
1/2+x,1/2-y,z
loop_
_atom_site_type_symbol
_atom_site_label
_atom_site_fract_x
_atom_site_fract_y
_atom_site_fract_z
Si Si1 0.000000 0.500000 0.000000
Si Si2 0.702402 0.322878 0.895066
Si Si3 0.232490 0.322896 0.720816
Si Si4 0.385050 0.677275 0.661283
Si Si5 0.907884 0.321408 0.477928
Si Si6 0.467620 0.164581 0.172563
O O1 0.012161 0.627216 0.924117
O O2 0.704634 0.500000 0.903640
O O3 0.741014 0.269685 0.817056
O O4 0.612229 0.260834 0.856032
O O5 0.750000 0.250000 0.000000
O O6 0.232522 0.500000 0.741882
O O7 0.304848 0.293392 0.683373
O O8 0.149611 0.284825 0.632738
O O9 0.397818 0.500000 0.664354
O O10 0.378611 0.740613 0.556251
O O11 0.459070 0.757082 0.744289
O O12 0.903204 0.500000 0.489721
O O13 0.000000 0.281696 0.500000
O O14 0.453067 0.000000 0.209579
#
# Coordination Sequence:
#
# PCOD9210821 Si02
#       6
#     2   8   8   8   8   8
#     4   8  24  40  70  88 122 160 218 260 306 376
#     4  12  26  42  65  93 127 166 209 256 311 371
#     4  10  23  41  61  93 130 166 210 260 312 370
#     4  11  23  38  62  94 129 163 209 261 314 371
#     4  10  21  39  64  90 122 168 213 258 314 374
#     4  10  22  42  64  90 121 160 210 257 310 370
#
# _framework density 19.196407000000001
#
# number of rings (size 3 to 8) (size 9 to 14) (size 15 to 20)
#    0.571    0.952    0.000    4.571    2.667    4.190 
#    0.000    0.952    0.000    0.000    0.000    0.000 
#    0.000    0.000    0.000    0.000    0.000    0.000 
#
# Total GULP energy -117110.891646 kJ/mol
# GULP energy per Si atom -5576.709126 kJ/mol
# Density = 1.915271 g / cm^3
# Si number density = 19.196407 Si / 1000 Ang^3
#
#
#
# Elastic Constant Matrix: (Units=GPa)
#
#
# Indices 1 2 3 4 5 6 
#
# 1 72.3743 59.1969 51.1538 0.0000 3.1465 0.0000
# 2 59.1969 106.8923 70.7966 0.0000 -3.9374 0.0000
# 3 51.1538 70.7966 111.6485 0.0000 -6.5516 0.0000
# 4 0.0000 0.0000 0.0000 34.2544 0.0000 -6.7592
# 5 3.1465 -3.9374 -6.5516 0.0000 41.5518 0.0000
# 6 0.0000 0.0000 0.0000 -6.7592 0.0000 30.0739
#
#
#
# Elastic Compliance Matrix: (Units=1/GPa)
#
#
# Indices 1 2 3 4 5 6 
#
# 1 0.027400 -0.011812 -0.005300 0.000000 -0.004030 0.000000
# 2 -0.011812 0.021221 -0.007948 0.000000 0.001652 0.000000
# 3 -0.005300 -0.007948 0.016557 0.000000 0.002259 0.000000
# 4 0.000000 0.000000 0.000000 0.030548 0.000000 0.006866
# 5 -0.004030 0.001652 0.002259 0.000000 0.024884 0.000000
# 6 0.000000 0.000000 0.000000 0.006866 0.000000 0.034795
#
#
# Mechanical properties :
#
#
# Convention : Reuss Voigt Hill
#
# Bulk Modulus (GPa) = 66.40686 72.57886 69.49286
# Shear Modulus (GPa) = 23.74792 28.49388 26.12090
#
# Velocity S-wave (km/s) = 3.52106 3.85689 3.69279
# Velocity P-wave (km/s) = 7.15535 7.59768 7.37983
#
# Compressibility (1/GPa) = 0.01505868
#
# Stress axis : x y z
#
# Youngs Moduli (GPa) = 36.49674 47.12208 60.39637
#
# Poissons Ratio (x) = 0.55661 0.32011
# Poissons Ratio (y) = 0.43110 0.48002
# Poissons Ratio (z) = 0.19344 0.37451
#
# Static dielectric constant tensor:
#      x y z
#    x 1.663400 0.000000 0.001230 
#    y 0.000000 1.646390 0.000000 
#    z 0.001230 0.000000 1.644640 
# 
# From -- ./inp_files/221815.got.cif
#   From: 2010.05.17/outbox.cif.g08.bks.cpg/sg12_111_cif.got.tgz:221815.got - 2010.06.03 13:09:07.
