data_PCOD9210321
_publ_section_title
;
Structure prediction by ZEFSAII (Michael W. Deem and Ramdas Pophale) SiO2 
 PCOD9210321
Probable space group: C 2/M
;
_chemical_formula_sum "Si O2"
_cell_formula_units_Z 60
_cell_length_a 14.529568
_cell_length_b 9.307715
_cell_length_c 23.356985
_cell_angle_alpha 90.000000
_cell_angle_beta 115.039535
_cell_angle_gamma 90.000000
_cell_volume 2861.860152
_symmetry_space_group_name_H-M "C 2/M"
_symmetry_group_IT_number 12
_symmetry_cell_setting 'monoclinic'
loop_
_space_group_symop_operation_xyz
x,y,z
-x,y,-z
-x,-y,-z
x,-y,z
1/2+x,1/2+y,z
1/2-x,1/2+y,-z
1/2-x,1/2-y,-z
1/2+x,1/2-y,z
loop_
_atom_site_type_symbol
_atom_site_label
_atom_site_fract_x
_atom_site_fract_y
_atom_site_fract_z
Si Si1 0.299294 0.327561 0.602531
Si Si2 0.350241 0.168678 0.221131
Si Si3 0.953170 0.834248 0.154865
Si Si4 0.400458 0.741493 0.013640
Si Si5 0.503435 0.169602 0.635792
Si Si6 0.894851 0.167120 0.437703
Si Si7 0.240330 0.500000 0.973429
Si Si8 0.828695 0.174084 0.744805
O O1 0.295031 0.500000 0.593331
O O2 0.400194 0.258430 0.603165
O O3 0.198080 0.246621 0.555728
O O4 0.309212 0.293527 0.673310
O O5 0.368563 0.247366 0.166827
O O6 0.448304 0.183802 0.288372
O O7 0.257498 0.226348 0.234583
O O8 0.335502 0.000000 0.205955
O O9 0.942110 0.823002 0.084579
O O10 0.061992 0.777355 0.204537
O O11 0.945154 0.000000 0.170314
O O12 0.319215 0.625527 0.969682
O O13 0.500000 0.767469 0.000000
O O14 0.333959 0.877166 0.015992
O O15 0.582334 0.240250 0.612800
O O16 0.490372 0.000000 0.620478
O O17 0.000000 0.170425 0.500000
O O18 0.869898 0.000000 0.419528
O O19 0.825976 0.000000 0.747183
#
# Coordination Sequence:
#
# PCOD9210321 Si02
#       8
#     8   8   8   8   8   8   4   8
#     4  11  21  39  65  91 126 167 209 259 323 386
#     4  10  21  39  61  92 128 165 206 259 321 382
#     4  11  23  40  62  96 129 162 215 267 318 390
#     4  11  24  46  70  97 134 180 226 281 338 396
#     4  11  22  39  65  92 128 168 208 260 322 387
#     4  11  25  43  64  92 124 165 219 269 317 380
#     4  10  24  44  72  98 130 176 232 272 338 402
#     4   9  19  37  60  90 123 164 205 251 321 388
#
# _framework density 20.965384
#
# number of rings (size 3 to 8) (size 9 to 14) (size 15 to 20)
#    0.000    1.467    3.333    1.600    0.933    4.267 
#    2.400    0.667    0.000    0.000    0.000    0.000 
#    0.000    0.000    0.000    0.000    0.000    0.000 
#
# Total GULP energy -167038.745146 kJ/mol
# GULP energy per Si atom -5567.958172 kJ/mol
# Density = 2.091767 g / cm^3
# Si number density = 20.965384 Si / 1000 Ang^3
#
#
#
# Elastic Constant Matrix: (Units=GPa)
#
#
# Indices 1 2 3 4 5 6 
#
# 1 135.7584 38.3173 3.4581 0.0000 -1.8882 0.0000
# 2 38.3173 92.8240 4.9616 0.0000 9.8545 0.0000
# 3 3.4581 4.9616 40.7797 0.0000 -2.6282 0.0000
# 4 0.0000 0.0000 0.0000-2094.7808 0.0000-1178.8942
# 5 -1.8882 9.8545 -2.6282 0.0000 29.2152 0.0000
# 6 0.0000 0.0000 0.0000-1178.8942 0.0000 -625.5427
#
#
#
# Elastic Compliance Matrix: (Units=1/GPa)
#
#
# Indices 1 2 3 4 5 6 
#
# 1 0.008427 -0.003658 -0.000156 0.000000 0.001764 0.000000
# 2 -0.003658 0.012867 -0.001559 0.000000 -0.004717 0.000000
# 3 -0.000156 -0.001559 0.024903 0.000000 0.002756 0.000000
# 4 0.000000 0.000000 0.000000 0.007877 0.000000 -0.014844
# 5 0.001764 -0.004717 0.002756 0.000000 0.036182 0.000000
# 6 0.000000 0.000000 0.000000 -0.014844 0.000000 0.026377
#
#
# Mechanical properties :
#
#
# Convention : Reuss Voigt Hill
#
# Bulk Modulus (GPa) = 28.20806 40.31514 34.26160
# Shear Modulus (GPa) = 35.92100 -523.37999 -243.72949
#
# Velocity S-wave (km/s) = 4.14375 -15.81714 -10.79378
# Velocity P-wave (km/s) = 6.03142 17.72865 11.78828
#
# Compressibility (1/GPa) = 0.03545086
#
# Stress axis : x y z
#
# Youngs Moduli (GPa) = 118.66815 77.71826 40.15654
#
# Poissons Ratio (x) = 0.28426 0.00626
# Poissons Ratio (y) = 0.43403 0.06262
# Poissons Ratio (z) = 0.01850 0.12119
#
# Static dielectric constant tensor:
#      x y z
#    x 1.768380 0.000000 0.020040 
#    y 0.000000 1.713810 0.000000 
#    z 0.020040 0.000000 1.799260 
# 
# From -- ./inp_files/338974.got.cif
#   From: 2010.05.17/outbox.cif.g08.bks.cpg/sg12_170_cif.got.tgz:338974.got - 2010.06.03 13:09:07.
