data_PCOD9210964
_publ_section_title
;
Structure prediction by ZEFSAII (Michael W. Deem and Ramdas Pophale) SiO2 
 PCOD9210964
Probable space group: C 2/M
;
_chemical_formula_sum "Si O2"
_cell_formula_units_Z 40
_cell_length_a 12.409346
_cell_length_b 13.110294
_cell_length_c 13.847366
_cell_angle_alpha 90.000000
_cell_angle_beta 46.052413
_cell_angle_gamma 90.000000
_cell_volume 1621.981466
_symmetry_space_group_name_H-M "C 2/M"
_symmetry_group_IT_number 12
_symmetry_cell_setting 'monoclinic'
loop_
_space_group_symop_operation_xyz
x,y,z
-x,y,-z
-x,-y,-z
x,-y,z
1/2+x,1/2+y,z
1/2-x,1/2+y,-z
1/2-x,1/2-y,-z
1/2+x,1/2-y,z
loop_
_atom_site_type_symbol
_atom_site_label
_atom_site_fract_x
_atom_site_fract_y
_atom_site_fract_z
Si Si1 0.177089 0.378717 0.002483
Si Si2 0.731274 0.614780 0.855391
Si Si3 0.166374 0.313058 0.795900
Si Si4 0.157617 0.115672 0.503429
Si Si5 0.541293 0.167119 0.584679
O O1 0.175716 0.500000 0.015420
O O2 0.283626 0.344962 0.025209
O O3 0.004074 0.344398 0.116996
O O4 0.220996 0.356261 0.865003
O O5 0.675960 0.500000 0.878583
O O6 0.669012 0.691975 0.814496
O O7 0.910040 0.618425 0.728317
O O8 0.269253 0.352583 0.645242
O O9 0.297751 0.122888 0.489007
O O10 0.050648 0.210423 0.595372
O O11 0.098732 0.000000 0.538389
O O12 0.500000 0.148609 0.500000
#
# Coordination Sequence:
#
# PCOD9210964 Si02
#       5
#     8   8   8   8   8
#     4  10  21  39  65  89 118 158 195 240 301 355
#     4  11  23  40  61  88 120 161 200 240 295 357
#     4  11  20  38  62  93 118 149 199 251 289 350
#     4  11  23  40  63  89 119 154 200 248 295 349
#     4  11  23  42  58  87 120 157 200 239 294 353
#
# _framework density 24.661194999999999
#
# number of rings (size 3 to 8) (size 9 to 14) (size 15 to 20)
#    0.000    1.200    4.000    3.600    0.000    2.000 
#    0.000    2.000    0.000    4.800    0.000    0.000 
#    0.000    0.000    0.000    0.000    0.000    0.000 
#
# Total GULP energy -111988.348710 kJ/mol
# GULP energy per Si atom -5599.417436 kJ/mol
# Density = 2.460506 g / cm^3
# Si number density = 24.661195 Si / 1000 Ang^3
#
#
#
# Elastic Constant Matrix: (Units=GPa)
#
#
# Indices 1 2 3 4 5 6 
#
# 1 92.8780 3.7750 20.6001 0.0000 22.6978 0.0000
# 2 3.7750 145.4613 17.0920 0.0000 13.2649 0.0000
# 3 20.6001 17.0920 42.9643 0.0000 2.4254 0.0000
# 4 0.0000 0.0000 0.0000 22.4851 0.0000 7.7817
# 5 22.6978 13.2649 2.4254 0.0000 38.1325 0.0000
# 6 0.0000 0.0000 0.0000 7.7817 0.0000 22.7853
#
#
#
# Elastic Compliance Matrix: (Units=1/GPa)
#
#
# Indices 1 2 3 4 5 6 
#
# 1 0.014320 0.001211 -0.006868 0.000000 -0.008508 0.000000
# 2 0.001211 0.007527 -0.003399 0.000000 -0.003123 0.000000
# 3 -0.006868 -0.003399 0.027722 0.000000 0.003507 0.000000
# 4 0.000000 0.000000 0.000000 0.050435 0.000000 -0.017225
# 5 -0.008508 -0.003123 0.003507 0.000000 0.032152 0.000000
# 6 0.000000 0.000000 0.000000 -0.017225 0.000000 0.049771
#
#
# Mechanical properties :
#
#
# Convention : Reuss Voigt Hill
#
# Bulk Modulus (GPa) = 31.78741 40.47085 36.12913
# Shear Modulus (GPa) = 23.75020 32.66968 28.20994
#
# Velocity S-wave (km/s) = 3.10669 3.64365 3.38583
# Velocity P-wave (km/s) = 5.07802 5.84362 5.47422
#
# Compressibility (1/GPa) = 0.03145899
#
# Stress axis : x y z
#
# Youngs Moduli (GPa) = 69.83206 132.84708 36.07227
#
# Poissons Ratio (x) = -0.16091 0.24773
# Poissons Ratio (y) = -0.08458 0.12261
# Poissons Ratio (z) = 0.47958 0.45154
#
# Static dielectric constant tensor:
#      x y z
#    x 1.949150 0.000000 0.026590 
#    y 0.000000 1.986500 0.000000 
#    z 0.026590 0.000000 1.957110 
# 
# From -- ./inp_files/212371.got.cif
#   From: 2010.05.17/outbox.cif.g08.bks.cpg/sg12_107_cif.got.tgz:212371.got - 2010.06.03 13:09:07.
