data_PCOD9210682
_publ_section_title
;
Structure prediction by ZEFSAII (Michael W. Deem and Ramdas Pophale) SiO2 
 PCOD9210682
Probable space group: C 2/M
;
_chemical_formula_sum "Si O2"
_cell_formula_units_Z 58
_cell_length_a 20.906291
_cell_length_b 11.995343
_cell_length_c 17.843354
_cell_angle_alpha 90.000000
_cell_angle_beta 138.853966
_cell_angle_gamma 90.000000
_cell_volume 2944.280371
_symmetry_space_group_name_H-M "C 2/M"
_symmetry_group_IT_number 12
_symmetry_cell_setting 'monoclinic'
loop_
_space_group_symop_operation_xyz
x,y,z
-x,y,-z
-x,-y,-z
x,-y,z
1/2+x,1/2+y,z
1/2-x,1/2+y,-z
1/2-x,1/2-y,-z
1/2+x,1/2-y,z
loop_
_atom_site_type_symbol
_atom_site_label
_atom_site_fract_x
_atom_site_fract_y
_atom_site_fract_z
Si Si1 0.115305 0.870709 0.935647
Si Si2 0.410001 0.631352 0.816784
Si Si3 0.349289 0.366433 0.201396
Si Si4 0.706331 0.373013 0.438566
Si Si5 0.888445 0.375794 0.428934
Si Si6 0.500000 0.500000 0.500000
Si Si7 0.777155 0.794154 0.827693
Si Si8 0.562056 0.675091 0.438017
O O1 0.155059 0.832869 0.889996
O O2 0.012585 0.823678 0.875304
O O3 0.092850 0.000000 0.902807
O O4 0.191604 0.858678 0.069828
O O5 0.420558 0.500000 0.849012
O O6 0.333592 0.634485 0.681251
O O7 0.366291 0.698687 0.848178
O O8 0.360287 0.500000 0.220107
O O9 0.260436 0.323178 0.172918
O O10 0.448574 0.312528 0.319074
O O11 0.752483 0.500000 0.488668
O O12 0.750000 0.250000 0.500000
O O13 0.612997 0.377035 0.411325
O O14 0.868170 0.500000 0.436963
O O15 0.812853 0.347048 0.296866
O O16 0.884937 0.288057 0.492469
O O17 0.000000 0.370367 0.500000
O O18 0.562529 0.596249 0.510652
#
# Coordination Sequence:
#
# PCOD9210682 Si02
#       8
#     8   8   8   8   8   2   8   8
#     4  10  21  39  67  92 119 160 206 263 318 370
#     4  10  21  39  63  91 124 161 205 266 318 368
#     4  11  22  40  62  89 125 159 210 262 308 369
#     4  11  23  40  64  90 129 170 212 262 324 385
#     4  11  23  37  55  89 131 166 198 253 326 379
#     4  12  20  32  62  92 112 150 222 248 294 364
#     4  12  22  38  61  94 123 160 205 260 315 380
#     4  12  21  40  63  88 122 169 209 258 308 375
#
# _framework density 19.699210999999998
#
# number of rings (size 3 to 8) (size 9 to 14) (size 15 to 20)
#    0.000    0.966    4.828    2.897    0.000    2.759 
#    0.000    0.000    0.000    2.483    0.000    0.000 
#    0.000    0.000    0.000    0.000    0.000    0.000 
#
# Total GULP energy -161438.470978 kJ/mol
# GULP energy per Si atom -5566.843827 kJ/mol
# Density = 1.965437 g / cm^3
# Si number density = 19.699211 Si / 1000 Ang^3
#
#
#
# Elastic Constant Matrix: (Units=GPa)
#
#
# Indices 1 2 3 4 5 6 
#
# 1 106.6015 38.8519 23.5040 0.0000 -13.1837 0.0000
# 2 38.8519 93.9816 34.4533 0.0000 -15.7081 0.0000
# 3 23.5040 34.4533 70.4405 0.0000 -15.1948 0.0000
# 4 0.0000 0.0000 0.0000 63.2516 0.0000 -31.5792
# 5 -13.1837 -15.7081 -15.1948 0.0000 25.1555 0.0000
# 6 0.0000 0.0000 0.0000 -31.5792 0.0000 45.8026
#
#
#
# Elastic Compliance Matrix: (Units=1/GPa)
#
#
# Indices 1 2 3 4 5 6 
#
# 1 0.011392 -0.003739 -0.001366 0.000000 0.002811 0.000000
# 2 -0.003739 0.014741 -0.005059 0.000000 0.004190 0.000000
# 3 -0.001366 -0.005059 0.018731 0.000000 0.007440 0.000000
# 4 0.000000 0.000000 0.000000 0.024109 0.000000 0.016622
# 5 0.002811 0.004190 0.007440 0.000000 0.048336 0.000000
# 6 0.000000 0.000000 0.000000 0.016622 0.000000 0.033293
#
#
# Mechanical properties :
#
#
# Convention : Reuss Voigt Hill
#
# Bulk Modulus (GPa) = 40.75512 51.62688 46.19100
# Shear Modulus (GPa) = 27.91613 38.45623 33.18618
#
# Velocity S-wave (km/s) = 3.76855 4.42313 4.10890
# Velocity P-wave (km/s) = 6.29838 7.23533 6.78305
#
# Compressibility (1/GPa) = 0.02453679
#
# Stress axis : x y z
#
# Youngs Moduli (GPa) = 87.77898 67.83912 53.38678
#
# Poissons Ratio (x) = 0.25365 0.07294
# Poissons Ratio (y) = 0.32820 0.27006
# Poissons Ratio (z) = 0.11993 0.34317
#
# Static dielectric constant tensor:
#      x y z
#    x 1.741380 0.000000 0.009250 
#    y 0.000000 1.707830 0.000000 
#    z 0.009250 0.000000 1.716280 
# 
# From -- ./inp_files/283557.got.cif
#   From: 2010.05.17/outbox.cif.g08.bks.cpg/sg12_142_cif.got.tgz:283557.got - 2010.06.03 13:09:07.
