data_PCOD9210989
_publ_section_title
;
Structure prediction by ZEFSAII (Michael W. Deem and Ramdas Pophale) SiO2 
 PCOD9210989
Probable space group: C 2/M
;
_chemical_formula_sum "Si O2"
_cell_formula_units_Z 40
_cell_length_a 9.225337
_cell_length_b 10.238307
_cell_length_c 24.799766
_cell_angle_alpha 90.000000
_cell_angle_beta 122.895630
_cell_angle_gamma 90.000000
_cell_volume 1966.808619
_symmetry_space_group_name_H-M "C 2/M"
_symmetry_group_IT_number 12
_symmetry_cell_setting 'monoclinic'
loop_
_space_group_symop_operation_xyz
x,y,z
-x,y,-z
-x,-y,-z
x,-y,z
1/2+x,1/2+y,z
1/2-x,1/2+y,-z
1/2-x,1/2-y,-z
1/2+x,1/2-y,z
loop_
_atom_site_type_symbol
_atom_site_label
_atom_site_fract_x
_atom_site_fract_y
_atom_site_fract_z
Si Si1 0.254046 0.240067 0.271539
Si Si2 0.249718 0.500000 0.406453
Si Si3 0.126859 0.650538 0.818348
Si Si4 0.636161 0.294168 0.359500
Si Si5 0.205840 0.151162 0.038426
Si Si6 0.847244 0.000000 0.548160
O O1 0.277898 0.171327 0.219067
O O2 0.431484 0.321016 0.312664
O O3 0.233792 0.164646 0.324369
O O4 0.071351 0.310897 0.229729
O O5 0.164230 0.637058 0.370580
O O6 0.252270 0.500000 0.471894
O O7 0.448018 0.500000 0.425345
O O8 0.132396 0.500000 0.830768
O O9 0.216084 0.708066 0.889661
O O10 0.695453 0.373873 0.423755
O O11 0.264785 0.000000 0.040092
O O12 0.250000 0.250000 0.000000
O O13 0.000000 0.145664 0.000000
#
# Coordination Sequence:
#
# PCOD9210989 Si02
#       6
#     8   4   8   8   8   4
#     4  10  23  37  61  87 124 159 208 254 301 370
#     4  11  24  45  63  93 133 157 203 267 316 365
#     4  10  22  40  61  89 124 166 205 257 308 361
#     4  11  23  41  67  92 121 169 206 257 315 371
#     4  10  21  39  65  92 127 164 209 255 309 364
#     4  11  24  43  67  93 123 165 209 256 312 380
#
# _framework density 20.337516000000001
#
# number of rings (size 3 to 8) (size 9 to 14) (size 15 to 20)
#    0.000    1.600    2.000    1.800    8.400    0.400 
#    0.000    2.000    0.000    0.000    0.000    0.000 
#    0.000    0.000    0.000    0.000    0.000    0.000 
#
# Total GULP energy -111501.097227 kJ/mol
# GULP energy per Si atom -5575.054861 kJ/mol
# Density = 2.029123 g / cm^3
# Si number density = 20.337516 Si / 1000 Ang^3
#
#
#
# Elastic Constant Matrix: (Units=GPa)
#
#
# Indices 1 2 3 4 5 6 
#
# 1 116.2580 28.1282 42.7483 0.0000 -28.1382 0.0000
# 2 28.1282 93.9173 37.4304 0.0000 -17.1502 0.0000
# 3 42.7483 37.4304 150.8818 0.0000 -46.1266 0.0000
# 4 0.0000 0.0000 0.0000 94.2485 0.0000 -32.8674
# 5 -28.1382 -17.1502 -46.1266 0.0000 59.7902 0.0000
# 6 0.0000 0.0000 0.0000 -32.8674 0.0000 22.8449
#
#
#
# Elastic Compliance Matrix: (Units=1/GPa)
#
#
# Indices 1 2 3 4 5 6 
#
# 1 0.010388 -0.001936 -0.001489 0.000000 0.003185 0.000000
# 2 -0.001936 0.012277 -0.002224 0.000000 0.000895 0.000000
# 3 -0.001489 -0.002224 0.009412 0.000000 0.005922 0.000000
# 4 0.000000 0.000000 0.000000 0.021294 0.000000 0.030636
# 5 0.003185 0.000895 0.005922 0.000000 0.023049 0.000000
# 6 0.000000 0.000000 0.000000 0.030636 0.000000 0.087850
#
#
# Mechanical properties :
#
#
# Convention : Reuss Voigt Hill
#
# Bulk Modulus (GPa) = 48.12514 64.18566 56.15540
# Shear Modulus (GPa) = 27.39794 52.22672 39.81233
#
# Velocity S-wave (km/s) = 3.67435 5.07304 4.42926
# Velocity P-wave (km/s) = 6.45877 8.12053 7.33685
#
# Compressibility (1/GPa) = 0.02077916
#
# Stress axis : x y z
#
# Youngs Moduli (GPa) = 96.26091 81.45202 106.24963
#
# Poissons Ratio (x) = 0.15771 0.15825
# Poissons Ratio (y) = 0.18638 0.23625
# Poissons Ratio (z) = 0.14337 0.18111
#
# Static dielectric constant tensor:
#      x y z
#    x 1.696810 0.000000 -0.029410 
#    y 0.000000 1.721690 0.000000 
#    z -0.029410 0.000000 1.742450 
# 
# From -- ./inp_files/254705.got.cif
#   From: 2010.05.17/outbox.cif.g08.bks.cpg/sg12_128_cif.got.tgz:254705.got - 2010.06.03 13:09:07.
