data_PCOD9210487
_publ_section_title
;
Structure prediction by ZEFSAII (Michael W. Deem and Ramdas Pophale) SiO2 
 PCOD9210487
Probable space group: C 2/M
;
_chemical_formula_sum "Si O2"
_cell_formula_units_Z 64
_cell_length_a 14.361853
_cell_length_b 24.204951
_cell_length_c 9.147537
_cell_angle_alpha 90.000000
_cell_angle_beta 97.307522
_cell_angle_gamma 90.000000
_cell_volume 3154.111262
_symmetry_space_group_name_H-M "C 2/M"
_symmetry_group_IT_number 12
_symmetry_cell_setting 'monoclinic'
loop_
_space_group_symop_operation_xyz
x,y,z
-x,y,-z
-x,-y,-z
x,-y,z
1/2+x,1/2+y,z
1/2-x,1/2+y,-z
1/2-x,1/2-y,-z
1/2+x,1/2-y,z
loop_
_atom_site_type_symbol
_atom_site_label
_atom_site_fract_x
_atom_site_fract_y
_atom_site_fract_z
Si Si1 0.446058 0.819353 0.632711
Si Si2 0.746796 0.620141 0.583102
Si Si3 0.976857 0.060007 0.822668
Si Si4 0.122352 0.150722 0.818915
Si Si5 0.671914 0.716557 0.394470
Si Si6 0.756134 0.939284 0.703890
Si Si7 0.747752 0.666638 0.118490
Si Si8 0.428417 0.770609 0.114584
O O1 0.500000 0.838071 0.500000
O O2 0.349011 0.852306 0.625067
O O3 0.417573 0.754780 0.613318
O O4 0.515762 0.816782 0.782276
O O5 0.698412 0.621457 0.730069
O O6 0.674548 0.658515 0.475502
O O7 0.757640 0.569751 0.472803
O O8 0.867059 0.062368 0.764739
O O9 0.029634 0.114414 0.779419
O O10 0.011512 0.000000 0.770921
O O11 0.000000 0.059082 0.000000
O O12 0.100282 0.216027 0.798178
O O13 0.167200 0.149278 0.989876
O O14 0.750000 0.750000 0.500000
O O15 0.704078 0.706018 0.235149
O O16 0.715611 0.887204 0.785869
O O17 0.720739 0.000000 0.739829
O O18 0.830517 0.699859 0.053303
O O19 0.500000 0.753567 0.000000
#
# Coordination Sequence:
#
# PCOD9210487 Si02
#       8
#     8   8   8   8   8   8   8   8
#     4  11  20  35  56  80 113 156 202 247 295 352
#     4  10  22  37  56  83 120 152 197 252 306 363
#     4  10  21  39  62  91 120 154 203 253 301 375
#     4  12  23  37  57  89 128 167 200 249 314 375
#     4   9  18  35  52  76 111 155 198 240 294 353
#     4  10  22  42  67  89 117 159 209 257 315 377
#     4  11  22  39  60  84 125 166 204 258 312 371
#     4  12  24  35  57  89 124 164 210 247 298 364
#
# _framework density 20.290977999999999
#
# number of rings (size 3 to 8) (size 9 to 14) (size 15 to 20)
#    0.000    1.375    1.250    6.750    3.500    1.000 
#    0.000    1.250    0.000    3.750    0.000    0.000 
#    0.000    0.000    0.000    0.000    0.000    0.000 
#
# Total GULP energy -178460.643722 kJ/mol
# GULP energy per Si atom -5576.895116 kJ/mol
# Density = 2.024479 g / cm^3
# Si number density = 20.290978 Si / 1000 Ang^3
#
#
#
# Elastic Constant Matrix: (Units=GPa)
#
#
# Indices 1 2 3 4 5 6 
#
# 1 54.1070 20.0937 4.7871 0.0000 2.0694 0.0000
# 2 20.0937 86.2849 -4.8346 0.0000 1.0981 0.0000
# 3 4.7871 -4.8346 71.8123 0.0000 5.9317 0.0000
# 4 0.0000 0.0000 0.0000 8.1594 0.0000 -0.3074
# 5 2.0694 1.0981 5.9317 0.0000 30.1689 0.0000
# 6 0.0000 0.0000 0.0000 -0.3074 0.0000 17.7793
#
#
#
# Elastic Compliance Matrix: (Units=1/GPa)
#
#
# Indices 1 2 3 4 5 6 
#
# 1 0.020458 -0.004843 -0.001615 0.000000 -0.000910 0.000000
# 2 -0.004843 0.012790 0.001215 0.000000 -0.000372 0.000000
# 3 -0.001615 0.001215 0.014342 0.000000 -0.002753 0.000000
# 4 0.000000 0.000000 0.000000 0.122638 0.000000 0.002120
# 5 -0.000910 -0.000372 -0.002753 0.000000 0.033764 0.000000
# 6 0.000000 0.000000 0.000000 0.002120 0.000000 0.056282
#
#
# Mechanical properties :
#
#
# Convention : Reuss Voigt Hill
#
# Bulk Modulus (GPa) = 26.95125 28.03296 27.49210
# Shear Modulus (GPa) = 17.65980 24.03203 20.84591
#
# Velocity S-wave (km/s) = 2.95333 3.44520 3.20871
# Velocity P-wave (km/s) = 4.99407 5.44714 5.22552
#
# Compressibility (1/GPa) = 0.03710403
#
# Stress axis : x y z
#
# Youngs Moduli (GPa) = 48.88026 78.18512 69.72509
#
# Poissons Ratio (x) = 0.37866 0.11259
# Poissons Ratio (y) = 0.23673 -0.08469
# Poissons Ratio (z) = 0.07893 -0.09497
#
# Static dielectric constant tensor:
#      x y z
#    x 1.726470 0.000000 0.004930 
#    y 0.000000 1.792700 0.000000 
#    z 0.004930 0.000000 1.802130 
# 
# From -- ./inp_files/66979.got.cif
#   From: 2010.05.17/outbox.cif.g08.bks.cpg/sg12_34_cif.got.tgz:66979.got - 2010.06.03 13:09:07.
