data_PCOD9210774
_publ_section_title
;
Structure prediction by ZEFSAII (Michael W. Deem and Ramdas Pophale) SiO2 
 PCOD9210774
Probable space group: C 2/M
;
_chemical_formula_sum "Si O2"
_cell_formula_units_Z 56
_cell_length_a 9.491452
_cell_length_b 16.584986
_cell_length_c 18.059063
_cell_angle_alpha 90.000000
_cell_angle_beta 48.746070
_cell_angle_gamma 90.000000
_cell_volume 2137.185252
_symmetry_space_group_name_H-M "C 2/M"
_symmetry_group_IT_number 12
_symmetry_cell_setting 'monoclinic'
loop_
_space_group_symop_operation_xyz
x,y,z
-x,y,-z
-x,-y,-z
x,-y,z
1/2+x,1/2+y,z
1/2-x,1/2+y,-z
1/2-x,1/2-y,-z
1/2+x,1/2-y,z
loop_
_atom_site_type_symbol
_atom_site_label
_atom_site_fract_x
_atom_site_fract_y
_atom_site_fract_z
Si Si1 0.335923 0.795843 0.106562
Si Si2 0.378949 0.410109 0.927171
Si Si3 0.244288 0.155763 0.752027
Si Si4 0.995326 0.087539 0.412553
Si Si5 0.174305 0.704437 0.675729
Si Si6 0.402961 0.155763 0.457170
Si Si7 0.555707 0.906474 0.143684
O O1 0.196994 0.839037 0.098550
O O2 0.250818 0.731694 0.192023
O O3 0.436877 0.866053 0.118706
O O4 0.500000 0.757159 0.000000
O O5 0.317847 0.500000 0.923952
O O6 0.601096 0.404784 0.840234
O O7 0.270892 0.398210 0.042277
O O8 0.154136 0.206967 0.714886
O O9 0.517337 0.142283 0.760388
O O10 0.669113 0.209088 0.588476
O O11 0.137642 0.162350 0.355494
O O12 0.000000 0.080108 0.500000
O O13 0.781664 0.103522 0.462566
O O14 0.058585 0.000000 0.360012
O O15 0.921393 0.616308 0.648537
O O16 0.500000 0.185612 0.500000
O O17 0.516547 0.000000 0.166908
#
# Coordination Sequence:
#
# PCOD9210774 Si02
#       7
#     8   8   8   8   8   8   8
#     4   9  19  36  63  94 128 169 222 278 325 388
#     4  10  21  39  63  96 138 177 214 265 333 405
#     4  11  24  39  62  95 131 174 219 270 340 407
#     4   9  20  41  66  90 121 168 224 279 336 399
#     4  10  22  41  67  95 127 173 228 280 334 402
#     4  11  26  43  62  90 128 170 221 283 344 398
#     4   9  18  35  63  96 128 169 220 271 325 395
#
# _framework density 26.202688999999999
#
# number of rings (size 3 to 8) (size 9 to 14) (size 15 to 20)
#    0.000    2.143    0.000    1.714    0.000   15.714 
#    0.000    2.857    0.000    2.143    0.000    0.000 
#    0.000    0.571    0.000    0.000    0.000    0.000 
#
# Total GULP energy -156340.906260 kJ/mol
# GULP energy per Si atom -5583.603795 kJ/mol
# Density = 2.614305 g / cm^3
# Si number density = 26.202689 Si / 1000 Ang^3
#
#
#
# Elastic Constant Matrix: (Units=GPa)
#
#
# Indices 1 2 3 4 5 6 
#
# 1 116.7547 32.2164 53.2627 -0.0003 2.4434 0.0002
# 2 32.2164 87.9346 44.5092 -0.0002 -14.1591 0.0002
# 3 53.2627 44.5092 179.3732 -0.0014 -12.6239 0.0012
# 4 -0.0003 -0.0002 -0.0014 27.3907 0.0005 -0.2944
# 5 2.4434 -14.1591 -12.6239 0.0005 53.6570 -0.0004
# 6 0.0002 0.0002 0.0012 -0.2944 -0.0004 -4.5535
#
#
#
# Elastic Compliance Matrix: (Units=1/GPa)
#
#
# Indices 1 2 3 4 5 6 
#
# 1 0.010561 -0.002873 -0.002552 0.000000 -0.001840 0.000000
# 2 -0.002873 0.014189 -0.002435 0.000000 0.003302 -0.000001
# 3 -0.002552 -0.002435 0.007016 0.000000 0.001124 0.000002
# 4 0.000000 0.000000 0.000000 0.036483 0.000000 -0.002359
# 5 -0.001840 0.003302 0.001124 0.000000 0.019857 -0.000001
# 6 0.000000 -0.000001 0.000002 -0.002359 -0.000001 -0.219458
#
#
# Mechanical properties :
#
#
# Convention : Reuss Voigt Hill
#
# Bulk Modulus (GPa) = 62.32809 71.55989 66.94399
# Shear Modulus (GPa) = -45.33853 32.23711 -6.55071
#
# Velocity S-wave (km/s) = -4.16420 3.51137 -1.58286
# Velocity P-wave (km/s) = 0.84722 6.61884 4.71841
#
# Compressibility (1/GPa) = 0.01604413
#
# Stress axis : x y z
#
# Youngs Moduli (GPa) = 94.69077 70.47636 142.52613
#
# Poissons Ratio (x) = 0.20251 0.36377
# Poissons Ratio (y) = 0.27209 0.34709
# Poissons Ratio (z) = 0.24168 0.17163
#
# Static dielectric constant tensor:
#      x y z
#    x 2.275590 0.000000 -0.062300 
#    y 0.000000 1.992260 0.000000 
#    z -0.062300 0.000000 2.094830 
# 
# From -- ./inp_files/301646.got.cif
#   From: 2010.05.17/outbox.cif.g08.bks.cpg/sg12_151_cif.got.tgz:301646.got - 2010.06.03 13:09:07.
