data_PCOD9210409
_publ_section_title
;
Structure prediction by ZEFSAII (Michael W. Deem and Ramdas Pophale) SiO2 
 PCOD9210409
Probable space group: C 2/M
;
_chemical_formula_sum "Si O2"
_cell_formula_units_Z 64
_cell_length_a 14.461179
_cell_length_b 8.713713
_cell_length_c 28.075584
_cell_angle_alpha 90.000000
_cell_angle_beta 74.068416
_cell_angle_gamma 90.000000
_cell_volume 3401.932999
_symmetry_space_group_name_H-M "C 2/M"
_symmetry_group_IT_number 12
_symmetry_cell_setting 'monoclinic'
loop_
_space_group_symop_operation_xyz
x,y,z
-x,y,-z
-x,-y,-z
x,-y,z
1/2+x,1/2+y,z
1/2-x,1/2+y,-z
1/2-x,1/2-y,-z
1/2+x,1/2-y,z
loop_
_atom_site_type_symbol
_atom_site_label
_atom_site_fract_x
_atom_site_fract_y
_atom_site_fract_z
Si Si1 0.651173 0.184270 0.491751
Si Si2 0.461765 0.815099 0.867562
Si Si3 0.125028 0.817121 0.320253
Si Si4 0.356771 0.816358 0.786624
Si Si5 0.665386 0.684532 0.871230
Si Si6 0.740852 0.815946 0.384008
Si Si7 0.058473 0.815169 0.592850
Si Si8 0.725423 0.683866 0.055107
O O1 0.750000 0.250000 0.500000
O O2 0.661399 0.230967 0.435106
O O3 0.569431 0.245144 0.538559
O O4 0.651641 0.000000 0.493373
O O5 0.431982 0.773149 0.817572
O O6 0.564394 0.749547 0.867873
O O7 0.377546 0.747220 0.912573
O O8 0.460532 0.000000 0.871339
O O9 0.124274 0.757783 0.266771
O O10 0.216117 0.759109 0.337492
O O11 0.032045 0.762888 0.363422
O O12 0.123628 0.000000 0.320038
O O13 0.251355 0.776408 0.822230
O O14 0.360235 0.000000 0.780929
O O15 0.661793 0.500000 0.876055
O O16 0.697809 0.755955 0.916913
O O17 0.844645 0.775619 0.391217
O O18 0.737583 0.000000 0.379732
O O19 0.056140 0.000000 0.588304
O O20 0.724532 0.500000 0.054499
O O21 0.750000 0.750000 0.000000
#
# Coordination Sequence:
#
# PCOD9210409 Si02
#       8
#     8   8   8   8   8   8   8   8
#     4   9  17  31  53  77 101 134 171 211 260 321
#     4  10  21  39  62  89 117 151 195 239 286 341
#     4  11  23  36  54  80 107 137 180 227 273 324
#     4   9  21  40  58  78 111 147 183 231 284 335
#     4  10  21  39  62  88 116 153 197 239 286 338
#     4   9  19  36  54  73 103 138 172 212 268 329
#     4   9  20  37  53  74 105 139 172 214 266 324
#     4  11  22  38  60  89 126 163 197 239 284 330
#
# _framework density 18.812833000000001
#
# number of rings (size 3 to 8) (size 9 to 14) (size 15 to 20)
#    0.000    2.250    0.000    4.125    0.000    8.500 
#    0.000    8.750    0.000    0.000    0.000    0.000 
#    0.000    0.000    0.000    0.000    0.000    0.000 
#
# Total GULP energy -178657.940410 kJ/mol
# GULP energy per Si atom -5583.060638 kJ/mol
# Density = 1.877001 g / cm^3
# Si number density = 18.812833 Si / 1000 Ang^3
#
#
#
# Elastic Constant Matrix: (Units=GPa)
#
#
# Indices 1 2 3 4 5 6 
#
# 1 120.9315 37.2018 57.3704 0.0000 12.7583 0.0000
# 2 37.2018 59.0283 46.2515 0.0000 7.0605 0.0000
# 3 57.3704 46.2515 140.5352 0.0000 20.6841 0.0000
# 4 0.0000 0.0000 0.0000 35.7244 0.0000 -0.8444
# 5 12.7583 7.0605 20.6841 0.0000 12.8643 0.0000
# 6 0.0000 0.0000 0.0000 -0.8444 0.0000 24.1595
#
#
#
# Elastic Compliance Matrix: (Units=1/GPa)
#
#
# Indices 1 2 3 4 5 6 
#
# 1 0.011358 -0.004722 -0.002366 0.000000 -0.004868 0.000000
# 2 -0.004722 0.024794 -0.006444 0.000000 0.001435 0.000000
# 3 -0.002366 -0.006444 0.012231 0.000000 -0.013782 0.000000
# 4 0.000000 0.000000 0.000000 0.028015 0.000000 0.000979
# 5 -0.004868 0.001435 -0.013782 0.000000 0.103935 0.000000
# 6 0.000000 0.000000 0.000000 0.000979 0.000000 0.041426
#
#
# Mechanical properties :
#
#
# Convention : Reuss Voigt Hill
#
# Bulk Modulus (GPa) = 46.90548 66.90473 56.90510
# Shear Modulus (GPa) = 19.53676 26.52774 23.03225
#
# Velocity S-wave (km/s) = 3.22604 3.75919 3.50277
# Velocity P-wave (km/s) = 6.23404 7.38123 6.83176
#
# Compressibility (1/GPa) = 0.02131947
#
# Stress axis : x y z
#
# Youngs Moduli (GPa) = 88.04527 40.33209 81.76176
#
# Poissons Ratio (x) = 0.19044 0.19345
# Poissons Ratio (y) = 0.41574 0.52684
# Poissons Ratio (z) = 0.20832 0.25989
#
# Static dielectric constant tensor:
#      x y z
#    x 1.649640 0.000000 -0.006260 
#    y 0.000000 1.626770 0.000000 
#    z -0.006260 0.000000 1.635470 
# 
# From -- ./inp_files/359716.got.cif
#   From: 2010.05.17/outbox.cif.g08.bks.cpg/sg12_180_cif.got.tgz:359716.got - 2010.06.03 13:09:07.
