data_PCOD9210026
_publ_section_title
;
Structure prediction by ZEFSAII (Michael W. Deem and Ramdas Pophale) SiO2 
 PCOD9210026
Probable space group: C 2/M
;
_chemical_formula_sum "Si O2"
_cell_formula_units_Z 38
_cell_length_a 5.013330
_cell_length_b 13.153640
_cell_length_c 26.914625
_cell_angle_alpha 90.000000
_cell_angle_beta 85.061416
_cell_angle_gamma 90.000000
_cell_volume 1768.256570
_symmetry_space_group_name_H-M "C 2/M"
_symmetry_group_IT_number 12
_symmetry_cell_setting 'monoclinic'
loop_
_space_group_symop_operation_xyz
x,y,z
-x,y,-z
-x,-y,-z
x,-y,z
1/2+x,1/2+y,z
1/2-x,1/2+y,-z
1/2-x,1/2-y,-z
1/2+x,1/2-y,z
loop_
_atom_site_type_symbol
_atom_site_label
_atom_site_fract_x
_atom_site_fract_y
_atom_site_fract_z
Si Si1 0.500000 0.175425 0.000000
Si Si2 0.900407 0.322019 0.108672
Si Si3 0.500000 0.000000 0.500000
Si Si4 0.490058 0.000000 0.184707
Si Si5 0.727776 0.316644 0.678457
Si Si6 0.706104 0.680507 0.563403
Si Si7 0.040179 0.000000 0.749841
O O1 0.465049 0.124885 0.054294
O O2 0.250000 0.250000 0.000000
O O3 0.608009 0.271447 0.111714
O O4 0.938750 0.401317 0.151905
O O5 0.688688 0.910829 0.471262
O O6 0.786677 0.000000 0.202429
O O7 0.272089 0.000000 0.232181
O O8 0.526760 0.220734 0.684986
O O9 0.713031 0.351698 0.621355
O O10 0.626338 0.402128 0.717026
O O11 0.412746 0.724470 0.556705
#
# Coordination Sequence:
#
# PCOD9210026 Si02
#       7
#     4   8   2   4   8   8   4
#     4   8  16  33  58  81 106 148 192 225 272 339
#     4  10  21  39  59  83 117 151 187 235 284 337
#     4  12  22  38  64  88 128 162 178 238 300 330
#     4  12  26  37  58  90 118 149 190 236 292 354
#     4  10  22  42  64  84 114 154 196 244 286 331
#     4  10  23  40  60  90 119 152 199 236 281 348
#     4  12  25  40  58  88 114 148 201 236 286 354
#
# _framework density 21.490093000000002
#
# number of rings (size 3 to 8) (size 9 to 14) (size 15 to 20)
#    0.000    1.684    0.000    3.789    0.000    7.158 
#    0.000    6.316    0.000    8.842    0.000    0.000 
#    0.000    0.000    0.000    0.000    0.000    0.000 
#
# Total GULP energy -105979.535595 kJ/mol
# GULP energy per Si atom -5577.870294 kJ/mol
# Density = 2.144118 g / cm^3
# Si number density = 21.490093 Si / 1000 Ang^3
#
#
#
# Elastic Constant Matrix: (Units=GPa)
#
#
# Indices 1 2 3 4 5 6 
#
# 1 78.8725 -10.2689 -10.7114 0.0000 -3.1080 0.0000
# 2 -10.2689 66.1609 33.3295 0.0000 -1.3106 0.0000
# 3 -10.7114 33.3295 80.5225 0.0000 -9.7981 0.0000
# 4 0.0000 0.0000 0.0000 35.0360 0.0000 -21.9718
# 5 -3.1080 -1.3106 -9.7981 0.0000 32.6559 0.0000
# 6 0.0000 0.0000 0.0000 -21.9718 0.0000 12.7298
#
#
#
# Elastic Compliance Matrix: (Units=1/GPa)
#
#
# Indices 1 2 3 4 5 6 
#
# 1 0.013113 0.001371 0.001386 0.000000 0.001719 0.000000
# 2 0.001371 0.019328 -0.007999 0.000000 -0.001494 0.000000
# 3 0.001386 -0.007999 0.016493 0.000000 0.004760 0.000000
# 4 0.000000 0.000000 0.000000 -0.346311 0.000000 -0.597736
# 5 0.001719 -0.001494 0.004760 0.000000 0.032154 0.000000
# 6 0.000000 0.000000 0.000000 -0.597736 0.000000 -0.953142
#
#
# Mechanical properties :
#
#
# Convention : Reuss Voigt Hill
#
# Bulk Modulus (GPa) = 26.00794 27.80603 26.90699
# Shear Modulus (GPa) = -4.18388 30.29812 13.05712
#
# Velocity S-wave (km/s) = -1.39682 3.75889 2.46760
# Velocity P-wave (km/s) = 3.08660 5.63969 4.54605
#
# Compressibility (1/GPa) = 0.03844979
#
# Stress axis : x y z
#
# Youngs Moduli (GPa) = 76.25920 51.73920 60.62997
#
# Poissons Ratio (x) = -0.07094 -0.08403
# Poissons Ratio (y) = -0.10456 0.48500
# Poissons Ratio (z) = -0.10569 0.41388
#
# Static dielectric constant tensor:
#      x y z
#    x 1.733720 0.000000 0.014810 
#    y 0.000000 1.718800 0.000000 
#    z 0.014810 0.000000 1.829570 
# 
# From -- ./inp_files/354695.got.cif
#   From: 2010.05.17/outbox.cif.g08.bks.cpg/sg12_178_cif.got.tgz:354695.got - 2010.06.03 13:09:07.
