data_PCOD9210515
_publ_section_title
;
Structure prediction by ZEFSAII (Michael W. Deem and Ramdas Pophale) SiO2 
 PCOD9210515
Probable space group: C 2/M
;
_chemical_formula_sum "Si O2"
_cell_formula_units_Z 42
_cell_length_a 28.096309
_cell_length_b 17.262502
_cell_length_c 14.983362
_cell_angle_alpha 90.000000
_cell_angle_beta 165.161758
_cell_angle_gamma 90.000000
_cell_volume 1861.043871
_symmetry_space_group_name_H-M "C 2/M"
_symmetry_group_IT_number 12
_symmetry_cell_setting 'monoclinic'
loop_
_space_group_symop_operation_xyz
x,y,z
-x,y,-z
-x,-y,-z
x,-y,z
1/2+x,1/2+y,z
1/2-x,1/2+y,-z
1/2-x,1/2-y,-z
1/2+x,1/2-y,z
loop_
_atom_site_type_symbol
_atom_site_label
_atom_site_fract_x
_atom_site_fract_y
_atom_site_fract_z
Si Si1 0.000000 0.000000 0.000000
Si Si2 0.218621 0.160951 0.917999
Si Si3 0.471240 0.817808 0.845433
Si Si4 0.339456 0.412672 0.007056
Si Si5 0.397462 0.353620 0.925566
Si Si6 0.783183 0.590122 0.849699
O O1 0.997202 0.068629 0.073263
O O2 0.259663 0.114463 0.082671
O O3 0.318319 0.129291 0.010064
O O4 0.000000 0.151125 0.500000
O O5 0.250000 0.250000 0.000000
O O6 0.272611 0.843059 0.449976
O O7 0.500000 0.839964 0.000000
O O8 0.485420 0.724975 0.863234
O O9 0.619384 0.860128 0.050482
O O10 0.285628 0.500000 0.888447
O O11 0.561547 0.409686 0.429542
O O12 0.312842 0.362180 0.871019
O O13 0.844130 0.500000 0.959580
#
# Coordination Sequence:
#
# PCOD9210515 Si02
#       6
#     2   8   8   8   8   8
#     4  12  28  44  74  96 138 172 228 274 326 396
#     4  10  21  39  62  92 126 172 220 272 331 393
#     4  12  27  44  69  96 136 176 221 272 332 396
#     4  10  21  40  68  93 129 172 218 271 332 392
#     4  12  26  46  69 101 133 175 224 273 333 397
#     4  10  23  41  65  99 134 172 224 279 330 393
#
# _framework density 22.567979999999999
#
# number of rings (size 3 to 8) (size 9 to 14) (size 15 to 20)
#    0.000    1.143    1.905    3.429    4.000    7.238 
#    0.000    0.000    0.000    3.429    0.000    0.000 
#    0.000    0.000    0.000    0.000    0.000    0.000 
#
# Total GULP energy -117298.227521 kJ/mol
# GULP energy per Si atom -5585.629882 kJ/mol
# Density = 2.251661 g / cm^3
# Si number density = 22.567980 Si / 1000 Ang^3
#
#
#
# Elastic Constant Matrix: (Units=GPa)
#
#
# Indices 1 2 3 4 5 6 
#
# 1 210.7517 78.5872 26.0055 0.0000 -32.9637 0.0000
# 2 78.5872 132.4402 27.1382 0.0000 -4.4662 0.0000
# 3 26.0055 27.1382 49.1475 0.0000 -20.2319 0.0000
# 4 0.0000 0.0000 0.0000 21.0328 0.0000 -7.3642
# 5 -32.9637 -4.4662 -20.2319 0.0000 39.3131 0.0000
# 6 0.0000 0.0000 0.0000 -7.3642 0.0000 53.3416
#
#
#
# Elastic Compliance Matrix: (Units=1/GPa)
#
#
# Indices 1 2 3 4 5 6 
#
# 1 0.007148 -0.004254 0.001060 0.000000 0.006055 0.000000
# 2 -0.004254 0.011152 -0.006159 0.000000 -0.005470 0.000000
# 3 0.001060 -0.006159 0.029518 0.000000 0.015380 0.000000
# 4 0.000000 0.000000 0.000000 0.049960 0.000000 0.006897
# 5 0.006055 -0.005470 0.015380 0.000000 0.037808 0.000000
# 6 0.000000 0.000000 0.000000 0.006897 0.000000 0.019699
#
#
# Mechanical properties :
#
#
# Convention : Reuss Voigt Hill
#
# Bulk Modulus (GPa) = 34.35027 72.86682 53.60854
# Shear Modulus (GPa) = 27.21896 40.11139 33.66518
#
# Velocity S-wave (km/s) = 3.47664 4.22045 3.86647
# Velocity P-wave (km/s) = 5.60089 7.49048 6.61352
#
# Compressibility (1/GPa) = 0.02911185
#
# Stress axis : x y z
#
# Youngs Moduli (GPa) = 139.90679 89.66628 33.87750
#
# Poissons Ratio (x) = 0.38146 -0.03590
# Poissons Ratio (y) = 0.59519 0.20864
# Poissons Ratio (z) = -0.14827 0.55223
#
# Static dielectric constant tensor:
#      x y z
#    x 1.871520 0.000000 0.021780 
#    y 0.000000 1.836520 0.000000 
#    z 0.021780 0.000000 1.855360 
# 
# From -- ./inp_files/251346.got.cif
#   From: 2010.05.17/outbox.cif.g08.bks.cpg/sg12_126_cif.got.tgz:251346.got - 2010.06.03 13:09:07.
