data_PCOD9210106
_publ_section_title
;
Structure prediction by ZEFSAII (Michael W. Deem and Ramdas Pophale) SiO2 
 PCOD9210106
Probable space group: C 2/M
;
_chemical_formula_sum "Si O2"
_cell_formula_units_Z 64
_cell_length_a 15.347167
_cell_length_b 8.600850
_cell_length_c 27.938970
_cell_angle_alpha 90.000000
_cell_angle_beta 59.909393
_cell_angle_gamma 90.000000
_cell_volume 3190.901316
_symmetry_space_group_name_H-M "C 2/M"
_symmetry_group_IT_number 12
_symmetry_cell_setting 'monoclinic'
loop_
_space_group_symop_operation_xyz
x,y,z
-x,y,-z
-x,-y,-z
x,-y,z
1/2+x,1/2+y,z
1/2-x,1/2+y,-z
1/2-x,1/2-y,-z
1/2+x,1/2-y,z
loop_
_atom_site_type_symbol
_atom_site_label
_atom_site_fract_x
_atom_site_fract_y
_atom_site_fract_z
Si Si1 0.484066 0.687953 0.293014
Si Si2 0.410370 0.685720 0.209750
Si Si3 0.114809 0.824561 0.985146
Si Si4 0.102204 0.312030 0.499796
Si Si5 0.935693 0.679477 0.901263
Si Si6 0.329182 0.312283 0.417084
Si Si7 0.301137 0.184842 0.765584
Si Si8 0.722119 0.680154 0.123935
O O1 0.490557 0.500000 0.290856
O O2 0.462418 0.739148 0.244438
O O3 0.393563 0.733275 0.353019
O O4 0.590179 0.756552 0.280446
O O5 0.424608 0.500000 0.202128
O O6 0.459443 0.758096 0.148738
O O7 0.291457 0.716619 0.244311
O O8 0.176558 0.712844 0.933399
O O9 0.156719 0.000000 0.970475
O O10 0.110177 0.769777 0.041030
O O11 0.000000 0.827549 0.000000
O O12 0.098730 0.500000 0.501321
O O13 0.211093 0.265064 0.447120
O O14 0.116102 0.253385 0.550507
O O15 0.000000 0.259843 0.500000
O O16 0.944250 0.500000 0.911446
O O17 0.859816 0.711827 0.878915
O O18 0.330340 0.500000 0.420232
O O19 0.273718 0.271305 0.822362
O O20 0.304432 0.000000 0.773223
O O21 0.692440 0.500000 0.127903
#
# Coordination Sequence:
#
# PCOD9210106 Si02
#       8
#     8   8   8   8   8   8   8   8
#     4  10  21  39  60  83 118 162 200 241 297 357
#     4  10  22  40  61  85 117 156 195 242 303 359
#     4  11  24  41  60  84 115 149 190 240 296 361
#     4   9  18  34  58  87 120 158 201 244 294 351
#     4  12  24  39  61  87 115 148 193 243 296 359
#     4   9  19  35  56  85 120 158 201 245 294 346
#     4  11  23  39  61  89 117 152 201 250 297 355
#     4  12  24  40  61  84 115 152 192 241 302 361
#
# _framework density 20.057027999999999
#
# number of rings (size 3 to 8) (size 9 to 14) (size 15 to 20)
#    0.000    1.500    1.250    4.125    0.000    6.750 
#    0.000    2.500    0.000    0.000    0.000    0.000 
#    0.000    0.000    0.000    0.000    0.000    0.000 
#
# Total GULP energy -178737.766108 kJ/mol
# GULP energy per Si atom -5585.555191 kJ/mol
# Density = 2.001138 g / cm^3
# Si number density = 20.057028 Si / 1000 Ang^3
#
#
#
# Elastic Constant Matrix: (Units=GPa)
#
#
# Indices 1 2 3 4 5 6 
#
# 1 92.8375 10.2768 19.2738 0.0000 -21.2002 0.0000
# 2 10.2768 24.0652 8.8054 0.0000 -5.0460 0.0000
# 3 19.2738 8.8054 96.1479 0.0000 -21.0188 0.0000
# 4 0.0000 0.0000 0.0000 25.9517 0.0000 -3.0510
# 5 -21.2002 -5.0460 -21.0188 0.0000 23.3300 0.0000
# 6 0.0000 0.0000 0.0000 -3.0510 0.0000 26.5448
#
#
#
# Elastic Compliance Matrix: (Units=1/GPa)
#
#
# Indices 1 2 3 4 5 6 
#
# 1 0.013860 -0.003463 0.000160 0.000000 0.011989 0.000000
# 2 -0.003463 0.044843 -0.002466 0.000000 0.004331 0.000000
# 3 0.000160 -0.002466 0.013087 0.000000 0.011403 0.000000
# 4 0.000000 0.000000 0.000000 0.039061 0.000000 0.004490
# 5 0.011989 0.004331 0.011403 0.000000 0.064968 0.000000
# 6 0.000000 0.000000 0.000000 0.004490 0.000000 0.038188
#
#
# Mechanical properties :
#
#
# Convention : Reuss Voigt Hill
#
# Bulk Modulus (GPa) = 16.59715 32.19583 24.39649
# Shear Modulus (GPa) = 20.35597 26.81164 23.58380
#
# Velocity S-wave (km/s) = 3.18921 3.66015 3.43277
# Velocity P-wave (km/s) = 4.67487 5.82660 5.28222
#
# Compressibility (1/GPa) = 0.06025129
#
# Stress axis : x y z
#
# Youngs Moduli (GPa) = 72.15267 22.30005 76.41089
#
# Poissons Ratio (x) = 0.07723 -0.01221
# Poissons Ratio (y) = 0.24987 0.18842
# Poissons Ratio (z) = -0.01153 0.05499
#
# Static dielectric constant tensor:
#      x y z
#    x 1.746370 0.000000 -0.012620 
#    y 0.000000 1.687250 0.000000 
#    z -0.012620 0.000000 1.726690 
# 
# From -- ./inp_files/374988.got.cif
#   From: 2010.05.17/outbox.cif.g08.bks.cpg/sg12_188_cif.got.tgz:374988.got - 2010.06.03 13:09:07.
