data_PCOD9210775
_publ_section_title
;
Structure prediction by ZEFSAII (Michael W. Deem and Ramdas Pophale) SiO2 
 PCOD9210775
Probable space group: C 2/M
;
_chemical_formula_sum "Si O2"
_cell_formula_units_Z 52
_cell_length_a 20.526483
_cell_length_b 18.988719
_cell_length_c 8.780755
_cell_angle_alpha 90.000000
_cell_angle_beta 127.717632
_cell_angle_gamma 90.000000
_cell_volume 2707.309699
_symmetry_space_group_name_H-M "C 2/M"
_symmetry_group_IT_number 12
_symmetry_cell_setting 'monoclinic'
loop_
_space_group_symop_operation_xyz
x,y,z
-x,y,-z
-x,-y,-z
x,-y,z
1/2+x,1/2+y,z
1/2-x,1/2+y,-z
1/2-x,1/2-y,-z
1/2+x,1/2-y,z
loop_
_atom_site_type_symbol
_atom_site_label
_atom_site_fract_x
_atom_site_fract_y
_atom_site_fract_z
Si Si1 0.414368 0.618770 0.460570
Si Si2 0.227905 0.865941 0.994102
Si Si3 0.827379 0.500000 0.653610
Si Si4 0.470021 0.774297 0.616765
Si Si5 0.350883 0.773556 0.989609
Si Si6 0.408215 0.147939 0.799629
Si Si7 0.357844 0.500000 0.599556
Si Si8 0.732362 0.500000 0.220568
O O1 0.500000 0.598533 0.500000
O O2 0.425011 0.700404 0.522490
O O3 0.399308 0.568604 0.583896
O O4 0.339719 0.615846 0.232810
O O5 0.197401 0.797720 0.044882
O O6 0.234339 0.931673 0.116390
O O7 0.310087 0.837204 0.028228
O O8 0.873648 0.570249 0.763743
O O9 0.736384 0.500000 0.594742
O O10 0.809237 0.500000 0.446512
O O11 0.500000 0.805169 0.500000
O O12 0.414948 0.825783 0.637082
O O13 0.555241 0.759716 0.826574
O O14 0.353350 0.798604 0.819533
O O15 0.500000 0.148713 0.000000
O O16 0.343800 0.500000 0.763467
#
# Coordination Sequence:
#
# PCOD9210775 Si02
#       8
#     8   8   4   8   8   8   4   4
#     4  11  21  41  64  90 124 166 206 257 306 375
#     4  11  22  42  62  92 126 163 210 254 313 361
#     4  10  23  43  58  91 122 159 214 247 313 373
#     4  10  21  39  63  97 124 158 206 255 310 367
#     4  10  22  39  65  94 121 164 205 255 311 368
#     4  10  22  39  67  90 126 159 202 259 313 375
#     4  10  24  39  60  91 119 173 209 247 312 354
#     4  10  27  40  60  92 125 162 211 258 299 366
#
# _framework density 19.207260000000002
#
# number of rings (size 3 to 8) (size 9 to 14) (size 15 to 20)
#    0.462    1.231    3.077    1.846    4.308    0.615 
#    0.000    5.000    0.000    0.000    0.000    0.000 
#    0.000    0.000    0.000    0.000    0.000    0.000 
#
# Total GULP energy -145026.076199 kJ/mol
# GULP energy per Si atom -5577.926008 kJ/mol
# Density = 1.916354 g / cm^3
# Si number density = 19.207260 Si / 1000 Ang^3
#
#
#
# Elastic Constant Matrix: (Units=GPa)
#
#
# Indices 1 2 3 4 5 6 
#
# 1 71.7192 31.5705 -2.9282 0.0000 -18.5855 0.0000
# 2 31.5705 72.7640 11.0572 0.0000 -18.4971 0.0000
# 3 -2.9282 11.0572 42.7415 0.0000 -9.0560 0.0000
# 4 0.0000 0.0000 0.0000 63.1207 0.0000 -15.1357
# 5 -18.5855 -18.4971 -9.0560 0.0000 30.9723 0.0000
# 6 0.0000 0.0000 0.0000 -15.1357 0.0000 22.6131
#
#
#
# Elastic Compliance Matrix: (Units=1/GPa)
#
#
# Indices 1 2 3 4 5 6 
#
# 1 0.019558 -0.006950 0.005059 0.000000 0.009065 0.000000
# 2 -0.006950 0.018884 -0.004110 0.000000 0.005906 0.000000
# 3 0.005059 -0.004110 0.026576 0.000000 0.008351 0.000000
# 4 0.000000 0.000000 0.000000 0.018872 0.000000 0.012631
# 5 0.009065 0.005906 0.008351 0.000000 0.043695 0.000000
# 6 0.000000 0.000000 0.000000 0.012631 0.000000 0.052677
#
#
# Mechanical properties :
#
#
# Convention : Reuss Voigt Hill
#
# Bulk Modulus (GPa) = 18.86279 29.62485 24.24382
# Shear Modulus (GPa) = 23.81665 33.17624 28.49644
#
# Velocity S-wave (km/s) = 3.52516 4.16056 3.85597
# Velocity P-wave (km/s) = 5.13916 6.20787 5.69862
#
# Compressibility (1/GPa) = 0.05301444
#
# Stress axis : x y z
#
# Youngs Moduli (GPa) = 51.12921 52.95357 37.62829
#
# Poissons Ratio (x) = 0.36804 -0.19034
# Poissons Ratio (y) = 0.35536 0.15466
# Poissons Ratio (z) = -0.25864 0.21765
#
# Static dielectric constant tensor:
#      x y z
#    x 1.689340 0.000000 -0.008850 
#    y 0.000000 1.630460 0.000000 
#    z -0.008850 0.000000 1.680140 
# 
# From -- ./inp_files/88512.got.cif
#   From: 2010.05.17/outbox.cif.g08.bks.cpg/sg12_45_cif.got.tgz:88512.got - 2010.06.03 13:09:07.
