data_PCOD9210466
_publ_section_title
;
Structure prediction by ZEFSAII (Michael W. Deem and Ramdas Pophale) SiO2 
 PCOD9210466
Probable space group: C 2/M
;
_chemical_formula_sum "Si O2"
_cell_formula_units_Z 64
_cell_length_a 20.724907
_cell_length_b 8.817151
_cell_length_c 20.496967
_cell_angle_alpha 90.000000
_cell_angle_beta 114.038007
_cell_angle_gamma 90.000000
_cell_volume 3420.678466
_symmetry_space_group_name_H-M "C 2/M"
_symmetry_group_IT_number 12
_symmetry_cell_setting 'monoclinic'
loop_
_space_group_symop_operation_xyz
x,y,z
-x,y,-z
-x,-y,-z
x,-y,z
1/2+x,1/2+y,z
1/2-x,1/2+y,-z
1/2-x,1/2-y,-z
1/2+x,1/2-y,z
loop_
_atom_site_type_symbol
_atom_site_label
_atom_site_fract_x
_atom_site_fract_y
_atom_site_fract_z
Si Si1 0.176106 0.818308 0.856210
Si Si2 0.422500 0.182104 0.071958
Si Si3 0.661130 0.817715 0.091908
Si Si4 0.574244 0.318842 0.169846
Si Si5 0.063823 0.817413 0.315765
Si Si6 0.080389 0.682317 0.551127
Si Si7 0.172554 0.818718 0.474638
Si Si8 0.913519 0.318488 0.294702
O O1 0.130752 0.742114 0.894763
O O2 0.258611 0.776532 0.893038
O O3 0.143074 0.762462 0.774618
O O4 0.169582 0.000000 0.858796
O O5 0.499547 0.249955 0.116298
O O6 0.426284 0.000000 0.076797
O O7 0.391143 0.225522 0.988591
O O8 0.634663 0.743591 0.147556
O O9 0.658316 0.000000 0.097503
O O10 0.570902 0.500000 0.163454
O O11 0.584640 0.279396 0.250211
O O12 0.123496 0.775564 0.392668
O O13 0.990826 0.736057 0.303790
O O14 0.052821 0.000000 0.314640
O O15 0.085349 0.500000 0.545770
O O16 0.133777 0.759532 0.523344
O O17 0.094796 0.719624 0.632451
O O18 0.000000 0.726618 0.500000
O O19 0.250000 0.750000 0.500000
O O20 0.177086 0.000000 0.477990
O O21 0.908291 0.500000 0.285119
#
# Coordination Sequence:
#
# PCOD9210466 Si02
#       8
#     8   8   8   8   8   8   8   8
#     4  11  23  40  61  88 123 159 200 249 303 357
#     4  11  22  39  63  89 118 157 205 249 299 359
#     4  10  24  42  59  85 123 161 198 250 304 358
#     4  11  23  39  62  90 120 158 202 249 302 360
#     4  10  22  40  61  87 121 158 198 248 299 356
#     4  10  21  39  62  90 122 156 199 248 296 353
#     4  11  24  41  63  91 125 164 202 247 303 357
#     4  11  22  37  63  92 119 157 201 249 300 355
#
# _framework density 18.709738000000002
#
# number of rings (size 3 to 8) (size 9 to 14) (size 15 to 20)
#    0.000    1.375    2.500    2.625    0.000    6.750 
#    0.000    3.750    0.000    0.000    0.000    0.000 
#    0.000    0.000    0.000    0.000    0.000    0.000 
#
# Total GULP energy -178922.088024 kJ/mol
# GULP energy per Si atom -5591.315251 kJ/mol
# Density = 1.866715 g / cm^3
# Si number density = 18.709738 Si / 1000 Ang^3
#
#
#
# Elastic Constant Matrix: (Units=GPa)
#
#
# Indices 1 2 3 4 5 6 
#
# 1 65.6132 7.4142 -7.4398 0.0000 -10.4479 0.0000
# 2 7.4142 14.4297 6.4664 0.0000 -6.1926 0.0000
# 3 -7.4398 6.4664 58.0396 0.0000 -16.8263 0.0000
# 4 0.0000 0.0000 0.0000 27.5547 0.0000 -1.5873
# 5 -10.4479 -6.1926 -16.8263 0.0000 24.9334 0.0000
# 6 0.0000 0.0000 0.0000 -1.5873 0.0000 36.6961
#
#
#
# Elastic Compliance Matrix: (Units=1/GPa)
#
#
# Indices 1 2 3 4 5 6 
#
# 1 0.018401 -0.007961 0.006102 0.000000 0.009851 0.000000
# 2 -0.007961 0.081694 -0.006474 0.000000 0.012585 0.000000
# 3 0.006102 -0.006474 0.023632 0.000000 0.016897 0.000000
# 4 0.000000 0.000000 0.000000 0.036382 0.000000 0.001574
# 5 0.009851 0.012585 0.016897 0.000000 0.058763 0.000000
# 6 0.000000 0.000000 0.000000 0.001574 0.000000 0.027319
#
#
# Mechanical properties :
#
#
# Convention : Reuss Voigt Hill
#
# Bulk Modulus (GPa) = 9.34058 16.77379 13.05719
# Shear Modulus (GPa) = 16.74790 26.61295 21.68042
#
# Velocity S-wave (km/s) = 2.99514 3.77558 3.40778
# Velocity P-wave (km/s) = 4.11878 5.29069 4.74108
#
# Compressibility (1/GPa) = 0.10705969
#
# Stress axis : x y z
#
# Youngs Moduli (GPa) = 54.34507 12.24074 42.31625
#
# Poissons Ratio (x) = 0.09745 -0.25820
# Poissons Ratio (y) = 0.43266 0.27395
# Poissons Ratio (z) = -0.33159 0.07924
#
# Static dielectric constant tensor:
#      x y z
#    x 1.605310 0.000000 -0.001960 
#    y 0.000000 1.628550 0.000000 
#    z -0.001960 0.000000 1.638230 
# 
# From -- ./inp_files/320181.got.cif
#   From: 2010.05.17/outbox.cif.g08.bks.cpg/sg12_161_cif.got.tgz:320181.got - 2010.06.03 13:09:07.
