data_PCOD9210417
_publ_section_title
;
Structure prediction by ZEFSAII (Michael W. Deem and Ramdas Pophale) SiO2 
 PCOD9210417
Probable space group: C 2/M
;
_chemical_formula_sum "Si O2"
_cell_formula_units_Z 48
_cell_length_a 31.521261
_cell_length_b 8.836966
_cell_length_c 18.201366
_cell_angle_alpha 90.000000
_cell_angle_beta 29.982870
_cell_angle_gamma 90.000000
_cell_volume 2533.703443
_symmetry_space_group_name_H-M "C 2/M"
_symmetry_group_IT_number 12
_symmetry_cell_setting 'monoclinic'
loop_
_space_group_symop_operation_xyz
x,y,z
-x,y,-z
-x,-y,-z
x,-y,z
1/2+x,1/2+y,z
1/2-x,1/2+y,-z
1/2-x,1/2-y,-z
1/2+x,1/2-y,z
loop_
_atom_site_type_symbol
_atom_site_label
_atom_site_fract_x
_atom_site_fract_y
_atom_site_fract_z
Si Si1 0.751209 0.318765 0.416985
Si Si2 0.412054 0.682161 0.092556
Si Si3 0.251646 0.319607 0.916227
Si Si4 0.417158 0.317966 0.421664
Si Si5 0.090401 0.181743 0.076254
Si Si6 0.911445 0.319505 0.592054
O O1 0.753725 0.500000 0.418285
O O2 0.750000 0.250000 0.500000
O O3 0.832549 0.259083 0.250961
O O4 0.665653 0.276448 0.501394
O O5 0.403335 0.500000 0.112437
O O6 0.500000 0.725410 0.000000
O O7 0.414796 0.719441 0.002139
O O8 0.253129 0.500000 0.918647
O O9 0.334357 0.260567 0.749490
O O10 0.250000 0.250000 0.000000
O O11 0.168634 0.264459 0.997125
O O12 0.415674 0.500000 0.434942
O O13 0.502555 0.280715 0.248891
O O14 0.415841 0.237607 0.502054
O O15 0.102903 0.000000 0.063480
O O16 0.898217 0.500000 0.613635
O O17 0.000000 0.285476 0.500000
#
# Coordination Sequence:
#
# PCOD9210417 Si02
#       6
#     8   8   8   8   8   8
#     4  11  23  39  60  88 120 155 199 246 294 350
#     4  10  21  39  62  88 120 158 198 241 292 350
#     4  12  25  41  62  88 120 156 197 244 294 350
#     4  10  22  40  62  89 120 156 197 241 292 351
#     4  10  21  39  63  89 120 157 196 240 293 350
#     4  11  24  41  62  90 121 154 196 243 292 349
#
# _framework density 18.944600999999999
#
# number of rings (size 3 to 8) (size 9 to 14) (size 15 to 20)
#    0.000    1.333    0.000    5.500    0.000   12.333 
#    0.000    1.667    0.000    0.000    0.000    0.000 
#    0.000    0.000    0.000    0.000    0.000    0.000 
#
# Total GULP energy -134278.760477 kJ/mol
# GULP energy per Si atom -5594.948353 kJ/mol
# Density = 1.890148 g / cm^3
# Si number density = 18.944601 Si / 1000 Ang^3
#
#
#
# Elastic Constant Matrix: (Units=GPa)
#
#
# Indices 1 2 3 4 5 6 
#
# 1 223.3154 99.0381 133.5410 -0.0001 0.1911 -0.0001
# 2 99.0381 74.6105 96.2772 -0.0021 -3.4312 0.0017
# 3 133.5410 96.2772 217.1002 -0.0009 0.8834 0.0002
# 4 -0.0001 -0.0021 -0.0009 31.7722 0.0003 8.3361
# 5 0.1911 -3.4312 0.8834 0.0003 43.0180 0.0001
# 6 -0.0001 0.0017 0.0002 8.3361 0.0001 27.8868
#
#
#
# Elastic Compliance Matrix: (Units=1/GPa)
#
#
# Indices 1 2 3 4 5 6 
#
# 1 0.010984 -0.013841 -0.000614 -0.000001 -0.001140 0.000001
# 2 -0.013841 0.049111 -0.013283 0.000004 0.004251 -0.000004
# 3 -0.000614 -0.013283 0.010880 -0.000001 -0.001280 0.000001
# 4 -0.000001 0.000004 -0.000001 0.034153 0.000000 -0.010209
# 5 -0.001140 0.004251 -0.001280 0.000000 0.023617 0.000000
# 6 0.000001 -0.000004 0.000001 -0.010209 0.000000 0.038911
#
#
# Mechanical properties :
#
#
# Convention : Reuss Voigt Hill
#
# Bulk Modulus (GPa) = 64.51797 130.30431 97.41114
# Shear Modulus (GPa) = 21.90136 32.94674 27.42405
#
# Velocity S-wave (km/s) = 3.40380 4.17479 3.80885
# Velocity P-wave (km/s) = 7.04115 9.60050 8.41865
#
# Compressibility (1/GPa) = 0.01549956
#
# Stress axis : x y z
#
# Youngs Moduli (GPa) = 91.03854 20.36216 91.91531
#
# Poissons Ratio (x) = 0.28183 0.05644
# Poissons Ratio (y) = 1.26004 1.22089
# Poissons Ratio (z) = 0.05590 0.27047
#
# Static dielectric constant tensor:
#      x y z
#    x 1.622670 0.000000 -0.006540 
#    y 0.000000 1.636020 0.000000 
#    z -0.006540 0.000000 1.615330 
# 
# From -- ./inp_files/295370.got.cif
#   From: 2010.05.17/outbox.cif.g08.bks.cpg/sg12_148_cif.got.tgz:295370.got - 2010.06.03 13:09:07.
