data_PCOD9210545
_publ_section_title
;
Structure prediction by ZEFSAII (Michael W. Deem and Ramdas Pophale) SiO2 
 PCOD9210545
Probable space group: C 2/M
;
_chemical_formula_sum "Si O2"
_cell_formula_units_Z 34
_cell_length_a 31.021033
_cell_length_b 7.872944
_cell_length_c 6.860271
_cell_angle_alpha 90.000000
_cell_angle_beta 69.606302
_cell_angle_gamma 90.000000
_cell_volume 1570.444973
_symmetry_space_group_name_H-M "C 2/M"
_symmetry_group_IT_number 12
_symmetry_cell_setting 'monoclinic'
loop_
_space_group_symop_operation_xyz
x,y,z
-x,y,-z
-x,-y,-z
x,-y,z
1/2+x,1/2+y,z
1/2-x,1/2+y,-z
1/2-x,1/2-y,-z
1/2+x,1/2-y,z
loop_
_atom_site_type_symbol
_atom_site_label
_atom_site_fract_x
_atom_site_fract_y
_atom_site_fract_z
Si Si1 0.741018 0.297872 0.287875
Si Si2 0.640479 0.694553 0.533099
Si Si3 0.096247 0.500000 0.115886
Si Si4 0.837788 0.188865 0.037587
Si Si5 0.000000 0.500000 0.500000
Si Si6 0.573821 0.000000 0.690454
O O1 0.745911 0.500000 0.261703
O O2 0.750000 0.250000 0.500000
O O3 0.687238 0.256065 0.345141
O O4 0.782802 0.214206 0.104418
O O5 0.627382 0.500000 0.508170
O O6 0.653956 0.694567 0.741094
O O7 0.600945 0.832040 0.577046
O O8 0.052401 0.500000 0.324225
O O9 0.129046 0.335809 0.091444
O O10 0.079026 0.500000 0.917494
O O11 0.850298 0.000000 0.950800
O O12 0.976933 0.500000 0.315804
#
# Coordination Sequence:
#
# PCOD9210545 Si02
#       6
#     8   8   4   8   2   4
#     4   9  14  21  41  82 124 156 190 223 266 341
#     4   8  16  28  49  84 121 152 188 227 275 344
#     4  10  21  41  61  84 119 149 188 249 297 335
#     4   9  16  28  51  84 120 154 190 229 280 345
#     4  12  26  44  66  86 104 146 210 252 298 360
#     4  10  21  39  63  84 115 153 188 245 297 333
#
# _framework density 21.649913000000002
#
# number of rings (size 3 to 8) (size 9 to 14) (size 15 to 20)
#    0.000    2.824    1.176    2.471    6.588    0.000 
#    0.000    3.529    0.000    7.059    0.000    0.000 
#    0.000    0.000    0.000    0.000    0.000    0.000 
#
# Total GULP energy -94752.592871 kJ/mol
# GULP energy per Si atom -5573.681934 kJ/mol
# Density = 2.160064 g / cm^3
# Si number density = 21.649913 Si / 1000 Ang^3
#
#
#
# Elastic Constant Matrix: (Units=GPa)
#
#
# Indices 1 2 3 4 5 6 
#
# 1 144.1149 76.6561 24.0577 0.0000 -12.7185 0.0000
# 2 76.6561 132.4057 45.4402 0.0000 -32.9932 0.0000
# 3 24.0577 45.4402 142.6298 0.0000 -19.7699 0.0000
# 4 0.0000 0.0000 0.0000 -4.9165 0.0000 -1.7170
# 5 -12.7185 -32.9932 -19.7699 0.0000 49.0462 0.0000
# 6 0.0000 0.0000 0.0000 -1.7170 0.0000 -5.5675
#
#
#
# Elastic Compliance Matrix: (Units=1/GPa)
#
#
# Indices 1 2 3 4 5 6 
#
# 1 0.010129 -0.006280 0.000075 0.000000 -0.001568 0.000000
# 2 -0.006280 0.013647 -0.002374 0.000000 0.006594 0.000000
# 3 0.000075 -0.002374 0.007982 0.000000 0.001640 0.000000
# 4 0.000000 0.000000 0.000000 -0.227946 0.000000 0.070297
# 5 -0.001568 0.006594 0.001640 0.000000 0.025079 0.000000
# 6 0.000000 0.000000 0.000000 0.070297 0.000000 -0.201291
#
#
# Mechanical properties :
#
#
# Convention : Reuss Voigt Hill
#
# Bulk Modulus (GPa) = 68.50152 79.05095 73.77623
# Shear Modulus (GPa) = -14.27040 25.91220 5.82090
#
# Velocity S-wave (km/s) = -2.57016 3.46334 1.64149
# Velocity P-wave (km/s) = 4.78556 7.25159 6.14358
#
# Compressibility (1/GPa) = 0.01459822
#
# Stress axis : x y z
#
# Youngs Moduli (GPa) = 98.73014 73.27820 125.27874
#
# Poissons Ratio (x) = 0.46022 -0.00941
# Poissons Ratio (y) = 0.62007 0.29745
# Poissons Ratio (z) = -0.00742 0.17398
#
# Static dielectric constant tensor:
#      x y z
#    x 1.714170 0.000000 0.051820 
#    y 0.000000 1.748430 0.000000 
#    z 0.051820 0.000000 1.827330 
# 
# From -- ./inp_files/107397.got.cif
#   From: 2010.05.17/outbox.cif.g08.bks.cpg/sg12_54_cif.got.tgz:107397.got - 2010.06.03 13:09:07.
