data_PCOD9210357
_publ_section_title
;
Structure prediction by ZEFSAII (Michael W. Deem and Ramdas Pophale) SiO2 
 PCOD9210357
Probable space group: C 2/M
;
_chemical_formula_sum "Si O2"
_cell_formula_units_Z 56
_cell_length_a 20.962135
_cell_length_b 8.651643
_cell_length_c 18.076017
_cell_angle_alpha 90.000000
_cell_angle_beta 71.544432
_cell_angle_gamma 90.000000
_cell_volume 3109.610340
_symmetry_space_group_name_H-M "C 2/M"
_symmetry_group_IT_number 12
_symmetry_cell_setting 'monoclinic'
loop_
_space_group_symop_operation_xyz
x,y,z
-x,y,-z
-x,-y,-z
x,-y,z
1/2+x,1/2+y,z
1/2-x,1/2+y,-z
1/2-x,1/2-y,-z
1/2+x,1/2-y,z
loop_
_atom_site_type_symbol
_atom_site_label
_atom_site_fract_x
_atom_site_fract_y
_atom_site_fract_z
Si Si1 0.833386 0.814875 0.171729
Si Si2 0.315746 0.685507 0.759380
Si Si3 0.921002 0.684946 0.838303
Si Si4 0.093231 0.812447 0.407336
Si Si5 0.927871 0.315181 0.264890
Si Si6 0.941466 0.813159 0.418729
Si Si7 0.075050 0.813660 0.000153
O O1 0.758096 0.751971 0.201887
O O2 0.875963 0.754591 0.225638
O O3 0.832543 0.000000 0.173685
O O4 0.872281 0.767180 0.082526
O O5 0.312637 0.500000 0.759714
O O6 0.366219 0.738930 0.805141
O O7 0.348829 0.739377 0.669481
O O8 0.916354 0.500000 0.833894
O O9 0.911239 0.736507 0.926307
O O10 0.996224 0.733092 0.785697
O O11 0.096002 0.764043 0.491992
O O12 0.019921 0.768542 0.402107
O O13 0.093666 0.000000 0.407881
O O14 0.924415 0.500000 0.262776
O O15 0.915394 0.258752 0.352791
O O16 0.938896 0.000000 0.414516
O O17 0.077421 0.000000 0.007875
O O18 0.000000 0.773090 0.000000
#
# Coordination Sequence:
#
# PCOD9210357 Si02
#       7
#     8   8   8   8   8   8   8
#     4  11  24  41  61  84 115 152 191 237 290 344
#     4  11  22  39  61  86 119 155 191 232 286 344
#     4  11  23  37  59  88 119 151 190 236 284 340
#     4   8  16  31  56  86 114 148 189 235 282 334
#     4  11  22  36  56  88 120 150 190 236 285 340
#     4   9  16  32  58  86 113 146 193 238 281 331
#     4  10  21  39  62  86 111 146 194 241 287 338
#
# _framework density 18.008686000000001
#
# number of rings (size 3 to 8) (size 9 to 14) (size 15 to 20)
#    0.000    1.857    2.857    2.571    0.000    3.143 
#    0.000    3.571    0.000    0.000    0.000    0.000 
#    0.000    0.000    0.000    0.000    0.000    0.000 
#
# Total GULP energy -156357.799526 kJ/mol
# GULP energy per Si atom -5584.207126 kJ/mol
# Density = 1.796770 g / cm^3
# Si number density = 18.008686 Si / 1000 Ang^3
#
#
#
# Elastic Constant Matrix: (Units=GPa)
#
#
# Indices 1 2 3 4 5 6 
#
# 1 127.4568 36.4947 80.1266 0.0000 -5.1548 0.0000
# 2 36.4947 35.1488 36.6899 0.0000 -0.3859 0.0000
# 3 80.1266 36.6899 169.1535 0.0000 1.3054 0.0000
# 4 0.0000 0.0000 0.0000 -0.5512 0.0000 -18.0223
# 5 -5.1548 -0.3859 1.3054 0.0000 31.5854 0.0000
# 6 0.0000 0.0000 0.0000 -18.0223 0.0000 14.0141
#
#
#
# Elastic Compliance Matrix: (Units=1/GPa)
#
#
# Indices 1 2 3 4 5 6 
#
# 1 0.013303 -0.009297 -0.004302 0.000000 0.002235 0.000000
# 2 -0.009297 0.043294 -0.004981 0.000000 -0.000782 0.000000
# 3 -0.004302 -0.004981 0.009039 0.000000 -0.001137 0.000000
# 4 0.000000 0.000000 0.000000 -0.042144 0.000000 -0.054198
# 5 0.002235 -0.000782 -0.001137 0.000000 0.032062 0.000000
# 6 0.000000 0.000000 0.000000 -0.054198 0.000000 0.001658
#
#
# Mechanical properties :
#
#
# Convention : Reuss Voigt Hill
#
# Bulk Modulus (GPa) = 35.11734 70.93127 53.02431
# Shear Modulus (GPa) = 48.14061 20.90620 34.52340
#
# Velocity S-wave (km/s) = 5.17590 3.41089 4.38315
# Velocity P-wave (km/s) = 7.43387 7.41519 7.42453
#
# Compressibility (1/GPa) = 0.02847596
#
# Stress axis : x y z
#
# Youngs Moduli (GPa) = 75.17255 23.09805 110.63466
#
# Poissons Ratio (x) = 0.21474 0.47596
# Poissons Ratio (y) = 0.69887 0.55103
# Poissons Ratio (z) = 0.32340 0.11504
#
# Static dielectric constant tensor:
#      x y z
#    x 1.577640 0.000000 -0.013630 
#    y 0.000000 1.607150 0.000000 
#    z -0.013630 0.000000 1.622240 
# 
# From -- ./inp_files/275324.got.cif
#   From: 2010.05.17/outbox.cif.g08.bks.cpg/sg12_138_cif.got.tgz:275324.got - 2010.06.03 13:09:07.
