data_PCOD9210445
_publ_section_title
;
Structure prediction by ZEFSAII (Michael W. Deem and Ramdas Pophale) SiO2 
 PCOD9210445
Probable space group: C 2/M
;
_chemical_formula_sum "Si O2"
_cell_formula_units_Z 48
_cell_length_a 29.666622
_cell_length_b 20.312420
_cell_length_c 13.124484
_cell_angle_alpha 90.000000
_cell_angle_beta 162.076202
_cell_angle_gamma 90.000000
_cell_volume 2433.955652
_symmetry_space_group_name_H-M "C 2/M"
_symmetry_group_IT_number 12
_symmetry_cell_setting 'monoclinic'
loop_
_space_group_symop_operation_xyz
x,y,z
-x,y,-z
-x,-y,-z
x,-y,z
1/2+x,1/2+y,z
1/2-x,1/2+y,-z
1/2-x,1/2-y,-z
1/2+x,1/2-y,z
loop_
_atom_site_type_symbol
_atom_site_label
_atom_site_fract_x
_atom_site_fract_y
_atom_site_fract_z
Si Si1 0.704094 0.577617 0.198246
Si Si2 0.671063 0.577351 0.887751
Si Si3 0.201781 0.690559 0.197399
Si Si4 0.671316 0.809031 0.890073
Si Si5 0.578832 0.422369 0.277877
Si Si6 0.585290 0.190872 0.289189
O O1 0.731354 0.500000 0.274053
O O2 0.824321 0.623260 0.508987
O O3 0.703880 0.590631 0.077033
O O4 0.543883 0.591965 0.900290
O O5 0.500000 0.590840 0.500000
O O6 0.696506 0.500000 0.922898
O O7 0.766553 0.623195 0.021538
O O8 0.282432 0.623946 0.407072
O O9 0.298460 0.750634 0.447823
O O10 0.200392 0.694587 0.072650
O O11 0.037867 0.693985 0.888199
O O12 0.500000 0.804565 0.500000
O O13 0.750000 0.750000 0.000000
O O14 0.616093 0.500000 0.362397
O O15 0.500000 0.409780 0.000000
O O16 0.500000 0.196698 0.000000
#
# Coordination Sequence:
#
# PCOD9210445 Si02
#       6
#     8   8   8   8   8   8
#     4  10  21  39  62  89 122 158 197 241 293 352
#     4  10  21  39  63  90 121 158 198 241 292 350
#     4  12  24  40  63  89 120 156 199 245 295 353
#     4  12  25  41  61  88 121 157 199 246 296 350
#     4  10  21  39  63  91 122 156 197 244 294 350
#     4  12  25  42  63  88 120 156 198 246 298 353
#
# _framework density 19.720984000000001
#
# number of rings (size 3 to 8) (size 9 to 14) (size 15 to 20)
#    0.000    1.000    0.000    7.500    0.000    3.333 
#    0.000    0.000    0.000    0.000    0.000    0.000 
#    0.000    0.000    0.000    0.000    0.000    0.000 
#
# Total GULP energy -134353.486562 kJ/mol
# GULP energy per Si atom -5598.061940 kJ/mol
# Density = 1.967610 g / cm^3
# Si number density = 19.720984 Si / 1000 Ang^3
#
#
#
# Elastic Constant Matrix: (Units=GPa)
#
#
# Indices 1 2 3 4 5 6 
#
# 1 47.8649 10.0619 -15.3324 0.0000 -0.1221 0.0000
# 2 10.0619 46.8658 33.1688 0.0000 2.7361 0.0000
# 3 -15.3324 33.1688 67.2657 0.0000 0.0197 0.0000
# 4 0.0000 0.0000 0.0000 -37.6013 0.0000 -22.6778
# 5 -0.1221 2.7361 0.0197 0.0000 40.2863 0.0000
# 6 0.0000 0.0000 0.0000 -22.6778 0.0000 25.0167
#
#
#
# Elastic Compliance Matrix: (Units=1/GPa)
#
#
# Indices 1 2 3 4 5 6 
#
# 1 0.029308 -0.017039 0.015082 0.000000 0.001239 0.000000
# 2 -0.017039 0.042881 -0.025028 0.000000 -0.002952 0.000000
# 3 0.015082 -0.025028 0.030645 0.000000 0.001730 0.000000
# 4 0.000000 0.000000 0.000000 -0.017194 0.000000 -0.015587
# 5 0.001239 -0.002952 0.001730 0.000000 0.025026 0.000000
# 6 0.000000 0.000000 0.000000 -0.015587 0.000000 0.025844
#
#
# Mechanical properties :
#
#
# Convention : Reuss Voigt Hill
#
# Bulk Modulus (GPa) = 20.46448 24.19923 22.33186
# Shear Modulus (GPa) = 24.18182 14.48019 19.33101
#
# Velocity S-wave (km/s) = 3.50551 2.71265 3.13425
# Velocity P-wave (km/s) = 5.17536 4.70199 4.94434
#
# Compressibility (1/GPa) = 0.04886516
#
# Stress axis : x y z
#
# Youngs Moduli (GPa) = 34.12007 23.32029 32.63198
#
# Poissons Ratio (x) = 0.39735 -0.49215
# Poissons Ratio (y) = 0.58137 0.81670
# Poissons Ratio (z) = -0.51460 0.58365
#
# Static dielectric constant tensor:
#      x y z
#    x 1.681100 0.000000 -0.006180 
#    y 0.000000 1.683170 0.000000 
#    z -0.006180 0.000000 1.643020 
# 
# From -- ./inp_files/184765.got.cif
#   From: 2010.05.17/outbox.cif.g08.bks.cpg/sg12_93_cif.got.tgz:184765.got - 2010.06.03 13:09:07.
