data_PCOD9210783
_publ_section_title
;
Structure prediction by ZEFSAII (Michael W. Deem and Ramdas Pophale) SiO2 
 PCOD9210783
Probable space group: C 2/M
;
_chemical_formula_sum "Si O2"
_cell_formula_units_Z 50
_cell_length_a 9.994788
_cell_length_b 21.979691
_cell_length_c 12.645038
_cell_angle_alpha 90.000000
_cell_angle_beta 120.837288
_cell_angle_gamma 90.000000
_cell_volume 2385.171357
_symmetry_space_group_name_H-M "C 2/M"
_symmetry_group_IT_number 12
_symmetry_cell_setting 'monoclinic'
loop_
_space_group_symop_operation_xyz
x,y,z
-x,y,-z
-x,-y,-z
x,-y,z
1/2+x,1/2+y,z
1/2-x,1/2+y,-z
1/2-x,1/2-y,-z
1/2+x,1/2-y,z
loop_
_atom_site_type_symbol
_atom_site_label
_atom_site_fract_x
_atom_site_fract_y
_atom_site_fract_z
Si Si1 0.228927 0.676978 0.197147
Si Si2 0.943595 0.125748 0.709349
Si Si3 0.527500 0.000000 0.336031
Si Si4 0.000000 0.500000 0.000000
Si Si5 0.845584 0.797135 0.474226
Si Si6 0.232740 0.000000 0.375278
Si Si7 0.434941 0.101679 0.130488
Si Si8 0.668575 0.685841 0.123614
O O1 0.370523 0.637251 0.206491
O O2 0.264013 0.681547 0.336165
O O3 0.059550 0.648088 0.132247
O O4 0.229470 0.744595 0.148144
O O5 0.896482 0.150184 0.574441
O O6 0.859871 0.164986 0.766773
O O7 0.876527 0.058231 0.687050
O O8 0.374453 0.000000 0.348437
O O9 0.678625 0.000000 0.474260
O O10 0.514955 0.940526 0.255156
O O11 0.902878 0.552818 0.026279
O O12 0.750000 0.750000 0.500000
O O13 0.000000 0.762960 0.500000
O O14 0.290743 0.139849 0.118361
O O15 0.500000 0.683148 0.000000
#
# Coordination Sequence:
#
# PCOD9210783 Si02
#       8
#     8   8   4   2   8   4   8   8
#     4  11  25  43  71 106 141 184 230 294 364 427
#     4  11  24  44  67 108 141 184 233 293 360 418
#     4  10  22  45  73 104 136 184 239 291 348 428
#     4  10  28  48  70  94 136 180 238 288 346 414
#     4  10  21  39  64 101 139 176 224 279 352 421
#     4  11  22  44  73 104 144 183 234 294 349 427
#     4  11  25  49  71 101 137 186 238 292 362 420
#     4  12  27  45  72 102 143 182 244 302 356 424
#
# _framework density 20.962855000000001
#
# number of rings (size 3 to 8) (size 9 to 14) (size 15 to 20)
#    0.000    1.120    3.200    1.920    5.600    2.560 
#    2.880    6.400    0.000    0.000    0.000    0.000 
#    0.000    0.000    0.000    0.000    0.000    0.000 
#
# Total GULP energy -139366.376108 kJ/mol
# GULP energy per Si atom -5574.655044 kJ/mol
# Density = 2.091514 g / cm^3
# Si number density = 20.962855 Si / 1000 Ang^3
#
#
#
# Elastic Constant Matrix: (Units=GPa)
#
#
# Indices 1 2 3 4 5 6 
#
# 1 149.2263 71.0157 29.5852 0.0000 -1.8038 0.0000
# 2 71.0157 127.3284 32.2593 0.0000 6.2222 0.0000
# 3 29.5852 32.2593 88.8799 0.0000 0.2721 0.0000
# 4 0.0000 0.0000 0.0000 -11.8721 0.0000 17.0228
# 5 -1.8038 6.2222 0.2721 0.0000 26.3154 0.0000
# 6 0.0000 0.0000 0.0000 17.0228 0.0000 32.3431
#
#
#
# Elastic Compliance Matrix: (Units=1/GPa)
#
#
# Indices 1 2 3 4 5 6 
#
# 1 0.009350 -0.004971 -0.001313 0.000000 0.001830 0.000000
# 2 -0.004971 0.011400 -0.002474 0.000000 -0.003011 0.000000
# 3 -0.001313 -0.002474 0.012585 0.000000 0.000365 0.000000
# 4 0.000000 0.000000 0.000000 -0.048004 0.000000 0.025266
# 5 0.001830 -0.003011 0.000365 0.000000 0.038834 0.000000
# 6 0.000000 0.000000 0.000000 0.025266 0.000000 0.017621
#
#
# Mechanical properties :
#
#
# Convention : Reuss Voigt Hill
#
# Bulk Modulus (GPa) = 63.21929 70.12834 66.67381
# Shear Modulus (GPa) = 77.42936 24.86225 51.14580
#
# Velocity S-wave (km/s) = 6.08413 3.44759 4.94482
# Velocity P-wave (km/s) = 8.92069 7.02667 8.02972
#
# Compressibility (1/GPa) = 0.01581796
#
# Stress axis : x y z
#
# Youngs Moduli (GPa) = 106.95745 87.71770 79.45918
#
# Poissons Ratio (x) = 0.43606 0.10436
# Poissons Ratio (y) = 0.53171 0.19656
# Poissons Ratio (z) = 0.14048 0.21699
#
# Static dielectric constant tensor:
#      x y z
#    x 1.750690 0.000000 0.055850 
#    y 0.000000 1.729570 0.000000 
#    z 0.055850 0.000000 1.987150 
# 
# From -- ./inp_files/123857.got.cif
#   From: 2010.05.17/outbox.cif.g08.bks.cpg/sg12_62_cif.got.tgz:123857.got - 2010.06.03 13:09:07.
