data_PCOD9210465
_publ_section_title
;
Structure prediction by ZEFSAII (Michael W. Deem and Ramdas Pophale) SiO2 
 PCOD9210465
Probable space group: C 2/M
;
_chemical_formula_sum "Si O2"
_cell_formula_units_Z 40
_cell_length_a 18.346583
_cell_length_b 7.731735
_cell_length_c 15.537839
_cell_angle_alpha 90.000000
_cell_angle_beta 73.083885
_cell_angle_gamma 90.000000
_cell_volume 2108.691121
_symmetry_space_group_name_H-M "C 2/M"
_symmetry_group_IT_number 12
_symmetry_cell_setting 'monoclinic'
loop_
_space_group_symop_operation_xyz
x,y,z
-x,y,-z
-x,-y,-z
x,-y,z
1/2+x,1/2+y,z
1/2-x,1/2+y,-z
1/2-x,1/2-y,-z
1/2+x,1/2-y,z
loop_
_atom_site_type_symbol
_atom_site_label
_atom_site_fract_x
_atom_site_fract_y
_atom_site_fract_z
Si Si1 0.819367 0.302988 0.415793
Si Si2 0.769070 0.805110 0.248546
Si Si3 0.983877 0.711005 0.408260
Si Si4 0.063456 0.000000 0.104802
Si Si5 0.609583 0.210160 0.221964
Si Si6 0.389503 0.500000 0.108110
O O1 0.832244 0.500000 0.433712
O O2 0.750000 0.250000 0.500000
O O3 0.795714 0.289331 0.324627
O O4 0.901626 0.219508 0.405672
O O5 0.694095 0.741640 0.226194
O O6 0.839122 0.838240 0.159444
O O7 0.748278 0.000000 0.286994
O O8 0.984889 0.500000 0.408945
O O9 0.000000 0.768763 0.500000
O O10 0.049690 0.755512 0.317916
O O11 0.088204 0.171345 0.148325
O O12 0.972163 0.000000 0.123206
O O13 0.099910 0.000000 0.997336
O O14 0.607236 0.000000 0.206884
#
# Coordination Sequence:
#
# PCOD9210465 Si02
#       6
#     8   8   8   4   8   4
#     4  11  21  33  55  84 116 160 200 241 296 362
#     4   9  20  39  58  80 119 155 193 248 303 347
#     4   9  18  34  55  80 115 159 200 243 299 354
#     4  11  22  40  67  90 123 157 207 249 318 367
#     4  10  21  39  62  90 121 160 202 259 300 361
#     4   9  22  42  62  90 122 161 191 261 313 357
#
# _framework density 18.969113
#
# number of rings (size 3 to 8) (size 9 to 14) (size 15 to 20)
#    0.600    1.600    0.000    3.000    1.400    4.000 
#    1.800    3.500    0.000    0.000    0.000    0.000 
#    0.000    0.000    0.000    0.000    0.000    0.000 
#
# Total GULP energy -111453.662131 kJ/mol
# GULP energy per Si atom -5572.683107 kJ/mol
# Density = 1.892594 g / cm^3
# Si number density = 18.969113 Si / 1000 Ang^3
#
#
#
# Elastic Constant Matrix: (Units=GPa)
#
#
# Indices 1 2 3 4 5 6 
#
# 1 184.5509 22.9155 99.3755 0.0000 -6.6387 0.0000
# 2 22.9155 37.7515 23.5430 0.0000 0.4225 0.0000
# 3 99.3755 23.5430 144.9103 0.0000 -9.3700 0.0000
# 4 0.0000 0.0000 0.0000 22.6714 0.0000 -1.5149
# 5 -6.6387 0.4225 -9.3700 0.0000 29.6794 0.0000
# 6 0.0000 0.0000 0.0000 -1.5149 0.0000 12.0512
#
#
#
# Elastic Compliance Matrix: (Units=1/GPa)
#
#
# Indices 1 2 3 4 5 6 
#
# 1 0.008693 -0.001745 -0.005666 0.000000 0.000180 0.000000
# 2 -0.001745 0.029939 -0.003798 0.000000 -0.002015 0.000000
# 3 -0.005666 -0.003798 0.011561 0.000000 0.002437 0.000000
# 4 0.000000 0.000000 0.000000 0.044482 0.000000 0.005592
# 5 0.000180 -0.002015 0.002437 0.000000 0.034532 0.000000
# 6 0.000000 0.000000 0.000000 0.005592 0.000000 0.083682
#
#
# Mechanical properties :
#
#
# Convention : Reuss Voigt Hill
#
# Bulk Modulus (GPa) = 36.00328 73.20897 54.60613
# Shear Modulus (GPa) = 20.44446 27.63897 24.04172
#
# Velocity S-wave (km/s) = 3.28651 3.82128 3.56394
# Velocity P-wave (km/s) = 5.78124 7.62542 6.76645
#
# Compressibility (1/GPa) = 0.02777525
#
# Stress axis : x y z
#
# Youngs Moduli (GPa) = 115.03836 33.40106 86.49766
#
# Poissons Ratio (x) = 0.05829 0.49010
# Poissons Ratio (y) = 0.20075 0.32849
# Poissons Ratio (z) = 0.65182 0.12685
#
# Static dielectric constant tensor:
#      x y z
#    x 1.736750 0.000000 -0.011720 
#    y 0.000000 1.829350 0.000000 
#    z -0.011720 0.000000 1.613570 
# 
# From -- ./inp_files/220204.got.cif
#   From: 2010.05.17/outbox.cif.g08.bks.cpg/sg12_111_cif.got.tgz:220204.got - 2010.06.03 13:09:07.
