data_PCOD9210780
_publ_section_title
;
Structure prediction by ZEFSAII (Michael W. Deem and Ramdas Pophale) SiO2 
 PCOD9210780
Probable space group: C 2/M
;
_chemical_formula_sum "Si O2"
_cell_formula_units_Z 58
_cell_length_a 26.687048
_cell_length_b 15.018282
_cell_length_c 21.440286
_cell_angle_alpha 90.000000
_cell_angle_beta 19.370100
_cell_angle_gamma 90.000000
_cell_volume 2850.073548
_symmetry_space_group_name_H-M "C 2/M"
_symmetry_group_IT_number 12
_symmetry_cell_setting 'monoclinic'
loop_
_space_group_symop_operation_xyz
x,y,z
-x,y,-z
-x,-y,-z
x,-y,z
1/2+x,1/2+y,z
1/2-x,1/2+y,-z
1/2-x,1/2-y,-z
1/2+x,1/2-y,z
loop_
_atom_site_type_symbol
_atom_site_label
_atom_site_fract_x
_atom_site_fract_y
_atom_site_fract_z
Si Si1 0.286607 0.371505 0.322297
Si Si2 0.156624 0.392733 0.989808
Si Si3 0.155062 0.394100 0.850397
Si Si4 0.320684 0.150010 0.417213
Si Si5 0.000000 0.000000 0.000000
Si Si6 0.011943 0.397699 0.411198
Si Si7 0.797249 0.175873 0.569391
Si Si8 0.370729 0.733802 0.804682
O O1 0.237034 0.394715 0.451385
O O2 0.429988 0.423113 0.129011
O O3 0.302827 0.265099 0.305659
O O4 0.151109 0.392609 0.432152
O O5 0.153917 0.500000 0.996742
O O6 0.001674 0.356876 0.202596
O O7 0.160847 0.360182 0.913456
O O8 0.304007 0.350802 0.847224
O O9 0.150603 0.500000 0.860769
O O10 0.288321 0.369217 0.647108
O O11 0.000000 0.365752 0.000000
O O12 0.250000 0.250000 0.500000
O O13 0.263664 0.116769 0.416225
O O14 0.067988 0.500000 0.337053
O O15 0.108455 0.320503 0.264095
O O16 0.000000 0.382348 0.500000
O O17 0.965756 0.210279 0.359846
O O18 0.250000 0.750000 0.000000
#
# Coordination Sequence:
#
# PCOD9210780 Si02
#       8
#     8   8   8   8   2   8   8   8
#     4  10  23  39  63  90 129 167 213 274 326 390
#     4  11  24  40  68  97 134 177 218 270 341 401
#     4  10  21  39  63  99 130 164 214 267 325 403
#     4  10  21  41  65  93 125 174 222 268 331 394
#     4  12  24  40  58 100 126 162 228 274 328 396
#     4  10  22  45  67  91 128 179 224 274 339 394
#     4  10  22  41  66  94 132 174 211 274 332 385
#     4  11  25  43  66  99 132 177 229 274 333 404
#
# _framework density 20.350352000000001
#
# number of rings (size 3 to 8) (size 9 to 14) (size 15 to 20)
#    0.000    1.655    2.069    2.483    5.793    2.207 
#    2.483    1.379    0.000    2.483    0.000    0.000 
#    0.000    0.000    0.000    0.000    0.000    0.000 
#
# Total GULP energy -161501.451808 kJ/mol
# GULP energy per Si atom -5569.015580 kJ/mol
# Density = 2.030403 g / cm^3
# Si number density = 20.350352 Si / 1000 Ang^3
#
#
#
# Elastic Constant Matrix: (Units=GPa)
#
#
# Indices 1 2 3 4 5 6 
#
# 1 100.3179 35.0788 31.3152 0.0020 26.8019 -0.0019
# 2 35.0788 63.3348 25.4541 0.0013 -3.4922 -0.0003
# 3 31.3152 25.4541 83.5354 0.0036 26.0436 -0.0028
# 4 0.0020 0.0013 0.0036 56.3860 -0.0017 26.7948
# 5 26.8019 -3.4922 26.0436 -0.0017 31.5522 0.0001
# 6 -0.0019 -0.0003 -0.0028 26.7948 0.0001 35.6083
#
#
#
# Elastic Compliance Matrix: (Units=1/GPa)
#
#
# Indices 1 2 3 4 5 6 
#
# 1 0.018769 -0.012704 0.003021 -0.000003 -0.019843 0.000003
# 2 -0.012704 0.028597 -0.011179 0.000003 0.023184 -0.000004
# 3 0.003021 -0.011179 0.020777 -0.000004 -0.020954 0.000005
# 4 -0.000003 0.000003 -0.000004 0.027607 0.000008 -0.020774
# 5 -0.019843 0.023184 -0.020954 0.000008 0.068411 -0.000008
# 6 0.000003 -0.000004 0.000005 -0.020774 -0.000008 0.043715
#
#
# Mechanical properties :
#
#
# Convention : Reuss Voigt Hill
#
# Bulk Modulus (GPa) = 37.85066 47.87605 42.86335
# Shear Modulus (GPa) = 19.34944 35.06528 27.20736
#
# Velocity S-wave (km/s) = 3.08688 4.15550 3.66040
# Velocity P-wave (km/s) = 5.59866 6.82651 6.24284
#
# Compressibility (1/GPa) = 0.02641962
#
# Stress axis : x y z
#
# Youngs Moduli (GPa) = 53.27980 34.96925 48.12906
#
# Poissons Ratio (x) = 0.44424 -0.14542
# Poissons Ratio (y) = 0.67686 0.53805
# Poissons Ratio (z) = -0.16098 0.39093
#
# Static dielectric constant tensor:
#      x y z
#    x 1.791290 0.000000 0.047770 
#    y 0.000000 1.743450 0.000000 
#    z 0.047770 0.000000 1.783520 
# 
# From -- ./inp_files/328399.got.cif
#   From: 2010.05.17/outbox.cif.g08.bks.cpg/sg12_165_cif.got.tgz:328399.got - 2010.06.03 13:09:07.
