data_PCOD9210890
_publ_section_title
;
Structure prediction by ZEFSAII (Michael W. Deem and Ramdas Pophale) SiO2 
 PCOD9210890
Probable space group: C 2/M
;
_chemical_formula_sum "Si O2"
_cell_formula_units_Z 48
_cell_length_a 27.185927
_cell_length_b 13.980709
_cell_length_c 9.899528
_cell_angle_alpha 90.000000
_cell_angle_beta 39.364806
_cell_angle_gamma 90.000000
_cell_volume 2386.449441
_symmetry_space_group_name_H-M "C 2/M"
_symmetry_group_IT_number 12
_symmetry_cell_setting 'monoclinic'
loop_
_space_group_symop_operation_xyz
x,y,z
-x,y,-z
-x,-y,-z
x,-y,z
1/2+x,1/2+y,z
1/2-x,1/2+y,-z
1/2-x,1/2-y,-z
1/2+x,1/2-y,z
loop_
_atom_site_type_symbol
_atom_site_label
_atom_site_fract_x
_atom_site_fract_y
_atom_site_fract_z
Si Si1 0.268634 0.390394 0.579410
Si Si2 0.207887 0.385776 0.414980
Si Si3 0.968823 0.686130 0.220493
Si Si4 0.709441 0.243315 0.941739
Si Si5 0.050736 0.103594 0.757959
Si Si6 0.933150 0.392114 0.753699
O O1 0.244073 0.500000 0.649487
O O2 0.231692 0.357420 0.517040
O O3 0.246177 0.330870 0.757345
O O4 0.361286 0.387175 0.377329
O O5 0.208096 0.500000 0.404873
O O6 0.120288 0.348344 0.577653
O O7 0.271116 0.341891 0.177715
O O8 0.970995 0.796785 0.266237
O O9 0.025219 0.622313 0.190994
O O10 0.000000 0.683444 0.000000
O O11 0.750000 0.250000 0.000000
O O12 0.625391 0.196220 0.141165
O O13 0.043041 0.000000 0.702726
O O14 0.000000 0.099528 0.000000
O O15 0.898387 0.500000 0.818398
O O16 0.000000 0.387119 0.500000
#
# Coordination Sequence:
#
# PCOD9210890 Si02
#       6
#     8   8   8   8   8   8
#     4  10  21  39  64  93 125 167 216 268 323 381
#     4  11  24  41  65  97 132 168 216 272 326 382
#     4  11  22  38  67  98 129 166 212 267 317 376
#     4  12  25  41  64  93 127 171 214 263 323 383
#     4   9  19  34  58  92 130 169 208 255 316 377
#     4  11  26  46  67  91 127 170 212 260 321 386
#
# _framework density 20.113562999999999
#
# number of rings (size 3 to 8) (size 9 to 14) (size 15 to 20)
#    0.000    1.333    1.667    3.500    4.667    5.333 
#    0.000    0.000    0.000    1.000    0.000    0.000 
#    0.000    0.000    0.000    0.000    0.000    0.000 
#
# Total GULP energy -133922.072833 kJ/mol
# GULP energy per Si atom -5580.086368 kJ/mol
# Density = 2.006778 g / cm^3
# Si number density = 20.113563 Si / 1000 Ang^3
#
#
#
# Elastic Constant Matrix: (Units=GPa)
#
#
# Indices 1 2 3 4 5 6 
#
# 1 60.0613 30.2020 30.6146 0.0000 21.4460 0.0000
# 2 30.2020 139.2850 33.2361 0.0000 1.2502 0.0000
# 3 30.6146 33.2361 88.4900 0.0000 -3.2883 0.0000
# 4 0.0000 0.0000 0.0000 13.2167 0.0000 -12.2965
# 5 21.4460 1.2502 -3.2883 0.0000 32.6367 0.0000
# 6 0.0000 0.0000 0.0000 -12.2965 0.0000 28.2651
#
#
#
# Elastic Compliance Matrix: (Units=1/GPa)
#
#
# Indices 1 2 3 4 5 6 
#
# 1 0.031739 -0.004256 -0.010189 0.000000 -0.021719 0.000000
# 2 -0.004256 0.008469 -0.001623 0.000000 0.002309 0.000000
# 3 -0.010189 -0.001623 0.015745 0.000000 0.008344 0.000000
# 4 0.000000 0.000000 0.000000 0.127109 0.000000 0.055298
# 5 -0.021719 0.002309 0.008344 0.000000 0.045665 0.000000
# 6 0.000000 0.000000 0.000000 0.055298 0.000000 0.059436
#
#
# Mechanical properties :
#
#
# Convention : Reuss Voigt Hill
#
# Bulk Modulus (GPa) = 41.98586 52.88241 47.43414
# Shear Modulus (GPa) = 15.23289 27.74260 21.48775
#
# Velocity S-wave (km/s) = 2.75497 3.71792 3.27206
# Velocity P-wave (km/s) = 5.57132 6.69175 6.15707
#
# Compressibility (1/GPa) = 0.02381754
#
# Stress axis : x y z
#
# Youngs Moduli (GPa) = 31.50739 118.08022 63.51090
#
# Poissons Ratio (x) = 0.50253 0.64712
# Poissons Ratio (y) = 0.13409 0.10306
# Poissons Ratio (z) = 0.32103 0.19160
#
# Static dielectric constant tensor:
#      x y z
#    x 1.677480 0.000000 -0.022410 
#    y 0.000000 1.779010 0.000000 
#    z -0.022410 0.000000 1.737380 
# 
# From -- ./inp_files/104973.got.cif
#   From: 2010.05.17/outbox.cif.g08.bks.cpg/sg12_53_cif.got.tgz:104973.got - 2010.06.03 13:09:07.
