data_PCOD9210442
_publ_section_title
;
Structure prediction by ZEFSAII (Michael W. Deem and Ramdas Pophale) SiO2 
 PCOD9210442
Probable space group: C 2/M
;
_chemical_formula_sum "Si O2"
_cell_formula_units_Z 60
_cell_length_a 13.609993
_cell_length_b 13.862683
_cell_length_c 15.409630
_cell_angle_alpha 90.000000
_cell_angle_beta 97.587011
_cell_angle_gamma 90.000000
_cell_volume 2881.898180
_symmetry_space_group_name_H-M "C 2/M"
_symmetry_group_IT_number 12
_symmetry_cell_setting 'monoclinic'
loop_
_space_group_symop_operation_xyz
x,y,z
-x,y,-z
-x,-y,-z
x,-y,z
1/2+x,1/2+y,z
1/2-x,1/2+y,-z
1/2-x,1/2-y,-z
1/2+x,1/2-y,z
loop_
_atom_site_type_symbol
_atom_site_label
_atom_site_fract_x
_atom_site_fract_y
_atom_site_fract_z
Si Si1 0.633731 0.384461 0.112521
Si Si2 0.800114 0.285761 0.415446
Si Si3 0.808362 0.738427 0.221677
Si Si4 0.500000 0.708488 0.500000
Si Si5 0.083581 0.610936 0.074482
Si Si6 0.115976 0.108582 0.362498
Si Si7 0.193631 0.110481 0.930909
Si Si8 0.473187 0.748102 0.790390
O O1 0.636732 0.500000 0.117917
O O2 0.727184 0.337581 0.175926
O O3 0.533391 0.340260 0.140845
O O4 0.644600 0.354074 0.013826
O O5 0.750000 0.250000 0.500000
O O6 0.788946 0.233570 0.319801
O O7 0.734429 0.380798 0.389169
O O8 0.916673 0.276765 0.447226
O O9 0.813308 0.827546 0.156249
O O10 0.923069 0.705788 0.226124
O O11 0.558507 0.636826 0.442927
O O12 0.059367 0.500000 0.092112
O O13 0.187910 0.612224 0.037876
O O14 0.086229 0.670777 0.163562
O O15 0.000000 0.649277 0.000000
O O16 0.078210 0.194325 0.295664
O O17 0.092186 0.000000 0.330334
O O18 0.163647 0.000000 0.912384
#
# Coordination Sequence:
#
# PCOD9210442 Si02
#       8
#     8   8   8   4   8   8   8   8
#     4  11  24  42  64  94 133 176 221 268 326 393
#     4  10  22  41  67  91 127 168 215 272 331 389
#     4  12  23  40  63  94 127 172 216 264 332 390
#     4  10  21  44  67  96 124 168 219 276 329 390
#     4  10  21  39  62  89 121 168 223 266 315 382
#     4  11  22  41  67  97 128 168 215 264 328 400
#     4  10  22  40  61  89 129 170 215 271 320 381
#     4  12  24  36  64  93 131 166 216 267 322 386
#
# _framework density 20.819613
#
# number of rings (size 3 to 8) (size 9 to 14) (size 15 to 20)
#    0.000    1.200    4.000    1.800    1.867    2.667 
#    0.000    2.333    0.000    7.200    0.000    0.000 
#    0.000    0.000    0.000    0.000    0.000    0.000 
#
# Total GULP energy -167110.144744 kJ/mol
# GULP energy per Si atom -5570.338158 kJ/mol
# Density = 2.077223 g / cm^3
# Si number density = 20.819613 Si / 1000 Ang^3
#
#
#
# Elastic Constant Matrix: (Units=GPa)
#
#
# Indices 1 2 3 4 5 6 
#
# 1 84.2397 13.2994 20.6402 0.0000 0.7200 0.0000
# 2 13.2994 76.2495 26.9438 0.0000 3.1769 0.0000
# 3 20.6402 26.9438 132.4574 0.0000 -11.4462 0.0000
# 4 0.0000 0.0000 0.0000 7.7088 0.0000 -0.0509
# 5 0.7200 3.1769 -11.4462 0.0000 35.2409 0.0000
# 6 0.0000 0.0000 0.0000 -0.0509 0.0000 23.4878
#
#
#
# Elastic Compliance Matrix: (Units=1/GPa)
#
#
# Indices 1 2 3 4 5 6 
#
# 1 0.012538 -0.001561 -0.001694 0.000000 -0.000666 0.000000
# 2 -0.001561 0.014504 -0.002899 0.000000 -0.002217 0.000000
# 3 -0.001694 -0.002899 0.008672 0.000000 0.003113 0.000000
# 4 0.000000 0.000000 0.000000 0.129724 0.000000 0.000281
# 5 -0.000666 -0.002217 0.003113 0.000000 0.029601 0.000000
# 6 0.000000 0.000000 0.000000 0.000281 0.000000 0.042576
#
#
# Mechanical properties :
#
#
# Convention : Reuss Voigt Hill
#
# Bulk Modulus (GPa) = 42.72109 46.07928 44.40019
# Shear Modulus (GPa) = 19.40065 28.75837 24.07951
#
# Velocity S-wave (km/s) = 3.05593 3.72063 3.40454
# Velocity P-wave (km/s) = 5.74593 6.37481 6.06852
#
# Compressibility (1/GPa) = 0.02340764
#
# Stress axis : x y z
#
# Youngs Moduli (GPa) = 79.75775 68.94793 115.31176
#
# Poissons Ratio (x) = 0.10760 0.19531
# Poissons Ratio (y) = 0.12447 0.33425
# Poissons Ratio (z) = 0.13509 0.19986
#
# Static dielectric constant tensor:
#      x y z
#    x 1.821620 0.000000 0.032250 
#    y 0.000000 1.730990 0.000000 
#    z 0.032250 0.000000 1.803340 
# 
# From -- ./inp_files/214882.got.cif
#   From: 2010.05.17/outbox.cif.g08.bks.cpg/sg12_108_cif.got.tgz:214882.got - 2010.06.03 13:09:07.
