data_PCOD9210437
_publ_section_title
;
Structure prediction by ZEFSAII (Michael W. Deem and Ramdas Pophale) SiO2 
 PCOD9210437
Probable space group: C 2/M
;
_chemical_formula_sum "Si O2"
_cell_formula_units_Z 56
_cell_length_a 13.625568
_cell_length_b 8.743934
_cell_length_c 21.155896
_cell_angle_alpha 90.000000
_cell_angle_beta 73.893801
_cell_angle_gamma 90.000000
_cell_volume 2421.602835
_symmetry_space_group_name_H-M "C 2/M"
_symmetry_group_IT_number 12
_symmetry_cell_setting 'monoclinic'
loop_
_space_group_symop_operation_xyz
x,y,z
-x,y,-z
-x,-y,-z
x,-y,z
1/2+x,1/2+y,z
1/2-x,1/2+y,-z
1/2-x,1/2-y,-z
1/2+x,1/2-y,z
loop_
_atom_site_type_symbol
_atom_site_label
_atom_site_fract_x
_atom_site_fract_y
_atom_site_fract_z
Si Si1 0.145181 0.178821 0.826235
Si Si2 0.558192 0.177336 0.583679
Si Si3 0.033860 0.680115 0.063887
Si Si4 0.538153 0.326314 0.284388
Si Si5 0.335421 0.819449 0.555034
Si Si6 0.160093 0.817960 0.142984
Si Si7 0.263137 0.824554 0.310153
O O1 0.061724 0.284979 0.873976
O O2 0.247360 0.217404 0.847707
O O3 0.169719 0.222910 0.749305
O O4 0.117824 0.000000 0.835903
O O5 0.538182 0.233860 0.657853
O O6 0.637989 0.248414 0.519106
O O7 0.446311 0.188524 0.570390
O O8 0.584518 0.000000 0.581207
O O9 0.057826 0.500000 0.058448
O O10 0.126277 0.772995 0.078961
O O11 0.000000 0.728546 0.000000
O O12 0.502300 0.500000 0.291479
O O13 0.566306 0.283236 0.208029
O O14 0.649831 0.321742 0.298128
O O15 0.257923 0.733476 0.615209
O O16 0.308866 0.000000 0.556756
O O17 0.181848 0.000000 0.144832
O O18 0.297853 0.000000 0.302596
#
# Coordination Sequence:
#
# PCOD9210437 Si02
#       7
#     8   8   8   8   8   8   8
#     4  11  22  38  62  89 119 157 196 238 290 344
#     4   8  13  20  33  56  91 134 179 228 278 329
#     4  11  25  44  65  91 121 152 190 236 286 345
#     4   8  15  26  42  67 100 138 181 229 278 329
#     4   8  13  21  33  56  92 134 180 229 280 331
#     4  10  21  39  62  89 121 156 196 241 288 343
#     4   9  16  27  44  69 102 141 186 235 283 334
#
# _framework density 23.12518
#
# number of rings (size 3 to 8) (size 9 to 14) (size 15 to 20)
#    0.000    2.714    0.000    4.286    0.000    6.286 
#    0.000    2.857    0.000    0.000    0.000    1.000 
#    0.000    0.000    0.000    0.286    0.000    0.143 
#
# Total GULP energy -156506.696139 kJ/mol
# GULP energy per Si atom -5589.524862 kJ/mol
# Density = 2.307255 g / cm^3
# Si number density = 23.125180 Si / 1000 Ang^3
#
#
#
# Elastic Constant Matrix: (Units=GPa)
#
#
# Indices 1 2 3 4 5 6 
#
# 1 42.8945 -4.7755 9.0769 0.0000 14.0152 0.0000
# 2 -4.7755 26.5475 2.9410 0.0000 9.6529 0.0000
# 3 9.0769 2.9410 78.2042 0.0000 37.0027 0.0000
# 4 0.0000 0.0000 0.0000 36.0108 0.0000 -0.1546
# 5 14.0152 9.6529 37.0027 0.0000 45.0817 0.0000
# 6 0.0000 0.0000 0.0000 -0.1546 0.0000 20.1454
#
#
#
# Elastic Compliance Matrix: (Units=1/GPa)
#
#
# Indices 1 2 3 4 5 6 
#
# 1 0.027992 0.009380 0.002397 0.000000 -0.012678 0.000000
# 2 0.009380 0.044876 0.005150 0.000000 -0.016752 0.000000
# 3 0.002397 0.005150 0.021564 0.000000 -0.019548 0.000000
# 4 0.000000 0.000000 0.000000 0.027770 0.000000 0.000213
# 5 -0.012678 -0.016752 -0.019548 0.000000 0.045755 0.000000
# 6 0.000000 0.000000 0.000000 0.000213 0.000000 0.049641
#
#
# Mechanical properties :
#
#
# Convention : Reuss Voigt Hill
#
# Bulk Modulus (GPa) = 7.79507 18.01456 12.90482
# Shear Modulus (GPa) = 22.07435 29.60784 25.84110
#
# Velocity S-wave (km/s) = 3.09295 3.58205 3.34645
# Velocity P-wave (km/s) = 4.01662 4.99150 4.53036
#
# Compressibility (1/GPa) = 0.12828624
#
# Stress axis : x y z
#
# Youngs Moduli (GPa) = 35.72390 22.28355 46.37326
#
# Poissons Ratio (x) = -0.20901 -0.11116
# Poissons Ratio (y) = -0.33508 -0.23882
# Poissons Ratio (z) = -0.08563 -0.11476
#
# Static dielectric constant tensor:
#      x y z
#    x 1.977630 0.000000 0.043590 
#    y 0.000000 1.765580 0.000000 
#    z 0.043590 0.000000 1.877750 
# 
# From -- ./inp_files/313673.got.cif
#   From: 2010.05.17/outbox.cif.g08.bks.cpg/sg12_157_cif.got.tgz:313673.got - 2010.06.03 13:09:07.
