data_PCOD9210273
_publ_section_title
;
Structure prediction by ZEFSAII (Michael W. Deem and Ramdas Pophale) SiO2 
 PCOD9210273
Probable space group: C 2/M
;
_chemical_formula_sum "Si O2"
_cell_formula_units_Z 64
_cell_length_a 15.198300
_cell_length_b 8.589486
_cell_length_c 22.984758
_cell_angle_alpha 90.000000
_cell_angle_beta 99.785304
_cell_angle_gamma 90.000000
_cell_volume 2956.905124
_symmetry_space_group_name_H-M "C 2/M"
_symmetry_group_IT_number 12
_symmetry_cell_setting 'monoclinic'
loop_
_space_group_symop_operation_xyz
x,y,z
-x,y,-z
-x,-y,-z
x,-y,z
1/2+x,1/2+y,z
1/2-x,1/2+y,-z
1/2-x,1/2-y,-z
1/2+x,1/2-y,z
loop_
_atom_site_type_symbol
_atom_site_label
_atom_site_fract_x
_atom_site_fract_y
_atom_site_fract_z
Si Si1 0.338556 0.184695 0.259986
Si Si2 0.125004 0.812142 0.855235
Si Si3 0.549321 0.316187 0.103666
Si Si4 0.443125 0.813671 0.391146
Si Si5 0.620488 0.810451 0.355268
Si Si6 0.858794 0.685265 0.771446
Si Si7 0.210800 0.814178 0.555338
Si Si8 0.294092 0.184902 0.946886
O O1 0.392557 0.230053 0.207996
O O2 0.391570 0.221232 0.324856
O O3 0.246461 0.279248 0.245601
O O4 0.320163 0.000000 0.257517
O O5 0.224012 0.770666 0.888053
O O6 0.052429 0.765449 0.895744
O O7 0.119874 0.000000 0.847690
O O8 0.549153 0.500000 0.094285
O O9 0.598795 0.274227 0.169725
O O10 0.607878 0.242608 0.059148
O O11 0.543974 0.758238 0.391232
O O12 0.386534 0.743621 0.437200
O O13 0.444693 0.000000 0.398694
O O14 0.602465 0.764361 0.286863
O O15 0.717887 0.760731 0.387539
O O16 0.619346 0.000000 0.354954
O O17 0.872080 0.500000 0.781311
O O18 0.250000 0.750000 0.500000
O O19 0.210962 0.000000 0.553574
O O20 0.295284 0.000000 0.950334
O O21 0.250000 0.250000 0.000000
#
# Coordination Sequence:
#
# PCOD9210273 Si02
#       8
#     8   8   8   8   8   8   8   8
#     4  11  21  34  60  93 124 155 196 244 294 352
#     4  10  23  41  62  88 124 162 197 240 302 360
#     4  11  23  40  62  92 123 157 199 247 299 355
#     4  10  21  39  61  88 118 153 195 241 291 349
#     4   9  20  38  61  85 117 158 195 233 292 359
#     4  11  20  36  61  89 123 161 197 237 295 361
#     4  11  23  41  61  84 114 154 199 245 295 348
#     4  11  24  43  64  87 118 161 203 251 300 350
#
# _framework density 21.644252000000002
#
# number of rings (size 3 to 8) (size 9 to 14) (size 15 to 20)
#    0.000    1.500    2.500    2.625    0.000    4.000 
#    0.000    7.500    0.000    0.000    0.000    0.000 
#    0.000    0.000    0.000    0.000    0.000    0.000 
#
# Total GULP energy -178906.343193 kJ/mol
# GULP energy per Si atom -5590.823225 kJ/mol
# Density = 2.159499 g / cm^3
# Si number density = 21.644252 Si / 1000 Ang^3
#
#
#
# Elastic Constant Matrix: (Units=GPa)
#
#
# Indices 1 2 3 4 5 6 
#
# 1 100.3946 12.5183 3.2893 0.0000 -39.0895 0.0000
# 2 12.5183 15.0858 8.0284 0.0000 -8.7272 0.0000
# 3 3.2893 8.0284 64.0119 0.0000 -36.3518 0.0000
# 4 0.0000 0.0000 0.0000 29.0408 0.0000 -10.0011
# 5 -39.0895 -8.7272 -36.3518 0.0000 41.4609 0.0000
# 6 0.0000 0.0000 0.0000 -10.0011 0.0000 26.4044
#
#
#
# Elastic Compliance Matrix: (Units=1/GPa)
#
#
# Indices 1 2 3 4 5 6 
#
# 1 0.031214 -0.010967 0.030219 0.000000 0.053615 0.000000
# 2 -0.010967 0.079357 -0.011502 0.000000 -0.003720 0.000000
# 3 0.030219 -0.011502 0.060381 0.000000 0.079010 0.000000
# 4 0.000000 0.000000 0.000000 0.039600 0.000000 0.014999
# 5 0.053615 -0.003720 0.079010 0.000000 0.143159 0.000000
# 6 0.000000 0.000000 0.000000 0.014999 0.000000 0.043554
#
#
# Mechanical properties :
#
#
# Convention : Reuss Voigt Hill
#
# Bulk Modulus (GPa) = 5.36329 25.24046 15.30188
# Shear Modulus (GPa) = 11.26347 29.75830 20.51089
#
# Velocity S-wave (km/s) = 2.28368 3.71196 3.08171
# Velocity P-wave (km/s) = 3.07196 5.48255 4.44383
#
# Compressibility (1/GPa) = 0.18645272
#
# Stress axis : x y z
#
# Youngs Moduli (GPa) = 32.03735 12.60134 16.56148
#
# Poissons Ratio (x) = 0.13819 -0.50047
# Poissons Ratio (y) = 0.35134 0.19049
# Poissons Ratio (z) = -0.96814 0.14494
#
# Static dielectric constant tensor:
#      x y z
#    x 1.827620 0.000000 -0.026100 
#    y 0.000000 1.727810 0.000000 
#    z -0.026100 0.000000 1.808800 
# 
# From -- ./inp_files/338738.got.cif
#   From: 2010.05.17/outbox.cif.g08.bks.cpg/sg12_170_cif.got.tgz:338738.got - 2010.06.03 13:09:07.
