data_PCOD9210472
_publ_section_title
;
Structure prediction by ZEFSAII (Michael W. Deem and Ramdas Pophale) SiO2 
 PCOD9210472
Probable space group: C 2/M
;
_chemical_formula_sum "Si O2"
_cell_formula_units_Z 64
_cell_length_a 11.870159
_cell_length_b 14.141052
_cell_length_c 27.435948
_cell_angle_alpha 90.000000
_cell_angle_beta 140.338343
_cell_angle_gamma 90.000000
_cell_volume 2939.347576
_symmetry_space_group_name_H-M "C 2/M"
_symmetry_group_IT_number 12
_symmetry_cell_setting 'monoclinic'
loop_
_space_group_symop_operation_xyz
x,y,z
-x,y,-z
-x,-y,-z
x,-y,z
1/2+x,1/2+y,z
1/2-x,1/2+y,-z
1/2-x,1/2-y,-z
1/2+x,1/2-y,z
loop_
_atom_site_type_symbol
_atom_site_label
_atom_site_fract_x
_atom_site_fract_y
_atom_site_fract_z
Si Si1 0.213634 0.889083 0.030091
Si Si2 0.843801 0.217724 0.134537
Si Si3 0.949237 0.609232 0.909663
Si Si4 0.086989 0.108711 0.140544
Si Si5 0.381480 0.112957 0.509296
Si Si6 0.267311 0.105890 0.742929
Si Si7 0.511000 0.831221 0.738883
Si Si8 0.951198 0.249177 0.619893
O O1 0.279013 0.817631 0.092167
O O2 0.345384 0.866250 0.028518
O O3 0.240153 0.000000 0.051775
O O4 0.016183 0.876589 0.944923
O O5 0.668828 0.162662 0.091176
O O6 0.949436 0.233718 0.219782
O O7 0.981572 0.171629 0.143711
O O8 0.940079 0.500000 0.919238
O O9 0.866649 0.620510 0.827661
O O10 0.294350 0.127864 0.207214
O O11 0.057022 0.000000 0.143726
O O12 0.500000 0.118914 0.500000
O O13 0.199225 0.170544 0.439994
O O14 0.467096 0.174511 0.581678
O O15 0.358331 0.000000 0.512579
O O16 0.401233 0.109872 0.741821
O O17 0.128490 0.189264 0.688106
O O18 0.188035 0.000000 0.718490
O O19 0.412989 0.808783 0.656190
#
# Coordination Sequence:
#
# PCOD9210472 Si02
#       8
#     8   8   8   8   8   8   8   8
#     4  10  23  43  63  87 125 175 230 282 338 400
#     4  12  22  41  64  90 125 167 221 280 342 400
#     4  10  21  39  62  90 123 167 219 275 334 398
#     4  11  26  43  61  94 130 172 228 284 342 392
#     4  10  23  45  73 103 137 175 211 257 318 385
#     4  11  22  40  64  94 131 175 218 261 324 391
#     4  12  24  40  64  95 134 175 216 276 328 389
#     4  11  23  44  69 103 137 170 218 265 315 389
#
# _framework density 21.773540000000001
#
# number of rings (size 3 to 8) (size 9 to 14) (size 15 to 20)
#    0.000    1.125    2.500    3.750    0.000    3.500 
#    0.000    4.375    0.000    4.125    0.000    0.000 
#    0.000    0.000    0.000    0.000    0.000    0.000 
#
# Total GULP energy -179000.957542 kJ/mol
# GULP energy per Si atom -5593.779923 kJ/mol
# Density = 2.172398 g / cm^3
# Si number density = 21.773540 Si / 1000 Ang^3
#
#
#
# Elastic Constant Matrix: (Units=GPa)
#
#
# Indices 1 2 3 4 5 6 
#
# 1 104.9373 49.1768 8.0402 0.0000 -9.2723 0.0000
# 2 49.1768 95.0469 20.0039 0.0000 -6.3360 0.0000
# 3 8.0402 20.0039 61.3116 0.0000 -13.3478 0.0000
# 4 0.0000 0.0000 0.0000 21.7620 0.0000 -4.4947
# 5 -9.2723 -6.3360 -13.3478 0.0000 34.1020 0.0000
# 6 0.0000 0.0000 0.0000 -4.4947 0.0000 35.0054
#
#
#
# Elastic Compliance Matrix: (Units=1/GPa)
#
#
# Indices 1 2 3 4 5 6 
#
# 1 0.012812 -0.006678 0.001079 0.000000 0.002665 0.000000
# 2 -0.006678 0.014794 -0.004097 0.000000 -0.000671 0.000000
# 3 0.001079 -0.004097 0.019025 0.000000 0.006979 0.000000
# 4 0.000000 0.000000 0.000000 0.047203 0.000000 0.006061
# 5 0.002665 -0.000671 0.006979 0.000000 0.032655 0.000000
# 6 0.000000 0.000000 0.000000 0.006061 0.000000 0.029345
#
#
# Mechanical properties :
#
#
# Convention : Reuss Voigt Hill
#
# Bulk Modulus (GPa) = 36.71357 46.19306 41.45331
# Shear Modulus (GPa) = 27.12875 30.44556 28.78716
#
# Velocity S-wave (km/s) = 3.53363 3.74342 3.64004
# Velocity P-wave (km/s) = 5.79197 6.32025 6.06187
#
# Compressibility (1/GPa) = 0.02723789
#
# Stress axis : x y z
#
# Youngs Moduli (GPa) = 78.05210 67.59510 52.56355
#
# Poissons Ratio (x) = 0.45142 -0.05671
# Poissons Ratio (y) = 0.52125 0.21535
# Poissons Ratio (z) = -0.08422 0.27694
#
# Static dielectric constant tensor:
#      x y z
#    x 1.823870 0.000000 -0.008340 
#    y 0.000000 1.797340 0.000000 
#    z -0.008340 0.000000 1.804390 
# 
# From -- ./inp_files/358469.got.cif
#   From: 2010.05.17/outbox.cif.g08.bks.cpg/sg12_180_cif.got.tgz:358469.got - 2010.06.03 13:09:07.
