data_PCOD9210553
_publ_section_title
;
Structure prediction by ZEFSAII (Michael W. Deem and Ramdas Pophale) SiO2 
 PCOD9210553
Probable space group: C 2/M
;
_chemical_formula_sum "Si O2"
_cell_formula_units_Z 56
_cell_length_a 22.291384
_cell_length_b 7.413815
_cell_length_c 18.985842
_cell_angle_alpha 90.000000
_cell_angle_beta 47.863911
_cell_angle_gamma 90.000000
_cell_volume 2326.757257
_symmetry_space_group_name_H-M "C 2/M"
_symmetry_group_IT_number 12
_symmetry_cell_setting 'monoclinic'
loop_
_space_group_symop_operation_xyz
x,y,z
-x,y,-z
-x,-y,-z
x,-y,z
1/2+x,1/2+y,z
1/2-x,1/2+y,-z
1/2-x,1/2-y,-z
1/2+x,1/2-y,z
loop_
_atom_site_type_symbol
_atom_site_label
_atom_site_fract_x
_atom_site_fract_y
_atom_site_fract_z
Si Si1 0.599519 0.778929 0.218270
Si Si2 0.809369 0.280541 0.612836
Si Si3 0.179905 0.213161 0.611385
Si Si4 0.757525 0.280081 0.804161
Si Si5 0.021766 0.280814 0.563069
Si Si6 0.920130 0.209007 0.097605
Si Si7 0.021693 0.703941 0.795993
O O1 0.690105 0.724175 0.169309
O O2 0.539311 0.719757 0.328841
O O3 0.558352 0.717905 0.177779
O O4 0.597936 0.000000 0.217875
O O5 0.810388 0.500000 0.609746
O O6 0.724991 0.222093 0.646653
O O7 0.809984 0.229328 0.693697
O O8 0.884903 0.220576 0.506299
O O9 0.250000 0.250000 0.500000
O O10 0.091576 0.297983 0.680694
O O11 0.166763 0.000000 0.624012
O O12 0.755645 0.500000 0.806114
O O13 0.666184 0.216216 0.860813
O O14 0.019367 0.500000 0.567193
O O15 0.000000 0.230552 0.500000
O O16 0.938607 0.208950 0.166564
O O17 0.916707 0.000000 0.077798
O O18 0.000000 0.291759 0.000000
O O19 0.003792 0.500000 0.831111
#
# Coordination Sequence:
#
# PCOD9210553 Si02
#       7
#     8   8   8   8   8   8   8
#     4   9  17  28  46  76 112 145 182 229 278 330
#     4   9  15  24  43  70  99 133 180 230 267 307
#     4  11  21  34  52  78 114 156 198 235 278 329
#     4   9  15  29  52  77 103 136 182 233 276 324
#     4   9  13  19  35  64 100 135 173 219 261 299
#     4  10  21  39  63  86 107 140 189 240 290 346
#     4  11  22  36  55  84 118 148 182 232 293 350
#
# _framework density 24.067833
#
# number of rings (size 3 to 8) (size 9 to 14) (size 15 to 20)
#    0.000    2.286    2.857    1.714    0.000    2.571 
#    0.000    0.714    0.000    1.714    0.000    1.000 
#    0.000    0.000    0.000    0.000    0.000    0.000 
#
# Total GULP energy -156241.899436 kJ/mol
# GULP energy per Si atom -5580.067837 kJ/mol
# Density = 2.401305 g / cm^3
# Si number density = 24.067833 Si / 1000 Ang^3
#
#
#
# Elastic Constant Matrix: (Units=GPa)
#
#
# Indices 1 2 3 4 5 6 
#
# 1 184.8217 0.1234 44.7511 -0.0029 -37.1418 0.0028
# 2 0.1234 80.2338 -3.6507 -0.0067 -3.6446 0.0059
# 3 44.7511 -3.6507 80.8649 0.0014 -23.2874 0.0006
# 4 -0.0029 -0.0067 0.0014 -1.5424 0.0010 4.0949
# 5 -37.1418 -3.6446 -23.2874 0.0010 27.0932 -0.0029
# 6 0.0028 0.0059 0.0006 4.0949 -0.0029 4.7480
#
#
#
# Elastic Compliance Matrix: (Units=1/GPa)
#
#
# Indices 1 2 3 4 5 6 
#
# 1 0.007631 0.000333 -0.001571 -0.000003 0.009155 0.000003
# 2 0.000333 0.012675 0.001343 -0.000027 0.003315 0.000010
# 3 -0.001571 0.001343 0.016915 0.000011 0.012565 -0.000004
# 4 -0.000003 -0.000027 0.000011 -0.197082 0.000028 0.169973
# 5 0.009155 0.003315 0.012565 0.000028 0.060706 0.000003
# 6 0.000003 0.000010 -0.000004 0.169973 0.000003 0.064023
#
#
# Mechanical properties :
#
#
# Convention : Reuss Voigt Hill
#
# Bulk Modulus (GPa) = 26.71749 47.59645 37.15697
# Shear Modulus (GPa) = -218.68049 26.37286 -96.15382
#
# Velocity S-wave (km/s) = -9.54240 3.31384 -6.32755
# Velocity P-wave (km/s) = 10.50165 5.87034 6.15727
#
# Compressibility (1/GPa) = 0.03742867
#
# Stress axis : x y z
#
# Youngs Moduli (GPa) = 131.05055 78.89695 59.11852
#
# Poissons Ratio (x) = -0.02624 0.09290
# Poissons Ratio (y) = -0.04359 -0.07939
# Poissons Ratio (z) = 0.20594 -0.10595
#
# Static dielectric constant tensor:
#      x y z
#    x 2.010470 0.000000 0.005810 
#    y 0.000000 1.941180 0.000000 
#    z 0.005810 0.000000 1.922010 
# 
# From -- ./inp_files/319712.got.cif
#   From: 2010.05.17/outbox.cif.g08.bks.cpg/sg12_160_cif.got.tgz:319712.got - 2010.06.03 13:09:07.
