data_PCOD9210896
_publ_section_title
;
Structure prediction by ZEFSAII (Michael W. Deem and Ramdas Pophale) SiO2 
 PCOD9210896
Probable space group: C 2/M
;
_chemical_formula_sum "Si O2"
_cell_formula_units_Z 44
_cell_length_a 35.520472
_cell_length_b 7.631910
_cell_length_c 21.000184
_cell_angle_alpha 90.000000
_cell_angle_beta 22.510384
_cell_angle_gamma 90.000000
_cell_volume 2179.539285
_symmetry_space_group_name_H-M "C 2/M"
_symmetry_group_IT_number 12
_symmetry_cell_setting 'monoclinic'
loop_
_space_group_symop_operation_xyz
x,y,z
-x,y,-z
-x,-y,-z
x,-y,z
1/2+x,1/2+y,z
1/2-x,1/2+y,-z
1/2-x,1/2-y,-z
1/2+x,1/2-y,z
loop_
_atom_site_type_symbol
_atom_site_label
_atom_site_fract_x
_atom_site_fract_y
_atom_site_fract_z
Si Si1 0.112197 0.800699 0.635884
Si Si2 0.913924 0.212512 0.585798
Si Si3 0.499985 0.711652 0.683548
Si Si4 0.712859 0.000000 0.679127
Si Si5 0.347920 0.000000 0.092060
Si Si6 0.309677 0.296986 0.049884
Si Si7 0.435545 0.000000 0.194268
O O1 0.101777 0.670990 0.710066
O O2 0.055270 0.733624 0.662047
O O3 0.075021 0.000000 0.707665
O O4 0.225652 0.833019 0.441386
O O5 0.807272 0.276402 0.775679
O O6 0.000000 0.261249 0.500000
O O7 0.947375 0.274794 0.463064
O O8 0.907475 0.000000 0.594314
O O9 0.506811 0.500000 0.670148
O O10 0.384254 0.753201 0.875730
O O11 0.608999 0.000000 0.806401
O O12 0.727400 0.000000 0.732099
O O13 0.336519 0.831003 0.065926
O O14 0.449460 0.000000 0.971147
O O15 0.330094 0.500000 0.032917
#
# Coordination Sequence:
#
# PCOD9210896 Si02
#       7
#     8   8   8   4   4   8   4
#     4   9  20  37  60  84 119 154 201 246 288 356
#     4  10  21  39  64  93 127 161 198 252 310 361
#     4   9  18  38  61  87 122 162 200 251 299 351
#     4  10  23  40  58  88 131 153 187 269 307 346
#     4  12  23  42  59  90 124 154 206 249 302 366
#     4  11  23  41  64  89 121 163 208 253 299 357
#     4  12  21  38  66  88 115 163 204 238 310 374
#
# _framework density 20.187753000000001
#
# number of rings (size 3 to 8) (size 9 to 14) (size 15 to 20)
#    0.545    1.273    2.727    1.909    0.000    1.091 
#    8.182    0.000    0.000    2.182    0.000    0.000 
#    0.000    0.000    0.000    0.000    0.000    0.000 
#
# Total GULP energy -122644.018572 kJ/mol
# GULP energy per Si atom -5574.728117 kJ/mol
# Density = 2.014180 g / cm^3
# Si number density = 20.187753 Si / 1000 Ang^3
#
#
#
# Elastic Constant Matrix: (Units=GPa)
#
#
# Indices 1 2 3 4 5 6 
#
# 1 55.1516 10.3151 24.0334 -0.0001 -13.7817 0.0000
# 2 10.3151 68.6846 1.0850 0.0000 3.1383 -0.0009
# 3 24.0334 1.0850 90.1931 -0.0001 -26.4718 -0.0002
# 4 -0.0001 0.0000 -0.0001 18.5369 -0.0002 -3.4821
# 5 -13.7817 3.1383 -26.4718 -0.0002 32.6140 0.0001
# 6 0.0000 -0.0009 -0.0002 -3.4821 0.0001 16.9097
#
#
#
# Elastic Compliance Matrix: (Units=1/GPa)
#
#
# Indices 1 2 3 4 5 6 
#
# 1 0.022142 -0.003559 -0.003952 0.000000 0.006491 0.000000
# 2 -0.003559 0.015237 -0.000140 0.000000 -0.003084 0.000001
# 3 -0.003952 -0.000140 0.015301 0.000000 0.010763 0.000000
# 4 0.000000 0.000000 0.000000 0.056117 0.000000 0.011556
# 5 0.006491 -0.003084 0.010763 0.000000 0.042437 0.000000
# 6 0.000000 0.000001 0.000000 0.011556 0.000000 0.061517
#
#
# Mechanical properties :
#
#
# Convention : Reuss Voigt Hill
#
# Bulk Modulus (GPa) = 26.75446 31.65515 29.20481
# Shear Modulus (GPa) = 20.78886 25.51850 23.15368
#
# Velocity S-wave (km/s) = 3.21249 3.55922 3.39029
# Velocity P-wave (km/s) = 5.20017 5.71009 5.46108
#
# Compressibility (1/GPa) = 0.03737694
#
# Stress axis : x y z
#
# Youngs Moduli (GPa) = 45.16338 65.62977 65.35530
#
# Poissons Ratio (x) = 0.23361 0.25829
# Poissons Ratio (y) = 0.16076 0.00915
# Poissons Ratio (z) = 0.17849 0.00918
#
# Static dielectric constant tensor:
#      x y z
#    x 1.676940 0.000000 -0.025300 
#    y 0.000000 1.703050 0.000000 
#    z -0.025300 0.000000 1.776310 
# 
# From -- ./inp_files/295029.got.cif
#   From: 2010.05.17/outbox.cif.g08.bks.cpg/sg12_148_cif.got.tgz:295029.got - 2010.06.03 13:09:07.
