data_PCOD9210835
_publ_section_title
;
Structure prediction by ZEFSAII (Michael W. Deem and Ramdas Pophale) SiO2 
 PCOD9210835
Probable space group: C 2/M
;
_chemical_formula_sum "Si O2"
_cell_formula_units_Z 48
_cell_length_a 20.762563
_cell_length_b 8.767945
_cell_length_c 21.468705
_cell_angle_alpha 90.000000
_cell_angle_beta 41.635404
_cell_angle_gamma 90.000000
_cell_volume 2596.608740
_symmetry_space_group_name_H-M "C 2/M"
_symmetry_group_IT_number 12
_symmetry_cell_setting 'monoclinic'
loop_
_space_group_symop_operation_xyz
x,y,z
-x,y,-z
-x,-y,-z
x,-y,z
1/2+x,1/2+y,z
1/2-x,1/2+y,-z
1/2-x,1/2-y,-z
1/2+x,1/2-y,z
loop_
_atom_site_type_symbol
_atom_site_label
_atom_site_fract_x
_atom_site_fract_y
_atom_site_fract_z
Si Si1 0.357118 0.682089 0.933947
Si Si2 0.711644 0.818354 0.235710
Si Si3 0.652298 0.682983 0.541932
Si Si4 0.957929 0.682666 0.741445
Si Si5 0.900350 0.681992 0.036680
Si Si6 0.113061 0.816920 0.426844
O O1 0.351800 0.500000 0.935562
O O2 0.425797 0.744604 0.829793
O O3 0.250000 0.750000 0.000000
O O4 0.393070 0.736669 0.975299
O O5 0.625895 0.781641 0.248552
O O6 0.808767 0.735506 0.143429
O O7 0.676391 0.764528 0.328703
O O8 0.726577 0.000000 0.223706
O O9 0.651014 0.500000 0.548610
O O10 0.750000 0.750000 0.500000
O O11 0.558860 0.751574 0.643896
O O12 0.644524 0.720840 0.474188
O O13 0.963807 0.500000 0.743263
O O14 0.895869 0.500000 0.030546
O O15 0.000000 0.718983 0.000000
O O16 0.000000 0.775177 0.500000
O O17 0.120681 0.000000 0.412824
#
# Coordination Sequence:
#
# PCOD9210835 Si02
#       6
#     8   8   8   8   8   8
#     4  12  24  40  66  96 127 167 212 262 315 376
#     4  11  23  38  64  96 126 163 208 261 312 371
#     4  11  24  42  64  92 128 168 207 260 319 374
#     4  11  23  40  64  95 127 164 211 261 313 375
#     4  11  25  44  66  93 129 169 209 261 319 376
#     4  10  21  39  64  91 122 162 208 255 308 371
#
# _framework density 18.48565
#
# number of rings (size 3 to 8) (size 9 to 14) (size 15 to 20)
#    0.000    1.000    3.333    3.500    0.000    5.667 
#    0.000    1.667    0.000    0.000    0.000    0.000 
#    0.000    0.000    0.000    0.000    0.000    0.000 
#
# Total GULP energy -134270.076060 kJ/mol
# GULP energy per Si atom -5594.586503 kJ/mol
# Density = 1.844358 g / cm^3
# Si number density = 18.485650 Si / 1000 Ang^3
#
#
#
# Elastic Constant Matrix: (Units=GPa)
#
#
# Indices 1 2 3 4 5 6 
#
# 1 160.9012 84.6281 97.6223 0.0000 -2.3831 0.0000
# 2 84.6281 93.8030 80.5115 0.0001 -0.5348 -0.0002
# 3 97.6223 80.5115 180.0831 0.0000 5.7411 0.0000
# 4 0.0000 0.0001 0.0000 36.6261 0.0000 1.3359
# 5 -2.3831 -0.5348 5.7411 0.0000 35.7685 0.0000
# 6 0.0000 -0.0002 0.0000 1.3359 0.0000 32.4710
#
#
#
# Elastic Compliance Matrix: (Units=1/GPa)
#
#
# Indices 1 2 3 4 5 6 
#
# 1 0.012720 -0.008954 -0.002930 0.000000 0.001184 0.000000
# 2 -0.008954 0.023683 -0.005756 0.000000 0.000681 0.000000
# 3 -0.002930 -0.005756 0.009774 0.000000 -0.001850 0.000000
# 4 0.000000 0.000000 0.000000 0.027344 0.000000 -0.001125
# 5 0.001184 0.000681 -0.001850 0.000000 0.028344 0.000000
# 6 0.000000 0.000000 0.000000 -0.001125 0.000000 0.030843
#
#
# Mechanical properties :
#
#
# Convention : Reuss Voigt Hill
#
# Bulk Modulus (GPa) = 91.77172 106.70124 99.23648
# Shear Modulus (GPa) = 29.13427 32.44148 30.78788
#
# Velocity S-wave (km/s) = 3.97425 4.19376 4.08548
# Velocity P-wave (km/s) = 8.41500 9.01646 8.72092
#
# Compressibility (1/GPa) = 0.01089660
#
# Stress axis : x y z
#
# Youngs Moduli (GPa) = 78.61852 42.22386 102.31641
#
# Poissons Ratio (x) = 0.37808 0.29977
# Poissons Ratio (y) = 0.70396 0.58894
# Poissons Ratio (z) = 0.23034 0.24304
#
# Static dielectric constant tensor:
#      x y z
#    x 1.612780 0.000000 0.003760 
#    y 0.000000 1.618050 0.000000 
#    z 0.003760 0.000000 1.597270 
# 
# From -- ./inp_files/319547.got.cif
#   From: 2010.05.17/outbox.cif.g08.bks.cpg/sg12_160_cif.got.tgz:319547.got - 2010.06.03 13:09:07.
