data_PCOD9210407
_publ_section_title
;
Structure prediction by ZEFSAII (Michael W. Deem and Ramdas Pophale) SiO2 
 PCOD9210407
Probable space group: C 2/M
;
_chemical_formula_sum "Si O2"
_cell_formula_units_Z 58
_cell_length_a 17.478932
_cell_length_b 27.365837
_cell_length_c 10.712039
_cell_angle_alpha 90.000000
_cell_angle_beta 34.201151
_cell_angle_gamma 90.000000
_cell_volume 2880.111846
_symmetry_space_group_name_H-M "C 2/M"
_symmetry_group_IT_number 12
_symmetry_cell_setting 'monoclinic'
loop_
_space_group_symop_operation_xyz
x,y,z
-x,y,-z
-x,-y,-z
x,-y,z
1/2+x,1/2+y,z
1/2-x,1/2+y,-z
1/2-x,1/2-y,-z
1/2+x,1/2-y,z
loop_
_atom_site_type_symbol
_atom_site_label
_atom_site_fract_x
_atom_site_fract_y
_atom_site_fract_z
Si Si1 0.059091 0.171873 0.743762
Si Si2 0.158824 0.444575 0.791234
Si Si3 0.186453 0.781616 0.797595
Si Si4 0.804124 0.293964 0.016098
Si Si5 0.716435 0.580516 0.638942
Si Si6 0.061113 0.346229 0.548175
Si Si7 0.000000 0.000000 0.000000
Si Si8 0.132339 0.132324 0.379063
O O1 0.138123 0.212850 0.719820
O O2 0.114076 0.121963 0.727509
O O3 0.092713 0.165375 0.553430
O O4 0.905047 0.181982 0.992913
O O5 0.166594 0.500000 0.831733
O O6 0.219879 0.444593 0.569497
O O7 0.250645 0.405758 0.741232
O O8 0.000000 0.430203 0.000000
O O9 0.165007 0.729953 0.890748
O O10 0.339395 0.799835 0.603463
O O11 0.685325 0.332148 0.200203
O O12 0.750000 0.250000 0.000000
O O13 0.935083 0.324262 0.795417
O O14 0.841733 0.610813 0.530790
O O15 0.622018 0.542530 0.839482
O O16 0.000000 0.362785 0.500000
O O17 0.000000 0.106470 0.500000
#
# Coordination Sequence:
#
# PCOD9210407 Si02
#       8
#     8   8   8   8   8   8   2   8
#     4   9  21  43  61  92 130 168 222 284 339 393
#     4  10  21  44  71  94 129 172 219 279 348 416
#     4  10  21  39  62  87 125 178 227 273 323 408
#     4  12  25  39  61  93 136 186 231 269 342 399
#     4  10  21  40  67  95 125 167 221 277 346 405
#     4  11  23  40  61  91 136 178 222 281 334 400
#     4  12  20  40  76  96 122 168 218 282 346 426
#     4  11  25  41  67  96 135 172 224 286 341 416
#
# _framework density 20.138107000000002
#
# number of rings (size 3 to 8) (size 9 to 14) (size 15 to 20)
#    0.000    1.517    2.069    3.310    3.862    0.828 
#   14.897    0.345    0.000    0.000    0.000    0.000 
#    0.000    0.000    0.000    0.000    0.000    0.000 
#
# Total GULP energy -161475.075853 kJ/mol
# GULP energy per Si atom -5568.106064 kJ/mol
# Density = 2.009227 g / cm^3
# Si number density = 20.138107 Si / 1000 Ang^3
#
#
#
# Elastic Constant Matrix: (Units=GPa)
#
#
# Indices 1 2 3 4 5 6 
#
# 1 76.9224 46.8822 49.7264 -0.0002 -15.5066 0.0002
# 2 46.8822 93.0773 46.4398 0.0000 -12.5033 0.0000
# 3 49.7264 46.4398 116.6710 -0.0001 -17.5588 0.0002
# 4 -0.0002 0.0000 -0.0001 35.6420 0.0001 -5.3689
# 5 -15.5066 -12.5033 -17.5588 0.0001 21.9684 -0.0002
# 6 0.0002 0.0000 0.0002 -5.3689 -0.0002 14.5630
#
#
#
# Elastic Compliance Matrix: (Units=1/GPa)
#
#
# Indices 1 2 3 4 5 6 
#
# 1 0.022740 -0.007723 -0.005529 0.000000 0.007237 0.000000
# 2 -0.007723 0.016318 -0.002985 0.000000 0.001450 0.000000
# 3 -0.005529 -0.002985 0.012814 0.000000 0.004640 0.000000
# 4 0.000000 0.000000 0.000000 0.029707 0.000000 0.010952
# 5 0.007237 0.001450 0.004640 0.000000 0.055162 0.000000
# 6 0.000000 0.000000 0.000000 0.010952 0.000000 0.072705
#
#
# Mechanical properties :
#
#
# Convention : Reuss Voigt Hill
#
# Bulk Modulus (GPa) = 51.55288 63.64081 57.59685
# Shear Modulus (GPa) = 20.12990 24.00951 22.06971
#
# Velocity S-wave (km/s) = 3.16506 3.45663 3.31406
# Velocity P-wave (km/s) = 6.24596 6.89941 6.58080
#
# Compressibility (1/GPa) = 0.01939756
#
# Stress axis : x y z
#
# Youngs Moduli (GPa) = 43.97499 61.28125 78.03844
#
# Poissons Ratio (x) = 0.47330 0.43146
# Poissons Ratio (y) = 0.33964 0.23297
# Poissons Ratio (z) = 0.24313 0.18294
#
# Static dielectric constant tensor:
#      x y z
#    x 1.745200 0.000000 0.019510 
#    y 0.000000 1.717740 0.000000 
#    z 0.019510 0.000000 1.751480 
# 
# From -- ./inp_files/160903.got.cif
#   From: 2010.05.17/outbox.cif.g08.bks.cpg/sg12_81_cif.got.tgz:160903.got - 2010.06.03 13:09:07.
