data_PCOD9210865
_publ_section_title
;
Structure prediction by ZEFSAII (Michael W. Deem and Ramdas Pophale) SiO2 
 PCOD9210865
Probable space group: C 2/M
;
_chemical_formula_sum "Si O2"
_cell_formula_units_Z 40
_cell_length_a 13.035022
_cell_length_b 11.624745
_cell_length_c 12.588578
_cell_angle_alpha 90.000000
_cell_angle_beta 69.444034
_cell_angle_gamma 90.000000
_cell_volume 1786.078986
_symmetry_space_group_name_H-M "C 2/M"
_symmetry_group_IT_number 12
_symmetry_cell_setting 'monoclinic'
loop_
_space_group_symop_operation_xyz
x,y,z
-x,y,-z
-x,-y,-z
x,-y,z
1/2+x,1/2+y,z
1/2-x,1/2+y,-z
1/2-x,1/2-y,-z
1/2+x,1/2-y,z
loop_
_atom_site_type_symbol
_atom_site_label
_atom_site_fract_x
_atom_site_fract_y
_atom_site_fract_z
Si Si1 0.177346 0.632602 0.021497
Si Si2 0.491991 0.823068 0.729525
Si Si3 0.199283 0.622219 0.775618
Si Si4 0.886813 0.871111 0.410173
Si Si5 0.165252 0.304336 0.383250
O O1 0.223428 0.500000 0.022937
O O2 0.083580 0.649523 0.142782
O O3 0.250000 0.750000 0.000000
O O4 0.141846 0.630377 0.910808
O O5 0.610635 0.874176 0.713903
O O6 0.523995 0.689245 0.698527
O O7 0.432402 0.865349 0.644116
O O8 0.258765 0.500000 0.749335
O O9 0.279277 0.727592 0.729430
O O10 0.876014 0.785733 0.513853
O O11 0.766729 0.870892 0.398272
O O12 0.916064 0.000000 0.428221
#
# Coordination Sequence:
#
# PCOD9210865 Si02
#       5
#     8   8   8   8   8
#     4  11  23  42  67  96 130 171 215 266 326 387
#     4  11  22  38  61  93 125 163 212 261 315 380
#     4  10  21  39  64  92 124 164 210 257 315 383
#     4  10  23  40  62  91 127 169 215 269 324 386
#     4  10  21  40  62  90 128 162 211 265 325 375
#
# _framework density 22.395427000000002
#
# number of rings (size 3 to 8) (size 9 to 14) (size 15 to 20)
#    0.000    1.600    2.000    2.400    0.000    6.400 
#    0.000    1.000    0.000   14.400    0.000    0.000 
#    0.000    0.000    0.000    0.000    0.000    0.000 
#
# Total GULP energy -111536.758087 kJ/mol
# GULP energy per Si atom -5576.837904 kJ/mol
# Density = 2.234445 g / cm^3
# Si number density = 22.395427 Si / 1000 Ang^3
#
#
#
# Elastic Constant Matrix: (Units=GPa)
#
#
# Indices 1 2 3 4 5 6 
#
# 1 95.8016 26.2756 9.2638 0.0000 27.5460 0.0000
# 2 26.2756 148.0303 33.8500 0.0000 -6.1791 0.0000
# 3 9.2638 33.8500 95.3488 0.0000 8.6847 0.0000
# 4 0.0000 0.0000 0.0000 1.5348 0.0000 9.3129
# 5 27.5460 -6.1791 8.6847 0.0000 39.3224 0.0000
# 6 0.0000 0.0000 0.0000 9.3129 0.0000 -5.8520
#
#
#
# Elastic Compliance Matrix: (Units=1/GPa)
#
#
# Indices 1 2 3 4 5 6 
#
# 1 0.014299 -0.003143 0.000698 0.000000 -0.010665 0.000000
# 2 -0.003143 0.008165 -0.002971 0.000000 0.004141 0.000000
# 3 0.000698 -0.002971 0.011799 0.000000 -0.003562 0.000000
# 4 0.000000 0.000000 0.000000 0.061142 0.000000 0.097301
# 5 -0.010665 0.004141 -0.003562 0.000000 0.034339 0.000000
# 6 0.000000 0.000000 0.000000 0.097301 0.000000 -0.016035
#
#
# Mechanical properties :
#
#
# Convention : Reuss Voigt Hill
#
# Bulk Modulus (GPa) = 42.67598 53.10662 47.89130
# Shear Modulus (GPa) = 37.77825 24.98712 31.38269
#
# Velocity S-wave (km/s) = 4.11161 3.34387 3.74745
# Velocity P-wave (km/s) = 6.45271 6.21878 6.33683
#
# Compressibility (1/GPa) = 0.02343238
#
# Stress axis : x y z
#
# Youngs Moduli (GPa) = 69.93372 122.46833 84.75288
#
# Poissons Ratio (x) = 0.38491 -0.05915
# Poissons Ratio (y) = 0.21979 0.25177
# Poissons Ratio (z) = -0.04881 0.36381
#
# Static dielectric constant tensor:
#      x y z
#    x 1.851090 0.000000 0.010150 
#    y 0.000000 1.867710 0.000000 
#    z 0.010150 0.000000 1.826670 
# 
# From -- ./inp_files/140833.got.cif
#   From: 2010.05.17/outbox.cif.g08.bks.cpg/sg12_71_cif.got.tgz:140833.got - 2010.06.03 13:09:07.
