data_PCOD9210463
_publ_section_title
;
Structure prediction by ZEFSAII (Michael W. Deem and Ramdas Pophale) SiO2 
 PCOD9210463
Probable space group: C 2/M
;
_chemical_formula_sum "Si O2"
_cell_formula_units_Z 52
_cell_length_a 7.208668
_cell_length_b 29.474685
_cell_length_c 13.099394
_cell_angle_alpha 90.000000
_cell_angle_beta 131.630136
_cell_angle_gamma 90.000000
_cell_volume 2080.352069
_symmetry_space_group_name_H-M "C 2/M"
_symmetry_group_IT_number 12
_symmetry_cell_setting 'monoclinic'
loop_
_space_group_symop_operation_xyz
x,y,z
-x,y,-z
-x,-y,-z
x,-y,z
1/2+x,1/2+y,z
1/2-x,1/2+y,-z
1/2-x,1/2-y,-z
1/2+x,1/2-y,z
loop_
_atom_site_type_symbol
_atom_site_label
_atom_site_fract_x
_atom_site_fract_y
_atom_site_fract_z
Si Si1 0.548487 0.500000 0.682749
Si Si2 0.080177 0.814034 0.766295
Si Si3 0.097207 0.594879 0.737125
Si Si4 0.792181 0.717090 0.190743
Si Si5 0.576886 0.000000 0.377193
Si Si6 0.000000 0.854342 0.000000
Si Si7 0.342067 0.820189 0.539902
Si Si8 0.695900 0.912211 0.157098
O O1 0.271007 0.500000 0.539841
O O2 0.741864 0.500000 0.656887
O O3 0.608836 0.452973 0.761323
O O4 0.254077 0.770038 0.834812
O O5 0.201588 0.862355 0.829034
O O6 0.881746 0.802735 0.782879
O O7 0.935055 0.818897 0.604500
O O8 0.083897 0.545284 0.685489
O O9 0.949724 0.630442 0.611033
O O10 0.943411 0.592794 0.785976
O O11 0.369002 0.612136 0.870784
O O12 0.724530 0.683351 0.073166
O O13 0.072751 0.710528 0.333934
O O14 0.500000 0.804209 0.500000
O O15 0.500000 0.925565 0.000000
#
# Coordination Sequence:
#
# PCOD9210463 Si02
#       8
#     4   8   8   8   4   4   8   8
#     4   9  19  38  62  92 124 159 195 263 309 362
#     4  11  23  38  60  88 124 162 212 260 306 366
#     4  10  21  39  62  90 120 165 202 258 313 369
#     4  10  23  38  58  85 123 167 209 257 304 368
#     4   9  18  35  63  94 121 149 210 253 309 374
#     4  10  22  39  58  80 126 169 208 244 312 364
#     4   9  20  40  59  84 121 164 208 259 308 363
#     4  11  23  38  61  92 125 161 207 251 313 370
#
# _framework density 24.995767000000001
#
# number of rings (size 3 to 8) (size 9 to 14) (size 15 to 20)
#    0.000    2.000    0.000    2.538    5.385    2.769 
#    0.000    0.385    0.000    9.231    0.000    0.000 
#    0.000    0.000    0.000    0.000    0.000    0.000 
#
# Total GULP energy -145341.581451 kJ/mol
# GULP energy per Si atom -5590.060825 kJ/mol
# Density = 2.493888 g / cm^3
# Si number density = 24.995767 Si / 1000 Ang^3
#
#
#
# Elastic Constant Matrix: (Units=GPa)
#
#
# Indices 1 2 3 4 5 6 
#
# 1 79.4041 22.4714 21.6931 0.0000 2.6214 0.0000
# 2 22.4714 253.0635 100.6092 0.0000 13.5028 0.0000
# 3 21.6931 100.6092 188.1625 0.0000 17.8049 0.0000
# 4 0.0000 0.0000 0.0000 23.9801 0.0000 14.7174
# 5 2.6214 13.5028 17.8049 0.0000 14.1429 0.0000
# 6 0.0000 0.0000 0.0000 14.7174 0.0000 23.5425
#
#
#
# Elastic Compliance Matrix: (Units=1/GPa)
#
#
# Indices 1 2 3 4 5 6 
#
# 1 0.013106 -0.000708 -0.001097 0.000000 -0.000372 0.000000
# 2 -0.000708 0.005089 -0.002488 0.000000 -0.001595 0.000000
# 3 -0.001097 -0.002488 0.007410 0.000000 -0.006750 0.000000
# 4 0.000000 0.000000 0.000000 0.067661 0.000000 -0.042298
# 5 -0.000372 -0.001595 -0.006750 0.000000 0.080795 0.000000
# 6 0.000000 0.000000 0.000000 -0.042298 0.000000 0.068919
#
#
# Mechanical properties :
#
#
# Convention : Reuss Voigt Hill
#
# Bulk Modulus (GPa) = 58.76051 90.01974 74.39013
# Shear Modulus (GPa) = 19.43708 37.39021 28.41364
#
# Velocity S-wave (km/s) = 2.79160 3.87183 3.37521
# Velocity P-wave (km/s) = 5.82666 7.48868 6.70933
#
# Compressibility (1/GPa) = 0.01701823
#
# Stress axis : x y z
#
# Youngs Moduli (GPa) = 76.29996 196.50875 134.94626
#
# Poissons Ratio (x) = 0.13906 0.14809
# Poissons Ratio (y) = 0.05399 0.33581
# Poissons Ratio (z) = 0.08373 0.48901
#
# Static dielectric constant tensor:
#      x y z
#    x 2.050090 0.000000 0.019050 
#    y 0.000000 1.941550 0.000000 
#    z 0.019050 0.000000 2.110340 
# 
# From -- ./inp_files/201405.got.cif
#   From: 2010.05.17/outbox.cif.g08.bks.cpg/sg12_101_cif.got.tgz:201405.got - 2010.06.03 13:09:07.
