data_PCOD9210395
_publ_section_title
;
Structure prediction by ZEFSAII (Michael W. Deem and Ramdas Pophale) SiO2 
 PCOD9210395
Probable space group: C 2/M
;
_chemical_formula_sum "Si O2"
_cell_formula_units_Z 56
_cell_length_a 20.701587
_cell_length_b 8.620970
_cell_length_c 18.065312
_cell_angle_alpha 90.000000
_cell_angle_beta 63.369666
_cell_angle_gamma 90.000000
_cell_volume 2882.056323
_symmetry_space_group_name_H-M "C 2/M"
_symmetry_group_IT_number 12
_symmetry_cell_setting 'monoclinic'
loop_
_space_group_symop_operation_xyz
x,y,z
-x,y,-z
-x,-y,-z
x,-y,z
1/2+x,1/2+y,z
1/2-x,1/2+y,-z
1/2-x,1/2-y,-z
1/2+x,1/2-y,z
loop_
_atom_site_type_symbol
_atom_site_label
_atom_site_fract_x
_atom_site_fract_y
_atom_site_fract_z
Si Si1 0.330078 0.813915 0.972852
Si Si2 0.580875 0.685846 0.936608
Si Si3 0.321004 0.312174 0.696724
Si Si4 0.578156 0.311328 0.490017
Si Si5 0.916893 0.685778 0.781168
Si Si6 0.155653 0.314402 0.756227
Si Si7 0.074624 0.813882 0.660563
O O1 0.382167 0.768314 0.877728
O O2 0.327105 0.000000 0.977405
O O3 0.250000 0.750000 0.000000
O O4 0.363406 0.750457 0.031528
O O5 0.583835 0.500000 0.935296
O O6 0.602140 0.747624 0.845367
O O7 0.500000 0.735307 0.000000
O O8 0.325830 0.500000 0.700806
O O9 0.361421 0.265439 0.600173
O O10 0.362564 0.238692 0.744400
O O11 0.237234 0.268174 0.735373
O O12 0.500000 0.260389 0.500000
O O13 0.577250 0.500000 0.491632
O O14 0.588254 0.260226 0.569230
O O15 0.924572 0.500000 0.776274
O O16 0.994673 0.760846 0.726225
O O17 0.151829 0.500000 0.758746
O O18 0.131837 0.253520 0.688699
O O19 0.077253 0.000000 0.660831
#
# Coordination Sequence:
#
# PCOD9210395 Si02
#       7
#     8   8   8   8   8   8   8
#     4  11  24  40  60  87 120 157 197 247 301 354
#     4  11  24  42  64  88 117 157 204 248 295 357
#     4  10  21  39  62  87 119 161 201 240 295 356
#     4   9  17  35  62  89 116 153 201 245 288 345
#     4  11  23  38  59  89 121 152 194 248 300 349
#     4  11  24  40  60  89 125 158 194 245 301 355
#     4  11  22  38  63  88 117 158 202 243 289 351
#
# _framework density 19.430572000000002
#
# number of rings (size 3 to 8) (size 9 to 14) (size 15 to 20)
#    0.000    1.429    1.429    3.857    0.000    9.714 
#    0.000    2.143    0.000    0.000    0.000    0.000 
#    0.000    0.000    0.000    0.000    0.000    0.000 
#
# Total GULP energy -156582.041934 kJ/mol
# GULP energy per Si atom -5592.215783 kJ/mol
# Density = 1.938635 g / cm^3
# Si number density = 19.430572 Si / 1000 Ang^3
#
#
#
# Elastic Constant Matrix: (Units=GPa)
#
#
# Indices 1 2 3 4 5 6 
#
# 1 60.5953 5.9744 -17.5649 0.0000 10.6636 0.0000
# 2 5.9744 27.1827 5.3927 0.0000 -0.6131 0.0000
# 3 -17.5649 5.3927 71.0480 0.0000 11.7146 0.0000
# 4 0.0000 0.0000 0.0000 20.7178 0.0000 9.1559
# 5 10.6636 -0.6131 11.7146 0.0000 38.8995 0.0000
# 6 0.0000 0.0000 0.0000 9.1559 0.0000 33.3783
#
#
#
# Elastic Compliance Matrix: (Units=1/GPa)
#
#
# Indices 1 2 3 4 5 6 
#
# 1 0.020422 -0.006008 0.006780 0.000000 -0.007735 0.000000
# 2 -0.006008 0.039203 -0.005087 0.000000 0.003797 0.000000
# 3 0.006780 -0.005087 0.017317 0.000000 -0.007154 0.000000
# 4 0.000000 0.000000 0.000000 0.054926 0.000000 -0.015067
# 5 -0.007735 0.003797 -0.007154 0.000000 0.030042 0.000000
# 6 0.000000 0.000000 0.000000 -0.015067 0.000000 0.034092
#
#
# Mechanical properties :
#
#
# Convention : Reuss Voigt Hill
#
# Bulk Modulus (GPa) = 14.63862 16.27006 15.45434
# Shear Modulus (GPa) = 21.98739 29.60071 25.79405
#
# Velocity S-wave (km/s) = 3.36756 3.90732 3.64744
# Velocity P-wave (km/s) = 4.76138 5.36170 5.07043
#
# Compressibility (1/GPa) = 0.06831244
#
# Stress axis : x y z
#
# Youngs Moduli (GPa) = 48.96708 25.50801 57.74703
#
# Poissons Ratio (x) = 0.15325 -0.39154
# Poissons Ratio (y) = 0.29420 0.29376
# Poissons Ratio (z) = -0.33201 0.12976
#
# Static dielectric constant tensor:
#      x y z
#    x 1.645190 0.000000 -0.003860 
#    y 0.000000 1.658100 0.000000 
#    z -0.003860 0.000000 1.666290 
# 
# From -- ./inp_files/280950.got.cif
#   From: 2010.05.17/outbox.cif.g08.bks.cpg/sg12_141_cif.got.tgz:280950.got - 2010.06.03 13:09:07.
