data_PCOD9210849
_publ_section_title
;
Structure prediction by ZEFSAII (Michael W. Deem and Ramdas Pophale) SiO2 
 PCOD9210849
Probable space group: C 2/M
;
_chemical_formula_sum "Si O2"
_cell_formula_units_Z 40
_cell_length_a 26.921502
_cell_length_b 9.807971
_cell_length_c 20.810795
_cell_angle_alpha 90.000000
_cell_angle_beta 159.632202
_cell_angle_gamma 90.000000
_cell_volume 1912.505940
_symmetry_space_group_name_H-M "C 2/M"
_symmetry_group_IT_number 12
_symmetry_cell_setting 'monoclinic'
loop_
_space_group_symop_operation_xyz
x,y,z
-x,y,-z
-x,-y,-z
x,-y,z
1/2+x,1/2+y,z
1/2-x,1/2+y,-z
1/2-x,1/2-y,-z
1/2+x,1/2-y,z
loop_
_atom_site_type_symbol
_atom_site_label
_atom_site_fract_x
_atom_site_fract_y
_atom_site_fract_z
Si Si1 0.181133 0.842057 0.547715
Si Si2 0.576056 0.855491 0.758716
Si Si3 0.637377 0.152166 0.102162
Si Si4 0.667240 0.244855 0.002240
Si Si5 0.085125 0.840521 0.224546
O O1 0.260632 0.836948 0.713418
O O2 0.273424 0.750646 0.610032
O O3 0.029392 0.771449 0.373868
O O4 0.173802 0.000000 0.518888
O O5 0.639767 0.849535 0.907737
O O6 0.499770 0.000000 0.656436
O O7 0.705877 0.841778 0.866533
O O8 0.570471 0.000000 0.021097
O O9 0.709904 0.170205 0.120119
O O10 0.519529 0.270647 0.955164
O O11 0.515750 0.316939 0.835499
O O12 0.112280 0.000000 0.248233
#
# Coordination Sequence:
#
# PCOD9210849 Si02
#       5
#     8   8   8   8   8
#     4  11  24  39  61  92 127 157 198 249 298 356
#     4  11  23  42  64  89 121 160 202 250 299 354
#     4   9  20  40  63  88 119 161 202 243 296 357
#     4   9  23  41  65  87 118 156 205 246 299 356
#     4  10  21  39  64  92 120 156 200 250 301 356
#
# _framework density 20.914968999999999
#
# number of rings (size 3 to 8) (size 9 to 14) (size 15 to 20)
#    1.200    0.800    0.000    3.000    0.000   10.400 
#    0.000    3.000    0.000    0.000    0.000    0.000 
#    0.000    0.000    0.000    0.000    0.000    0.000 
#
# Total GULP energy -111437.937071 kJ/mol
# GULP energy per Si atom -5571.896854 kJ/mol
# Density = 2.086737 g / cm^3
# Si number density = 20.914969 Si / 1000 Ang^3
#
#
#
# Elastic Constant Matrix: (Units=GPa)
#
#
# Indices 1 2 3 4 5 6 
#
# 1 131.4143 42.4360 28.3307 0.0000 21.2866 0.0000
# 2 42.4360 182.3575 41.4254 0.0000 21.8404 0.0000
# 3 28.3307 41.4254 58.5418 0.0000 21.7891 0.0000
# 4 0.0000 0.0000 0.0000 26.6844 0.0000 10.7002
# 5 21.2866 21.8404 21.7891 0.0000 29.9724 0.0000
# 6 0.0000 0.0000 0.0000 10.7002 0.0000 -1.9316
#
#
#
# Elastic Compliance Matrix: (Units=1/GPa)
#
#
# Indices 1 2 3 4 5 6 
#
# 1 0.009093 -0.001157 -0.002045 0.000000 -0.004128 0.000000
# 2 -0.001157 0.006763 -0.003698 0.000000 -0.001418 0.000000
# 3 -0.002045 -0.003698 0.026246 0.000000 -0.014933 0.000000
# 4 0.000000 0.000000 0.000000 0.011633 0.000000 0.064444
# 5 -0.004128 -0.001418 -0.014933 0.000000 0.048185 0.000000
# 6 0.000000 0.000000 0.000000 0.064444 0.000000 -0.160712
#
#
# Mechanical properties :
#
#
# Convention : Reuss Voigt Hill
#
# Bulk Modulus (GPa) = 35.33354 66.29976 50.81665
# Shear Modulus (GPa) = -140.61463 28.28648 -56.16407
#
# Velocity S-wave (km/s) = -8.20838 3.68156 -5.18766
# Velocity P-wave (km/s) = 8.53851 7.05977 3.39601
#
# Compressibility (1/GPa) = 0.02830172
#
# Stress axis : x y z
#
# Youngs Moduli (GPa) = 109.97871 147.86721 38.10059
#
# Poissons Ratio (x) = 0.17107 0.07793
# Poissons Ratio (y) = 0.12724 0.14089
# Poissons Ratio (z) = 0.22494 0.54679
#
# Static dielectric constant tensor:
#      x y z
#    x 1.790640 0.000000 0.016680 
#    y 0.000000 1.741640 0.000000 
#    z 0.016680 0.000000 1.743860 
# 
# From -- ./inp_files/353114.got.cif
#   From: 2010.05.17/outbox.cif.g08.bks.cpg/sg12_177_cif.got.tgz:353114.got - 2010.06.03 13:09:07.
