data_PCOD9210508
_publ_section_title
;
Structure prediction by ZEFSAII (Michael W. Deem and Ramdas Pophale) SiO2 
 PCOD9210508
Probable space group: C 2/M
;
_chemical_formula_sum "Si O2"
_cell_formula_units_Z 50
_cell_length_a 28.342455
_cell_length_b 16.452008
_cell_length_c 9.869412
_cell_angle_alpha 90.000000
_cell_angle_beta 142.966551
_cell_angle_gamma 90.000000
_cell_volume 2771.704552
_symmetry_space_group_name_H-M "C 2/M"
_symmetry_group_IT_number 12
_symmetry_cell_setting 'monoclinic'
loop_
_space_group_symop_operation_xyz
x,y,z
-x,y,-z
-x,-y,-z
x,-y,z
1/2+x,1/2+y,z
1/2-x,1/2+y,-z
1/2-x,1/2-y,-z
1/2+x,1/2-y,z
loop_
_atom_site_type_symbol
_atom_site_label
_atom_site_fract_x
_atom_site_fract_y
_atom_site_fract_z
Si Si1 0.099946 0.774231 0.994862
Si Si2 0.120637 0.348348 0.287952
Si Si3 0.293392 0.595044 0.627503
Si Si4 0.200558 0.093826 0.683759
Si Si5 0.000000 0.500000 0.000000
Si Si6 0.918769 0.761272 0.542467
Si Si7 0.679927 0.795922 0.916272
O O1 0.105550 0.700647 0.114748
O O2 0.135666 0.852615 0.150459
O O3 0.151909 0.752652 0.983821
O O4 0.009861 0.782680 0.746399
O O5 0.212227 0.370953 0.501015
O O6 0.099178 0.289007 0.362395
O O7 0.067718 0.428331 0.168944
O O8 0.301582 0.500000 0.677482
O O9 0.289951 0.603804 0.456544
O O10 0.133163 0.156670 0.574393
O O11 0.182008 0.000000 0.669643
O O12 0.281065 0.120951 0.941757
O O13 0.890773 0.705375 0.352715
O O14 0.750000 0.750000 0.000000
#
# Coordination Sequence:
#
# PCOD9210508 Si02
#       7
#     8   8   8   8   2   8   8
#     4  12  22  40  65  90 124 170 205 260 319 376
#     4  12  22  41  62  91 127 163 211 260 320 369
#     4  11  22  36  63  94 125 160 213 258 306 375
#     4  10  21  39  62  92 124 164 208 258 309 375
#     4  12  24  40  64  98 130 162 206 288 312 358
#     4  11  23  40  62  91 127 167 206 257 319 382
#     4  10  22  41  61  86 121 165 211 252 310 371
#
# _framework density 18.039439999999999
#
# number of rings (size 3 to 8) (size 9 to 14) (size 15 to 20)
#    0.000    0.960    5.600    2.880    0.000    0.640 
#    1.440    6.400    0.000    6.720    0.000    0.000 
#    0.000    0.000    0.000    0.000    0.000    0.000 
#
# Total GULP energy -139337.806035 kJ/mol
# GULP energy per Si atom -5573.512241 kJ/mol
# Density = 1.799838 g / cm^3
# Si number density = 18.039440 Si / 1000 Ang^3
#
#
#
# Elastic Constant Matrix: (Units=GPa)
#
#
# Indices 1 2 3 4 5 6 
#
# 1 54.8582 54.6513 47.7230 0.0000 -11.4988 0.0000
# 2 54.6513 103.7158 53.9617 0.0000 18.3724 0.0000
# 3 47.7230 53.9617 130.6726 0.0000 19.4562 0.0000
# 4 0.0000 0.0000 0.0000 20.3695 0.0000 13.3907
# 5 -11.4988 18.3724 19.4562 0.0000 34.9861 0.0000
# 6 0.0000 0.0000 0.0000 13.3907 0.0000 18.8202
#
#
#
# Elastic Compliance Matrix: (Units=1/GPa)
#
#
# Indices 1 2 3 4 5 6 
#
# 1 0.192854 -0.101086 -0.050185 0.000000 0.144377 0.000000
# 2 -0.101086 0.065789 0.021632 0.000000 -0.079801 0.000000
# 3 -0.050185 0.021632 0.023109 0.000000 -0.040705 0.000000
# 4 0.000000 0.000000 0.000000 0.092235 0.000000 -0.065626
# 5 0.144377 -0.079801 -0.040705 0.000000 0.140577 0.000000
# 6 0.000000 0.000000 0.000000 -0.065626 0.000000 0.099828
#
#
# Mechanical properties :
#
#
# Convention : Reuss Voigt Hill
#
# Bulk Modulus (GPa) = 44.49847 66.87986 55.68917
# Shear Modulus (GPa) = 5.67433 23.69586 14.68510
#
# Velocity S-wave (km/s) = 1.77548 3.62824 2.85626
# Velocity P-wave (km/s) = 5.37810 7.39641 6.46649
#
# Compressibility (1/GPa) = 0.02247268
#
# Stress axis : x y z
#
# Youngs Moduli (GPa) = 5.18527 15.20020 43.27376
#
# Poissons Ratio (x) = 1.53652 2.17171
# Poissons Ratio (y) = 0.52416 -0.93609
# Poissons Ratio (z) = 0.26022 -0.32881
#
# Static dielectric constant tensor:
#      x y z
#    x 1.613780 0.000000 -0.001630 
#    y 0.000000 1.587190 0.000000 
#    z -0.001630 0.000000 1.636100 
# 
# From -- ./inp_files/75173.got.cif
#   From: 2010.05.17/outbox.cif.g08.bks.cpg/sg12_38_cif.got.tgz:75173.got - 2010.06.03 13:09:07.
