data_PCOD9210276
_publ_section_title
;
Structure prediction by ZEFSAII (Michael W. Deem and Ramdas Pophale) SiO2 
 PCOD9210276
Probable space group: C 2/M
;
_chemical_formula_sum "Si O2"
_cell_formula_units_Z 64
_cell_length_a 14.617106
_cell_length_b 8.190115
_cell_length_c 29.102688
_cell_angle_alpha 90.000000
_cell_angle_beta 130.380974
_cell_angle_gamma 90.000000
_cell_volume 2653.987965
_symmetry_space_group_name_H-M "C 2/M"
_symmetry_group_IT_number 12
_symmetry_cell_setting 'monoclinic'
loop_
_space_group_symop_operation_xyz
x,y,z
-x,y,-z
-x,-y,-z
x,-y,z
1/2+x,1/2+y,z
1/2-x,1/2+y,-z
1/2-x,1/2-y,-z
1/2+x,1/2-y,z
loop_
_atom_site_type_symbol
_atom_site_label
_atom_site_fract_x
_atom_site_fract_y
_atom_site_fract_z
Si Si1 0.864930 0.814048 0.476255
Si Si2 0.973584 0.689698 0.704750
Si Si3 0.567681 0.809750 0.974875
Si Si4 0.728819 0.810085 0.903825
Si Si5 0.741411 0.199877 0.806226
Si Si6 0.978935 0.192493 0.605964
Si Si7 0.224315 0.684829 0.645084
Si Si8 0.984706 0.810893 0.851309
O O1 0.797756 0.705557 0.417028
O O2 0.000000 0.825402 0.500000
O O3 0.890040 0.753537 0.535886
O O4 0.816565 0.000000 0.460573
O O5 0.976376 0.500000 0.717902
O O6 0.862974 0.767435 0.696157
O O7 0.107256 0.760765 0.754380
O O8 0.954369 0.710330 0.644054
O O9 0.527331 0.704994 0.918406
O O10 0.544545 0.000000 0.956717
O O11 0.500000 0.763340 0.000000
O O12 0.706063 0.787634 0.034817
O O13 0.773337 0.752645 0.868619
O O14 0.585609 0.787924 0.857359
O O15 0.757633 0.000000 0.919405
O O16 0.847727 0.251316 0.806941
O O17 0.740005 0.000000 0.804080
O O18 0.117628 0.215416 0.634818
O O19 0.958965 0.000000 0.606908
O O20 0.205875 0.500000 0.653874
O O21 0.988145 0.000000 0.838350
#
# Coordination Sequence:
#
# PCOD9210276 Si02
#       8
#     8   8   8   8   8   8   8   8
#     4   8  16  33  57  84 117 154 192 239 294 352
#     4  11  23  41  62  86 117 155 202 250 297 350
#     4  11  22  37  60  92 124 154 192 236 287 345
#     4  11  22  40  63  89 119 155 195 236 290 347
#     4   9  22  42  62  83 114 154 198 245 294 345
#     4  10  21  39  61  88 120 155 196 243 298 356
#     4  11  22  37  59  89 121 156 197 241 296 357
#     4  11  22  40  63  89 119 154 194 238 292 347
#
# _framework density 24.114652
#
# number of rings (size 3 to 8) (size 9 to 14) (size 15 to 20)
#    0.000    1.750    1.250    4.125    0.000    4.750 
#    0.000    7.500    0.000    0.000    0.000    0.000 
#    0.000    0.000    0.000    0.000    0.000    0.000 
#
# Total GULP energy -178963.588779 kJ/mol
# GULP energy per Si atom -5592.612149 kJ/mol
# Density = 2.405977 g / cm^3
# Si number density = 24.114652 Si / 1000 Ang^3
#
#
#
# Elastic Constant Matrix: (Units=GPa)
#
#
# Indices 1 2 3 4 5 6 
#
# 1 98.6396 -8.2094 25.8746 0.0000 21.7469 0.0000
# 2 -8.2094 41.4239 -4.5863 0.0000 4.4283 0.0000
# 3 25.8746 -4.5863 33.7713 0.0000 14.7074 0.0000
# 4 0.0000 0.0000 0.0000 16.5962 0.0000 4.2813
# 5 21.7469 4.4283 14.7074 0.0000 44.4924 0.0000
# 6 0.0000 0.0000 0.0000 4.2813 0.0000 25.2062
#
#
#
# Elastic Compliance Matrix: (Units=1/GPa)
#
#
# Indices 1 2 3 4 5 6 
#
# 1 0.013355 0.002173 -0.008177 0.000000 -0.004041 0.000000
# 2 0.002173 0.025532 0.003939 0.000000 -0.004905 0.000000
# 3 -0.008177 0.003939 0.040700 0.000000 -0.009849 0.000000
# 4 0.000000 0.000000 0.000000 0.063016 0.000000 -0.010703
# 5 -0.004041 -0.004905 -0.009849 0.000000 0.028195 0.000000
# 6 0.000000 0.000000 0.000000 -0.010703 0.000000 0.041491
#
#
# Mechanical properties :
#
#
# Convention : Reuss Voigt Hill
#
# Bulk Modulus (GPa) = 13.25277 22.22142 17.73709
# Shear Modulus (GPa) = 20.69793 27.97604 24.33698
#
# Velocity S-wave (km/s) = 2.93288 3.40976 3.18027
# Velocity P-wave (km/s) = 4.12028 4.97361 4.56692
#
# Compressibility (1/GPa) = 0.07545593
#
# Stress axis : x y z
#
# Youngs Moduli (GPa) = 74.88052 39.16689 24.56992
#
# Poissons Ratio (x) = -0.08512 0.20091
# Poissons Ratio (y) = -0.16273 -0.09677
# Poissons Ratio (z) = 0.61230 -0.15426
#
# Static dielectric constant tensor:
#      x y z
#    x 1.972610 0.000000 0.034390 
#    y 0.000000 1.816540 0.000000 
#    z 0.034390 0.000000 1.979950 
# 
# From -- ./inp_files/375648.got.cif
#   From: 2010.05.17/outbox.cif.g08.bks.cpg/sg12_188_cif.got.tgz:375648.got - 2010.06.03 13:09:07.
