data_PCOD9210468
_publ_section_title
;
Structure prediction by ZEFSAII (Michael W. Deem and Ramdas Pophale) SiO2 
 PCOD9210468
Probable space group: C 2/M
;
_chemical_formula_sum "Si O2"
_cell_formula_units_Z 56
_cell_length_a 9.472779
_cell_length_b 23.945669
_cell_length_c 13.954080
_cell_angle_alpha 90.000000
_cell_angle_beta 117.311182
_cell_angle_gamma 90.000000
_cell_volume 2812.396589
_symmetry_space_group_name_H-M "C 2/M"
_symmetry_group_IT_number 12
_symmetry_cell_setting 'monoclinic'
loop_
_space_group_symop_operation_xyz
x,y,z
-x,y,-z
-x,-y,-z
x,-y,z
1/2+x,1/2+y,z
1/2-x,1/2+y,-z
1/2-x,1/2-y,-z
1/2+x,1/2-y,z
loop_
_atom_site_type_symbol
_atom_site_label
_atom_site_fract_x
_atom_site_fract_y
_atom_site_fract_z
Si Si1 0.888821 0.277722 0.604884
Si Si2 0.202655 0.566894 0.946590
Si Si3 0.670493 0.368223 0.833311
Si Si4 0.504351 0.098123 0.396246
Si Si5 0.230482 0.240846 0.755031
Si Si6 0.681747 0.368312 0.196324
Si Si7 0.352837 0.062725 0.752199
O O1 0.750000 0.250000 0.500000
O O2 0.920180 0.339873 0.577040
O O3 0.844095 0.277718 0.703563
O O4 0.055105 0.244999 0.653560
O O5 0.229837 0.500000 0.958999
O O6 0.310520 0.597185 0.899932
O O7 0.020154 0.575934 0.857179
O O8 0.237154 0.596929 0.057176
O O9 0.724174 0.304192 0.837689
O O10 0.486219 0.371708 0.803282
O O11 0.717803 0.396128 0.747168
O O12 0.500000 0.072882 0.500000
O O13 0.324527 0.106263 0.303683
O O14 0.603927 0.066974 0.345901
O O15 0.277318 0.302760 0.804524
O O16 0.307178 0.000000 0.763689
#
# Coordination Sequence:
#
# PCOD9210468 Si02
#       7
#     8   8   8   8   8   8   8
#     4  11  20  37  60  90 119 165 206 248 299 369
#     4  10  23  43  67  90 116 162 212 250 307 370
#     4  12  22  38  62  91 126 159 203 262 299 358
#     4  10  21  39  62  90 122 162 204 248 304 374
#     4  11  22  37  57  91 129 158 201 249 309 365
#     4  10  23  40  60  91 127 160 204 251 303 368
#     4  10  22  42  65  90 120 157 206 261 308 364
#
# _framework density 19.911843000000001
#
# number of rings (size 3 to 8) (size 9 to 14) (size 15 to 20)
#    0.000    1.429    2.857    3.429    0.000    3.714 
#    0.000    2.143    0.000    0.857    0.000    0.000 
#    0.000    0.000    0.000    0.000    0.000    0.000 
#
# Total GULP energy -156437.828799 kJ/mol
# GULP energy per Si atom -5587.065314 kJ/mol
# Density = 1.986652 g / cm^3
# Si number density = 19.911843 Si / 1000 Ang^3
#
#
#
# Elastic Constant Matrix: (Units=GPa)
#
#
# Indices 1 2 3 4 5 6 
#
# 1 120.0640 40.3393 21.8834 0.0000 -17.7726 0.0000
# 2 40.3393 81.6682 26.6979 0.0000 -5.5010 0.0000
# 3 21.8834 26.6979 61.1559 0.0000 -16.6732 0.0000
# 4 0.0000 0.0000 0.0000 10.2789 0.0000 1.1839
# 5 -17.7726 -5.5010 -16.6732 0.0000 24.3240 0.0000
# 6 0.0000 0.0000 0.0000 1.1839 0.0000 17.9788
#
#
#
# Elastic Compliance Matrix: (Units=1/GPa)
#
#
# Indices 1 2 3 4 5 6 
#
# 1 0.011029 -0.005029 0.000167 0.000000 0.007036 0.000000
# 2 -0.005029 0.016608 -0.006676 0.000000 -0.004495 0.000000
# 3 0.000167 -0.006676 0.023155 0.000000 0.014484 0.000000
# 4 0.000000 0.000000 0.000000 0.098030 0.000000 -0.006455
# 5 0.007036 -0.004495 0.014484 0.000000 0.055164 0.000000
# 6 0.000000 0.000000 0.000000 -0.006455 0.000000 0.056046
#
#
# Mechanical properties :
#
#
# Convention : Reuss Voigt Hill
#
# Bulk Modulus (GPa) = 36.07910 48.96992 42.52451
# Shear Modulus (GPa) = 17.10282 22.11417 19.60850
#
# Velocity S-wave (km/s) = 2.93393 3.33619 3.14150
# Velocity P-wave (km/s) = 5.44389 6.28386 5.87890
#
# Compressibility (1/GPa) = 0.02771688
#
# Stress axis : x y z
#
# Youngs Moduli (GPa) = 90.66613 60.21087 43.18631
#
# Poissons Ratio (x) = 0.30277 -0.00720
# Poissons Ratio (y) = 0.45592 0.28833
# Poissons Ratio (z) = -0.01512 0.40200
#
# Static dielectric constant tensor:
#      x y z
#    x 1.696920 0.000000 -0.020890 
#    y 0.000000 1.689390 0.000000 
#    z -0.020890 0.000000 1.706400 
# 
# From -- ./inp_files/198979.got.cif
#   From: 2010.05.17/outbox.cif.g08.bks.cpg/sg12_100_cif.got.tgz:198979.got - 2010.06.03 13:09:07.
