data_PCOD9210562
_publ_section_title
;
Structure prediction by ZEFSAII (Michael W. Deem and Ramdas Pophale) SiO2 
 PCOD9210562
Probable space group: C 2/M
;
_chemical_formula_sum "Si O2"
_cell_formula_units_Z 52
_cell_length_a 14.631930
_cell_length_b 9.248274
_cell_length_c 24.031486
_cell_angle_alpha 90.000000
_cell_angle_beta 136.438960
_cell_angle_gamma 90.000000
_cell_volume 2241.001624
_symmetry_space_group_name_H-M "C 2/M"
_symmetry_group_IT_number 12
_symmetry_cell_setting 'monoclinic'
loop_
_space_group_symop_operation_xyz
x,y,z
-x,y,-z
-x,-y,-z
x,-y,z
1/2+x,1/2+y,z
1/2-x,1/2+y,-z
1/2-x,1/2-y,-z
1/2+x,1/2-y,z
loop_
_atom_site_type_symbol
_atom_site_label
_atom_site_fract_x
_atom_site_fract_y
_atom_site_fract_z
Si Si1 0.025632 0.665099 0.790103
Si Si2 0.842458 0.169958 0.422889
Si Si3 0.546667 0.779239 0.922998
Si Si4 0.377379 0.168491 0.327545
Si Si5 0.283838 0.500000 0.031809
Si Si6 0.700698 0.664920 0.137754
Si Si7 0.610483 0.327166 0.368790
O O1 0.007123 0.500000 0.759824
O O2 0.988869 0.667979 0.837958
O O3 0.183315 0.695949 0.855155
O O4 0.953938 0.779829 0.719133
O O5 0.755133 0.254642 0.429661
O O6 0.000000 0.183012 0.500000
O O7 0.816514 0.245342 0.352221
O O8 0.808151 0.000000 0.407891
O O9 0.607328 0.624074 0.936510
O O10 0.425100 0.765997 0.911864
O O11 0.668416 0.878213 0.992677
O O12 0.279843 0.170194 0.231479
O O13 0.511659 0.250784 0.368576
O O14 0.401932 0.000000 0.352757
O O15 0.658000 0.500000 0.108362
O O16 0.614296 0.500000 0.377414
#
# Coordination Sequence:
#
# PCOD9210562 Si02
#       7
#     8   8   8   8   4   8   8
#     4  10  21  39  63  87 113 155 201 245 303 358
#     4  11  24  41  62  90 125 167 208 246 298 360
#     4  11  20  41  57  84 116 158 192 250 293 360
#     4  10  21  40  64  92 123 158 204 257 306 356
#     4  10  24  36  58  82 120 156 196 232 306 362
#     4   9  19  37  62  85 111 151 196 239 295 355
#     4  11  23  39  62  93 125 158 201 255 307 359
#
# _framework density 23.203908999999999
#
# number of rings (size 3 to 8) (size 9 to 14) (size 15 to 20)
#    0.000    1.692    1.538    4.154    1.077    3.077 
#    6.923    4.615    0.000    0.000    0.000    0.000 
#    0.000    0.000    0.000    0.000    0.000    0.000 
#
# Total GULP energy -144921.721530 kJ/mol
# GULP energy per Si atom -5573.912367 kJ/mol
# Density = 2.315110 g / cm^3
# Si number density = 23.203909 Si / 1000 Ang^3
#
#
#
# Elastic Constant Matrix: (Units=GPa)
#
#
# Indices 1 2 3 4 5 6 
#
# 1 97.7587 15.2186 17.9818 0.0000 29.7209 0.0000
# 2 15.2186 169.5246 22.2138 0.0000 20.5020 0.0000
# 3 17.9818 22.2138 52.8742 0.0000 14.0972 0.0000
# 4 0.0000 0.0000 0.0000 72.8455 0.0000 -3.8862
# 5 29.7209 20.5020 14.0972 0.0000 47.0263 0.0000
# 6 0.0000 0.0000 0.0000 -3.8862 0.0000 24.6880
#
#
#
# Elastic Compliance Matrix: (Units=1/GPa)
#
#
# Indices 1 2 3 4 5 6 
#
# 1 0.012940 0.000061 -0.002433 0.000000 -0.007475 0.000000
# 2 0.000061 0.006440 -0.002139 0.000000 -0.002205 0.000000
# 3 -0.002433 -0.002139 0.021716 0.000000 -0.004040 0.000000
# 4 0.000000 0.000000 0.000000 0.013844 0.000000 0.002179
# 5 -0.007475 -0.002205 -0.004040 0.000000 0.028162 0.000000
# 6 0.000000 0.000000 0.000000 0.002179 0.000000 0.040849
#
#
# Mechanical properties :
#
#
# Convention : Reuss Voigt Hill
#
# Bulk Modulus (GPa) = 31.17710 47.88731 39.53221
# Shear Modulus (GPa) = 34.80361 46.56153 40.68257
#
# Velocity S-wave (km/s) = 3.87706 4.48440 4.19174
# Velocity P-wave (km/s) = 5.78856 6.89170 6.36408
#
# Compressibility (1/GPa) = 0.03207482
#
# Stress axis : x y z
#
# Youngs Moduli (GPa) = 77.27951 155.27240 46.04929
#
# Poissons Ratio (x) = -0.00951 0.11206
# Poissons Ratio (y) = -0.00474 0.09848
# Poissons Ratio (z) = 0.18805 0.33206
#
# Static dielectric constant tensor:
#      x y z
#    x 1.869980 0.000000 -0.027310 
#    y 0.000000 1.835380 0.000000 
#    z -0.027310 0.000000 1.925310 
# 
# From -- ./inp_files/375298.got.cif
#   From: 2010.05.17/outbox.cif.g08.bks.cpg/sg12_188_cif.got.tgz:375298.got - 2010.06.03 13:09:07.
