data_PCOD9210192
_publ_section_title
;
Structure prediction by ZEFSAII (Michael W. Deem and Ramdas Pophale) SiO2 
 PCOD9210192
Probable space group: C 2/M
;
_chemical_formula_sum "Si O2"
_cell_formula_units_Z 56
_cell_length_a 12.442092
_cell_length_b 17.735698
_cell_length_c 17.464553
_cell_angle_alpha 90.000000
_cell_angle_beta 131.988898
_cell_angle_gamma 90.000000
_cell_volume 2864.497066
_symmetry_space_group_name_H-M "C 2/M"
_symmetry_group_IT_number 12
_symmetry_cell_setting 'monoclinic'
loop_
_space_group_symop_operation_xyz
x,y,z
-x,y,-z
-x,-y,-z
x,-y,z
1/2+x,1/2+y,z
1/2-x,1/2+y,-z
1/2-x,1/2-y,-z
1/2+x,1/2-y,z
loop_
_atom_site_type_symbol
_atom_site_label
_atom_site_fract_x
_atom_site_fract_y
_atom_site_fract_z
Si Si1 0.051208 0.080273 0.114257
Si Si2 0.670851 0.084655 0.071253
Si Si3 0.691473 0.323038 0.728905
Si Si4 0.669027 0.846274 0.767643
Si Si5 0.208348 0.831780 0.005138
Si Si6 0.931237 0.916142 0.552585
Si Si7 0.356106 0.908784 0.667807
O O1 0.218745 0.092747 0.212409
O O2 0.004696 0.000000 0.125865
O O3 0.000000 0.075568 0.000000
O O4 0.957299 0.151090 0.095050
O O5 0.744706 0.145352 0.161440
O O6 0.718132 0.000000 0.113801
O O7 0.500000 0.089065 0.000000
O O8 0.704982 0.105097 0.000139
O O9 0.677960 0.232493 0.726041
O O10 0.530193 0.356631 0.642814
O O11 0.792530 0.360654 0.709992
O O12 0.749662 0.833999 0.886896
O O13 0.510074 0.877506 0.711843
O O14 0.250000 0.750000 0.000000
O O15 0.763799 0.899553 0.456394
O O16 0.000000 0.919212 0.500000
O O17 0.946505 0.000000 0.593659
O O18 0.362668 0.000000 0.688782
#
# Coordination Sequence:
#
# PCOD9210192 Si02
#       7
#     8   8   8   8   8   8   8
#     4   9  20  37  55  73 101 148 195 224 264 331
#     4  11  23  35  54  82 112 148 191 233 274 333
#     4  11  21  34  57  86 116 147 185 239 292 341
#     4  11  23  34  58  83 114 148 187 237 285 330
#     4  11  22  36  53  74 114 153 182 225 279 334
#     4   8  16  34  58  81 111 148 185 231 288 348
#     4  10  21  39  61  84 113 149 191 237 288 345
#
# _framework density 19.549679000000001
#
# number of rings (size 3 to 8) (size 9 to 14) (size 15 to 20)
#    0.000    1.857    1.429    3.857    4.000    3.429 
#    0.000    0.000    0.000    0.000    0.000    0.000 
#    0.000   17.143    0.000    0.000    0.000    0.000 
#
# Total GULP energy -155959.029153 kJ/mol
# GULP energy per Si atom -5569.965327 kJ/mol
# Density = 1.950518 g / cm^3
# Si number density = 19.549679 Si / 1000 Ang^3
#
#
#
# Elastic Constant Matrix: (Units=GPa)
#
#
# Indices 1 2 3 4 5 6 
#
# 1 70.8682 41.0461 20.5792 0.0000 29.8679 0.0000
# 2 41.0461 125.7889 39.9939 0.0000 22.1743 0.0000
# 3 20.5792 39.9939 60.6427 0.0000 24.8986 0.0000
# 4 0.0000 0.0000 0.0000 95.1897 0.0000 -12.1428
# 5 29.8679 22.1743 24.8986 0.0000 32.9969 0.0000
# 6 0.0000 0.0000 0.0000 -12.1428 0.0000 26.4388
#
#
#
# Elastic Compliance Matrix: (Units=1/GPa)
#
#
# Indices 1 2 3 4 5 6 
#
# 1 0.025792 -0.005809 0.004435 0.000000 -0.022789 0.000000
# 2 -0.005809 0.011517 -0.006672 0.000000 0.002554 0.000000
# 3 0.004435 -0.006672 0.027808 0.000000 -0.020514 0.000000
# 4 0.000000 0.000000 0.000000 0.011159 0.000000 0.005125
# 5 -0.022789 0.002554 -0.020514 0.000000 0.064697 0.000000
# 6 0.000000 0.000000 0.000000 0.005125 0.000000 0.040177
#
#
# Mechanical properties :
#
#
# Convention : Reuss Voigt Hill
#
# Bulk Modulus (GPa) = 20.39805 51.17090 35.78448
# Shear Modulus (GPa) = 23.41001 41.30379 32.35690
#
# Velocity S-wave (km/s) = 3.46419 4.60146 4.07272
# Velocity P-wave (km/s) = 5.14368 7.37990 6.36083
#
# Compressibility (1/GPa) = 0.04902429
#
# Stress axis : x y z
#
# Youngs Moduli (GPa) = 38.77171 86.83070 35.96093
#
# Poissons Ratio (x) = 0.50440 -0.15950
# Poissons Ratio (y) = 0.22523 0.23995
# Poissons Ratio (z) = -0.17196 0.57937
#
# Static dielectric constant tensor:
#      x y z
#    x 1.812320 0.000000 -0.000650 
#    y 0.000000 2.402180 0.000000 
#    z -0.000650 0.000000 1.679340 
# 
# From -- ./inp_files/264325.got.cif
#   From: 2010.05.17/outbox.cif.g08.bks.cpg/sg12_133_cif.got.tgz:264325.got - 2010.06.03 13:09:07.
