data_PCOD9210126
_publ_section_title
;
Structure prediction by ZEFSAII (Michael W. Deem and Ramdas Pophale) SiO2 
 PCOD9210126
Probable space group: C 2/M
;
_chemical_formula_sum "Si O2"
_cell_formula_units_Z 64
_cell_length_a 15.417311
_cell_length_b 25.722923
_cell_length_c 17.734748
_cell_angle_alpha 90.000000
_cell_angle_beta 151.072114
_cell_angle_gamma 90.000000
_cell_volume 3402.025911
_symmetry_space_group_name_H-M "C 2/M"
_symmetry_group_IT_number 12
_symmetry_cell_setting 'monoclinic'
loop_
_space_group_symop_operation_xyz
x,y,z
-x,y,-z
-x,-y,-z
x,-y,z
1/2+x,1/2+y,z
1/2-x,1/2+y,-z
1/2-x,1/2-y,-z
1/2+x,1/2-y,z
loop_
_atom_site_type_symbol
_atom_site_label
_atom_site_fract_x
_atom_site_fract_y
_atom_site_fract_z
Si Si1 0.989492 0.858464 0.314581
Si Si2 0.509296 0.058649 0.685893
Si Si3 0.130346 0.940218 0.309246
Si Si4 0.155951 0.219448 0.181582
Si Si5 0.688498 0.605402 0.187520
Si Si6 0.120806 0.649133 0.313635
Si Si7 0.951758 0.239956 0.180461
Si Si8 0.316503 0.165067 0.812777
O O1 0.003193 0.903627 0.262626
O O2 0.180897 0.854528 0.500960
O O3 0.953670 0.804266 0.244624
O O4 0.834070 0.866457 0.257457
O O5 0.324636 0.060922 0.497748
O O6 0.670053 0.072398 0.751988
O O7 0.494075 0.102391 0.738481
O O8 0.529002 0.000000 0.730467
O O9 0.154499 0.917743 0.244099
O O10 0.069743 0.000000 0.260266
O O11 0.256653 0.165153 0.247038
O O12 0.252079 0.274899 0.246388
O O13 0.065053 0.220157 0.194681
O O14 0.000000 0.220033 0.000000
O O15 0.500000 0.606247 0.000000
O O16 0.137896 0.646601 0.236438
O O17 0.034581 0.704931 0.268195
O O18 0.750000 0.250000 0.000000
O O19 0.500000 0.165387 0.000000
#
# Coordination Sequence:
#
# PCOD9210126 Si02
#       8
#     8   8   8   8   8   8   8   8
#     4  11  21  38  60  87 117 149 197 247 287 344
#     4  10  23  41  61  82 115 159 197 238 291 345
#     4  10  22  42  60  82 117 157 198 238 288 346
#     4   9  19  34  50  84 117 151 189 223 280 348
#     4  11  22  35  57  87 120 152 195 241 287 338
#     4  10  23  38  59  88 114 150 198 247 290 340
#     4  11  21  35  59  84 118 159 193 234 295 352
#     4  10  21  39  60  85 119 157 188 233 300 357
#
# _framework density 18.81232
#
# number of rings (size 3 to 8) (size 9 to 14) (size 15 to 20)
#    0.000    1.750    1.250    3.750    5.250    3.000 
#    0.000    1.875    0.000    3.750    0.000    0.000 
#    0.000    0.000    0.000    0.000    0.000    0.000 
#
# Total GULP energy -178740.901321 kJ/mol
# GULP energy per Si atom -5585.653166 kJ/mol
# Density = 1.876950 g / cm^3
# Si number density = 18.812320 Si / 1000 Ang^3
#
#
#
# Elastic Constant Matrix: (Units=GPa)
#
#
# Indices 1 2 3 4 5 6 
#
# 1 99.1193 60.5751 13.0540 0.0000 -14.8737 0.0000
# 2 60.5751 124.2651 22.0943 0.0000 -9.3103 0.0000
# 3 13.0540 22.0943 32.5739 -0.0001 -3.5367 0.0000
# 4 0.0000 0.0000 -0.0001 8.3705 0.0000 1.3468
# 5 -14.8737 -9.3103 -3.5367 0.0000 32.8799 0.0000
# 6 0.0000 0.0000 0.0000 1.3468 0.0000 29.8463
#
#
#
# Elastic Compliance Matrix: (Units=1/GPa)
#
#
# Indices 1 2 3 4 5 6 
#
# 1 0.015112 -0.006849 -0.000889 0.000000 0.004801 0.000000
# 2 -0.006849 0.012379 -0.005674 0.000000 -0.000203 0.000000
# 3 -0.000889 -0.005674 0.035096 0.000000 0.001766 0.000000
# 4 0.000000 0.000000 0.000000 0.120341 0.000000 -0.005430
# 5 0.004801 -0.000203 0.001766 0.000000 0.032718 0.000000
# 6 0.000000 0.000000 0.000000 -0.005430 0.000000 0.033750
#
#
# Mechanical properties :
#
#
# Convention : Reuss Voigt Hill
#
# Bulk Modulus (GPa) = 27.96191 49.71169 38.83680
# Shear Modulus (GPa) = 17.35254 24.90167 21.12710
#
# Velocity S-wave (km/s) = 3.04040 3.64220 3.35482
# Velocity P-wave (km/s) = 5.21740 6.64605 5.97458
#
# Compressibility (1/GPa) = 0.03576293
#
# Stress axis : x y z
#
# Youngs Moduli (GPa) = 66.17301 80.77888 28.49301
#
# Poissons Ratio (x) = 0.55323 0.02534
# Poissons Ratio (y) = 0.45320 0.16168
# Poissons Ratio (z) = 0.05886 0.45836
#
# Static dielectric constant tensor:
#      x y z
#    x 1.632310 0.000000 -0.003530 
#    y 0.000000 1.660070 0.000000 
#    z -0.003530 0.000000 1.634730 
# 
# From -- ./inp_files/65879.got.cif
#   From: 2010.05.17/outbox.cif.g08.bks.cpg/sg12_33_cif.got.tgz:65879.got - 2010.06.03 13:09:07.
