data_PCOD9210574
_publ_section_title
;
Structure prediction by ZEFSAII (Michael W. Deem and Ramdas Pophale) SiO2 
 PCOD9210574
Probable space group: C 2/M
;
_chemical_formula_sum "Si O2"
_cell_formula_units_Z 48
_cell_length_a 18.513677
_cell_length_b 14.709793
_cell_length_c 17.918702
_cell_angle_alpha 90.000000
_cell_angle_beta 148.171511
_cell_angle_gamma 90.000000
_cell_volume 2573.523053
_symmetry_space_group_name_H-M "C 2/M"
_symmetry_group_IT_number 12
_symmetry_cell_setting 'monoclinic'
loop_
_space_group_symop_operation_xyz
x,y,z
-x,y,-z
-x,-y,-z
x,-y,z
1/2+x,1/2+y,z
1/2-x,1/2+y,-z
1/2-x,1/2-y,-z
1/2+x,1/2-y,z
loop_
_atom_site_type_symbol
_atom_site_label
_atom_site_fract_x
_atom_site_fract_y
_atom_site_fract_z
Si Si1 0.962356 0.733723 0.156810
Si Si2 0.288981 0.891793 0.593921
Si Si3 0.830241 0.892507 0.667921
Si Si4 0.845480 0.391955 0.338660
Si Si5 0.299735 0.754014 0.166050
Si Si6 0.003562 0.106689 0.592015
O O1 0.881338 0.717766 0.162843
O O2 0.086069 0.662633 0.261592
O O3 0.034860 0.832162 0.221651
O O4 0.853053 0.730147 0.994504
O O5 0.270138 0.870367 0.489505
O O6 0.144496 0.867085 0.504927
O O7 0.308673 0.000000 0.619131
O O8 0.754642 0.874468 0.679442
O O9 0.860806 0.000000 0.689514
O O10 0.842162 0.500000 0.319378
O O11 0.804425 0.333161 0.231435
O O12 0.000000 0.369006 0.500000
O O13 0.379299 0.668283 0.270030
O O14 0.000000 0.117767 0.500000
O O15 0.024879 0.000000 0.627903
#
# Coordination Sequence:
#
# PCOD9210574 Si02
#       6
#     8   8   8   8   8   8
#     4  11  24  38  58  91 120 158 197 237 298 356
#     4  10  21  39  63  88 115 153 202 249 292 348
#     4  10  21  39  64  89 118 156 200 247 295 352
#     4  10  22  39  62  92 121 156 200 245 297 354
#     4  11  24  39  59  87 125 158 191 242 300 356
#     4  10  22  40  62  86 113 154 202 246 294 347
#
# _framework density 18.651474
#
# number of rings (size 3 to 8) (size 9 to 14) (size 15 to 20)
#    0.000    1.667    1.667    2.000    4.667    4.000 
#    0.000    5.000    0.000    3.000    0.000    0.000 
#    0.000    0.000    0.000    0.000    0.000    0.000 
#
# Total GULP energy -134152.745425 kJ/mol
# GULP energy per Si atom -5589.697726 kJ/mol
# Density = 1.860902 g / cm^3
# Si number density = 18.651474 Si / 1000 Ang^3
#
#
#
# Elastic Constant Matrix: (Units=GPa)
#
#
# Indices 1 2 3 4 5 6 
#
# 1 100.7540 50.2332 56.7996 0.0001 -11.8541 0.0000
# 2 50.2332 73.2101 78.1021 0.0001 -3.4179 0.0000
# 3 56.7996 78.1021 170.2455 0.0001 -5.2698 0.0001
# 4 0.0001 0.0001 0.0001 -6.8199 0.0001 -1.1755
# 5 -11.8541 -3.4179 -5.2698 0.0001 22.5970 0.0000
# 6 0.0000 0.0000 0.0001 -1.1755 0.0000 29.8691
#
#
#
# Elastic Compliance Matrix: (Units=1/GPa)
#
#
# Indices 1 2 3 4 5 6 
#
# 1 0.016081 -0.010219 -0.000467 0.000000 0.006781 0.000000
# 2 -0.010219 0.033278 -0.011954 0.000000 -0.003115 0.000000
# 3 -0.000467 -0.011954 0.011533 0.000000 0.000637 0.000000
# 4 0.000000 0.000000 0.000000 -0.145641 0.000001 -0.005732
# 5 0.006781 -0.003115 0.000637 0.000001 0.047488 0.000000
# 6 0.000000 0.000000 0.000000 -0.005732 0.000000 0.033254
#
#
# Mechanical properties :
#
#
# Convention : Reuss Voigt Hill
#
# Bulk Modulus (GPa) = 64.05035 79.38659 71.71847
# Shear Modulus (GPa) = 107.57493 19.73422 63.65457
#
# Velocity S-wave (km/s) = 7.60273 3.25630 5.84829
# Velocity P-wave (km/s) = 10.55860 7.53615 9.17272
#
# Compressibility (1/GPa) = 0.01561272
#
# Stress axis : x y z
#
# Youngs Moduli (GPa) = 62.18342 30.04957 86.70508
#
# Poissons Ratio (x) = 0.30709 0.04051
# Poissons Ratio (y) = 0.63547 1.03645
# Poissons Ratio (z) = 0.02905 0.35920
#
# Static dielectric constant tensor:
#      x y z
#    x 1.643810 0.000000 -0.000040 
#    y 0.000000 1.648240 0.000000 
#    z -0.000040 0.000000 1.605700 
# 
# From -- ./inp_files/105040.got.cif
#   From: 2010.05.17/outbox.cif.g08.bks.cpg/sg12_53_cif.got.tgz:105040.got - 2010.06.03 13:09:07.
