data_PCOD9210168
_publ_section_title
;
Structure prediction by ZEFSAII (Michael W. Deem and Ramdas Pophale) SiO2 
 PCOD9210168
Probable space group: C 2/M
;
_chemical_formula_sum "Si O2"
_cell_formula_units_Z 48
_cell_length_a 13.547100
_cell_length_b 18.749228
_cell_length_c 9.885187
_cell_angle_alpha 90.000000
_cell_angle_beta 113.270080
_cell_angle_gamma 90.000000
_cell_volume 2306.566736
_symmetry_space_group_name_H-M "C 2/M"
_symmetry_group_IT_number 12
_symmetry_cell_setting 'monoclinic'
loop_
_space_group_symop_operation_xyz
x,y,z
-x,y,-z
-x,-y,-z
x,-y,z
1/2+x,1/2+y,z
1/2-x,1/2+y,-z
1/2-x,1/2-y,-z
1/2+x,1/2-y,z
loop_
_atom_site_type_symbol
_atom_site_label
_atom_site_fract_x
_atom_site_fract_y
_atom_site_fract_z
Si Si1 0.312526 0.841523 0.743651
Si Si2 0.724476 0.787780 0.844480
Si Si3 0.741157 0.582328 0.969489
Si Si4 0.600883 0.655051 0.460763
Si Si5 0.993126 0.083488 0.843812
Si Si6 0.016563 0.690454 0.365643
O O1 0.291451 0.758490 0.773804
O O2 0.308002 0.885349 0.880834
O O3 0.212236 0.862605 0.593990
O O4 0.421490 0.849727 0.719053
O O5 0.598659 0.781396 0.744988
O O6 0.750000 0.750000 0.000000
O O7 0.746123 0.870397 0.888308
O O8 0.765744 0.500000 0.006784
O O9 0.615983 0.588378 0.859226
O O10 0.500000 0.631873 0.500000
O O11 0.583287 0.621300 0.304221
O O12 0.588655 0.740326 0.439325
O O13 0.963337 0.000000 0.838509
O O14 0.000000 0.113770 0.000000
O O15 0.000000 0.651201 0.500000
#
# Coordination Sequence:
#
# PCOD9210168 Si02
#       6
#     8   8   8   8   8   8
#     4  11  22  39  63  93 122 161 206 260 312 370
#     4  10  21  39  60  92 121 159 206 255 311 364
#     4  10  22  40  60  87 124 163 209 254 308 375
#     4  11  19  37  62  91 120 160 200 252 314 371
#     4  10  22  37  57  90 129 165 203 251 312 383
#     4  11  23  38  59  91 121 154 205 264 311 365
#
# _framework density 20.81015
#
# number of rings (size 3 to 8) (size 9 to 14) (size 15 to 20)
#    0.000    1.500    5.000    1.500    2.333    3.667 
#    0.000    1.667    0.000    2.000    0.000    0.000 
#    0.000    0.000    0.000    0.000    0.000    0.000 
#
# Total GULP energy -134013.637221 kJ/mol
# GULP energy per Si atom -5583.901551 kJ/mol
# Density = 2.076278 g / cm^3
# Si number density = 20.810150 Si / 1000 Ang^3
#
#
#
# Elastic Constant Matrix: (Units=GPa)
#
#
# Indices 1 2 3 4 5 6 
#
# 1 69.1598 12.6156 24.6230 0.0000 -30.2173 0.0000
# 2 12.6156 81.8793 23.8358 0.0000 -15.4567 0.0000
# 3 24.6230 23.8358 112.5879 0.0000 -22.2603 0.0000
# 4 0.0000 0.0000 0.0000 24.2800 0.0000 -2.7292
# 5 -30.2173 -15.4567 -22.2603 0.0000 34.5593 0.0000
# 6 0.0000 0.0000 0.0000 -2.7292 0.0000 16.6676
#
#
#
# Elastic Compliance Matrix: (Units=1/GPa)
#
#
# Indices 1 2 3 4 5 6 
#
# 1 0.023567 0.000526 -0.001312 0.000000 0.019996 0.000000
# 2 0.000526 0.013709 -0.001964 0.000000 0.005326 0.000000
# 3 -0.001312 -0.001964 0.010525 0.000000 0.004753 0.000000
# 4 0.000000 0.000000 0.000000 0.041958 0.000000 0.006870
# 5 0.019996 0.005326 0.004753 0.000000 0.051864 0.000000
# 6 0.000000 0.000000 0.000000 0.006870 0.000000 0.061122
#
#
# Mechanical properties :
#
#
# Convention : Reuss Voigt Hill
#
# Bulk Modulus (GPa) = 23.64073 42.86398 33.25235
# Shear Modulus (GPa) = 22.48747 28.60489 25.54618
#
# Velocity S-wave (km/s) = 3.29082 3.71153 3.50749
# Velocity P-wave (km/s) = 5.08175 6.24577 5.69358
#
# Compressibility (1/GPa) = 0.04229988
#
# Stress axis : x y z
#
# Youngs Moduli (GPa) = 42.43172 72.94305 95.01596
#
# Poissons Ratio (x) = -0.03834 0.12465
# Poissons Ratio (y) = -0.02230 0.18664
# Poissons Ratio (z) = 0.05566 0.14328
#
# Static dielectric constant tensor:
#      x y z
#    x 1.791610 0.000000 -0.051870 
#    y 0.000000 1.766870 0.000000 
#    z -0.051870 0.000000 1.777980 
# 
# From -- ./inp_files/63581.got.cif
#   From: 2010.05.17/outbox.cif.g08.bks.cpg/sg12_32_cif.got.tgz:63581.got - 2010.06.03 13:09:07.
