data_PCOD9210873
_publ_section_title
;
Structure prediction by ZEFSAII (Michael W. Deem and Ramdas Pophale) SiO2 
 PCOD9210873
Probable space group: C 2/M
;
_chemical_formula_sum "Si O2"
_cell_formula_units_Z 52
_cell_length_a 8.796273
_cell_length_b 21.357726
_cell_length_c 17.266057
_cell_angle_alpha 90.000000
_cell_angle_beta 48.721026
_cell_angle_gamma 90.000000
_cell_volume 2437.695738
_symmetry_space_group_name_H-M "C 2/M"
_symmetry_group_IT_number 12
_symmetry_cell_setting 'monoclinic'
loop_
_space_group_symop_operation_xyz
x,y,z
-x,y,-z
-x,-y,-z
x,-y,z
1/2+x,1/2+y,z
1/2-x,1/2+y,-z
1/2-x,1/2-y,-z
1/2+x,1/2-y,z
loop_
_atom_site_type_symbol
_atom_site_label
_atom_site_fract_x
_atom_site_fract_y
_atom_site_fract_z
Si Si1 0.235565 0.929792 0.946846
Si Si2 0.975420 0.816021 0.318952
Si Si3 0.719481 0.069119 0.387557
Si Si4 0.859126 0.828431 0.904248
Si Si5 0.000000 0.766419 0.000000
Si Si6 0.482526 0.925981 0.707521
Si Si7 0.280751 0.310693 0.615252
O O1 0.370553 0.913140 0.826799
O O2 0.290560 0.000000 0.951160
O O3 0.252683 0.884674 0.014359
O O4 0.000000 0.930336 0.000000
O O5 0.836532 0.874680 0.389400
O O6 0.850755 0.751044 0.360352
O O7 0.042250 0.837393 0.211303
O O8 0.164587 0.809166 0.312149
O O9 0.500000 0.066517 0.500000
O O10 0.673072 0.080231 0.312063
O O11 0.815946 0.000000 0.363648
O O12 0.018028 0.805831 0.915589
O O13 0.696542 0.774764 0.943791
O O14 0.657362 0.874195 0.639040
O O15 0.546883 0.000000 0.685367
O O16 0.500000 0.308152 0.500000
#
# Coordination Sequence:
#
# PCOD9210873 Si02
#       7
#     8   8   8   8   4   8   8
#     4  10  21  39  64  92 126 167 210 256 308 373
#     4  12  25  39  65  97 127 168 212 267 318 383
#     4  10  21  40  65  92 126 166 213 265 316 378
#     4  11  23  39  61  89 123 163 204 255 303 377
#     4  10  24  38  58  86 124 158 200 248 306 360
#     4  10  23  42  66  94 129 173 217 261 322 388
#     4  12  26  44  67  94 131 169 214 272 327 383
#
# _framework density 21.331620000000001
#
# number of rings (size 3 to 8) (size 9 to 14) (size 15 to 20)
#    0.000    1.231    0.769    4.615    6.462    2.769 
#    0.000    0.385    0.000    0.000    0.000    0.000 
#    0.000    0.000    0.000    0.000    0.000    0.000 
#
# Total GULP energy -145254.746390 kJ/mol
# GULP energy per Si atom -5586.721015 kJ/mol
# Density = 2.128307 g / cm^3
# Si number density = 21.331620 Si / 1000 Ang^3
#
#
#
# Elastic Constant Matrix: (Units=GPa)
#
#
# Indices 1 2 3 4 5 6 
#
# 1 66.9334 42.4633 -11.9000 0.0000 8.4249 0.0000
# 2 42.4633 135.3998 11.5278 0.0000 -4.4067 0.0000
# 3 -11.9000 11.5278 74.7355 0.0000 19.5971 0.0000
# 4 0.0000 0.0000 0.0000 44.8939 0.0000 1.7765
# 5 8.4249 -4.4067 19.5971 0.0000 25.7998 0.0000
# 6 0.0000 0.0000 0.0000 1.7765 0.0000 40.0029
#
#
#
# Elastic Compliance Matrix: (Units=1/GPa)
#
#
# Indices 1 2 3 4 5 6 
#
# 1 0.024594 -0.009099 0.009781 0.000000 -0.017015 0.000000
# 2 -0.009099 0.011003 -0.005517 0.000000 0.009041 0.000000
# 3 0.009781 -0.005517 0.021070 0.000000 -0.020141 0.000000
# 4 0.000000 0.000000 0.000000 0.022314 0.000000 -0.000991
# 5 -0.017015 0.009041 -0.020141 0.000000 0.061159 0.000000
# 6 0.000000 0.000000 0.000000 -0.000991 0.000000 0.025042
#
#
# Mechanical properties :
#
#
# Convention : Reuss Voigt Hill
#
# Bulk Modulus (GPa) = 21.27801 40.13897 30.70849
# Shear Modulus (GPa) = 26.24415 37.80448 32.02432
#
# Velocity S-wave (km/s) = 3.51136 4.21435 3.87881
# Velocity P-wave (km/s) = 5.14160 6.52215 5.87259
#
# Compressibility (1/GPa) = 0.04699687
#
# Stress axis : x y z
#
# Youngs Moduli (GPa) = 40.66085 90.88244 47.46013
#
# Poissons Ratio (x) = 0.82698 -0.46422
# Poissons Ratio (y) = 0.36999 0.26184
# Poissons Ratio (z) = -0.39771 0.50139
#
# Static dielectric constant tensor:
#      x y z
#    x 1.757600 0.000000 -0.022650 
#    y 0.000000 1.815790 0.000000 
#    z -0.022650 0.000000 2.126660 
# 
# From -- ./inp_files/258444.got.cif
#   From: 2010.05.17/outbox.cif.g08.bks.cpg/sg12_130_cif.got.tgz:258444.got - 2010.06.03 13:09:07.
