data_PCOD9210461
_publ_section_title
;
Structure prediction by ZEFSAII (Michael W. Deem and Ramdas Pophale) SiO2 
 PCOD9210461
Probable space group: C 2/M
;
_chemical_formula_sum "Si O2"
_cell_formula_units_Z 40
_cell_length_a 17.029579
_cell_length_b 10.479584
_cell_length_c 12.830011
_cell_angle_alpha 90.000000
_cell_angle_beta 111.477416
_cell_angle_gamma 90.000000
_cell_volume 2130.690049
_symmetry_space_group_name_H-M "C 2/M"
_symmetry_group_IT_number 12
_symmetry_cell_setting 'monoclinic'
loop_
_space_group_symop_operation_xyz
x,y,z
-x,y,-z
-x,-y,-z
x,-y,z
1/2+x,1/2+y,z
1/2-x,1/2+y,-z
1/2-x,1/2-y,-z
1/2+x,1/2-y,z
loop_
_atom_site_type_symbol
_atom_site_label
_atom_site_fract_x
_atom_site_fract_y
_atom_site_fract_z
Si Si1 0.615774 0.500000 0.568024
Si Si2 0.693410 0.000000 0.054013
Si Si3 0.312743 0.000000 0.701387
Si Si4 0.557062 0.500000 0.300698
Si Si5 0.109782 0.000000 0.905449
Si Si6 0.565544 0.783690 0.938282
Si Si7 0.000000 0.222841 0.500000
Si Si8 0.436846 0.783746 0.694298
O O1 0.714576 0.500000 0.626779
O O2 0.584827 0.500000 0.433579
O O3 0.572592 0.630780 0.584236
O O4 0.679487 0.000000 0.170816
O O5 0.793022 0.000000 0.080638
O O6 0.646103 0.125074 0.987486
O O7 0.360843 0.122139 0.679958
O O8 0.458055 0.500000 0.222359
O O9 0.587981 0.639460 0.281418
O O10 0.090173 0.866372 0.953758
O O11 0.516539 0.814036 0.806848
O O12 0.500000 0.811089 0.000000
O O13 0.038256 0.289937 0.416228
#
# Coordination Sequence:
#
# PCOD9210461 Si02
#       8
#     4   4   4   4   4   8   4   8
#     4   9  20  37  63  86 114 160 201 243 286 364
#     4  12  24  39  57  92 124 159 194 244 297 363
#     4  12  24  35  60  91 126 154 196 245 308 340
#     4   8  19  39  63  83 111 155 204 238 285 348
#     4  10  23  38  64  88 119 152 205 249 291 345
#     4  11  21  41  63  87 121 160 197 242 296 354
#     4   9  20  39  64  86 114 160 208 236 294 352
#     4  10  21  39  62  90 118 161 196 248 290 361
#
# _framework density 18.773261000000002
#
# number of rings (size 3 to 8) (size 9 to 14) (size 15 to 20)
#    0.000    1.800    2.000    2.400    8.400    3.600 
#    0.000    0.000    0.000    3.600    0.000    0.000 
#    0.000    0.000    0.000    0.000    0.000    0.000 
#
# Total GULP energy -111457.665201 kJ/mol
# GULP energy per Si atom -5572.883260 kJ/mol
# Density = 1.873053 g / cm^3
# Si number density = 18.773261 Si / 1000 Ang^3
#
#
#
# Elastic Constant Matrix: (Units=GPa)
#
#
# Indices 1 2 3 4 5 6 
#
# 1 106.8281 53.5637 28.3977 0.0000 13.8633 0.0000
# 2 53.5637 92.6306 27.5059 0.0000 23.2583 0.0000
# 3 28.3977 27.5059 75.6785 0.0000 1.8985 0.0000
# 4 0.0000 0.0000 0.0000 25.6833 0.0000 -1.0693
# 5 13.8633 23.2583 1.8985 0.0000 27.7073 0.0000
# 6 0.0000 0.0000 0.0000 -1.0693 0.0000 22.6667
#
#
#
# Elastic Compliance Matrix: (Units=1/GPa)
#
#
# Indices 1 2 3 4 5 6 
#
# 1 0.013613 -0.006892 -0.002582 0.000000 -0.000849 0.000000
# 2 -0.006892 0.019061 -0.004034 0.000000 -0.012275 0.000000
# 3 -0.002582 -0.004034 0.015558 0.000000 0.003612 0.000000
# 4 0.000000 0.000000 0.000000 0.039012 0.000000 0.001840
# 5 -0.000849 -0.012275 0.003612 0.000000 0.046573 0.000000
# 6 0.000000 0.000000 0.000000 0.001840 0.000000 0.044204
#
#
# Mechanical properties :
#
#
# Convention : Reuss Voigt Hill
#
# Bulk Modulus (GPa) = 47.13242 54.89688 51.01465
# Shear Modulus (GPa) = 23.57277 26.25611 24.91444
#
# Velocity S-wave (km/s) = 3.54737 3.74383 3.64692
# Velocity P-wave (km/s) = 6.47604 6.92776 6.70571
#
# Compressibility (1/GPa) = 0.02121682
#
# Stress axis : x y z
#
# Youngs Moduli (GPa) = 73.45960 52.46392 64.27504
#
# Poissons Ratio (x) = 0.36157 0.16596
# Poissons Ratio (y) = 0.50627 0.25927
# Poissons Ratio (z) = 0.18967 0.21163
#
# Static dielectric constant tensor:
#      x y z
#    x 1.627580 0.000000 -0.027790 
#    y 0.000000 1.705360 0.000000 
#    z -0.027790 0.000000 1.657990 
# 
# From -- ./inp_files/140911.got.cif
#   From: 2010.05.17/outbox.cif.g08.bks.cpg/sg12_71_cif.got.tgz:140911.got - 2010.06.03 13:09:07.
