data_PCOD9210039
_publ_section_title
;
Structure prediction by ZEFSAII (Michael W. Deem and Ramdas Pophale) SiO2 
 PCOD9210039
Probable space group: C 2/M
;
_chemical_formula_sum "Si O2"
_cell_formula_units_Z 64
_cell_length_a 19.701454
_cell_length_b 8.497189
_cell_length_c 31.495175
_cell_angle_alpha 90.000000
_cell_angle_beta 38.252025
_cell_angle_gamma 90.000000
_cell_volume 3264.326662
_symmetry_space_group_name_H-M "C 2/M"
_symmetry_group_IT_number 12
_symmetry_cell_setting 'monoclinic'
loop_
_space_group_symop_operation_xyz
x,y,z
-x,y,-z
-x,-y,-z
x,-y,z
1/2+x,1/2+y,z
1/2-x,1/2+y,-z
1/2-x,1/2-y,-z
1/2+x,1/2-y,z
loop_
_atom_site_type_symbol
_atom_site_label
_atom_site_fract_x
_atom_site_fract_y
_atom_site_fract_z
Si Si1 0.502242 0.312391 0.208644
Si Si2 0.713034 0.809455 0.564318
Si Si3 0.280833 0.184801 0.288761
Si Si4 0.873534 0.812057 0.938758
Si Si5 0.761057 0.815163 0.206958
Si Si6 0.625052 0.691927 0.439203
Si Si7 0.973264 0.312805 0.060591
Si Si8 0.970292 0.690031 0.714501
O O1 0.482384 0.500000 0.216592
O O2 0.389487 0.216526 0.262281
O O3 0.571041 0.265876 0.133299
O O4 0.553764 0.266743 0.228128
O O5 0.750000 0.750000 0.500000
O O6 0.799771 0.757018 0.558004
O O7 0.588926 0.759432 0.637945
O O8 0.713442 0.000000 0.563546
O O9 0.291427 0.280079 0.240455
O O10 0.181486 0.236922 0.367273
O O11 0.270614 0.000000 0.283922
O O12 0.946295 0.753920 0.942598
O O13 0.871649 0.000000 0.941133
O O14 0.750000 0.750000 0.000000
O O15 0.848846 0.727839 0.134511
O O16 0.634458 0.768734 0.262725
O O17 0.771275 0.000000 0.193115
O O18 0.500000 0.746316 0.500000
O O19 0.625128 0.500000 0.440505
O O20 0.987441 0.500000 0.053778
O O21 0.000000 0.253472 0.000000
O O22 0.974210 0.500000 0.716949
#
# Coordination Sequence:
#
# PCOD9210039 Si02
#       8
#     8   8   8   8   8   8   8   8
#     4  11  23  40  64  92 122 155 204 260 304 357
#     4  10  21  39  59  84 122 159 200 249 304 366
#     4  11  21  38  65  89 119 162 205 250 309 366
#     4  11  25  43  65  94 127 164 205 253 307 362
#     4  11  24  41  62  91 124 159 205 254 305 363
#     4   9  19  36  59  87 119 156 202 252 300 360
#     4  11  25  44  65  91 126 163 204 252 305 366
#     4  10  23  42  62  87 123 166 204 250 310 369
#
# _framework density 19.605881
#
# number of rings (size 3 to 8) (size 9 to 14) (size 15 to 20)
#    0.000    1.500    2.500    1.875    3.500    4.000 
#    0.000    0.000    0.000    1.875    0.000    0.000 
#    0.000    0.000    0.000    0.000    0.000    0.000 
#
# Total GULP energy -178746.606240 kJ/mol
# GULP energy per Si atom -5585.831445 kJ/mol
# Density = 1.956126 g / cm^3
# Si number density = 19.605881 Si / 1000 Ang^3
#
#
#
# Elastic Constant Matrix: (Units=GPa)
#
#
# Indices 1 2 3 4 5 6 
#
# 1 56.2363 0.9131 10.8731 -0.0023 -1.8551 0.0260
# 2 0.9131 14.4038 12.8657 -0.0052 -1.8526 0.0010
# 3 10.8731 12.8657 111.8167 -0.0014 -1.9100 -0.0008
# 4 -0.0023 -0.0052 -0.0014 26.6916 -0.0018 2.7332
# 5 -1.8551 -1.8526 -1.9100 -0.0018 39.1836 -0.0005
# 6 0.0260 0.0010 -0.0008 2.7332 -0.0005 20.6696
#
#
#
# Elastic Compliance Matrix: (Units=1/GPa)
#
#
# Indices 1 2 3 4 5 6 
#
# 1 0.018151 0.000575 -0.001818 0.000004 0.000798 -0.000023
# 2 0.000575 0.077807 -0.008953 0.000016 0.003270 -0.000007
# 3 -0.001818 -0.008953 0.010150 -0.000002 -0.000015 0.000003
# 4 0.000004 0.000016 -0.000002 0.037979 0.000003 -0.005022
# 5 0.000798 0.003270 -0.000015 0.000003 0.025713 -0.000001
# 6 -0.000023 -0.000007 0.000003 -0.005022 -0.000001 0.049044
#
#
# Mechanical properties :
#
#
# Convention : Reuss Voigt Hill
#
# Bulk Modulus (GPa) = 11.66618 25.75117 18.70867
# Shear Modulus (GPa) = 18.67026 27.82927 23.24977
#
# Velocity S-wave (km/s) = 3.08925 3.77163 3.44736
# Velocity P-wave (km/s) = 4.32295 5.66832 5.04072
#
# Compressibility (1/GPa) = 0.08571790
#
# Stress axis : x y z
#
# Youngs Moduli (GPa) = 55.09482 12.85231 98.52420
#
# Poissons Ratio (x) = -0.00740 0.17907
# Poissons Ratio (y) = -0.03170 0.88205
# Poissons Ratio (z) = 0.10014 0.11506
#
# Static dielectric constant tensor:
#      x y z
#    x 1.653100 0.000000 -0.008890 
#    y 0.000000 1.666420 0.000000 
#    z -0.008890 0.000000 1.685360 
# 
# From -- ./inp_files/378103.got.cif
#   From: 2010.05.17/outbox.cif.g08.bks.cpg/sg12_190_cif.got.tgz:378103.got - 2010.06.03 13:09:07.
