data_PCOD9210304
_publ_section_title
;
Structure prediction by ZEFSAII (Michael W. Deem and Ramdas Pophale) SiO2 
 PCOD9210304
Probable space group: C 2/M
;
_chemical_formula_sum "Si O2"
_cell_formula_units_Z 64
_cell_length_a 18.199109
_cell_length_b 20.685277
_cell_length_c 15.902062
_cell_angle_alpha 90.000000
_cell_angle_beta 147.722079
_cell_angle_gamma 90.000000
_cell_volume 3196.890704
_symmetry_space_group_name_H-M "C 2/M"
_symmetry_group_IT_number 12
_symmetry_cell_setting 'monoclinic'
loop_
_space_group_symop_operation_xyz
x,y,z
-x,y,-z
-x,-y,-z
x,-y,z
1/2+x,1/2+y,z
1/2-x,1/2+y,-z
1/2-x,1/2-y,-z
1/2+x,1/2-y,z
loop_
_atom_site_type_symbol
_atom_site_label
_atom_site_fract_x
_atom_site_fract_y
_atom_site_fract_z
Si Si1 0.033966 0.160274 0.130392
Si Si2 0.845056 0.624469 0.847208
Si Si3 0.798354 0.920324 0.459779
Si Si4 0.714382 0.816898 0.516140
Si Si5 0.393500 0.818446 0.204315
Si Si6 0.389103 0.426602 0.255474
Si Si7 0.162527 0.274061 0.028344
Si Si8 0.182007 0.072593 0.009501
O O1 0.187956 0.174777 0.308273
O O2 0.941289 0.215011 0.084575
O O3 0.965491 0.094195 0.096836
O O4 0.000000 0.163452 0.000000
O O5 0.791073 0.607961 0.703167
O O6 0.728288 0.599378 0.797692
O O7 0.856174 0.696570 0.897210
O O8 0.000000 0.597096 0.000000
O O9 0.749314 0.879865 0.493066
O O10 0.956527 0.899565 0.594338
O O11 0.789373 0.000000 0.457852
O O12 0.750000 0.750000 0.500000
O O13 0.552913 0.817290 0.380346
O O14 0.314650 0.753585 0.158462
O O15 0.302750 0.877823 0.151145
O O16 0.378221 0.820987 0.087687
O O17 0.408330 0.500000 0.301385
O O18 0.337708 0.424764 0.110082
O O19 0.216194 0.000000 0.067656
#
# Coordination Sequence:
#
# PCOD9210304 Si02
#       8
#     8   8   8   8   8   8   8   8
#     4  11  24  43  68  95 133 170 218 284 336 397
#     4  12  24  38  62  96 136 176 218 276 331 393
#     4  11  26  44  63  95 140 182 224 274 334 410
#     4  12  25  41  69 102 134 174 229 282 338 397
#     4  10  21  40  65  95 127 175 224 280 329 393
#     4  10  21  40  61  87 130 178 220 261 319 403
#     4  10  21  39  61  89 136 175 220 268 332 401
#     4  10  21  42  69  94 124 176 224 266 342 414
#
# _framework density 20.019452999999999
#
# number of rings (size 3 to 8) (size 9 to 14) (size 15 to 20)
#    0.000    1.250    3.750    1.875    3.500    2.750 
#    0.000    2.500    0.000    0.750    0.000    0.000 
#    0.000    0.000    0.000    0.000    0.000    0.000 
#
# Total GULP energy -178475.605641 kJ/mol
# GULP energy per Si atom -5577.362676 kJ/mol
# Density = 1.997389 g / cm^3
# Si number density = 20.019453 Si / 1000 Ang^3
#
#
#
# Elastic Constant Matrix: (Units=GPa)
#
#
# Indices 1 2 3 4 5 6 
#
# 1 52.6946 8.4308 52.8504 0.0000 10.8492 0.0000
# 2 8.4308 55.4732 31.6868 0.0000 -1.5147 0.0000
# 3 52.8504 31.6868 152.3895 0.0000 31.0345 0.0000
# 4 0.0000 0.0000 0.0000 14.1934 0.0000 1.3439
# 5 10.8492 -1.5147 31.0345 0.0000 42.7910 0.0000
# 6 0.0000 0.0000 0.0000 1.3439 0.0000 17.0182
#
#
#
# Elastic Compliance Matrix: (Units=1/GPa)
#
#
# Indices 1 2 3 4 5 6 
#
# 1 0.029215 0.001574 -0.010516 0.000000 0.000275 0.000000
# 2 0.001574 0.021297 -0.005921 0.000000 0.004649 0.000000
# 3 -0.010516 -0.005921 0.012836 0.000000 -0.006853 0.000000
# 4 0.000000 0.000000 0.000000 0.070986 0.000000 -0.005606
# 5 0.000275 0.004649 -0.006853 0.000000 0.028434 0.000000
# 6 0.000000 0.000000 0.000000 -0.005606 0.000000 0.059203
#
#
# Mechanical properties :
#
#
# Convention : Reuss Voigt Hill
#
# Bulk Modulus (GPa) = 29.74171 49.61034 39.67602
# Shear Modulus (GPa) = 19.01835 25.97314 22.49574
#
# Velocity S-wave (km/s) = 3.08554 3.60584 3.35579
# Velocity P-wave (km/s) = 5.25193 6.49392 5.90566
#
# Compressibility (1/GPa) = 0.03362281
#
# Stress axis : x y z
#
# Youngs Moduli (GPa) = 34.22844 46.95602 77.90746
#
# Poissons Ratio (x) = -0.07390 0.81924
# Poissons Ratio (y) = -0.05387 0.46128
# Poissons Ratio (z) = 0.35993 0.27802
#
# Static dielectric constant tensor:
#      x y z
#    x 1.738240 0.000000 0.002480 
#    y 0.000000 1.789990 0.000000 
#    z 0.002480 0.000000 1.729910 
# 
# From -- ./inp_files/228153.got.cif
#   From: 2010.05.17/outbox.cif.g08.bks.cpg/sg12_115_cif.got.tgz:228153.got - 2010.06.03 13:09:07.
