data_PCOD9210328
_publ_section_title
;
Structure prediction by ZEFSAII (Michael W. Deem and Ramdas Pophale) SiO2 
 PCOD9210328
Probable space group: C 2/M
;
_chemical_formula_sum "Si O2"
_cell_formula_units_Z 58
_cell_length_a 9.075768
_cell_length_b 17.388603
_cell_length_c 22.060741
_cell_angle_alpha 90.000000
_cell_angle_beta 123.595803
_cell_angle_gamma 90.000000
_cell_volume 2899.968268
_symmetry_space_group_name_H-M "C 2/M"
_symmetry_group_IT_number 12
_symmetry_cell_setting 'monoclinic'
loop_
_space_group_symop_operation_xyz
x,y,z
-x,y,-z
-x,-y,-z
x,-y,z
1/2+x,1/2+y,z
1/2-x,1/2+y,-z
1/2-x,1/2-y,-z
1/2+x,1/2-y,z
loop_
_atom_site_type_symbol
_atom_site_label
_atom_site_fract_x
_atom_site_fract_y
_atom_site_fract_z
Si Si1 0.879247 0.338531 0.722757
Si Si2 0.244610 0.676704 0.738383
Si Si3 0.458321 0.646286 0.901537
Si Si4 0.763382 0.413779 0.807139
Si Si5 0.951591 0.906967 0.420382
Si Si6 0.000000 0.000000 0.000000
Si Si7 0.628333 0.588711 0.341810
Si Si8 0.686763 0.794983 0.072772
O O1 0.816812 0.261701 0.742658
O O2 0.896188 0.399797 0.781144
O O3 0.728354 0.368017 0.642962
O O4 0.054852 0.322137 0.725961
O O5 0.372649 0.634908 0.815738
O O6 0.247097 0.635926 0.673972
O O7 0.333539 0.707301 0.908715
O O8 0.646506 0.688546 0.932525
O O9 0.481705 0.568467 0.943657
O O10 0.783572 0.500000 0.836268
O O11 0.568393 0.406834 0.732817
O O12 0.787865 0.350200 0.863643
O O13 0.000000 0.887768 0.500000
O O14 0.099838 0.884539 0.404294
O O15 0.932073 0.000000 0.411175
O O16 0.682987 0.500000 0.354681
O O17 0.500000 0.815390 0.000000
#
# Coordination Sequence:
#
# PCOD9210328 Si02
#       8
#     8   8   8   8   8   2   8   8
#     4  11  22  38  62  98 126 169 223 272 320 396
#     4  12  23  39  66  91 127 169 221 275 331 384
#     4  12  27  49  68  96 131 181 222 282 348 412
#     4  10  21  39  61  93 126 162 218 273 324 391
#     4   9  19  40  67  95 136 177 208 260 325 388
#     4  12  32  48  70  96 142 172 232 280 368 408
#     4   9  19  37  62  91 126 167 215 264 322 389
#     4  12  25  44  70  92 129 172 219 275 345 413
#
# _framework density 20.000218
#
# number of rings (size 3 to 8) (size 9 to 14) (size 15 to 20)
#    0.000    1.241    3.448    4.138    1.931    1.379 
#    2.483    3.448    0.000    2.483    0.000    0.000 
#    0.000    0.000    0.000    0.000    0.000    0.000 
#
# Total GULP energy -161819.167824 kJ/mol
# GULP energy per Si atom -5579.971304 kJ/mol
# Density = 1.995470 g / cm^3
# Si number density = 20.000218 Si / 1000 Ang^3
#
#
#
# Elastic Constant Matrix: (Units=GPa)
#
#
# Indices 1 2 3 4 5 6 
#
# 1 122.6035 46.3572 25.5594 0.0000 -17.5940 0.0000
# 2 46.3572 114.4939 35.6462 0.0000 -22.0514 0.0000
# 3 25.5594 35.6462 97.0366 0.0000 -28.4020 0.0000
# 4 0.0000 0.0000 0.0000 21.0029 0.0000 -13.6431
# 5 -17.5940 -22.0514 -28.4020 0.0000 24.2961 0.0000
# 6 0.0000 0.0000 0.0000 -13.6431 0.0000 22.8719
#
#
#
# Elastic Compliance Matrix: (Units=1/GPa)
#
#
# Indices 1 2 3 4 5 6 
#
# 1 0.009996 -0.003185 -0.000289 0.000000 0.004010 0.000000
# 2 -0.003185 0.011773 -0.001571 0.000000 0.006542 0.000000
# 3 -0.000289 -0.001571 0.015931 0.000000 0.016988 0.000000
# 4 0.000000 0.000000 0.000000 0.077732 0.000000 0.046367
# 5 0.004010 0.006542 0.016988 0.000000 0.069859 0.000000
# 6 0.000000 0.000000 0.000000 0.046367 0.000000 0.071380
#
#
# Mechanical properties :
#
#
# Convention : Reuss Voigt Hill
#
# Bulk Modulus (GPa) = 36.21946 61.02884 48.62415
# Shear Modulus (GPa) = 18.11828 28.73894 23.42861
#
# Velocity S-wave (km/s) = 3.01309 3.79480 3.42631
# Velocity P-wave (km/s) = 5.50035 7.05557 6.32593
#
# Compressibility (1/GPa) = 0.02760946
#
# Stress axis : x y z
#
# Youngs Moduli (GPa) = 100.03595 84.94162 62.77121
#
# Poissons Ratio (x) = 0.27054 0.01816
# Poissons Ratio (y) = 0.31862 0.09861
# Poissons Ratio (z) = 0.02895 0.13343
#
# Static dielectric constant tensor:
#      x y z
#    x 1.731770 0.000000 -0.008380 
#    y 0.000000 1.711240 0.000000 
#    z -0.008380 0.000000 1.711640 
# 
# From -- ./inp_files/301154.got.cif
#   From: 2010.05.17/outbox.cif.g08.bks.cpg/sg12_151_cif.got.tgz:301154.got - 2010.06.03 13:09:07.
