data_PCOD9210195
_publ_section_title
;
Structure prediction by ZEFSAII (Michael W. Deem and Ramdas Pophale) SiO2 
 PCOD9210195
Probable space group: C 2/M
;
_chemical_formula_sum "Si O2"
_cell_formula_units_Z 56
_cell_length_a 33.323673
_cell_length_b 7.438820
_cell_length_c 21.866524
_cell_angle_alpha 90.000000
_cell_angle_beta 27.125670
_cell_angle_gamma 90.000000
_cell_volume 2471.427555
_symmetry_space_group_name_H-M "C 2/M"
_symmetry_group_IT_number 12
_symmetry_cell_setting 'monoclinic'
loop_
_space_group_symop_operation_xyz
x,y,z
-x,y,-z
-x,-y,-z
x,-y,z
1/2+x,1/2+y,z
1/2-x,1/2+y,-z
1/2-x,1/2-y,-z
1/2+x,1/2-y,z
loop_
_atom_site_type_symbol
_atom_site_label
_atom_site_fract_x
_atom_site_fract_y
_atom_site_fract_z
Si Si1 0.463521 0.721097 0.851276
Si Si2 0.961937 0.781589 0.459002
Si Si3 0.362484 0.282204 0.716919
Si Si4 0.703446 0.213537 0.627938
Si Si5 0.994095 0.204855 0.075824
Si Si6 0.304833 0.697795 0.986097
Si Si7 0.378294 0.719116 0.446612
O O1 0.460001 0.500000 0.857829
O O2 0.457120 0.782811 0.930383
O O3 0.558105 0.772518 0.695214
O O4 0.389118 0.786254 0.904385
O O5 0.901086 0.730305 0.598811
O O6 0.922811 0.719417 0.448646
O O7 0.061919 0.726806 0.337327
O O8 0.963155 0.000000 0.457100
O O9 0.354537 0.500000 0.729505
O O10 0.269746 0.201889 0.860654
O O11 0.750000 0.250000 0.500000
O O12 0.608606 0.298339 0.766133
O O13 0.777947 0.276231 0.574575
O O14 0.690872 0.000000 0.651108
O O15 0.027283 0.000000 0.024394
O O16 0.000000 0.288205 0.000000
O O17 0.337859 0.500000 0.925272
O O18 0.250000 0.750000 0.000000
O O19 0.377624 0.500000 0.447709
#
# Coordination Sequence:
#
# PCOD9210195 Si02
#       7
#     8   8   8   8   8   8   8
#     4   9  18  34  55  78 106 146 186 222 272 338
#     4   8  15  29  52  78 101 138 180 215 260 324
#     4   9  17  32  53  76 105 136 176 222 264 314
#     4  11  21  35  58  83 111 145 186 234 282 332
#     4  10  21  39  61  84 114 152 192 234 286 345
#     4  11  22  35  54  77 106 143 182 221 270 327
#     4   9  16  29  53  79 103 136 183 224 265 324
#
# _framework density 22.65897
#
# number of rings (size 3 to 8) (size 9 to 14) (size 15 to 20)
#    0.000    2.429    1.429    2.571    0.000    3.714 
#    0.000    2.857    0.000    1.714    0.000    0.000 
#    0.000    0.000    0.000    0.000    0.000    0.000 
#
# Total GULP energy -156263.393468 kJ/mol
# GULP energy per Si atom -5580.835481 kJ/mol
# Density = 2.260740 g / cm^3
# Si number density = 22.658970 Si / 1000 Ang^3
#
#
#
# Elastic Constant Matrix: (Units=GPa)
#
#
# Indices 1 2 3 4 5 6 
#
# 1 164.9572 5.1924 21.2595 -0.0079 -1.0382 0.0002
# 2 5.1924 71.7168 -11.4770 -0.0196 -0.6353 -0.0034
# 3 21.2595 -11.4770 68.1278 -0.0489 -8.9801 0.0048
# 4 -0.0079 -0.0196 -0.0489 15.1344 0.0051 -1.6775
# 5 -1.0382 -0.6353 -8.9801 0.0051 29.3416 -0.0010
# 6 0.0002 -0.0034 0.0048 -1.6775 -0.0010 4.5433
#
#
#
# Elastic Compliance Matrix: (Units=1/GPa)
#
#
# Indices 1 2 3 4 5 6 
#
# 1 0.006366 -0.000815 -0.002185 -0.000005 -0.000461 0.000000
# 2 -0.000815 0.014468 0.002844 0.000029 0.001155 0.000019
# 3 -0.002185 0.002844 0.016503 0.000055 0.005035 0.000006
# 4 -0.000005 0.000029 0.000055 0.068894 0.000006 0.025437
# 5 -0.000461 0.001155 0.005035 0.000006 0.035631 0.000006
# 6 0.000000 0.000019 0.000006 0.025437 0.000006 0.229495
#
#
# Mechanical properties :
#
#
# Convention : Reuss Voigt Hill
#
# Bulk Modulus (GPa) = 27.00789 37.19463 32.10126
# Shear Modulus (GPa) = 13.02047 29.12565 21.07306
#
# Velocity S-wave (km/s) = 2.39974 3.58913 3.05291
# Velocity P-wave (km/s) = 4.42984 5.79882 5.15994
#
# Compressibility (1/GPa) = 0.03702622
#
# Stress axis : x y z
#
# Youngs Moduli (GPa) = 157.07272 69.11787 60.59567
#
# Poissons Ratio (x) = 0.05631 0.13238
# Poissons Ratio (y) = 0.12796 -0.17232
# Poissons Ratio (z) = 0.34315 -0.19656
#
# Static dielectric constant tensor:
#      x y z
#    x 1.876170 0.000000 -0.001340 
#    y 0.000000 1.971670 0.000020 
#    z -0.001340 0.000020 1.787700 
# 
# From -- ./inp_files/329516.got.cif
#   From: 2010.05.17/outbox.cif.g08.bks.cpg/sg12_165_cif.got.tgz:329516.got - 2010.06.03 13:09:07.
