data_PCOD9210575
_publ_section_title
;
Structure prediction by ZEFSAII (Michael W. Deem and Ramdas Pophale) SiO2 
 PCOD9210575
Probable space group: C 2/M
;
_chemical_formula_sum "Si O2"
_cell_formula_units_Z 48
_cell_length_a 16.523316
_cell_length_b 8.836246
_cell_length_c 26.488110
_cell_angle_alpha 90.000000
_cell_angle_beta 33.401493
_cell_angle_gamma 90.000000
_cell_volume 2128.998076
_symmetry_space_group_name_H-M "C 2/M"
_symmetry_group_IT_number 12
_symmetry_cell_setting 'monoclinic'
loop_
_space_group_symop_operation_xyz
x,y,z
-x,y,-z
-x,-y,-z
x,-y,z
1/2+x,1/2+y,z
1/2-x,1/2+y,-z
1/2-x,1/2-y,-z
1/2+x,1/2-y,z
loop_
_atom_site_type_symbol
_atom_site_label
_atom_site_fract_x
_atom_site_fract_y
_atom_site_fract_z
Si Si1 0.019445 0.817482 0.115567
Si Si2 0.109466 0.178064 0.546078
Si Si3 0.241489 0.677042 0.385293
Si Si4 0.190302 0.324261 0.291406
Si Si5 0.049793 0.319508 0.211326
Si Si6 0.154076 0.678838 0.948488
O O1 0.850867 0.780420 0.187674
O O2 0.045825 0.736419 0.155053
O O3 0.029505 0.000000 0.116342
O O4 0.126380 0.756549 0.017032
O O5 0.250000 0.250000 0.500000
O O6 0.126555 0.235440 0.479680
O O7 0.952884 0.231759 0.648703
O O8 0.119761 0.000000 0.543358
O O9 0.238473 0.500000 0.400203
O O10 0.209630 0.688838 0.342301
O O11 0.403495 0.745285 0.310506
O O12 0.163849 0.500000 0.292989
O O13 0.042556 0.500000 0.218613
O O14 0.205162 0.257351 0.150300
O O15 0.183148 0.500000 0.939040
O O16 0.000000 0.698179 0.000000
#
# Coordination Sequence:
#
# PCOD9210575 Si02
#       6
#     8   8   8   8   8   8
#     4  10  21  39  63  88 116 151 193 240 289 342
#     4  12  25  39  58  85 119 157 196 238 287 344
#     4  10  21  40  64  88 117 151 191 239 289 342
#     4   9  20  39  62  87 116 150 189 238 292 343
#     4  11  22  38  62  89 118 151 192 239 287 343
#     4  11  24  40  58  83 118 157 196 239 289 345
#
# _framework density 22.545815999999999
#
# number of rings (size 3 to 8) (size 9 to 14) (size 15 to 20)
#    0.000    1.500    0.000    6.500    0.000    8.667 
#    0.000    3.333    0.000    0.000    0.000    0.000 
#    0.000    0.000    0.000    0.000    0.000    0.000 
#
# Total GULP energy -134364.606073 kJ/mol
# GULP energy per Si atom -5598.525253 kJ/mol
# Density = 2.249450 g / cm^3
# Si number density = 22.545816 Si / 1000 Ang^3
#
#
#
# Elastic Constant Matrix: (Units=GPa)
#
#
# Indices 1 2 3 4 5 6 
#
# 1 59.9665 30.8301 16.3146 0.0000 -21.9634 0.0000
# 2 30.8301 122.6316 40.0029 0.0000 -38.9164 0.0001
# 3 16.3146 40.0029 118.4269 0.0000 -34.9144 0.0000
# 4 0.0000 0.0000 0.0000 39.0158 0.0000 -7.5651
# 5 -21.9634 -38.9164 -34.9144 0.0000 43.0882 0.0000
# 6 0.0000 0.0001 0.0000 -7.5651 0.0000 26.2913
#
#
#
# Elastic Compliance Matrix: (Units=1/GPa)
#
#
# Indices 1 2 3 4 5 6 
#
# 1 0.021134 -0.002714 0.000603 0.000000 0.008810 0.000000
# 2 -0.002714 0.011884 -0.001161 0.000000 0.008409 0.000000
# 3 0.000603 -0.001161 0.011213 0.000000 0.008345 0.000000
# 4 0.000000 0.000000 0.000000 0.027145 0.000000 0.007811
# 5 0.008810 0.008409 0.008345 0.000000 0.042055 0.000000
# 6 0.000000 0.000000 0.000000 0.007811 0.000000 0.040283
#
#
# Mechanical properties :
#
#
# Convention : Reuss Voigt Hill
#
# Bulk Modulus (GPa) = 26.53485 52.81334 39.67410
# Shear Modulus (GPa) = 28.93137 35.93755 32.43446
#
# Velocity S-wave (km/s) = 3.58610 3.99680 3.79701
# Velocity P-wave (km/s) = 5.37975 6.69141 6.07110
#
# Compressibility (1/GPa) = 0.03768628
#
# Stress axis : x y z
#
# Youngs Moduli (GPa) = 47.31700 84.14502 89.17897
#
# Poissons Ratio (x) = 0.22837 -0.05374
# Poissons Ratio (y) = 0.12842 0.10356
# Poissons Ratio (z) = -0.02851 0.09771
#
# Static dielectric constant tensor:
#      x y z
#    x 1.946390 0.000000 0.072570 
#    y 0.000000 1.744440 0.000000 
#    z 0.072570 0.000000 1.975050 
# 
# From -- ./inp_files/274084.got.cif
#   From: 2010.05.17/outbox.cif.g08.bks.cpg/sg12_138_cif.got.tgz:274084.got - 2010.06.03 13:09:07.
