data_PCOD9210862
_publ_section_title
;
Structure prediction by ZEFSAII (Michael W. Deem and Ramdas Pophale) SiO2 
 PCOD9210862
Probable space group: C 2/M
;
_chemical_formula_sum "Si O2"
_cell_formula_units_Z 56
_cell_length_a 9.045217
_cell_length_b 24.636281
_cell_length_c 14.797325
_cell_angle_alpha 90.000000
_cell_angle_beta 54.478525
_cell_angle_gamma 90.000000
_cell_volume 2683.781969
_symmetry_space_group_name_H-M "C 2/M"
_symmetry_group_IT_number 12
_symmetry_cell_setting 'monoclinic'
loop_
_space_group_symop_operation_xyz
x,y,z
-x,y,-z
-x,-y,-z
x,-y,z
1/2+x,1/2+y,z
1/2-x,1/2+y,-z
1/2-x,1/2-y,-z
1/2+x,1/2-y,z
loop_
_atom_site_type_symbol
_atom_site_label
_atom_site_fract_x
_atom_site_fract_y
_atom_site_fract_z
Si Si1 0.438584 0.266603 0.735754
Si Si2 0.970419 0.356911 0.655939
Si Si3 0.973487 0.719842 0.111489
Si Si4 0.620752 0.565054 0.244084
Si Si5 0.395201 0.437634 0.952517
Si Si6 0.027273 0.601136 0.147430
Si Si7 0.193119 0.862609 0.590979
O O1 0.450648 0.206075 0.691559
O O2 0.238013 0.288705 0.789449
O O3 0.456352 0.260845 0.837669
O O4 0.591047 0.305201 0.640220
O O5 0.950778 0.392179 0.752975
O O6 0.168592 0.363457 0.541347
O O7 0.819796 0.370759 0.634451
O O8 0.061545 0.660817 0.092585
O O9 0.000000 0.739253 0.000000
O O10 0.608003 0.500000 0.251051
O O11 0.825033 0.581656 0.196949
O O12 0.465618 0.593071 0.358586
O O13 0.582211 0.585933 0.155308
O O14 0.459930 0.500000 0.923281
O O15 0.182705 0.436340 0.051369
O O16 0.500000 0.411195 0.000000
#
# Coordination Sequence:
#
# PCOD9210862 Si02
#       7
#     8   8   8   8   8   8   8
#     4  11  21  40  60  89 123 160 206 249 300 371
#     4  10  24  41  62  89 118 164 211 253 308 366
#     4  11  22  37  57  91 128 161 196 246 307 367
#     4  11  23  40  64  93 124 161 204 255 311 364
#     4  10  21  39  64  92 124 163 205 249 302 369
#     4  11  22  39  60  92 126 160 206 251 310 363
#     4  11  22  43  63  86 123 161 211 258 305 367
#
# _framework density 20.866076
#
# number of rings (size 3 to 8) (size 9 to 14) (size 15 to 20)
#    0.000    1.286    2.857    3.429    0.000    1.714 
#    0.000    4.286    0.000    0.000    0.000    0.000 
#    0.000    0.000    0.000    0.000    0.000    0.000 
#
# Total GULP energy -156530.412685 kJ/mol
# GULP energy per Si atom -5590.371882 kJ/mol
# Density = 2.081858 g / cm^3
# Si number density = 20.866076 Si / 1000 Ang^3
#
#
#
# Elastic Constant Matrix: (Units=GPa)
#
#
# Indices 1 2 3 4 5 6 
#
# 1 47.8029 -11.3446 -8.3878 0.0000 -14.3063 0.0000
# 2 -11.3446 41.0248 -1.2069 0.0000 -4.3423 0.0000
# 3 -8.3878 -1.2069 65.8675 0.0000 -8.4228 0.0000
# 4 0.0000 0.0000 0.0000 17.0916 0.0000 -9.5596
# 5 -14.3063 -4.3423 -8.4228 0.0000 35.9432 0.0000
# 6 0.0000 0.0000 0.0000 -9.5596 0.0000 22.1684
#
#
#
# Elastic Compliance Matrix: (Units=1/GPa)
#
#
# Indices 1 2 3 4 5 6 
#
# 1 0.028205 0.009407 0.005510 0.000000 0.013654 0.000000
# 2 0.009407 0.027876 0.002699 0.000000 0.007744 0.000000
# 3 0.005510 0.002699 0.016757 0.000000 0.006446 0.000000
# 4 0.000000 0.000000 0.000000 0.077105 0.000000 0.033250
# 5 0.013654 0.007744 0.006446 0.000000 0.035702 0.000000
# 6 0.000000 0.000000 0.000000 0.033250 0.000000 0.059448
#
#
# Mechanical properties :
#
#
# Convention : Reuss Voigt Hill
#
# Bulk Modulus (GPa) = 9.25330 12.53518 10.89424
# Shear Modulus (GPa) = 20.33470 26.74960 23.54215
#
# Velocity S-wave (km/s) = 3.12514 3.58434 3.36259
# Velocity P-wave (km/s) = 4.17926 4.81149 4.50648
#
# Compressibility (1/GPa) = 0.10806954
#
# Stress axis : x y z
#
# Youngs Moduli (GPa) = 35.45503 35.87335 59.67505
#
# Poissons Ratio (x) = -0.33745 -0.32881
# Poissons Ratio (y) = -0.33352 -0.16106
# Poissons Ratio (z) = -0.19536 -0.09682
#
# Static dielectric constant tensor:
#      x y z
#    x 1.772150 0.000000 0.015220 
#    y 0.000000 1.737540 0.000000 
#    z 0.015220 0.000000 1.728890 
# 
# From -- ./inp_files/198767.got.cif
#   From: 2010.05.17/outbox.cif.g08.bks.cpg/sg12_100_cif.got.tgz:198767.got - 2010.06.03 13:09:07.
