data_PCOD9210645
_publ_section_title
;
Structure prediction by ZEFSAII (Michael W. Deem and Ramdas Pophale) SiO2 
 PCOD9210645
Probable space group: C 2/M
;
_chemical_formula_sum "Si O2"
_cell_formula_units_Z 48
_cell_length_a 25.484811
_cell_length_b 8.737134
_cell_length_c 12.638953
_cell_angle_alpha 90.000000
_cell_angle_beta 70.432294
_cell_angle_gamma 90.000000
_cell_volume 2651.709767
_symmetry_space_group_name_H-M "C 2/M"
_symmetry_group_IT_number 12
_symmetry_cell_setting 'monoclinic'
loop_
_space_group_symop_operation_xyz
x,y,z
-x,y,-z
-x,-y,-z
x,-y,z
1/2+x,1/2+y,z
1/2-x,1/2+y,-z
1/2-x,1/2-y,-z
1/2+x,1/2-y,z
loop_
_atom_site_type_symbol
_atom_site_label
_atom_site_fract_x
_atom_site_fract_y
_atom_site_fract_z
Si Si1 0.618942 0.681504 0.216556
Si Si2 0.190509 0.817019 0.380153
Si Si3 0.504393 0.183664 0.372889
Si Si4 0.809715 0.182710 0.243826
Si Si5 0.306427 0.182134 0.012060
Si Si6 0.381200 0.816529 0.378440
O O1 0.621768 0.500000 0.194726
O O2 0.657097 0.714247 0.293939
O O3 0.556636 0.732678 0.285948
O O4 0.644252 0.770937 0.100327
O O5 0.251198 0.742983 0.330365
O O6 0.155782 0.748905 0.500617
O O7 0.195750 0.000000 0.388630
O O8 0.500000 0.224515 0.500000
O O9 0.445636 0.220285 0.358060
O O10 0.513217 0.000000 0.361134
O O11 0.858254 0.245159 0.286272
O O12 0.809553 0.000000 0.242273
O O13 0.814659 0.247646 0.122287
O O14 0.301162 0.000000 0.023682
O O15 0.250000 0.250000 0.000000
O O16 0.375437 0.000000 0.379857
#
# Coordination Sequence:
#
# PCOD9210645 Si02
#       6
#     8   8   8   8   8   8
#     4  11  23  38  62  94 126 159 202 253 303 357
#     4  11  22  37  60  91 127 162 202 251 307 367
#     4  10  21  39  63  90 122 162 205 251 303 361
#     4  12  25  41  62  89 125 164 205 253 309 366
#     4  12  24  41  65  91 123 160 204 251 303 363
#     4  11  23  40  62  89 126 165 206 253 308 367
#
# _framework density 18.10153
#
# number of rings (size 3 to 8) (size 9 to 14) (size 15 to 20)
#    0.000    0.833    3.333    5.000    0.000    3.000 
#    0.000    0.833    0.000    5.000    0.000    0.000 
#    0.000    0.000    0.000    0.000    0.000    0.000 
#
# Total GULP energy -134293.178013 kJ/mol
# GULP energy per Si atom -5595.549084 kJ/mol
# Density = 1.806033 g / cm^3
# Si number density = 18.101530 Si / 1000 Ang^3
#
#
#
# Elastic Constant Matrix: (Units=GPa)
#
#
# Indices 1 2 3 4 5 6 
#
# 1 138.3567 69.4748 49.0766 0.0000 8.1815 0.0000
# 2 69.4748 104.6625 36.4103 0.0000 7.2392 0.0000
# 3 49.0766 36.4103 56.8201 0.0000 -1.7493 0.0000
# 4 0.0000 0.0000 0.0000 35.6222 0.0000 -2.6627
# 5 8.1815 7.2392 -1.7493 0.0000 29.0766 0.0000
# 6 0.0000 0.0000 0.0000 -2.6627 0.0000 31.5951
#
#
#
# Elastic Compliance Matrix: (Units=1/GPa)
#
#
# Indices 1 2 3 4 5 6 
#
# 1 0.012987 -0.005798 -0.007584 0.000000 -0.002667 0.000000
# 2 -0.005798 0.015259 -0.004846 0.000000 -0.002459 0.000000
# 3 -0.007584 -0.004846 0.027409 0.000000 0.004989 0.000000
# 4 0.000000 0.000000 0.000000 0.028250 0.000000 0.002381
# 5 -0.002667 -0.002459 0.004989 0.000000 0.036055 0.000000
# 6 0.000000 0.000000 0.000000 0.002381 0.000000 0.031851
#
#
# Mechanical properties :
#
#
# Convention : Reuss Voigt Hill
#
# Bulk Modulus (GPa) = 52.08558 67.75142 59.91850
# Shear Modulus (GPa) = 25.68506 28.91730 27.30118
#
# Velocity S-wave (km/s) = 3.77097 4.00122 3.88780
# Velocity P-wave (km/s) = 6.91353 7.67178 7.30250
#
# Compressibility (1/GPa) = 0.01919917
#
# Stress axis : x y z
#
# Youngs Moduli (GPa) = 77.00113 65.53478 36.48489
#
# Poissons Ratio (x) = 0.37996 0.27669
# Poissons Ratio (y) = 0.44644 0.17681
# Poissons Ratio (z) = 0.58396 0.31758
#
# Static dielectric constant tensor:
#      x y z
#    x 1.599180 0.000000 0.007820 
#    y 0.000000 1.604360 0.000000 
#    z 0.007820 0.000000 1.592390 
# 
# From -- ./inp_files/172439.got.cif
#   From: 2010.05.17/outbox.cif.g08.bks.cpg/sg12_87_cif.got.tgz:172439.got - 2010.06.03 13:09:07.
