data_PCOD9210796
_publ_section_title
;
Structure prediction by ZEFSAII (Michael W. Deem and Ramdas Pophale) SiO2 
 PCOD9210796
Probable space group: C 2/M
;
_chemical_formula_sum "Si O2"
_cell_formula_units_Z 48
_cell_length_a 21.824220
_cell_length_b 9.095786
_cell_length_c 12.242074
_cell_angle_alpha 90.000000
_cell_angle_beta 108.443707
_cell_angle_gamma 90.000000
_cell_volume 2305.329914
_symmetry_space_group_name_H-M "C 2/M"
_symmetry_group_IT_number 12
_symmetry_cell_setting 'monoclinic'
loop_
_space_group_symop_operation_xyz
x,y,z
-x,y,-z
-x,-y,-z
x,-y,z
1/2+x,1/2+y,z
1/2-x,1/2+y,-z
1/2-x,1/2-y,-z
1/2+x,1/2-y,z
loop_
_atom_site_type_symbol
_atom_site_label
_atom_site_fract_x
_atom_site_fract_y
_atom_site_fract_z
Si Si1 0.735899 0.827252 0.377811
Si Si2 0.424650 0.833570 0.421674
Si Si3 0.250227 0.169967 0.171956
Si Si4 0.541445 0.325191 0.776992
Si Si5 0.852624 0.670792 0.031857
Si Si6 0.407648 0.826081 0.653074
O O1 0.750000 0.750000 0.500000
O O2 0.769323 0.751175 0.293750
O O3 0.658366 0.809981 0.318625
O O4 0.750647 0.000000 0.391705
O O5 0.500000 0.842838 0.500000
O O6 0.425332 0.729463 0.317617
O O7 0.393130 0.784834 0.517917
O O8 0.402833 0.000000 0.379980
O O9 0.305887 0.177275 0.111959
O O10 0.236495 0.000000 0.187344
O O11 0.187931 0.248407 0.084420
O O12 0.542916 0.500000 0.784622
O O13 0.581838 0.251413 0.897104
O O14 0.468287 0.264909 0.730301
O O15 0.863419 0.500000 0.011012
O O16 0.425169 0.000000 0.660793
#
# Coordination Sequence:
#
# PCOD9210796 Si02
#       6
#     8   8   8   8   8   8
#     4  11  24  41  62  88 120 160 201 240 290 352
#     4   8  15  30  50  73 107 150 190 230 280 339
#     4  10  22  41  63  89 119 153 197 247 295 345
#     4  11  21  32  54  88 119 148 191 246 297 344
#     4  10  21  39  64  88 117 156 196 241 296 355
#     4   9  20  38  56  78 114 158 198 236 287 351
#
# _framework density 20.821315999999999
#
# number of rings (size 3 to 8) (size 9 to 14) (size 15 to 20)
#    0.000    2.167    0.000    4.000    2.333    6.333 
#    0.000    0.833    0.000    5.000    0.000    0.000 
#    0.000    0.000    0.000    0.000    0.000    0.000 
#
# Total GULP energy -134125.706044 kJ/mol
# GULP energy per Si atom -5588.571085 kJ/mol
# Density = 2.077393 g / cm^3
# Si number density = 20.821316 Si / 1000 Ang^3
#
#
#
# Elastic Constant Matrix: (Units=GPa)
#
#
# Indices 1 2 3 4 5 6 
#
# 1 38.7287 28.4801 9.3988 0.0000 9.1120 0.0000
# 2 28.4801 153.1315 60.9997 0.0000 19.1932 0.0000
# 3 9.3988 60.9997 94.2625 0.0000 16.7300 0.0000
# 4 0.0000 0.0000 0.0000 35.4027 0.0000 3.9075
# 5 9.1120 19.1932 16.7300 0.0000 38.4187 0.0000
# 6 0.0000 0.0000 0.0000 3.9075 0.0000 20.0944
#
#
#
# Elastic Compliance Matrix: (Units=1/GPa)
#
#
# Indices 1 2 3 4 5 6 
#
# 1 0.030851 -0.005702 0.001525 0.000000 -0.005133 0.000000
# 2 -0.005702 0.010008 -0.005701 0.000000 -0.001165 0.000000
# 3 0.001525 -0.005701 0.014853 0.000000 -0.003981 0.000000
# 4 0.000000 0.000000 0.000000 0.028866 0.000000 -0.005613
# 5 -0.005133 -0.001165 -0.003981 0.000000 0.029562 0.000000
# 6 0.000000 0.000000 0.000000 -0.005613 0.000000 0.050857
#
#
# Mechanical properties :
#
#
# Convention : Reuss Voigt Hill
#
# Bulk Modulus (GPa) = 27.81258 53.76444 40.78851
# Shear Modulus (GPa) = 25.41455 31.26610 28.34033
#
# Velocity S-wave (km/s) = 3.49750 3.87930 3.69334
# Velocity P-wave (km/s) = 5.44947 6.77814 6.14980
#
# Compressibility (1/GPa) = 0.03595496
#
# Stress axis : x y z
#
# Youngs Moduli (GPa) = 32.41359 99.92223 67.32852
#
# Poissons Ratio (x) = 0.56975 -0.10265
# Poissons Ratio (y) = 0.18482 0.38384
# Poissons Ratio (z) = -0.04942 0.56966
#
# Static dielectric constant tensor:
#      x y z
#    x 1.796120 0.000000 0.000490 
#    y 0.000000 1.697730 0.000000 
#    z 0.000490 0.000000 1.751980 
# 
# From -- ./inp_files/173051.got.cif
#   From: 2010.05.17/outbox.cif.g08.bks.cpg/sg12_87_cif.got.tgz:173051.got - 2010.06.03 13:09:07.
