data_PCOD9210820
_publ_section_title
;
Structure prediction by ZEFSAII (Michael W. Deem and Ramdas Pophale) SiO2 
 PCOD9210820
Probable space group: C 2/M
;
_chemical_formula_sum "Si O2"
_cell_formula_units_Z 40
_cell_length_a 14.189462
_cell_length_b 14.268696
_cell_length_c 23.962378
_cell_angle_alpha 90.000000
_cell_angle_beta 156.518519
_cell_angle_gamma 90.000000
_cell_volume 1933.111195
_symmetry_space_group_name_H-M "C 2/M"
_symmetry_group_IT_number 12
_symmetry_cell_setting 'monoclinic'
loop_
_space_group_symop_operation_xyz
x,y,z
-x,y,-z
-x,-y,-z
x,-y,z
1/2+x,1/2+y,z
1/2-x,1/2+y,-z
1/2-x,1/2-y,-z
1/2+x,1/2-y,z
loop_
_atom_site_type_symbol
_atom_site_label
_atom_site_fract_x
_atom_site_fract_y
_atom_site_fract_z
Si Si1 0.148453 0.102856 0.934381
Si Si2 0.259475 0.605005 0.631167
Si Si3 0.783869 0.388222 0.660978
Si Si4 0.046596 0.743629 0.342829
Si Si5 0.442101 0.214902 0.861851
O O1 0.909460 0.099999 0.768740
O O2 0.099335 0.190201 0.947702
O O3 0.186209 0.000000 0.979340
O O4 0.374586 0.133597 0.020047
O O5 0.224747 0.500000 0.589969
O O6 0.407306 0.666966 0.670338
O O7 0.000000 0.646432 0.500000
O O8 0.500000 0.378313 0.500000
O O9 0.830731 0.500000 0.693419
O O10 0.910181 0.345312 0.674455
O O11 0.863551 0.326221 0.758076
O O12 0.250000 0.750000 0.500000
O O13 0.791307 0.757574 0.231566
#
# Coordination Sequence:
#
# PCOD9210820 Si02
#       5
#     8   8   8   8   8
#     4  10  22  42  65  91 126 168 210 264 326 382
#     4  10  21  39  64  90 122 162 210 264 320 377
#     4  11  23  42  65  95 134 173 213 265 325 386
#     4  12  23  38  65  95 128 166 215 264 315 382
#     4  11  23  41  67  92 131 171 211 265 322 386
#
# _framework density 20.692032999999999
#
# number of rings (size 3 to 8) (size 9 to 14) (size 15 to 20)
#    0.000    1.200    4.000    2.400    0.000    4.000 
#    0.000    2.000    0.000    3.600    0.000    0.000 
#    0.000    0.000    0.000    0.000    0.000    0.000 
#
# Total GULP energy -111534.324216 kJ/mol
# GULP energy per Si atom -5576.716211 kJ/mol
# Density = 2.064494 g / cm^3
# Si number density = 20.692033 Si / 1000 Ang^3
#
#
#
# Elastic Constant Matrix: (Units=GPa)
#
#
# Indices 1 2 3 4 5 6 
#
# 1 73.9811 38.5744 30.1840 0.0023 28.3291 0.0011
# 2 38.5744 153.5436 19.8555 0.0068 21.4315 -0.0008
# 3 30.1840 19.8555 132.0092 0.0184 29.1927 -0.0031
# 4 0.0023 0.0068 0.0184 28.6160 -0.0027 -3.8196
# 5 28.3291 21.4315 29.1927 -0.0027 43.9578 0.0013
# 6 0.0011 -0.0008 -0.0031 -3.8196 0.0013 2.0566
#
#
#
# Elastic Compliance Matrix: (Units=1/GPa)
#
#
# Indices 1 2 3 4 5 6 
#
# 1 0.019811 -0.003356 -0.001833 -0.000002 -0.009914 -0.000012
# 2 -0.003356 0.007571 -0.000039 -0.000001 -0.001502 0.000004
# 3 -0.001833 -0.000039 0.009066 -0.000005 -0.004821 0.000009
# 4 -0.000002 -0.000001 -0.000005 0.046464 0.000006 0.086297
# 5 -0.009914 -0.001502 -0.004821 0.000006 0.033072 -0.000013
# 6 -0.000012 0.000004 0.000009 0.086297 -0.000013 0.646523
#
#
# Mechanical properties :
#
#
# Convention : Reuss Voigt Hill
#
# Bulk Modulus (GPa) = 38.47341 59.64019 49.05680
# Shear Modulus (GPa) = 6.39691 32.98740 19.69216
#
# Velocity S-wave (km/s) = 1.76017 3.99709 3.08828
# Velocity P-wave (km/s) = 4.77123 7.08432 6.03955
#
# Compressibility (1/GPa) = 0.02599198
#
# Stress axis : x y z
#
# Youngs Moduli (GPa) = 50.47710 132.08779 110.29951
#
# Poissons Ratio (x) = 0.44332 0.20213
# Poissons Ratio (y) = 0.16942 0.00431
# Poissons Ratio (z) = 0.09250 0.00517
#
# Static dielectric constant tensor:
#      x y z
#    x 1.735460 0.000000 0.044740 
#    y 0.000000 1.774370 -0.000010 
#    z 0.044740 -0.000010 1.693090 
# 
# From -- ./inp_files/129564.got.cif
#   From: 2010.05.17/outbox.cif.g08.bks.cpg/sg12_65_cif.got.tgz:129564.got - 2010.06.03 13:09:07.
