data_PCOD9210193
_publ_section_title
;
Structure prediction by ZEFSAII (Michael W. Deem and Ramdas Pophale) SiO2 
 PCOD9210193
Probable space group: C 2/M
;
_chemical_formula_sum "Si O2"
_cell_formula_units_Z 48
_cell_length_a 27.774447
_cell_length_b 8.698329
_cell_length_c 15.765647
_cell_angle_alpha 90.000000
_cell_angle_beta 139.122307
_cell_angle_gamma 90.000000
_cell_volume 2492.683793
_symmetry_space_group_name_H-M "C 2/M"
_symmetry_group_IT_number 12
_symmetry_cell_setting 'monoclinic'
loop_
_space_group_symop_operation_xyz
x,y,z
-x,y,-z
-x,-y,-z
x,-y,z
1/2+x,1/2+y,z
1/2-x,1/2+y,-z
1/2-x,1/2-y,-z
1/2+x,1/2-y,z
loop_
_atom_site_type_symbol
_atom_site_label
_atom_site_fract_x
_atom_site_fract_y
_atom_site_fract_z
Si Si1 0.907921 0.315469 0.527892
Si Si2 0.831814 0.314528 0.602836
Si Si3 0.177904 0.184262 0.748040
Si Si4 0.070785 0.185391 0.760362
Si Si5 0.085374 0.685812 0.115705
Si Si6 0.840959 0.815716 0.954674
O O1 0.905051 0.500000 0.518438
O O2 0.871123 0.266940 0.568015
O O3 0.862759 0.244582 0.390033
O O4 0.992073 0.260603 0.639029
O O5 0.828720 0.500000 0.598827
O O6 0.750000 0.250000 0.500000
O O7 0.877834 0.266084 0.746751
O O8 0.128486 0.226957 0.763507
O O9 0.259359 0.252739 0.862046
O O10 0.182858 0.000000 0.751297
O O11 0.062194 0.000000 0.747794
O O12 0.104965 0.231057 0.896503
O O13 0.088635 0.500000 0.114850
O O14 0.128421 0.753847 0.093305
O O15 0.000000 0.731846 0.000000
O O16 0.838176 0.000000 0.949035
#
# Coordination Sequence:
#
# PCOD9210193 Si02
#       6
#     8   8   8   8   8   8
#     4  11  23  39  61  89 118 150 193 242 289 341
#     4  10  22  38  57  83 114 149 188 232 283 339
#     4  11  23  40  61  85 117 156 195 236 288 348
#     4  10  23  41  60  85 118 155 193 236 289 347
#     4  10  21  39  61  84 113 152 195 236 285 345
#     4  11  23  39  60  88 119 151 194 244 290 339
#
# _framework density 19.256353000000001
#
# number of rings (size 3 to 8) (size 9 to 14) (size 15 to 20)
#    0.000    1.500    0.000    4.500    0.000   11.000 
#    0.000    0.000    0.000    0.000    0.000    0.000 
#    0.000    0.000    0.000    0.000    0.000    0.000 
#
# Total GULP energy -134237.758633 kJ/mol
# GULP energy per Si atom -5593.239943 kJ/mol
# Density = 1.921252 g / cm^3
# Si number density = 19.256353 Si / 1000 Ang^3
#
#
#
# Elastic Constant Matrix: (Units=GPa)
#
#
# Indices 1 2 3 4 5 6 
#
# 1 56.4830 3.9504 -25.6748 0.0000 -0.9091 0.0000
# 2 3.9504 15.1501 3.2306 0.0000 -0.0303 0.0000
# 3 -25.6748 3.2306 70.1931 0.0000 0.0510 0.0000
# 4 0.0000 0.0000 0.0000 35.0595 0.0000 5.1924
# 5 -0.9091 -0.0303 0.0510 0.0000 45.7721 0.0000
# 6 0.0000 0.0000 0.0000 5.1924 0.0000 32.7569
#
#
#
# Elastic Compliance Matrix: (Units=1/GPa)
#
#
# Indices 1 2 3 4 5 6 
#
# 1 0.022066 -0.007548 0.008418 0.000000 0.000424 0.000000
# 2 -0.007548 0.069242 -0.005948 0.000000 -0.000097 0.000000
# 3 0.008418 -0.005948 0.017599 0.000000 0.000144 0.000000
# 4 0.000000 0.000000 0.000000 0.029209 0.000000 -0.004630
# 5 0.000424 -0.000097 0.000144 0.000000 0.021856 0.000000
# 6 0.000000 0.000000 0.000000 -0.004630 0.000000 0.031262
#
#
# Mechanical properties :
#
#
# Convention : Reuss Voigt Hill
#
# Bulk Modulus (GPa) = 10.12633 11.64873 10.88753
# Shear Modulus (GPa) = 21.33971 33.40569 27.37270
#
# Velocity S-wave (km/s) = 3.33256 4.16960 3.77435
# Velocity P-wave (km/s) = 4.48086 5.40769 4.96594
#
# Compressibility (1/GPa) = 0.09875244
#
# Stress axis : x y z
#
# Youngs Moduli (GPa) = 45.31922 14.44208 56.82087
#
# Poissons Ratio (x) = 0.10901 -0.47833
# Poissons Ratio (y) = 0.34206 0.33794
# Poissons Ratio (z) = -0.38150 0.08589
#
# Static dielectric constant tensor:
#      x y z
#    x 1.639490 0.000000 -0.006880 
#    y 0.000000 1.652990 0.000000 
#    z -0.006880 0.000000 1.653980 
# 
# From -- ./inp_files/244671.got.cif
#   From: 2010.05.17/outbox.cif.g08.bks.cpg/sg12_123_cif.got.tgz:244671.got - 2010.06.03 13:09:07.
