data_PCOD9210577
_publ_section_title
;
Structure prediction by ZEFSAII (Michael W. Deem and Ramdas Pophale) SiO2 
 PCOD9210577
Probable space group: C 2/M
;
_chemical_formula_sum "Si O2"
_cell_formula_units_Z 48
_cell_length_a 18.508443
_cell_length_b 14.694191
_cell_length_c 15.723653
_cell_angle_alpha 90.000000
_cell_angle_beta 36.703061
_cell_angle_gamma 90.000000
_cell_volume 2555.812601
_symmetry_space_group_name_H-M "C 2/M"
_symmetry_group_IT_number 12
_symmetry_cell_setting 'monoclinic'
loop_
_space_group_symop_operation_xyz
x,y,z
-x,y,-z
-x,-y,-z
x,-y,z
1/2+x,1/2+y,z
1/2-x,1/2+y,-z
1/2-x,1/2-y,-z
1/2+x,1/2-y,z
loop_
_atom_site_type_symbol
_atom_site_label
_atom_site_fract_x
_atom_site_fract_y
_atom_site_fract_z
Si Si1 0.300443 0.758082 0.168722
Si Si2 0.131329 0.608071 0.611122
Si Si3 0.904220 0.892030 0.354859
Si Si4 0.525830 0.241886 0.838548
Si Si5 0.635442 0.893025 0.407283
Si Si6 0.583257 0.392099 0.339471
O O1 0.382692 0.784673 0.172119
O O2 0.226407 0.669115 0.268034
O O3 0.203540 0.833985 0.235009
O O4 0.394429 0.745020 0.003193
O O5 0.109150 0.500000 0.639672
O O6 0.267817 0.628576 0.514223
O O7 0.037907 0.666136 0.753915
O O8 0.132559 0.631820 0.509974
O O9 0.930581 0.834978 0.246046
O O10 0.003045 0.869109 0.332743
O O11 0.907949 0.000000 0.334986
O O12 0.500000 0.881733 0.500000
O O13 0.668250 0.000000 0.370729
O O14 0.500000 0.374386 0.500000
O O15 0.609684 0.500000 0.312160
#
# Coordination Sequence:
#
# PCOD9210577 Si02
#       6
#     8   8   8   8   8   8
#     4  11  24  39  60  88 125 161 192 246 304 361
#     4  10  21  39  63  88 118 156 203 252 294 352
#     4  10  21  39  63  88 116 156 203 250 295 349
#     4  11  24  38  59  92 121 159 199 240 306 360
#     4  10  22  40  62  89 118 157 204 249 299 353
#     4  10  22  39  61  88 116 155 203 247 296 353
#
# _framework density 18.780719000000001
#
# number of rings (size 3 to 8) (size 9 to 14) (size 15 to 20)
#    0.000    1.667    1.667    2.000    4.667    4.000 
#    0.000    3.333    0.000    0.000    0.000    0.000 
#    0.000    0.000    0.000    0.000    0.000    0.000 
#
# Total GULP energy -134097.491734 kJ/mol
# GULP energy per Si atom -5587.395489 kJ/mol
# Density = 1.873797 g / cm^3
# Si number density = 18.780719 Si / 1000 Ang^3
#
#
#
# Elastic Constant Matrix: (Units=GPa)
#
#
# Indices 1 2 3 4 5 6 
#
# 1 83.3895 30.4422 37.2172 0.0000 -0.6279 0.0000
# 2 30.4422 59.4592 64.6641 0.0000 4.2570 0.0000
# 3 37.2172 64.6641 145.6986 0.0000 9.7392 0.0000
# 4 0.0000 0.0000 0.0000 3.2168 0.0000 6.8462
# 5 -0.6279 4.2570 9.7392 0.0000 18.9733 0.0000
# 6 0.0000 0.0000 0.0000 6.8462 0.0000 35.4432
#
#
#
# Elastic Compliance Matrix: (Units=1/GPa)
#
#
# Indices 1 2 3 4 5 6 
#
# 1 0.014912 -0.006745 -0.000983 0.000000 0.002512 0.000000
# 2 -0.006745 0.035561 -0.013992 0.000000 -0.001020 0.000000
# 3 -0.000983 -0.013992 0.013583 0.000000 -0.003866 0.000000
# 4 0.000000 0.000000 0.000000 0.527874 0.000000 -0.101963
# 5 0.002512 -0.001020 -0.003866 0.000000 0.055002 0.000000
# 6 0.000000 0.000000 0.000000 -0.101963 0.000000 0.047909
#
#
# Mechanical properties :
#
#
# Convention : Reuss Voigt Hill
#
# Bulk Modulus (GPa) = 48.50651 61.46601 54.98626
# Shear Modulus (GPa) = 6.71003 21.94159 14.32581
#
# Velocity S-wave (km/s) = 1.89224 3.42175 2.76487
# Velocity P-wave (km/s) = 5.53697 6.95777 6.28763
#
# Compressibility (1/GPa) = 0.02061579
#
# Stress axis : x y z
#
# Youngs Moduli (GPa) = 67.05971 28.12068 73.62233
#
# Poissons Ratio (x) = 0.18968 0.07240
# Poissons Ratio (y) = 0.45232 1.03009
# Poissons Ratio (z) = 0.06595 0.39345
#
# Static dielectric constant tensor:
#      x y z
#    x 1.663180 0.000000 0.000000 
#    y 0.000000 1.654220 0.000000 
#    z 0.000000 0.000000 1.613860 
# 
# From -- ./inp_files/225082.got.cif
#   From: 2010.05.17/outbox.cif.g08.bks.cpg/sg12_113_cif.got.tgz:225082.got - 2010.06.03 13:09:07.
