data_PCOD9210343
_publ_section_title
;
Structure prediction by ZEFSAII (Michael W. Deem and Ramdas Pophale) SiO2 
 PCOD9210343
Probable space group: C 2/M
;
_chemical_formula_sum "Si O2"
_cell_formula_units_Z 44
_cell_length_a 18.249263
_cell_length_b 10.749808
_cell_length_c 29.484100
_cell_angle_alpha 90.000000
_cell_angle_beta 157.701542
_cell_angle_gamma 90.000000
_cell_volume 2194.658848
_symmetry_space_group_name_H-M "C 2/M"
_symmetry_group_IT_number 12
_symmetry_cell_setting 'monoclinic'
loop_
_space_group_symop_operation_xyz
x,y,z
-x,y,-z
-x,-y,-z
x,-y,z
1/2+x,1/2+y,z
1/2-x,1/2+y,-z
1/2-x,1/2-y,-z
1/2+x,1/2-y,z
loop_
_atom_site_type_symbol
_atom_site_label
_atom_site_fract_x
_atom_site_fract_y
_atom_site_fract_z
Si Si1 0.500000 0.809240 0.500000
Si Si2 0.766565 0.857341 0.117068
Si Si3 0.586779 0.635606 0.222191
Si Si4 0.146165 0.359072 0.494335
Si Si5 0.562648 0.722716 0.699021
Si Si6 0.917029 0.361255 0.849485
O O1 0.697196 0.864235 0.634009
O O2 0.592132 0.764126 0.504288
O O3 0.815483 0.762671 0.185209
O O4 0.936037 0.852119 0.176919
O O5 0.765395 0.000000 0.135036
O O6 0.567531 0.839096 0.976568
O O7 0.552780 0.500000 0.180813
O O8 0.562053 0.751472 0.174701
O O9 0.127329 0.500000 0.501190
O O10 0.363144 0.339832 0.601005
O O11 0.005314 0.336938 0.371131
O O12 0.702040 0.644444 0.746371
O O13 0.957439 0.500000 0.854335
#
# Coordination Sequence:
#
# PCOD9210343 Si02
#       6
#     4   8   8   8   8   8
#     4  12  21  38  67  86 109 152 203 248 285 344
#     4  10  21  39  62  84 112 157 203 238 280 349
#     4  11  22  39  64  89 114 154 206 245 282 342
#     4  11  22  37  60  88 115 150 198 248 292 344
#     4  11  22  36  59  87 119 150 194 240 296 349
#     4  11  23  39  60  88 122 155 193 243 297 347
#
# _framework density 20.048673999999998
#
# number of rings (size 3 to 8) (size 9 to 14) (size 15 to 20)
#    0.000    1.091    3.636    4.364    0.000    1.455 
#    0.000    2.273    0.000    2.182    0.000    0.000 
#    0.000    0.000    0.000    0.000    0.000    0.000 
#
# Total GULP energy -122522.570486 kJ/mol
# GULP energy per Si atom -5569.207749 kJ/mol
# Density = 2.000304 g / cm^3
# Si number density = 20.048674 Si / 1000 Ang^3
#
#
#
# Elastic Constant Matrix: (Units=GPa)
#
#
# Indices 1 2 3 4 5 6 
#
# 1 80.5089 32.5002 6.7638 0.0021 -11.1706 -0.0007
# 2 32.5002 72.7993 18.6909 0.0067 -26.0736 -0.0017
# 3 6.7638 18.6909 72.8849 0.0192 -8.7113 -0.0053
# 4 0.0021 0.0067 0.0192 12.4002 -0.0045 -6.5677
# 5 -11.1706 -26.0736 -8.7113 -0.0045 43.6705 0.0006
# 6 -0.0007 -0.0017 -0.0053 -6.5677 0.0006 24.3657
#
#
#
# Elastic Compliance Matrix: (Units=1/GPa)
#
#
# Indices 1 2 3 4 5 6 
#
# 1 0.015161 -0.006924 0.000346 0.000001 -0.000187 0.000000
# 2 -0.006924 0.021453 -0.003626 -0.000001 0.010314 0.000000
# 3 0.000346 -0.003626 0.014721 -0.000022 0.000860 -0.000003
# 4 0.000001 -0.000001 -0.000022 0.094074 0.000004 0.025358
# 5 -0.000187 0.010314 0.000860 0.000004 0.029180 0.000001
# 6 0.000000 0.000000 -0.000003 0.025358 0.000001 0.047876
#
#
# Mechanical properties :
#
#
# Convention : Reuss Voigt Hill
#
# Bulk Modulus (GPa) = 32.33478 38.01143 35.17310
# Shear Modulus (GPa) = 19.74858 27.30316 23.52587
#
# Velocity S-wave (km/s) = 3.14193 3.69432 3.42926
# Velocity P-wave (km/s) = 5.41529 6.09902 5.76730
#
# Compressibility (1/GPa) = 0.03092645
#
# Stress axis : x y z
#
# Youngs Moduli (GPa) = 65.95777 46.61428 67.93103
#
# Poissons Ratio (x) = 0.32278 -0.02353
# Poissons Ratio (y) = 0.45672 0.24632
# Poissons Ratio (z) = -0.02285 0.16903
#
# Static dielectric constant tensor:
#      x y z
#    x 1.740290 0.000000 0.016610 
#    y 0.000000 1.697240 0.000000 
#    z 0.016610 0.000000 1.717630 
# 
# From -- ./inp_files/379127.got.cif
#   From: 2010.05.17/outbox.cif.g08.bks.cpg/sg12_190_cif.got.tgz:379127.got - 2010.06.03 13:09:07.
