data_PCOD9210786
_publ_section_title
;
Structure prediction by ZEFSAII (Michael W. Deem and Ramdas Pophale) SiO2 
 PCOD9210786
Probable space group: C 2/M
;
_chemical_formula_sum "Si O2"
_cell_formula_units_Z 36
_cell_length_a 29.174051
_cell_length_b 11.839043
_cell_length_c 4.945297
_cell_angle_alpha 90.000000
_cell_angle_beta 99.621499
_cell_angle_gamma 90.000000
_cell_volume 1684.043442
_symmetry_space_group_name_H-M "C 2/M"
_symmetry_group_IT_number 12
_symmetry_cell_setting 'monoclinic'
loop_
_space_group_symop_operation_xyz
x,y,z
-x,y,-z
-x,-y,-z
x,-y,z
1/2+x,1/2+y,z
1/2-x,1/2+y,-z
1/2-x,1/2-y,-z
1/2+x,1/2-y,z
loop_
_atom_site_type_symbol
_atom_site_label
_atom_site_fract_x
_atom_site_fract_y
_atom_site_fract_z
Si Si1 0.950105 0.132852 0.304698
Si Si2 0.035205 0.500000 0.282789
Si Si3 0.414725 0.761728 0.760996
Si Si4 0.727405 0.874978 0.662549
Si Si5 0.689234 0.759439 0.124247
O O1 0.915616 0.185744 0.492615
O O2 0.000000 0.144777 0.500000
O O3 0.941908 0.000000 0.244488
O O4 0.946040 0.202947 0.024488
O O5 0.066231 0.386250 0.296288
O O6 0.000000 0.500000 0.500000
O O7 0.000000 0.500000 0.000000
O O8 0.363586 0.763136 0.838444
O O9 0.716329 0.849178 0.341276
O O10 0.781522 0.852924 0.779849
O O11 0.713074 0.000000 0.718307
O O12 0.698012 0.791203 0.823283
#
# Coordination Sequence:
#
# PCOD9210786 Si02
#       5
#     8   4   8   8   8
#     4  11  24  43  67  93 126 169 212 269 330 383
#     4  12  26  42  64  94 132 178 212 266 326 374
#     4  12  24  42  66  96 131 167 220 270 311 400
#     4  10  21  39  64  85 130 163 200 264 316 385
#     4  10  23  40  59  98 118 164 217 250 322 373
#
# _framework density 21.377120999999999
#
# number of rings (size 3 to 8) (size 9 to 14) (size 15 to 20)
#    0.000    1.111    0.000    6.667    3.111    3.556 
#    0.000    0.000    0.000    0.000    0.000    0.000 
#    0.000    0.000    0.000    0.000    0.000    0.000 
#
# Total GULP energy -100626.777618 kJ/mol
# GULP energy per Si atom -5590.376534 kJ/mol
# Density = 2.132847 g / cm^3
# Si number density = 21.377121 Si / 1000 Ang^3
#
#
#
# Elastic Constant Matrix: (Units=GPa)
#
#
# Indices 1 2 3 4 5 6 
#
# 1 128.3063 27.5761 11.0134 0.0000 -22.8922 0.0000
# 2 27.5761 105.0209 28.3064 0.0000 -3.6068 0.0000
# 3 11.0134 28.3064 100.4534 0.0000 -19.9745 0.0000
# 4 0.0000 0.0000 0.0000 11.8164 0.0000 -8.5514
# 5 -22.8922 -3.6068 -19.9745 0.0000 32.5081 0.0000
# 6 0.0000 0.0000 0.0000 -8.5514 0.0000 15.3196
#
#
#
# Elastic Compliance Matrix: (Units=1/GPa)
#
#
# Indices 1 2 3 4 5 6 
#
# 1 0.009511 -0.002546 0.001083 0.000000 0.007081 0.000000
# 2 -0.002546 0.011001 -0.003343 0.000000 -0.002627 0.000000
# 3 0.001083 -0.003343 0.012367 0.000000 0.007990 0.000000
# 4 0.000000 0.000000 0.000000 0.141984 0.000000 0.079255
# 5 0.007081 -0.002627 0.007990 0.000000 0.040366 0.000000
# 6 0.000000 0.000000 0.000000 0.079255 0.000000 0.109516
#
#
# Mechanical properties :
#
#
# Convention : Reuss Voigt Hill
#
# Bulk Modulus (GPa) = 42.98021 51.95250 47.46636
# Shear Modulus (GPa) = 14.61497 29.72113 22.16805
#
# Velocity S-wave (km/s) = 2.61755 3.73275 3.22374
# Velocity P-wave (km/s) = 5.41154 6.55237 6.00909
#
# Compressibility (1/GPa) = 0.02326652
#
# Stress axis : x y z
#
# Youngs Moduli (GPa) = 105.13629 90.89796 80.86001
#
# Poissons Ratio (x) = 0.23144 -0.08754
# Poissons Ratio (y) = 0.26769 0.27033
# Poissons Ratio (z) = -0.11382 0.30389
#
# Static dielectric constant tensor:
#      x y z
#    x 1.785140 0.000000 0.023050 
#    y 0.000000 1.763400 0.000000 
#    z 0.023050 0.000000 1.742800 
# 
# From -- ./inp_files/27264.got.cif
#   From: 2010.05.17/outbox.cif.g08.bks.cpg/sg12_14_cif.got.tgz:27264.got - 2010.06.03 13:09:07.
