data_PCOD9210081
_publ_section_title
;
Structure prediction by ZEFSAII (Michael W. Deem and Ramdas Pophale) SiO2 
 PCOD9210081
Probable space group: C 2/M
;
_chemical_formula_sum "Si O2"
_cell_formula_units_Z 42
_cell_length_a 14.579756
_cell_length_b 7.450551
_cell_length_c 17.393204
_cell_angle_alpha 90.000000
_cell_angle_beta 111.731957
_cell_angle_gamma 90.000000
_cell_volume 1755.090236
_symmetry_space_group_name_H-M "C 2/M"
_symmetry_group_IT_number 12
_symmetry_cell_setting 'monoclinic'
loop_
_space_group_symop_operation_xyz
x,y,z
-x,y,-z
-x,-y,-z
x,-y,z
1/2+x,1/2+y,z
1/2-x,1/2+y,-z
1/2-x,1/2-y,-z
1/2+x,1/2-y,z
loop_
_atom_site_type_symbol
_atom_site_label
_atom_site_fract_x
_atom_site_fract_y
_atom_site_fract_z
Si Si1 0.179943 0.708201 0.906400
Si Si2 0.049869 0.781186 0.632092
Si Si3 0.862565 0.217184 0.868103
Si Si4 0.511717 0.700575 0.224722
Si Si5 0.151937 0.213582 0.517954
Si Si6 0.000000 0.500000 0.000000
O O1 0.151909 0.500000 0.904374
O O2 0.248503 0.743268 0.854022
O O3 0.076689 0.805664 0.865024
O O4 0.250000 0.750000 0.000000
O O5 0.036059 0.713426 0.714726
O O6 0.135811 0.717860 0.600484
O O7 0.945903 0.732968 0.559406
O O8 0.058994 0.000000 0.638969
O O9 0.924874 0.341986 0.944126
O O10 0.895822 0.275703 0.793077
O O11 0.880561 0.000000 0.882685
O O12 0.541877 0.500000 0.256538
O O13 0.250000 0.250000 0.500000
O O14 0.146476 0.000000 0.521747
#
# Coordination Sequence:
#
# PCOD9210081 Si02
#       6
#     8   8   8   8   8   2
#     4  11  24  39  57  84 114 146 194 247 300 355
#     4   8  17  35  57  82 115 158 191 228 284 354
#     4  10  24  40  57  85 115 150 196 250 304 361
#     4  10  21  39  60  81 116 155 196 244 299 350
#     4   9  17  33  59  87 116 152 195 228 279 346
#     4  12  22  36  68  78 112 148 202 242 312 344
#
# _framework density 23.930395000000001
#
# number of rings (size 3 to 8) (size 9 to 14) (size 15 to 20)
#    0.000    2.286    0.000    3.143    6.667    4.571 
#    0.000    5.714    0.000    0.000    0.000    0.000 
#    0.000    0.000    0.000    0.000    0.000    0.000 
#
# Total GULP energy -116916.294678 kJ/mol
# GULP energy per Si atom -5567.442604 kJ/mol
# Density = 2.387593 g / cm^3
# Si number density = 23.930395 Si / 1000 Ang^3
#
#
#
# Elastic Constant Matrix: (Units=GPa)
#
#
# Indices 1 2 3 4 5 6 
#
# 1 138.4563 3.6779 34.0657 0.0000 -46.3802 0.0000
# 2 3.6779 83.5717 -11.3764 0.0000 -0.6689 0.0000
# 3 34.0657 -11.3764 56.2153 0.0000 -31.8223 0.0000
# 4 0.0000 0.0000 0.0000 -0.2005 0.0000 -1.8579
# 5 -46.3802 -0.6689 -31.8223 0.0000 34.5627 0.0000
# 6 0.0000 0.0000 0.0000 -1.8579 0.0000 19.9549
#
#
#
# Elastic Compliance Matrix: (Units=1/GPa)
#
#
# Indices 1 2 3 4 5 6 
#
# 1 0.013618 0.000186 0.004453 0.000000 0.022378 0.000000
# 2 0.000186 0.012788 0.005757 0.000000 0.005798 0.000000
# 3 0.004453 0.005757 0.041146 0.000000 0.043970 0.000000
# 4 0.000000 0.000000 0.000000 -2.677629 0.000000 -0.249298
# 5 0.022378 0.005798 0.043970 0.000000 0.099558 0.000000
# 6 0.000000 0.000000 0.000000 -0.249298 0.000000 0.026902
#
#
# Mechanical properties :
#
#
# Convention : Reuss Voigt Hill
#
# Bulk Modulus (GPa) = 11.31944 36.77529 24.04737
# Shear Modulus (GPa) = -2.02023 27.65516 12.81746
#
# Velocity S-wave (km/s) = -0.91981 3.40317 2.31685
# Velocity P-wave (km/s) = 1.90062 5.55366 4.15063
#
# Compressibility (1/GPa) = 0.08834356
#
# Stress axis : x y z
#
# Youngs Moduli (GPa) = 73.43182 78.20017 24.30357
#
# Poissons Ratio (x) = -0.01454 -0.10822
# Poissons Ratio (y) = -0.01365 -0.13992
# Poissons Ratio (z) = -0.32697 -0.45021
#
# Static dielectric constant tensor:
#      x y z
#    x 1.792360 0.000000 -0.114720 
#    y 0.000000 1.908550 0.000000 
#    z -0.114720 0.000000 1.975660 
# 
# From -- ./inp_files/267338.got.cif
#   From: 2010.05.17/outbox.cif.g08.bks.cpg/sg12_134_cif.got.tgz:267338.got - 2010.06.03 13:09:07.
