data_PCOD9210662
_publ_section_title
;
Structure prediction by ZEFSAII (Michael W. Deem and Ramdas Pophale) SiO2 
 PCOD9210662
Probable space group: C 2/M
;
_chemical_formula_sum "Si O2"
_cell_formula_units_Z 48
_cell_length_a 29.911304
_cell_length_b 9.519399
_cell_length_c 9.321189
_cell_angle_alpha 90.000000
_cell_angle_beta 80.520818
_cell_angle_gamma 90.000000
_cell_volume 2617.853030
_symmetry_space_group_name_H-M "C 2/M"
_symmetry_group_IT_number 12
_symmetry_cell_setting 'monoclinic'
loop_
_space_group_symop_operation_xyz
x,y,z
-x,y,-z
-x,-y,-z
x,-y,z
1/2+x,1/2+y,z
1/2-x,1/2+y,-z
1/2-x,1/2-y,-z
1/2+x,1/2-y,z
loop_
_atom_site_type_symbol
_atom_site_label
_atom_site_fract_x
_atom_site_fract_y
_atom_site_fract_z
Si Si1 0.954075 0.166800 0.431740
Si Si2 0.276065 0.842065 0.600179
Si Si3 0.282504 0.659036 0.081941
Si Si4 0.122793 0.668561 0.352752
Si Si5 0.539941 0.834840 0.867777
Si Si6 0.629778 0.836293 0.011247
O O1 0.913655 0.244325 0.538130
O O2 0.959830 0.240124 0.273914
O O3 0.000000 0.183786 0.500000
O O4 0.945186 0.000000 0.421254
O O5 0.250000 0.750000 0.500000
O O6 0.243422 0.846770 0.754313
O O7 0.326147 0.794888 0.623080
O O8 0.281767 0.000000 0.539827
O O9 0.287811 0.500000 0.024767
O O10 0.250000 0.750000 0.000000
O O11 0.330425 0.736061 0.062753
O O12 0.116370 0.500000 0.377082
O O13 0.118847 0.695247 0.183957
O O14 0.534226 0.000000 0.830622
O O15 0.500000 0.798179 0.000000
O O16 0.586453 0.821814 0.932263
O O17 0.644808 0.000000 0.999855
#
# Coordination Sequence:
#
# PCOD9210662 Si02
#       6
#     8   8   8   8   8   8
#     4  11  25  42  61  89 125 160 196 242 299 358
#     4  10  23  40  59  86 121 160 202 248 296 350
#     4  11  22  39  61  88 121 160 203 246 298 354
#     4  10  21  41  64  87 118 158 203 248 294 351
#     4  10  22  41  67  94 118 154 200 246 298 356
#     4  10  21  39  63  91 121 153 199 252 299 353
#
# _framework density 18.335636999999998
#
# number of rings (size 3 to 8) (size 9 to 14) (size 15 to 20)
#    0.000    1.667    1.667    2.000    2.333    6.333 
#    0.000    0.000    0.000    0.000    0.000    0.000 
#    0.000    0.000    0.000    0.000    0.000    0.000 
#
# Total GULP energy -134037.446955 kJ/mol
# GULP energy per Si atom -5584.893623 kJ/mol
# Density = 1.829390 g / cm^3
# Si number density = 18.335637 Si / 1000 Ang^3
#
#
#
# Elastic Constant Matrix: (Units=GPa)
#
#
# Indices 1 2 3 4 5 6 
#
# 1 116.9627 82.7998 66.9696 0.0000 -17.6438 0.0000
# 2 82.7998 110.5525 78.6896 0.0000 -4.2136 0.0000
# 3 66.9696 78.6896 113.7843 0.0000 4.3350 0.0000
# 4 0.0000 0.0000 0.0000 30.8957 0.0000 -0.5631
# 5 -17.6438 -4.2136 4.3350 0.0000 33.6236 0.0000
# 6 0.0000 0.0000 0.0000 -0.5631 0.0000 29.9804
#
#
#
# Elastic Compliance Matrix: (Units=1/GPa)
#
#
# Indices 1 2 3 4 5 6 
#
# 1 0.021534 -0.012678 -0.004298 0.000000 0.010265 0.000000
# 2 -0.012678 0.025786 -0.010291 0.000000 -0.002094 0.000000
# 3 -0.004298 -0.010291 0.018662 0.000000 -0.005951 0.000000
# 4 0.000000 0.000000 0.000000 0.032378 0.000000 0.000608
# 5 0.010265 -0.002094 -0.005951 0.000000 0.035632 0.000000
# 6 0.000000 0.000000 0.000000 0.000608 0.000000 0.033367
#
#
# Mechanical properties :
#
#
# Convention : Reuss Voigt Hill
#
# Bulk Modulus (GPa) = 87.34931 88.69084 88.02007
# Shear Modulus (GPa) = 22.15256 26.42264 24.28760
#
# Velocity S-wave (km/s) = 3.47964 3.80024 3.64347
# Velocity P-wave (km/s) = 7.99290 8.22992 8.11227
#
# Compressibility (1/GPa) = 0.01144829
#
# Stress axis : x y z
#
# Youngs Moduli (GPa) = 46.43890 38.78075 53.58546
#
# Poissons Ratio (x) = 0.49165 0.23029
# Poissons Ratio (y) = 0.58874 0.55146
# Poissons Ratio (z) = 0.19957 0.39910
#
# Static dielectric constant tensor:
#      x y z
#    x 1.631750 0.000000 0.022450 
#    y 0.000000 1.631820 0.000000 
#    z 0.022450 0.000000 1.609860 
# 
# From -- ./inp_files/108629.got.cif
#   From: 2010.05.17/outbox.cif.g08.bks.cpg/sg12_55_cif.got.tgz:108629.got - 2010.06.03 13:09:07.
