data_PCOD9210416
_publ_section_title
;
Structure prediction by ZEFSAII (Michael W. Deem and Ramdas Pophale) SiO2 
 PCOD9210416
Probable space group: C 2/M
;
_chemical_formula_sum "Si O2"
_cell_formula_units_Z 40
_cell_length_a 14.063447
_cell_length_b 26.938309
_cell_length_c 13.907391
_cell_angle_alpha 90.000000
_cell_angle_beta 159.916425
_cell_angle_gamma 90.000000
_cell_volume 1809.239305
_symmetry_space_group_name_H-M "C 2/M"
_symmetry_group_IT_number 12
_symmetry_cell_setting 'monoclinic'
loop_
_space_group_symop_operation_xyz
x,y,z
-x,y,-z
-x,-y,-z
x,-y,z
1/2+x,1/2+y,z
1/2-x,1/2+y,-z
1/2-x,1/2-y,-z
1/2+x,1/2-y,z
loop_
_atom_site_type_symbol
_atom_site_label
_atom_site_fract_x
_atom_site_fract_y
_atom_site_fract_z
Si Si1 0.829372 0.057957 0.430528
Si Si2 0.767644 0.302618 0.066718
Si Si3 0.379793 0.944899 0.493693
Si Si4 0.717687 0.908327 0.997635
Si Si5 0.262733 0.836098 0.356668
O O1 0.545010 0.085479 0.181444
O O2 0.000000 0.075677 0.500000
O O3 0.763415 0.000000 0.353231
O O4 0.026142 0.064322 0.709898
O O5 0.716128 0.350245 0.950428
O O6 0.071470 0.312277 0.397218
O O7 0.750000 0.250000 0.000000
O O8 0.530763 0.308747 0.923659
O O9 0.500000 0.947925 0.500000
O O10 0.607376 0.931884 0.792042
O O11 0.200710 0.894520 0.316788
O O12 0.263248 0.000000 0.402986
O O13 0.500000 0.834411 0.500000
#
# Coordination Sequence:
#
# PCOD9210416 Si02
#       5
#     8   8   8   8   8
#     4  11  23  40  62  89 123 162 204 251 305 363
#     4  11  23  41  61  85 117 155 200 252 305 351
#     4   9  18  34  59  92 126 158 193 237 294 365
#     4  11  22  39  62  88 122 162 204 252 304 361
#     4  10  21  39  62  88 120 156 196 240 294 363
#
# _framework density 22.108740999999998
#
# number of rings (size 3 to 8) (size 9 to 14) (size 15 to 20)
#    0.000    1.600    0.000    6.000    0.000    1.600 
#    0.000   14.000    0.000   28.800    0.000    0.000 
#    0.000    0.000    0.000    0.000    0.000    0.000 
#
# Total GULP energy -111713.912285 kJ/mol
# GULP energy per Si atom -5585.695614 kJ/mol
# Density = 2.205842 g / cm^3
# Si number density = 22.108741 Si / 1000 Ang^3
#
#
#
# Elastic Constant Matrix: (Units=GPa)
#
#
# Indices 1 2 3 4 5 6 
#
# 1 101.9335 58.4881 16.5267 0.0013 17.9469 -0.0085
# 2 58.4881 156.5155 19.8389 0.0014 17.2705 0.0094
# 3 16.5267 19.8389 73.0710 -0.0068 26.3234 0.0003
# 4 0.0013 0.0014 -0.0068 17.0009 -0.0006 11.9174
# 5 17.9469 17.2705 26.3234 -0.0006 36.9127 -0.0010
# 6 -0.0085 0.0094 0.0003 11.9174 -0.0010 -75.9146
#
#
#
# Elastic Compliance Matrix: (Units=1/GPa)
#
#
# Indices 1 2 3 4 5 6 
#
# 1 0.013110 -0.004409 -0.000289 0.000000 -0.004105 -0.000002
# 2 -0.004409 0.008268 -0.000843 -0.000002 -0.001123 0.000001
# 3 -0.000289 -0.000843 0.018553 0.000006 -0.012696 0.000001
# 4 0.000000 -0.000002 0.000006 0.052989 -0.000003 0.008318
# 5 -0.004105 -0.001123 -0.012696 -0.000003 0.038666 -0.000001
# 6 -0.000002 0.000001 0.000001 0.008318 -0.000001 -0.011867
#
#
# Mechanical properties :
#
#
# Convention : Reuss Voigt Hill
#
# Bulk Modulus (GPa) = 34.66446 57.91417 46.28932
# Shear Modulus (GPa) = 35.60796 11.37755 23.49275
#
# Velocity S-wave (km/s) = 4.01756 2.27098 3.26329
# Velocity P-wave (km/s) = 6.10198 5.75573 5.93138
#
# Compressibility (1/GPa) = 0.02884799
#
# Stress axis : x y z
#
# Youngs Moduli (GPa) = 76.27760 120.95272 53.89932
#
# Poissons Ratio (x) = 0.53334 0.01559
# Poissons Ratio (y) = 0.33634 0.04542
# Poissons Ratio (z) = 0.02206 0.10193
#
# Static dielectric constant tensor:
#      x y z
#    x 1.895020 0.000000 -0.012880 
#    y 0.000000 1.753540 0.000000 
#    z -0.012880 0.000000 1.815010 
# 
# From -- ./inp_files/12625.got.cif
#   From: 2010.05.17/outbox.cif.g08.bks.cpg/sg12_7_cif.got.tgz:12625.got - 2010.06.03 13:09:07.
