data_PCOD9210526
_publ_section_title
;
Structure prediction by ZEFSAII (Michael W. Deem and Ramdas Pophale) SiO2 
 PCOD9210526
Probable space group: C 2/M
;
_chemical_formula_sum "Si O2"
_cell_formula_units_Z 48
_cell_length_a 14.630589
_cell_length_b 29.107733
_cell_length_c 5.586461
_cell_angle_alpha 90.000000
_cell_angle_beta 109.393191
_cell_angle_gamma 90.000000
_cell_volume 2244.085299
_symmetry_space_group_name_H-M "C 2/M"
_symmetry_group_IT_number 12
_symmetry_cell_setting 'monoclinic'
loop_
_space_group_symop_operation_xyz
x,y,z
-x,y,-z
-x,-y,-z
x,-y,z
1/2+x,1/2+y,z
1/2-x,1/2+y,-z
1/2-x,1/2-y,-z
1/2+x,1/2-y,z
loop_
_atom_site_type_symbol
_atom_site_label
_atom_site_fract_x
_atom_site_fract_y
_atom_site_fract_z
Si Si1 0.793055 0.699951 0.838119
Si Si2 0.105457 0.356688 0.699786
Si Si3 0.609731 0.050163 0.004303
Si Si4 0.442907 0.637911 0.703561
Si Si5 0.893626 0.760823 0.521386
Si Si6 0.246647 0.607881 0.424420
O O1 0.856653 0.722759 0.679003
O O2 0.694303 0.729925 0.745147
O O3 0.749257 0.648083 0.770384
O O4 0.866276 0.686785 0.114380
O O5 0.184381 0.365923 0.568025
O O6 0.000000 0.350178 0.500000
O O7 0.105253 0.405417 0.834687
O O8 0.686980 0.064686 0.275287
O O9 0.635140 0.000000 0.922680
O O10 0.500000 0.046914 0.000000
O O11 0.500000 0.634436 0.500000
O O12 0.402242 0.690391 0.670929
O O13 0.354381 0.602067 0.611698
O O14 0.500000 0.631067 0.000000
O O15 0.000000 0.753967 0.500000
#
# Coordination Sequence:
#
# PCOD9210526 Si02
#       6
#     8   8   8   8   8   8
#     4   9  21  40  58  86 122 163 214 265 318 385
#     4  11  22  38  61  93 127 168 204 256 324 393
#     4  10  21  39  62  93 129 162 207 254 310 392
#     4  10  23  42  67  94 124 169 225 278 325 382
#     4   9  19  41  63  85 118 167 219 272 326 370
#     4  10  22  39  64  89 124 167 207 257 323 388
#
# _framework density 21.389562000000002
#
# number of rings (size 3 to 8) (size 9 to 14) (size 15 to 20)
#    0.000    2.167    1.667    0.000    9.333    1.667 
#    9.000    2.500    3.667    2.000    0.000    0.000 
#    0.000    0.000    0.000    0.000    0.000    0.000 
#
# Total GULP energy -133819.979919 kJ/mol
# GULP energy per Si atom -5575.832497 kJ/mol
# Density = 2.134088 g / cm^3
# Si number density = 21.389562 Si / 1000 Ang^3
#
#
#
# Elastic Constant Matrix: (Units=GPa)
#
#
# Indices 1 2 3 4 5 6 
#
# 1 105.1821 38.9918 56.7387 0.0000 34.0580 0.0000
# 2 38.9918 127.3849 55.2523 0.0000 14.7349 0.0000
# 3 56.7387 55.2523 157.9354 0.0000 45.1867 0.0000
# 4 0.0000 0.0000 0.0000 577.6215 0.0000 375.9249
# 5 34.0580 14.7349 45.1867 0.0000 30.3374 0.0000
# 6 0.0000 0.0000 0.0000 375.9249 0.0000 279.2523
#
#
#
# Elastic Compliance Matrix: (Units=1/GPa)
#
#
# Indices 1 2 3 4 5 6 
#
# 1 0.015935 -0.002987 0.000041 0.000000 -0.016499 0.000000
# 2 -0.002987 0.009820 -0.003411 0.000000 0.003663 0.000000
# 3 0.000041 -0.003411 0.012284 0.000000 -0.016687 0.000000
# 4 0.000000 0.000000 0.000000 0.013975 0.000000 -0.018813
# 5 -0.016499 0.003663 -0.016687 0.000000 0.074561 0.000000
# 6 0.000000 0.000000 0.000000 -0.018813 0.000000 0.028906
#
#
# Mechanical properties :
#
#
# Convention : Reuss Voigt Hill
#
# Bulk Modulus (GPa) = 39.48459 76.94092 58.21276
# Shear Modulus (GPa) = 28.30677 193.41020 110.85848
#
# Velocity S-wave (km/s) = 3.64179 9.51940 7.20700
# Velocity P-wave (km/s) = 6.01526 12.52496 9.82492
#
# Compressibility (1/GPa) = 0.02532634
#
# Stress axis : x y z
#
# Youngs Moduli (GPa) = 62.75478 101.83269 81.40417
#
# Poissons Ratio (x) = 0.30416 -0.00333
# Poissons Ratio (y) = 0.18744 0.27764
# Poissons Ratio (z) = -0.00256 0.34731
#
# Static dielectric constant tensor:
#      x y z
#    x 1.797010 0.000000 -0.048460 
#    y 0.000000 1.852550 0.000000 
#    z -0.048460 0.000000 1.958280 
# 
# From -- ./inp_files/13241.got.cif
#   From: 2010.05.17/outbox.cif.g08.bks.cpg/sg12_7_cif.got.tgz:13241.got - 2010.06.03 13:09:07.
