data_PCOD9210233
_publ_section_title
;
Structure prediction by ZEFSAII (Michael W. Deem and Ramdas Pophale) SiO2 
 PCOD9210233
Probable space group: C 2/M
;
_chemical_formula_sum "Si O2"
_cell_formula_units_Z 48
_cell_length_a 24.058700
_cell_length_b 11.254680
_cell_length_c 16.162880
_cell_angle_alpha 90.000000
_cell_angle_beta 34.478075
_cell_angle_gamma 90.000000
_cell_volume 2477.480121
_symmetry_space_group_name_H-M "C 2/M"
_symmetry_group_IT_number 12
_symmetry_cell_setting 'monoclinic'
loop_
_space_group_symop_operation_xyz
x,y,z
-x,y,-z
-x,-y,-z
x,-y,z
1/2+x,1/2+y,z
1/2-x,1/2+y,-z
1/2-x,1/2-y,-z
1/2+x,1/2-y,z
loop_
_atom_site_type_symbol
_atom_site_label
_atom_site_fract_x
_atom_site_fract_y
_atom_site_fract_z
Si Si1 0.246360 0.866604 0.448205
Si Si2 0.371622 0.630745 0.827795
Si Si3 0.909631 0.132273 0.493054
Si Si4 0.388903 0.860170 0.114388
Si Si5 0.719131 0.753325 0.909974
Si Si6 0.616248 0.130768 0.379435
O O1 0.250000 0.750000 0.500000
O O2 0.139690 0.869808 0.536234
O O3 0.322270 0.852309 0.278523
O O4 0.264130 0.000000 0.463107
O O5 0.374098 0.500000 0.861117
O O6 0.474485 0.649413 0.656208
O O7 0.286387 0.642654 0.864800
O O8 0.351737 0.718227 0.927792
O O9 0.868631 0.248525 0.587689
O O10 0.889453 0.000000 0.554810
O O11 0.341003 0.787843 0.097683
O O12 0.391355 0.000000 0.087689
O O13 0.500000 0.823175 0.000000
O O14 0.801445 0.650597 0.792435
O O15 0.500000 0.131201 0.500000
O O16 0.634367 0.000000 0.395397
#
# Coordination Sequence:
#
# PCOD9210233 Si02
#       6
#     8   8   8   8   8   8
#     4  10  22  40  63  88 119 155 202 252 301 356
#     4  10  22  37  58  88 119 156 199 248 300 360
#     4  10  21  39  61  86 116 154 200 248 298 362
#     4  10  22  40  61  87 120 160 207 254 298 357
#     4  11  21  38  61  84 121 162 199 244 304 364
#     4  11  22  37  58  89 122 152 192 246 303 359
#
# _framework density 19.374524000000001
#
# number of rings (size 3 to 8) (size 9 to 14) (size 15 to 20)
#    0.000    1.667    3.333    1.000    2.333    1.667 
#    0.000    0.833    0.000    2.500    0.000    0.000 
#    0.000    0.000    0.000    0.000    0.000    0.000 
#
# Total GULP energy -133705.402513 kJ/mol
# GULP energy per Si atom -5571.058438 kJ/mol
# Density = 1.933043 g / cm^3
# Si number density = 19.374524 Si / 1000 Ang^3
#
#
#
# Elastic Constant Matrix: (Units=GPa)
#
#
# Indices 1 2 3 4 5 6 
#
# 1 74.4804 31.9710 22.3112 0.0000 -4.6169 0.0000
# 2 31.9710 135.0492 26.5523 0.0000 14.7652 0.0000
# 3 22.3112 26.5523 34.6206 0.0000 -4.6048 0.0000
# 4 0.0000 0.0000 0.0000 22.4743 0.0000 6.1095
# 5 -4.6169 14.7652 -4.6048 0.0000 25.3426 0.0000
# 6 0.0000 0.0000 0.0000 6.1095 0.0000 19.7277
#
#
#
# Elastic Compliance Matrix: (Units=1/GPa)
#
#
# Indices 1 2 3 4 5 6 
#
# 1 0.017411 -0.002768 -0.008671 0.000000 0.003209 0.000000
# 2 -0.002768 0.010327 -0.007177 0.000000 -0.007825 0.000000
# 3 -0.008671 -0.007177 0.041321 0.000000 0.010110 0.000000
# 4 0.000000 0.000000 0.000000 0.048586 0.000000 -0.015047
# 5 0.003209 -0.007825 0.010110 0.000000 0.046440 0.000000
# 6 0.000000 0.000000 0.000000 -0.015047 0.000000 0.055350
#
#
# Mechanical properties :
#
#
# Convention : Reuss Voigt Hill
#
# Bulk Modulus (GPa) = 31.41915 45.09101 38.25508
# Shear Modulus (GPa) = 18.70736 24.39663 21.55200
#
# Velocity S-wave (km/s) = 3.11073 3.55239 3.33887
# Velocity P-wave (km/s) = 5.39945 6.33639 5.88659
#
# Compressibility (1/GPa) = 0.03182772
#
# Stress axis : x y z
#
# Youngs Moduli (GPa) = 57.43577 96.83795 24.20051
#
# Poissons Ratio (x) = 0.26803 0.20984
# Poissons Ratio (y) = 0.15897 0.17369
# Poissons Ratio (z) = 0.49801 0.69500
#
# Static dielectric constant tensor:
#      x y z
#    x 1.674950 0.000000 0.003820 
#    y 0.000000 1.712230 0.000000 
#    z 0.003820 0.000000 1.728420 
# 
# From -- ./inp_files/232807.got.cif
#   From: 2010.05.17/outbox.cif.g08.bks.cpg/sg12_117_cif.got.tgz:232807.got - 2010.06.03 13:09:07.
