data_PCOD9210375
_publ_section_title
;
Structure prediction by ZEFSAII (Michael W. Deem and Ramdas Pophale) SiO2 
 PCOD9210375
Probable space group: C 2/M
;
_chemical_formula_sum "Si O2"
_cell_formula_units_Z 56
_cell_length_a 19.559462
_cell_length_b 7.870126
_cell_length_c 19.334215
_cell_angle_alpha 90.000000
_cell_angle_beta 121.228776
_cell_angle_gamma 90.000000
_cell_volume 2544.978174
_symmetry_space_group_name_H-M "C 2/M"
_symmetry_group_IT_number 12
_symmetry_cell_setting 'monoclinic'
loop_
_space_group_symop_operation_xyz
x,y,z
-x,y,-z
-x,-y,-z
x,-y,z
1/2+x,1/2+y,z
1/2-x,1/2+y,-z
1/2-x,1/2-y,-z
1/2+x,1/2-y,z
loop_
_atom_site_type_symbol
_atom_site_label
_atom_site_fract_x
_atom_site_fract_y
_atom_site_fract_z
Si Si1 0.427521 0.707493 0.915779
Si Si2 0.107082 0.301363 0.359090
Si Si3 0.925406 0.299239 0.505518
Si Si4 0.252940 0.294841 0.816715
Si Si5 0.325199 0.203185 0.087421
Si Si6 0.240185 0.797559 0.649445
Si Si7 0.498858 0.301229 0.813587
O O1 0.569727 0.500000 0.081916
O O2 0.339553 0.759214 0.891307
O O3 0.442096 0.763021 0.845044
O O4 0.500000 0.770288 0.000000
O O5 0.125535 0.500000 0.379241
O O6 0.089678 0.225407 0.425488
O O7 0.182821 0.232301 0.354370
O O8 0.027920 0.287181 0.270616
O O9 0.942955 0.500000 0.524255
O O10 0.842218 0.279695 0.421567
O O11 0.000000 0.228573 0.500000
O O12 0.250882 0.500000 0.814292
O O13 0.190453 0.237706 0.841675
O O14 0.245894 0.237210 0.734320
O O15 0.410984 0.277279 0.112854
O O16 0.331809 0.000000 0.090371
O O17 0.250000 0.250000 0.000000
O O18 0.236216 0.000000 0.638219
O O19 0.484360 0.500000 0.795846
#
# Coordination Sequence:
#
# PCOD9210375 Si02
#       7
#     8   8   8   8   8   8   8
#     4   9  17  33  58  86 114 150 202 248 283 341
#     4  10  22  41  62  89 125 161 199 247 303 359
#     4  10  23  42  65  90 119 160 205 243 292 367
#     4  10  21  39  62  86 118 164 207 244 294 363
#     4  11  24  41  62  87 122 164 206 254 305 361
#     4  11  23  39  62  92 126 157 195 255 308 350
#     4  11  22  37  62  91 122 161 202 249 301 358
#
# _framework density 22.004118999999999
#
# number of rings (size 3 to 8) (size 9 to 14) (size 15 to 20)
#    0.000    1.714    1.429    2.571    2.000    4.857 
#    0.000    0.000    0.000    2.143    0.000    0.000 
#    0.000    0.000    0.000    0.000    0.000    0.000 
#
# Total GULP energy -156377.004545 kJ/mol
# GULP energy per Si atom -5584.893019 kJ/mol
# Density = 2.195404 g / cm^3
# Si number density = 22.004119 Si / 1000 Ang^3
#
#
#
# Elastic Constant Matrix: (Units=GPa)
#
#
# Indices 1 2 3 4 5 6 
#
# 1 92.0031 4.4978 14.8310 0.0000 -5.7949 0.0000
# 2 4.4978 25.8821 -13.0363 0.0000 -12.0015 0.0000
# 3 14.8310 -13.0363 90.5558 0.0000 -6.1468 0.0000
# 4 0.0000 0.0000 0.0000 26.8750 0.0000 3.9212
# 5 -5.7949 -12.0015 -6.1468 0.0000 36.4642 0.0000
# 6 0.0000 0.0000 0.0000 3.9212 0.0000 14.6748
#
#
#
# Elastic Compliance Matrix: (Units=1/GPa)
#
#
# Indices 1 2 3 4 5 6 
#
# 1 0.011404 -0.002893 -0.002252 0.000000 0.000481 0.000000
# 2 -0.002893 0.052284 0.009243 0.000000 0.018307 0.000000
# 3 -0.002252 0.009243 0.013074 0.000000 0.004888 0.000000
# 4 0.000000 0.000000 0.000000 0.038719 0.000000 -0.010346
# 5 0.000481 0.018307 0.004888 0.000000 0.034350 0.000000
# 6 0.000000 0.000000 0.000000 -0.010346 0.000000 0.070908
#
#
# Mechanical properties :
#
#
# Convention : Reuss Voigt Hill
#
# Bulk Modulus (GPa) = 11.77038 24.55846 18.16442
# Shear Modulus (GPa) = 20.75883 29.07937 24.91910
#
# Velocity S-wave (km/s) = 3.07482 3.63925 3.36888
# Velocity P-wave (km/s) = 4.23873 5.37065 4.83791
#
# Compressibility (1/GPa) = 0.08495906
#
# Stress axis : x y z
#
# Youngs Moduli (GPa) = 87.68965 19.12635 76.48711
#
# Poissons Ratio (x) = 0.05533 0.17221
# Poissons Ratio (y) = 0.25368 -0.70698
# Poissons Ratio (z) = 0.19744 -0.17679
#
# Static dielectric constant tensor:
#      x y z
#    x 1.800040 0.000000 -0.024810 
#    y 0.000000 1.814180 0.000000 
#    z -0.024810 0.000000 1.793030 
# 
# From -- ./inp_files/281728.got.cif
#   From: 2010.05.17/outbox.cif.g08.bks.cpg/sg12_141_cif.got.tgz:281728.got - 2010.06.03 13:09:07.
