data_PCOD9210478
_publ_section_title
;
Structure prediction by ZEFSAII (Michael W. Deem and Ramdas Pophale) SiO2 
 PCOD9210478
Probable space group: C 2/M
;
_chemical_formula_sum "Si O2"
_cell_formula_units_Z 30
_cell_length_a 9.511366
_cell_length_b 32.460294
_cell_length_c 5.038275
_cell_angle_alpha 90.000000
_cell_angle_beta 72.333482
_cell_angle_gamma 90.000000
_cell_volume 1482.165602
_symmetry_space_group_name_H-M "C 2/M"
_symmetry_group_IT_number 12
_symmetry_cell_setting 'monoclinic'
loop_
_space_group_symop_operation_xyz
x,y,z
-x,y,-z
-x,-y,-z
x,-y,z
1/2+x,1/2+y,z
1/2-x,1/2+y,-z
1/2-x,1/2-y,-z
1/2+x,1/2-y,z
loop_
_atom_site_type_symbol
_atom_site_label
_atom_site_fract_x
_atom_site_fract_y
_atom_site_fract_z
Si Si1 0.603294 0.914616 0.695040
Si Si2 0.324001 0.711130 0.100100
Si Si3 0.323211 0.340793 0.605407
Si Si4 0.273551 0.500000 0.631172
Si Si5 0.000000 0.000000 0.000000
O O1 0.500000 0.915417 0.500000
O O2 0.733168 0.881258 0.586736
O O3 0.674931 0.959054 0.698858
O O4 0.500000 0.902710 0.000000
O O5 0.285024 0.695948 0.418616
O O6 0.500000 0.718160 0.000000
O O7 0.250000 0.750000 0.000000
O O8 0.288791 0.673529 0.922588
O O9 0.500000 0.347625 0.500000
O O10 0.365139 0.500000 0.303911
O O11 0.380199 0.500000 0.824099
#
# Coordination Sequence:
#
# PCOD9210478 Si02
#       5
#     8   8   8   4   2
#     4  12  25  43  67  97 136 175 219 277 339 388
#     4  10  21  39  62  90 124 165 210 268 326 385
#     4  10  23  41  61  93 128 167 216 268 323 387
#     4  11  24  45  66 101 133 174 228 272 333 385
#     4  10  24  40  68 100 124 166 238 258 328 388
#
# _framework density 20.240652000000001
#
# number of rings (size 3 to 8) (size 9 to 14) (size 15 to 20)
#    0.000    1.333    0.000    4.800    3.733    3.200 
#    4.800    0.000    0.000    0.000    0.000    0.000 
#    0.000    0.000    0.000    0.000    0.000    0.000 
#
# Total GULP energy -83550.958145 kJ/mol
# GULP energy per Si atom -5570.063876 kJ/mol
# Density = 2.019458 g / cm^3
# Si number density = 20.240652 Si / 1000 Ang^3
#
#
#
# Elastic Constant Matrix: (Units=GPa)
#
#
# Indices 1 2 3 4 5 6 
#
# 1 117.3948 65.8855 24.2021 0.0000 30.3166 0.0000
# 2 65.8855 107.5857 -9.3825 0.0000 2.3578 0.0000
# 3 24.2021 -9.3825 111.0342 0.0000 24.2104 0.0000
# 4 0.0000 0.0000 0.0000 19.8299 0.0000 66.4545
# 5 30.3166 2.3578 24.2104 0.0000 31.0639 0.0000
# 6 0.0000 0.0000 0.0000 66.4545 0.0000 626.2149
#
#
#
# Elastic Compliance Matrix: (Units=1/GPa)
#
#
# Indices 1 2 3 4 5 6 
#
# 1 0.020164 -0.012104 -0.001599 0.000000 -0.017514 0.000000
# 2 -0.012104 0.016696 0.002108 0.000000 0.008903 0.000000
# 3 -0.001599 0.002108 0.011117 0.000000 -0.007263 0.000000
# 4 0.000000 0.000000 0.000000 0.078262 0.000000 -0.008305
# 5 -0.017514 0.008903 -0.007263 0.000000 0.054270 0.000000
# 6 0.000000 0.000000 0.000000 -0.008305 0.000000 0.002478
#
#
# Mechanical properties :
#
#
# Convention : Reuss Voigt Hill
#
# Bulk Modulus (GPa) = 40.34474 55.26943 47.80708
# Shear Modulus (GPa) = 23.31669 152.44236 87.87952
#
# Velocity S-wave (km/s) = 3.39776 8.68783 6.59633
# Velocity P-wave (km/s) = 5.94717 11.31386 9.03803
#
# Compressibility (1/GPa) = 0.02478638
#
# Stress axis : x y z
#
# Youngs Moduli (GPa) = 49.59341 59.89403 89.95503
#
# Poissons Ratio (x) = 0.72496 0.14385
# Poissons Ratio (y) = 0.60028 -0.18962
# Poissons Ratio (z) = 0.07931 -0.12625
#
# Static dielectric constant tensor:
#      x y z
#    x 1.674700 0.000000 -0.017120 
#    y 0.000000 1.702630 0.000000 
#    z -0.017120 0.000000 1.703390 
# 
# From -- ./inp_files/3792.got.cif
#   From: 2010.05.17/outbox.cif.g08.bks.cpg/sg12_2_cif.got.tgz:3792.got - 2010.06.03 13:09:07.
