data_PCOD9210354
_publ_section_title
;
Structure prediction by ZEFSAII (Michael W. Deem and Ramdas Pophale) SiO2 
 PCOD9210354
Probable space group: C 2/M
;
_chemical_formula_sum "Si O2"
_cell_formula_units_Z 56
_cell_length_a 9.707776
_cell_length_b 26.631408
_cell_length_c 12.447262
_cell_angle_alpha 90.000000
_cell_angle_beta 57.605124
_cell_angle_gamma 90.000000
_cell_volume 2717.211882
_symmetry_space_group_name_H-M "C 2/M"
_symmetry_group_IT_number 12
_symmetry_cell_setting 'monoclinic'
loop_
_space_group_symop_operation_xyz
x,y,z
-x,y,-z
-x,-y,-z
x,-y,z
1/2+x,1/2+y,z
1/2-x,1/2+y,-z
1/2-x,1/2-y,-z
1/2+x,1/2-y,z
loop_
_atom_site_type_symbol
_atom_site_label
_atom_site_fract_x
_atom_site_fract_y
_atom_site_fract_z
Si Si1 0.643094 0.902568 0.522797
Si Si2 0.014352 0.135038 0.116145
Si Si3 0.784510 0.804279 0.350064
Si Si4 0.673506 0.059899 0.739323
Si Si5 0.981206 0.944434 0.319928
Si Si6 0.591235 0.707760 0.363959
Si Si7 0.171364 0.650279 0.890934
O O1 0.500000 0.916897 0.500000
O O2 0.700147 0.846847 0.460257
O O3 0.599060 0.912697 0.665413
O O4 0.802884 0.936533 0.440942
O O5 0.196718 0.154070 0.067950
O O6 0.863940 0.171718 0.209609
O O7 0.996787 0.092900 0.214350
O O8 0.000000 0.118941 0.000000
O O9 0.663673 0.759498 0.376011
O O10 0.944644 0.783839 0.342818
O O11 0.634569 0.094151 0.860013
O O12 0.871717 0.063313 0.658025
O O13 0.631782 0.000000 0.761446
O O14 0.001881 0.000000 0.268873
O O15 0.500000 0.679658 0.500000
O O16 0.735331 0.677620 0.246255
O O17 0.000000 0.672645 0.000000
#
# Coordination Sequence:
#
# PCOD9210354 Si02
#       7
#     8   8   8   8   8   8   8
#     4  11  22  36  56  89 125 156 196 255 313 358
#     4   9  20  38  57  82 119 158 199 253 310 361
#     4  10  23  39  60  88 118 154 201 254 304 362
#     4  10  21  39  62  85 118 164 205 245 298 363
#     4   9  19  36  58  85 117 160 210 251 297 362
#     4  11  22  40  64  89 119 157 202 249 304 363
#     4  10  23  40  61  90 122 161 206 252 302 361
#
# _framework density 20.609359999999999
#
# number of rings (size 3 to 8) (size 9 to 14) (size 15 to 20)
#    0.000    2.000    0.000    3.429    0.000    8.000 
#    0.000    2.857    0.000    0.000    0.000    0.000 
#    0.000    0.000    0.000    0.000    0.000    0.000 
#
# Total GULP energy -156139.050773 kJ/mol
# GULP energy per Si atom -5576.394670 kJ/mol
# Density = 2.056245 g / cm^3
# Si number density = 20.609360 Si / 1000 Ang^3
#
#
#
# Elastic Constant Matrix: (Units=GPa)
#
#
# Indices 1 2 3 4 5 6 
#
# 1 82.4753 24.1516 46.2974 0.0000 1.0550 0.0000
# 2 24.1516 68.6040 13.4765 0.0000 -1.1889 0.0000
# 3 46.2974 13.4765 75.3127 0.0000 2.2307 0.0000
# 4 0.0000 0.0000 0.0000 -22.1106 0.0000 -13.6650
# 5 1.0550 -1.1889 2.2307 0.0000 33.1592 0.0000
# 6 0.0000 0.0000 0.0000 -13.6650 0.0000 22.2855
#
#
#
# Elastic Compliance Matrix: (Units=1/GPa)
#
#
# Indices 1 2 3 4 5 6 
#
# 1 0.019916 -0.004775 -0.011387 0.000000 -0.000039 0.000000
# 2 -0.004775 0.016270 0.000002 0.000000 0.000735 0.000000
# 3 -0.011387 0.000002 0.020308 0.000000 -0.001004 0.000000
# 4 0.000000 0.000000 0.000000 -0.032798 0.000000 -0.020111
# 5 -0.000039 0.000735 -0.001004 0.000000 0.030253 0.000000
# 6 0.000000 0.000000 0.000000 -0.020111 0.000000 0.032541
#
#
# Mechanical properties :
#
#
# Convention : Reuss Voigt Hill
#
# Bulk Modulus (GPa) = 41.36871 43.80480 42.58675
# Shear Modulus (GPa) = 39.41146 16.16457 27.78802
#
# Velocity S-wave (km/s) = 4.37774 2.80363 3.67593
# Velocity P-wave (km/s) = 6.75790 5.63750 6.22296
#
# Compressibility (1/GPa) = 0.02417286
#
# Stress axis : x y z
#
# Youngs Moduli (GPa) = 50.21091 61.46386 49.24267
#
# Poissons Ratio (x) = 0.29349 0.56075
# Poissons Ratio (y) = 0.23976 -0.00011
# Poissons Ratio (z) = 0.57178 -0.00014
#
# Static dielectric constant tensor:
#      x y z
#    x 1.733960 0.000000 -0.023330 
#    y 0.000000 1.768710 0.000000 
#    z -0.023330 0.000000 1.768360 
# 
# From -- ./inp_files/125573.got.cif
#   From: 2010.05.17/outbox.cif.g08.bks.cpg/sg12_63_cif.got.tgz:125573.got - 2010.06.03 13:09:07.
