data_PCOD9210059
_publ_section_title
;
Structure prediction by ZEFSAII (Michael W. Deem and Ramdas Pophale) SiO2 
 PCOD9210059
Probable space group: C 2/M
;
_chemical_formula_sum "Si O2"
_cell_formula_units_Z 56
_cell_length_a 22.760110
_cell_length_b 8.024995
_cell_length_c 14.798891
_cell_angle_alpha 90.000000
_cell_angle_beta 112.855622
_cell_angle_gamma 90.000000
_cell_volume 2490.790990
_symmetry_space_group_name_H-M "C 2/M"
_symmetry_group_IT_number 12
_symmetry_cell_setting 'monoclinic'
loop_
_space_group_symop_operation_xyz
x,y,z
-x,y,-z
-x,-y,-z
x,-y,z
1/2+x,1/2+y,z
1/2-x,1/2+y,-z
1/2-x,1/2-y,-z
1/2+x,1/2-y,z
loop_
_atom_site_type_symbol
_atom_site_label
_atom_site_fract_x
_atom_site_fract_y
_atom_site_fract_z
Si Si1 0.976952 0.199448 0.088236
Si Si2 0.177370 0.309692 0.468166
Si Si3 0.892766 0.195725 0.748528
Si Si4 0.159185 0.807608 0.740686
Si Si5 0.797281 0.702447 0.841841
Si Si6 0.071709 0.694252 0.542240
Si Si7 0.659428 0.191406 0.940802
O O1 0.913354 0.298786 0.069359
O O2 0.034330 0.244537 0.189977
O O3 0.964704 0.000000 0.089923
O O4 0.000000 0.228398 0.000000
O O5 0.184082 0.500000 0.501230
O O6 0.250000 0.250000 0.500000
O O7 0.142730 0.294066 0.351062
O O8 0.126467 0.230683 0.508691
O O9 0.854633 0.224030 0.818720
O O10 0.890873 0.000000 0.724851
O O11 0.230208 0.748998 0.756497
O O12 0.103220 0.707622 0.659749
O O13 0.160357 0.793271 0.849306
O O14 0.151494 0.000000 0.710479
O O15 0.801058 0.500000 0.843691
O O16 0.801136 0.755398 0.949019
O O17 0.064366 0.500000 0.511185
O O18 0.000000 0.767168 0.500000
O O19 0.677128 0.000000 0.932685
#
# Coordination Sequence:
#
# PCOD9210059 Si02
#       7
#     8   8   8   8   8   8   8
#     4  10  21  39  59  87 125 164 204 252 307 364
#     4  11  24  43  68  96 128 164 210 266 320 379
#     4  11  23  38  63  93 126 164 204 252 310 371
#     4  11  24  41  63  90 123 161 203 255 311 368
#     4  10  22  40  61  91 127 164 206 251 303 367
#     4  10  24  46  67  91 123 162 211 264 318 375
#     4  11  23  38  61  90 123 165 209 251 301 366
#
# _framework density 22.482817000000001
#
# number of rings (size 3 to 8) (size 9 to 14) (size 15 to 20)
#    0.000    1.429    1.429    3.000    2.000    6.857 
#    0.000    0.000    0.000    0.000    0.000    0.000 
#    0.000    0.000    0.000    0.000    0.000    0.000 
#
# Total GULP energy -156489.542607 kJ/mol
# GULP energy per Si atom -5588.912236 kJ/mol
# Density = 2.243164 g / cm^3
# Si number density = 22.482817 Si / 1000 Ang^3
#
#
#
# Elastic Constant Matrix: (Units=GPa)
#
#
# Indices 1 2 3 4 5 6 
#
# 1 118.4346 21.3983 36.5701 0.0000 23.7102 0.0000
# 2 21.3983 25.7890 -2.3259 0.0000 7.8480 0.0000
# 3 36.5701 -2.3259 92.9503 0.0000 18.5821 0.0000
# 4 0.0000 0.0000 0.0000 8.1507 0.0000 -9.1866
# 5 23.7102 7.8480 18.5821 0.0000 42.9343 0.0000
# 6 0.0000 0.0000 0.0000 -9.1866 0.0000 21.1668
#
#
#
# Elastic Compliance Matrix: (Units=1/GPa)
#
#
# Indices 1 2 3 4 5 6 
#
# 1 0.012138 -0.009540 -0.004404 0.000000 -0.003053 0.000000
# 2 -0.009540 0.049218 0.006273 0.000000 -0.006443 0.000000
# 3 -0.004404 0.006273 0.013565 0.000000 -0.004585 0.000000
# 4 0.000000 0.000000 0.000000 0.240178 0.000000 0.104240
# 5 -0.003053 -0.006443 -0.004585 0.000000 0.028140 0.000000
# 6 0.000000 0.000000 0.000000 0.104240 0.000000 0.092485
#
#
# Mechanical properties :
#
#
# Convention : Reuss Voigt Hill
#
# Bulk Modulus (GPa) = 16.78415 38.71766 27.75091
# Shear Modulus (GPa) = 10.61740 26.55245 18.58492
#
# Velocity S-wave (km/s) = 2.17548 3.44031 2.87823
# Velocity P-wave (km/s) = 3.71373 5.74799 4.83897
#
# Compressibility (1/GPa) = 0.05958002
#
# Stress axis : x y z
#
# Youngs Moduli (GPa) = 82.38471 20.31772 73.72046
#
# Poissons Ratio (x) = 0.19382 0.32466
# Poissons Ratio (y) = 0.78591 -0.46244
# Poissons Ratio (z) = 0.36281 -0.12745
#
# Static dielectric constant tensor:
#      x y z
#    x 1.859970 0.000000 -0.015400 
#    y 0.000000 1.825170 0.000000 
#    z -0.015400 0.000000 1.819480 
# 
# From -- ./inp_files/238983.got.cif
#   From: 2010.05.17/outbox.cif.g08.bks.cpg/sg12_120_cif.got.tgz:238983.got - 2010.06.03 13:09:07.
