data_PCOD9210702
_publ_section_title
;
Structure prediction by ZEFSAII (Michael W. Deem and Ramdas Pophale) SiO2 
 PCOD9210702
Probable space group: C 2/M
;
_chemical_formula_sum "Si O2"
_cell_formula_units_Z 48
_cell_length_a 9.164759
_cell_length_b 10.482303
_cell_length_c 26.431563
_cell_angle_alpha 90.000000
_cell_angle_beta 67.348589
_cell_angle_gamma 90.000000
_cell_volume 2343.358794
_symmetry_space_group_name_H-M "C 2/M"
_symmetry_group_IT_number 12
_symmetry_cell_setting 'monoclinic'
loop_
_space_group_symop_operation_xyz
x,y,z
-x,y,-z
-x,-y,-z
x,-y,z
1/2+x,1/2+y,z
1/2-x,1/2+y,-z
1/2-x,1/2-y,-z
1/2+x,1/2-y,z
loop_
_atom_site_type_symbol
_atom_site_label
_atom_site_fract_x
_atom_site_fract_y
_atom_site_fract_z
Si Si1 0.158191 0.773282 0.881331
Si Si2 0.357177 0.000000 0.558502
Si Si3 0.480579 0.153126 0.695543
Si Si4 0.001840 0.644198 0.191207
Si Si5 0.809332 0.858059 0.954141
Si Si6 0.678871 0.739862 0.373656
Si Si7 0.513013 0.500000 0.558438
O O1 0.317645 0.854113 0.853239
O O2 0.215508 0.667055 0.914136
O O3 0.105684 0.719298 0.833962
O O4 0.998511 0.841409 0.921912
O O5 0.500000 0.000000 0.500000
O O6 0.356565 0.128782 0.592089
O O7 0.194584 0.000000 0.549653
O O8 0.490765 0.194066 0.752515
O O9 0.349565 0.227378 0.681347
O O10 0.642713 0.190293 0.645666
O O11 0.456194 0.000000 0.697404
O O12 0.942308 0.500000 0.201660
O O13 0.775276 0.000000 0.977516
O O14 0.750000 0.750000 0.000000
O O15 0.568974 0.625916 0.407864
O O16 0.500000 0.500000 0.500000
#
# Coordination Sequence:
#
# PCOD9210702 Si02
#       7
#     8   4   8   8   8   8   4
#     4  10  22  40  62  90 128 166 214 264 314 372
#     4  12  28  44  68  96 128 170 214 262 317 379
#     4  11  23  40  67  96 128 167 209 260 321 384
#     4  10  21  39  63  92 124 166 209 259 320 377
#     4  11  24  40  63  94 128 171 216 264 317 376
#     4  12  24  44  66  96 130 164 212 264 318 378
#     4  12  28  44  68  96 128 170 214 262 317 379
#
# _framework density 20.483418
#
# number of rings (size 3 to 8) (size 9 to 14) (size 15 to 20)
#    0.000    1.000    3.333    3.000    2.333    6.667 
#    0.000    0.000    3.667    0.000    0.000    0.000 
#    0.000    0.000    0.000    0.000    0.000    0.000 
#
# Total GULP energy -134109.924982 kJ/mol
# GULP energy per Si atom -5587.913541 kJ/mol
# Density = 2.043680 g / cm^3
# Si number density = 20.483418 Si / 1000 Ang^3
#
#
#
# Elastic Constant Matrix: (Units=GPa)
#
#
# Indices 1 2 3 4 5 6 
#
# 1 93.7622 21.3360 7.9864 0.0000 4.9644 0.0000
# 2 21.3360 115.5915 31.9229 0.0000 6.8009 0.0000
# 3 7.9864 31.9229 74.1516 0.0000 5.5009 0.0000
# 4 0.0000 0.0000 0.0000 9.6972 0.0000 5.9617
# 5 4.9644 6.8009 5.5009 0.0000 34.3732 0.0000
# 6 0.0000 0.0000 0.0000 5.9617 0.0000 11.5301
#
#
#
# Elastic Compliance Matrix: (Units=1/GPa)
#
#
# Indices 1 2 3 4 5 6 
#
# 1 0.011189 -0.001914 -0.000293 0.000000 -0.001190 0.000000
# 2 -0.001914 0.010202 -0.004105 0.000000 -0.001085 0.000000
# 3 -0.000293 -0.004105 0.015404 0.000000 -0.001611 0.000000
# 4 0.000000 0.000000 0.000000 0.151180 0.000000 -0.078169
# 5 -0.001190 -0.001085 -0.001611 0.000000 0.029737 0.000000
# 6 0.000000 0.000000 0.000000 -0.078169 0.000000 0.127147
#
#
# Mechanical properties :
#
#
# Convention : Reuss Voigt Hill
#
# Bulk Modulus (GPa) = 41.37286 45.11065 43.24175
# Shear Modulus (GPa) = 13.67835 25.93743 19.80789
#
# Velocity S-wave (km/s) = 2.58694 3.56232 3.11307
# Velocity P-wave (km/s) = 5.40047 6.24428 5.83764
#
# Compressibility (1/GPa) = 0.02417044
#
# Stress axis : x y z
#
# Youngs Moduli (GPa) = 89.37464 98.01853 64.91687
#
# Poissons Ratio (x) = 0.18765 0.01900
# Poissons Ratio (y) = 0.17110 0.26651
# Poissons Ratio (z) = 0.02615 0.40241
#
# Static dielectric constant tensor:
#      x y z
#    x 1.744080 0.000000 0.001520 
#    y 0.000000 1.764710 0.000000 
#    z 0.001520 0.000000 1.741160 
# 
# From -- ./inp_files/332255.got.cif
#   From: 2010.05.17/outbox.cif.g08.bks.cpg/sg12_167_cif.got.tgz:332255.got - 2010.06.03 13:09:07.
