data_PCOD9210626
_publ_section_title
;
Structure prediction by ZEFSAII (Michael W. Deem and Ramdas Pophale) SiO2 
 PCOD9210626
Probable space group: C 2/M
;
_chemical_formula_sum "Si O2"
_cell_formula_units_Z 48
_cell_length_a 12.529354
_cell_length_b 12.800089
_cell_length_c 13.137666
_cell_angle_alpha 90.000000
_cell_angle_beta 114.596792
_cell_angle_gamma 90.000000
_cell_volume 1915.789076
_symmetry_space_group_name_H-M "C 2/M"
_symmetry_group_IT_number 12
_symmetry_cell_setting 'monoclinic'
loop_
_space_group_symop_operation_xyz
x,y,z
-x,y,-z
-x,-y,-z
x,-y,z
1/2+x,1/2+y,z
1/2-x,1/2+y,-z
1/2-x,1/2-y,-z
1/2+x,1/2-y,z
loop_
_atom_site_type_symbol
_atom_site_label
_atom_site_fract_x
_atom_site_fract_y
_atom_site_fract_z
Si Si1 0.132382 0.310292 0.083009
Si Si2 0.868474 0.110054 0.398000
Si Si3 0.406063 0.838263 0.371037
Si Si4 0.858050 0.877598 0.051927
Si Si5 0.318157 0.389274 0.596880
Si Si6 0.969085 0.280493 0.756244
O O1 0.233628 0.368298 0.061180
O O2 0.123508 0.325277 0.199928
O O3 0.149796 0.187410 0.057750
O O4 0.000000 0.342457 0.000000
O O5 0.869533 0.217269 0.339997
O O6 0.785894 0.115885 0.465023
O O7 0.000000 0.106121 0.500000
O O8 0.848391 0.000000 0.335509
O O9 0.500000 0.847693 0.500000
O O10 0.290387 0.888792 0.370234
O O11 0.460156 0.864341 0.282908
O O12 0.948101 0.802139 0.149697
O O13 0.890424 0.000000 0.054876
O O14 0.382125 0.500000 0.637208
O O15 0.397687 0.291069 0.650215
#
# Coordination Sequence:
#
# PCOD9210626 Si02
#       6
#     8   8   8   8   8   8
#     4   9  21  40  61  88 119 148 182 230 285 343
#     4   9  17  32  53  79 104 138 191 239 278 323
#     4  11  22  37  58  79 115 156 198 236 286 335
#     4  10  21  39  63  90 116 146 186 231 284 343
#     4  11  22  36  56  81 112 152 196 241 287 330
#     4  11  21  37  59  84 116 151 192 238 280 333
#
# _framework density 25.054950000000002
#
# number of rings (size 3 to 8) (size 9 to 14) (size 15 to 20)
#    0.000    1.833    3.333    2.000    0.000    5.000 
#    0.000    0.833    0.000    0.000    0.000    0.000 
#    0.000    0.000    0.000    0.000    0.000    0.000 
#
# Total GULP energy -134073.360067 kJ/mol
# GULP energy per Si atom -5586.390003 kJ/mol
# Density = 2.499792 g / cm^3
# Si number density = 25.054950 Si / 1000 Ang^3
#
#
#
# Elastic Constant Matrix: (Units=GPa)
#
#
# Indices 1 2 3 4 5 6 
#
# 1 162.4270 5.3684 25.5766 0.0000 -34.3259 0.0000
# 2 5.3684 76.4374 -4.0249 0.0000 -6.9970 0.0000
# 3 25.5766 -4.0249 48.6782 0.0000 -28.9840 0.0000
# 4 0.0000 0.0000 0.0000 5.1764 0.0000 1.2008
# 5 -34.3259 -6.9970 -28.9840 0.0000 56.3080 0.0000
# 6 0.0000 0.0000 0.0000 1.2008 0.0000 8.9090
#
#
#
# Elastic Compliance Matrix: (Units=1/GPa)
#
#
# Indices 1 2 3 4 5 6 
#
# 1 0.007167 -0.000280 -0.001742 0.000000 0.003437 0.000000
# 2 -0.000280 0.013553 0.003127 0.000000 0.003123 0.000000
# 3 -0.001742 0.003127 0.030736 0.000000 0.015148 0.000000
# 4 0.000000 0.000000 0.000000 0.199418 0.000000 -0.026879
# 5 0.003437 0.003123 0.015148 0.000000 0.028040 0.000000
# 6 0.000000 0.000000 0.000000 -0.026879 0.000000 0.115869
#
#
# Mechanical properties :
#
#
# Convention : Reuss Voigt Hill
#
# Bulk Modulus (GPa) = 18.63384 37.93140 28.28262
# Shear Modulus (GPa) = 12.18139 31.45351 21.81745
#
# Velocity S-wave (km/s) = 2.20736 3.54698 2.95411
# Velocity P-wave (km/s) = 3.73496 5.65216 4.79045
#
# Compressibility (1/GPa) = 0.05366581
#
# Stress axis : x y z
#
# Youngs Moduli (GPa) = 139.53625 73.78518 32.53475
#
# Poissons Ratio (x) = 0.02069 0.05668
# Poissons Ratio (y) = 0.03913 -0.10175
# Poissons Ratio (z) = 0.24308 -0.23076
#
# Static dielectric constant tensor:
#      x y z
#    x 2.041040 0.000000 0.018580 
#    y 0.000000 1.936880 0.000000 
#    z 0.018580 0.000000 2.081500 
# 
# From -- ./inp_files/204281.got.cif
#   From: 2010.05.17/outbox.cif.g08.bks.cpg/sg12_103_cif.got.tgz:204281.got - 2010.06.03 13:09:07.
