data_PCOD9210247
_publ_section_title
;
Structure prediction by ZEFSAII (Michael W. Deem and Ramdas Pophale) SiO2 
 PCOD9210247
Probable space group: C 2/M
;
_chemical_formula_sum "Si O2"
_cell_formula_units_Z 64
_cell_length_a 15.877440
_cell_length_b 8.255219
_cell_length_c 24.502467
_cell_angle_alpha 90.000000
_cell_angle_beta 89.743566
_cell_angle_gamma 90.000000
_cell_volume 3211.548925
_symmetry_space_group_name_H-M "C 2/M"
_symmetry_group_IT_number 12
_symmetry_cell_setting 'monoclinic'
loop_
_space_group_symop_operation_xyz
x,y,z
-x,y,-z
-x,-y,-z
x,-y,z
1/2+x,1/2+y,z
1/2-x,1/2+y,-z
1/2-x,1/2-y,-z
1/2+x,1/2-y,z
loop_
_atom_site_type_symbol
_atom_site_label
_atom_site_fract_x
_atom_site_fract_y
_atom_site_fract_z
Si Si1 0.470989 0.802411 0.939350
Si Si2 0.778908 0.305842 0.939894
Si Si3 0.626722 0.803803 0.864374
Si Si4 0.963480 0.697014 0.668332
Si Si5 0.119081 0.692572 0.740615
Si Si6 0.777859 0.689615 0.674227
Si Si7 0.273943 0.187343 0.440161
Si Si8 0.040240 0.191744 0.558242
O O1 0.375015 0.748844 0.928935
O O2 0.542494 0.749265 0.896573
O O3 0.470395 0.000000 0.938544
O O4 0.500000 0.753447 0.000000
O O5 0.780105 0.500000 0.939449
O O6 0.710041 0.247433 0.896709
O O7 0.750000 0.250000 0.000000
O O8 0.626459 0.743660 0.802092
O O9 0.625539 0.000000 0.864139
O O10 0.965459 0.500000 0.664668
O O11 0.038861 0.754990 0.706983
O O12 0.979118 0.766753 0.608154
O O13 0.871448 0.744307 0.689730
O O14 0.106597 0.500000 0.745040
O O15 0.203101 0.722849 0.705904
O O16 0.769551 0.500000 0.686058
O O17 0.767953 0.717107 0.609459
O O18 0.250000 0.250000 0.500000
O O19 0.373951 0.210462 0.433541
O O20 0.250146 0.000000 0.435437
O O21 0.000000 0.231634 0.500000
O O22 0.060088 0.000000 0.558481
#
# Coordination Sequence:
#
# PCOD9210247 Si02
#       8
#     8   8   8   8   8   8   8   8
#     4   9  17  33  58  85 116 158 201 238 293 362
#     4  11  21  35  59  89 121 157 200 248 305 361
#     4  10  21  39  61  86 120 160 205 249 296 358
#     4  10  22  40  62  88 118 159 205 249 300 363
#     4  10  22  41  63  87 119 163 205 248 304 362
#     4  11  23  40  64  92 122 158 205 256 307 360
#     4  12  24  39  60  88 124 161 203 250 307 370
#     4  11  23  38  59  90 123 155 196 249 310 367
#
# _framework density 19.928079
#
# number of rings (size 3 to 8) (size 9 to 14) (size 15 to 20)
#    0.000    1.500    2.500    3.000    0.000    5.500 
#    0.000    4.375    0.000    0.000    0.000    0.000 
#    0.000    0.000    0.000    0.000    0.000    0.000 
#
# Total GULP energy -178830.907748 kJ/mol
# GULP energy per Si atom -5588.465867 kJ/mol
# Density = 1.988272 g / cm^3
# Si number density = 19.928079 Si / 1000 Ang^3
#
#
#
# Elastic Constant Matrix: (Units=GPa)
#
#
# Indices 1 2 3 4 5 6 
#
# 1 159.9690 4.8617 69.8921 0.0000 8.9109 0.0000
# 2 4.8617 15.0710 2.1506 0.0000 5.2345 0.0000
# 3 69.8921 2.1506 143.9541 0.0000 10.0378 0.0000
# 4 0.0000 0.0000 0.0000 14.6945 0.0000 3.9300
# 5 8.9109 5.2345 10.0378 0.0000 25.9555 0.0000
# 6 0.0000 0.0000 0.0000 3.9300 0.0000 27.5621
#
#
#
# Elastic Compliance Matrix: (Units=1/GPa)
#
#
# Indices 1 2 3 4 5 6 
#
# 1 0.008016 -0.001719 -0.003801 0.000000 -0.000936 0.000000
# 2 -0.001719 0.071720 0.000751 0.000000 -0.014164 0.000000
# 3 -0.003801 0.000751 0.008942 0.000000 -0.002304 0.000000
# 4 0.000000 0.000000 0.000000 0.070751 0.000000 -0.010088
# 5 -0.000936 -0.014164 -0.002304 0.000000 0.042596 0.000000
# 6 0.000000 0.000000 0.000000 -0.010088 0.000000 0.037720
#
#
# Mechanical properties :
#
#
# Convention : Reuss Voigt Hill
#
# Bulk Modulus (GPa) = 12.63597 52.53367 32.58482
# Shear Modulus (GPa) = 18.13810 29.78173 23.95991
#
# Velocity S-wave (km/s) = 3.02019 3.87002 3.47121
# Velocity P-wave (km/s) = 4.30309 6.81089 5.69670
#
# Compressibility (1/GPa) = 0.07913914
#
# Stress axis : x y z
#
# Youngs Moduli (GPa) = 124.74556 13.94321 111.83619
#
# Poissons Ratio (x) = 0.02396 0.42511
# Poissons Ratio (y) = 0.21439 -0.08394
# Poissons Ratio (z) = 0.47418 -0.01047
#
# Static dielectric constant tensor:
#      x y z
#    x 1.698970 0.000000 0.004800 
#    y 0.000000 1.706780 0.000000 
#    z 0.004800 0.000000 1.681530 
# 
# From -- ./inp_files/338906.got.cif
#   From: 2010.05.17/outbox.cif.g08.bks.cpg/sg12_170_cif.got.tgz:338906.got - 2010.06.03 13:09:07.
