data_PCOD9210324
_publ_section_title
;
Structure prediction by ZEFSAII (Michael W. Deem and Ramdas Pophale) SiO2 
 PCOD9210324
Probable space group: C 2/M
;
_chemical_formula_sum "Si O2"
_cell_formula_units_Z 56
_cell_length_a 22.040384
_cell_length_b 14.397053
_cell_length_c 9.414612
_cell_angle_alpha 90.000000
_cell_angle_beta 86.041274
_cell_angle_gamma 90.000000
_cell_volume 2980.284608
_symmetry_space_group_name_H-M "C 2/M"
_symmetry_group_IT_number 12
_symmetry_cell_setting 'monoclinic'
loop_
_space_group_symop_operation_xyz
x,y,z
-x,y,-z
-x,-y,-z
x,-y,z
1/2+x,1/2+y,z
1/2-x,1/2+y,-z
1/2-x,1/2-y,-z
1/2+x,1/2-y,z
loop_
_atom_site_type_symbol
_atom_site_label
_atom_site_fract_x
_atom_site_fract_y
_atom_site_fract_z
Si Si1 0.000397 0.110180 0.170576
Si Si2 0.181925 0.746282 0.953294
Si Si3 0.697838 0.388573 0.433149
Si Si4 0.137362 0.889505 0.741973
Si Si5 0.927723 0.390650 0.528243
Si Si6 0.888161 0.766671 0.749988
Si Si7 0.668669 0.890197 0.693835
O O1 0.052267 0.170921 0.234171
O O2 0.934216 0.133763 0.244509
O O3 0.011509 0.000000 0.190990
O O4 0.000000 0.125648 0.000000
O O5 0.167207 0.840444 0.871305
O O6 0.172239 0.666810 0.837926
O O7 0.250000 0.750000 0.000000
O O8 0.137678 0.736945 0.093758
O O9 0.688101 0.500000 0.415656
O O10 0.671098 0.362349 0.591379
O O11 0.661702 0.330092 0.321818
O O12 0.769717 0.370937 0.405547
O O13 0.141972 0.000000 0.755412
O O14 0.915944 0.500000 0.561254
O O15 0.903678 0.322390 0.653010
O O16 0.890289 0.367865 0.391068
O O17 0.000000 0.378737 0.500000
O O18 0.667887 0.000000 0.724111
#
# Coordination Sequence:
#
# PCOD9210324 Si02
#       7
#     8   8   8   8   8   8   8
#     4  10  21  39  61  92 130 167 199 243 314 385
#     4  12  25  39  60  95 128 162 207 253 311 376
#     4  10  22  40  64  95 125 160 203 252 314 377
#     4  10  23  41  63  89 127 166 203 250 307 376
#     4  10  25  46  66  90 121 165 218 268 312 359
#     4  12  24  37  65  95 126 161 205 261 309 371
#     4  10  23  45  67  87 124 169 208 261 319 368
#
# _framework density 18.790151000000002
#
# number of rings (size 3 to 8) (size 9 to 14) (size 15 to 20)
#    0.000    1.429    2.857    1.286    6.000    2.857 
#    0.000    2.143    0.000    3.000    0.000    0.000 
#    0.000    0.000    0.000    0.000    0.000    0.000 
#
# Total GULP energy -156539.555495 kJ/mol
# GULP energy per Si atom -5590.698411 kJ/mol
# Density = 1.874738 g / cm^3
# Si number density = 18.790151 Si / 1000 Ang^3
#
#
#
# Elastic Constant Matrix: (Units=GPa)
#
#
# Indices 1 2 3 4 5 6 
#
# 1 144.9668 60.4547 73.2551 0.0000 17.9212 0.0000
# 2 60.4547 66.9367 56.9414 0.0000 4.6412 0.0000
# 3 73.2551 56.9414 134.9761 0.0000 -2.0309 0.0000
# 4 0.0000 0.0000 0.0000 12.5923 0.0000 11.8223
# 5 17.9212 4.6412 -2.0309 0.0000 32.5176 0.0000
# 6 0.0000 0.0000 0.0000 11.8223 0.0000 17.1201
#
#
#
# Elastic Compliance Matrix: (Units=1/GPa)
#
#
# Indices 1 2 3 4 5 6 
#
# 1 0.012894 -0.008087 -0.003679 0.000000 -0.006182 0.000000
# 2 -0.008087 0.028890 -0.007801 0.000000 -0.000154 0.000000
# 3 -0.003679 -0.007801 0.012756 0.000000 0.003938 0.000000
# 4 0.000000 0.000000 0.000000 0.225817 0.000000 -0.155939
# 5 -0.006182 -0.000154 0.003938 0.000000 0.034427 0.000000
# 6 0.000000 0.000000 0.000000 -0.155939 0.000000 0.166095
#
#
# Mechanical properties :
#
#
# Convention : Reuss Voigt Hill
#
# Bulk Modulus (GPa) = 64.91227 80.90910 72.91069
# Shear Modulus (GPa) = 9.52110 22.86121 16.19116
#
# Velocity S-wave (km/s) = 2.25346 3.49185 2.93863
# Velocity P-wave (km/s) = 6.43363 7.70780 7.09936
#
# Compressibility (1/GPa) = 0.01540541
#
# Stress axis : x y z
#
# Youngs Moduli (GPa) = 77.55527 34.61406 78.39537
#
# Poissons Ratio (x) = 0.27992 0.28845
# Poissons Ratio (y) = 0.62717 0.61156
# Poissons Ratio (z) = 0.28536 0.27003
#
# Static dielectric constant tensor:
#      x y z
#    x 1.644170 0.000000 -0.007330 
#    y 0.000000 1.653480 0.000000 
#    z -0.007330 0.000000 1.615670 
# 
# From -- ./inp_files/86369.got.cif
#   From: 2010.05.17/outbox.cif.g08.bks.cpg/sg12_44_cif.got.tgz:86369.got - 2010.06.03 13:09:07.
