data_PCOD9210804
_publ_section_title
;
Structure prediction by ZEFSAII (Michael W. Deem and Ramdas Pophale) SiO2 
 PCOD9210804
Probable space group: C 2/M
;
_chemical_formula_sum "Si O2"
_cell_formula_units_Z 42
_cell_length_a 13.769891
_cell_length_b 16.835030
_cell_length_c 8.797755
_cell_angle_alpha 90.000000
_cell_angle_beta 107.079256
_cell_angle_gamma 90.000000
_cell_volume 1949.523408
_symmetry_space_group_name_H-M "C 2/M"
_symmetry_group_IT_number 12
_symmetry_cell_setting 'monoclinic'
loop_
_space_group_symop_operation_xyz
x,y,z
-x,y,-z
-x,-y,-z
x,-y,z
1/2+x,1/2+y,z
1/2-x,1/2+y,-z
1/2-x,1/2-y,-z
1/2+x,1/2-y,z
loop_
_atom_site_type_symbol
_atom_site_label
_atom_site_fract_x
_atom_site_fract_y
_atom_site_fract_z
Si Si1 0.537466 0.726629 0.346464
Si Si2 0.500000 0.000000 0.500000
Si Si3 0.588608 0.370292 0.941062
Si Si4 0.288491 0.262431 0.770723
Si Si5 0.291657 0.914367 0.888462
Si Si6 0.908906 0.366517 0.234887
O O1 0.500000 0.729440 0.500000
O O2 0.470365 0.661331 0.231891
O O3 0.655137 0.715170 0.360244
O O4 0.505765 0.810166 0.257384
O O5 0.561197 0.069009 0.626905
O O6 0.685648 0.417683 0.931941
O O7 0.500000 0.409064 0.000000
O O8 0.635853 0.297610 0.063153
O O9 0.281135 0.167640 0.789620
O O10 0.183329 0.309147 0.749532
O O11 0.308138 0.000000 0.816424
O O12 0.375183 0.902371 0.058435
#
# Coordination Sequence:
#
# PCOD9210804 Si02
#       6
#     8   2   8   8   8   8
#     4  11  21  37  64  89 119 169 215 261 317 387
#     4  12  24  40  60 102 134 164 192 264 342 368
#     4   9  18  36  61  87 119 164 217 254 311 380
#     4  10  21  39  64  89 123 174 213 261 311 375
#     4  11  20  36  62  92 128 164 216 267 305 371
#     4  11  21  40  61  90 134 162 211 259 318 391
#
# _framework density 21.543727000000001
#
# number of rings (size 3 to 8) (size 9 to 14) (size 15 to 20)
#    0.000    1.524    5.714    1.143    0.000    1.143 
#    1.714    0.952    0.000    0.571    0.000    0.000 
#    0.000    0.000    0.000    0.000    0.000    0.000 
#
# Total GULP energy -116949.892203 kJ/mol
# GULP energy per Si atom -5569.042486 kJ/mol
# Density = 2.149469 g / cm^3
# Si number density = 21.543727 Si / 1000 Ang^3
#
#
#
# Elastic Constant Matrix: (Units=GPa)
#
#
# Indices 1 2 3 4 5 6 
#
# 1 67.3440 -0.8858 9.2141 0.0000 -3.5370 0.0000
# 2 -0.8858 123.4643 20.9247 0.0000 3.1437 0.0000
# 3 9.2141 20.9247 60.2329 0.0000 10.2558 0.0000
# 4 0.0000 0.0000 0.0000 -47.7206 0.0000 -54.1716
# 5 -3.5370 3.1437 10.2558 0.0000 27.2700 0.0000
# 6 0.0000 0.0000 0.0000 -54.1716 0.0000 -43.2910
#
#
#
# Elastic Compliance Matrix: (Units=1/GPa)
#
#
# Indices 1 2 3 4 5 6 
#
# 1 0.015441 0.000554 -0.003082 0.000000 0.003098 0.000000
# 2 0.000554 0.008627 -0.003125 0.000000 0.000253 0.000000
# 3 -0.003082 -0.003125 0.019409 0.000000 -0.007339 0.000000
# 4 0.000000 0.000000 0.000000 0.049835 0.000000 -0.062360
# 5 0.003098 0.000253 -0.007339 0.000000 0.039803 0.000000
# 6 0.000000 0.000000 0.000000 -0.062360 0.000000 0.054934
#
#
# Mechanical properties :
#
#
# Convention : Reuss Voigt Hill
#
# Bulk Modulus (GPa) = 31.08363 34.39413 32.73888
# Shear Modulus (GPa) = 23.80079 2.03757 12.91918
#
# Velocity S-wave (km/s) = 3.32741 0.97357 2.45148
# Velocity P-wave (km/s) = 5.40571 4.15491 4.82104
#
# Compressibility (1/GPa) = 0.03217128
#
# Stress axis : x y z
#
# Youngs Moduli (GPa) = 64.76335 115.92034 51.52316
#
# Poissons Ratio (x) = -0.06425 0.15880
# Poissons Ratio (y) = -0.03589 0.16099
# Poissons Ratio (z) = 0.19961 0.36221
#
# Static dielectric constant tensor:
#      x y z
#    x 1.801170 0.000000 -0.013500 
#    y 0.000000 1.790200 0.000000 
#    z -0.013500 0.000000 1.796690 
# 
# From -- ./inp_files/61320.got.cif
#   From: 2010.05.17/outbox.cif.g08.bks.cpg/sg12_31_cif.got.tgz:61320.got - 2010.06.03 13:09:07.
