data_PCOD9210720
_publ_section_title
;
Structure prediction by ZEFSAII (Michael W. Deem and Ramdas Pophale) SiO2 
 PCOD9210720
Probable space group: C 2/M
;
_chemical_formula_sum "Si O2"
_cell_formula_units_Z 48
_cell_length_a 13.041562
_cell_length_b 22.124257
_cell_length_c 9.213802
_cell_angle_alpha 90.000000
_cell_angle_beta 112.117318
_cell_angle_gamma 90.000000
_cell_volume 2462.876863
_symmetry_space_group_name_H-M "C 2/M"
_symmetry_group_IT_number 12
_symmetry_cell_setting 'monoclinic'
loop_
_space_group_symop_operation_xyz
x,y,z
-x,y,-z
-x,-y,-z
x,-y,z
1/2+x,1/2+y,z
1/2-x,1/2+y,-z
1/2-x,1/2-y,-z
1/2+x,1/2-y,z
loop_
_atom_site_type_symbol
_atom_site_label
_atom_site_fract_x
_atom_site_fract_y
_atom_site_fract_z
Si Si1 0.856215 0.793640 0.057453
Si Si2 0.169099 0.000000 0.162448
Si Si3 0.483854 0.824484 0.153274
Si Si4 0.558141 0.500000 0.783121
Si Si5 0.706692 0.819241 0.458401
Si Si6 0.110558 0.124528 0.644470
Si Si7 0.725706 0.871129 0.783778
O O1 0.954752 0.746295 0.117369
O O2 0.862622 0.833201 0.204686
O O3 0.750000 0.750000 0.000000
O O4 0.833664 0.837619 0.910212
O O5 0.241999 0.059702 0.216829
O O6 0.069666 0.000000 0.228736
O O7 0.121906 0.000000 0.971862
O O8 0.592458 0.824872 0.309706
O O9 0.379240 0.858193 0.169029
O O10 0.500000 0.849678 0.000000
O O11 0.589331 0.558402 0.702742
O O12 0.750000 0.750000 0.500000
O O13 0.792314 0.862333 0.418045
O O14 0.695229 0.842675 0.614696
O O15 0.000000 0.142639 0.500000
#
# Coordination Sequence:
#
# PCOD9210720 Si02
#       7
#     8   4   8   4   8   8   8
#     4  10  21  39  63  92 131 174 218 271 332 400
#     4  11  24  46  71  97 130 177 227 285 335 396
#     4  11  23  40  65  96 134 174 222 274 336 403
#     4  11  25  44  69  98 131 175 231 282 336 397
#     4  12  24  41  67 103 138 178 218 278 338 407
#     4  12  24  42  66  98 136 174 224 280 338 399
#     4  11  23  44  67  95 134 176 225 274 338 401
#
# _framework density 19.489402999999999
#
# number of rings (size 3 to 8) (size 9 to 14) (size 15 to 20)
#    0.000    0.833    1.667    7.750    0.000    2.000 
#    0.000    2.917    0.000    0.000    0.000    0.000 
#    0.000    0.000    0.000    0.000    0.000    0.000 
#
# Total GULP energy -134075.858346 kJ/mol
# GULP energy per Si atom -5586.494098 kJ/mol
# Density = 1.944504 g / cm^3
# Si number density = 19.489403 Si / 1000 Ang^3
#
#
#
# Elastic Constant Matrix: (Units=GPa)
#
#
# Indices 1 2 3 4 5 6 
#
# 1 124.6055 57.2602 58.3778 0.0000 -16.6093 0.0000
# 2 57.2602 131.5755 46.1829 0.0000 -10.4937 0.0000
# 3 58.3778 46.1829 157.0828 0.0000 -2.3600 0.0000
# 4 0.0000 0.0000 0.0000 31.0238 0.0000 4.8483
# 5 -16.6093 -10.4937 -2.3600 0.0000 46.1672 0.0000
# 6 0.0000 0.0000 0.0000 4.8483 0.0000 14.1320
#
#
#
# Elastic Compliance Matrix: (Units=1/GPa)
#
#
# Indices 1 2 3 4 5 6 
#
# 1 0.011643 -0.003692 -0.003194 0.000000 0.003186 0.000000
# 2 -0.003692 0.009798 -0.001496 0.000000 0.000822 0.000000
# 3 -0.003194 -0.001496 0.007977 0.000000 -0.001081 0.000000
# 4 0.000000 0.000000 0.000000 0.034059 0.000000 -0.011685
# 5 0.003186 0.000822 -0.001081 0.000000 0.022938 0.000000
# 6 0.000000 0.000000 0.000000 -0.011685 0.000000 0.074770
#
#
# Mechanical properties :
#
#
# Convention : Reuss Voigt Hill
#
# Bulk Modulus (GPa) = 79.02758 81.87839 80.45298
# Shear Modulus (GPa) = 27.44756 35.02747 31.23752
#
# Velocity S-wave (km/s) = 3.75685 4.24401 4.00784
# Velocity P-wave (km/s) = 7.71074 8.13132 7.92382
#
# Compressibility (1/GPa) = 0.01265381
#
# Stress axis : x y z
#
# Youngs Moduli (GPa) = 85.89064 102.06659 125.36709
#
# Poissons Ratio (x) = 0.37680 0.40038
# Poissons Ratio (y) = 0.31708 0.18757
# Poissons Ratio (z) = 0.27430 0.15271
#
# Static dielectric constant tensor:
#      x y z
#    x 1.697860 0.000000 -0.009270 
#    y 0.000000 1.671090 0.000000 
#    z -0.009270 0.000000 1.676580 
# 
# From -- ./inp_files/51504.got.cif
#   From: 2010.05.17/outbox.cif.g08.bks.cpg/sg12_26_cif.got.tgz:51504.got - 2010.06.03 13:09:07.
