data_PCOD9210749
_publ_section_title
;
Structure prediction by ZEFSAII (Michael W. Deem and Ramdas Pophale) SiO2 
 PCOD9210749
Probable space group: C 2/M
;
_chemical_formula_sum "Si O2"
_cell_formula_units_Z 44
_cell_length_a 17.324865
_cell_length_b 27.118279
_cell_length_c 5.890506
_cell_angle_alpha 90.000000
_cell_angle_beta 134.409298
_cell_angle_gamma 90.000000
_cell_volume 1976.975035
_symmetry_space_group_name_H-M "C 2/M"
_symmetry_group_IT_number 12
_symmetry_cell_setting 'monoclinic'
loop_
_space_group_symop_operation_xyz
x,y,z
-x,y,-z
-x,-y,-z
x,-y,z
1/2+x,1/2+y,z
1/2-x,1/2+y,-z
1/2-x,1/2-y,-z
1/2+x,1/2-y,z
loop_
_atom_site_type_symbol
_atom_site_label
_atom_site_fract_x
_atom_site_fract_y
_atom_site_fract_z
Si Si1 0.898350 0.783059 0.945412
Si Si2 0.288411 0.084236 0.464943
Si Si3 0.688965 0.821453 0.236642
Si Si4 0.156565 0.860218 0.819277
Si Si5 0.441289 0.000000 0.627717
Si Si6 0.903398 0.945864 0.619112
O O1 0.790768 0.800773 0.591693
O O2 0.890546 0.724227 0.960388
O O3 0.898012 0.813246 0.177077
O O4 0.000000 0.795831 0.000000
O O5 0.349693 0.130074 0.709349
O O6 0.366404 0.048071 0.492722
O O7 0.213776 0.057910 0.500267
O O8 0.201868 0.106168 0.112979
O O9 0.741420 0.839540 0.111068
O O10 0.090940 0.897013 0.521916
O O11 0.500000 0.000000 0.500000
O O12 0.500000 0.000000 0.000000
O O13 0.909124 0.000000 0.516246
O O14 0.000000 0.944139 0.000000
#
# Coordination Sequence:
#
# PCOD9210749 Si02
#       6
#     8   8   8   8   4   8
#     4  10  21  39  63  94 129 172 220 283 346 426
#     4  10  23  42  67  99 138 179 226 292 351 419
#     4   9  21  40  63  94 132 167 223 283 346 418
#     4  10  22  39  68  92 134 177 226 276 359 419
#     4  12  30  48  75 105 143 191 250 296 358 423
#     4  10  22  39  65  98 137 179 230 285 354 431
#
# _framework density 22.256222000000001
#
# number of rings (size 3 to 8) (size 9 to 14) (size 15 to 20)
#    0.000    2.000    0.909    0.545    6.364   10.182 
#    0.000    1.818    0.000    0.545    0.000    0.000 
#    0.000    0.000    0.000    0.000    0.000    0.000 
#
# Total GULP energy -122932.934399 kJ/mol
# GULP energy per Si atom -5587.860654 kJ/mol
# Density = 2.220557 g / cm^3
# Si number density = 22.256222 Si / 1000 Ang^3
#
#
#
# Elastic Constant Matrix: (Units=GPa)
#
#
# Indices 1 2 3 4 5 6 
#
# 1 130.9824 68.1586 7.1463 0.0000 -16.5542 0.0000
# 2 68.1586 179.3727 27.6601 0.0000 -9.2213 0.0000
# 3 7.1463 27.6601 43.1794 0.0000 -3.4823 0.0000
# 4 0.0000 0.0000 0.0000 4.9826 0.0000 -7.6806
# 5 -16.5542 -9.2213 -3.4823 0.0000 23.0843 0.0000
# 6 0.0000 0.0000 0.0000 -7.6806 0.0000 14.6141
#
#
#
# Elastic Compliance Matrix: (Units=1/GPa)
#
#
# Indices 1 2 3 4 5 6 
#
# 1 0.010308 -0.003792 0.001212 0.000000 0.006060 0.000000
# 2 -0.003792 0.007664 -0.004307 0.000000 -0.000308 0.000000
# 3 0.001212 -0.004307 0.025965 0.000000 0.003066 0.000000
# 4 0.000000 0.000000 0.000000 1.057132 0.000000 0.555586
# 5 0.006060 -0.000308 0.003066 0.000000 0.048005 0.000000
# 6 0.000000 0.000000 0.000000 0.555586 0.000000 0.360421
#
#
# Mechanical properties :
#
#
# Convention : Reuss Voigt Hill
#
# Bulk Modulus (GPa) = 33.15358 62.16272 47.65815
# Shear Modulus (GPa) = 3.26089 25.24082 14.25086
#
# Velocity S-wave (km/s) = 1.21175 3.37130 2.53318
# Velocity P-wave (km/s) = 4.10931 6.56851 5.47867
#
# Compressibility (1/GPa) = 0.03016266
#
# Stress axis : x y z
#
# Youngs Moduli (GPa) = 97.01554 130.47623 38.51383
#
# Poissons Ratio (x) = 0.49478 -0.04668
# Poissons Ratio (y) = 0.36789 0.16587
# Poissons Ratio (z) = -0.11758 0.56193
#
# Static dielectric constant tensor:
#      x y z
#    x 1.821260 0.000000 -0.006740 
#    y 0.000000 1.831240 0.000000 
#    z -0.006740 0.000000 1.840670 
# 
# From -- ./inp_files/17814.got.cif
#   From: 2010.05.17/outbox.cif.g08.bks.cpg/sg12_9_cif.got.tgz:17814.got - 2010.06.03 13:09:07.
