data_PCOD9210435
_publ_section_title
;
Structure prediction by ZEFSAII (Michael W. Deem and Ramdas Pophale) SiO2 
 PCOD9210435
Probable space group: C 2/M
;
_chemical_formula_sum "Si O2"
_cell_formula_units_Z 64
_cell_length_a 29.536885
_cell_length_b 8.525461
_cell_length_c 16.278549
_cell_angle_alpha 90.000000
_cell_angle_beta 41.050506
_cell_angle_gamma 90.000000
_cell_volume 2692.037929
_symmetry_space_group_name_H-M "C 2/M"
_symmetry_group_IT_number 12
_symmetry_cell_setting 'monoclinic'
loop_
_space_group_symop_operation_xyz
x,y,z
-x,y,-z
-x,-y,-z
x,-y,z
1/2+x,1/2+y,z
1/2-x,1/2+y,-z
1/2-x,1/2-y,-z
1/2+x,1/2-y,z
loop_
_atom_site_type_symbol
_atom_site_label
_atom_site_fract_x
_atom_site_fract_y
_atom_site_fract_z
Si Si1 0.907216 0.681422 0.529844
Si Si2 0.333051 0.188022 0.804703
Si Si3 0.414080 0.819657 0.202682
Si Si4 0.786909 0.820442 0.300681
Si Si5 0.539974 0.679323 0.292132
Si Si6 0.199152 0.813637 0.906243
Si Si7 0.046714 0.183545 0.093392
Si Si8 0.656184 0.678745 0.544843
O O1 0.892161 0.500000 0.531324
O O2 0.874654 0.715842 0.662548
O O3 0.876005 0.786581 0.500167
O O4 0.989012 0.711188 0.413145
O O5 0.380444 0.271397 0.806784
O O6 0.255613 0.248042 0.892999
O O7 0.331082 0.000000 0.821264
O O8 0.366809 0.719198 0.206097
O O9 0.492495 0.766651 0.108919
O O10 0.377099 0.789927 0.341381
O O11 0.410794 0.000000 0.183577
O O12 0.769598 0.804068 0.228257
O O13 0.737201 0.710977 0.421490
O O14 0.774025 0.000000 0.341987
O O15 0.531956 0.500000 0.330255
O O16 0.519641 0.688925 0.224327
O O17 0.190313 0.000000 0.936795
O O18 0.123062 0.745421 0.998785
O O19 0.051965 0.000000 0.062442
O O20 0.642942 0.500000 0.588022
#
# Coordination Sequence:
#
# PCOD9210435 Si02
#       8
#     8   8   8   8   8   8   8   8
#     4  11  21  37  62  90 121 159 202 246 301 367
#     4  10  21  39  62  89 120 160 205 247 298 363
#     4  12  25  41  62  91 125 161 201 248 303 362
#     4  11  22  41  66  92 122 160 204 247 299 362
#     4  11  23  37  58  91 126 160 202 250 303 357
#     4   9  20  41  66  88 116 161 210 252 298 360
#     4  10  22  42  64  87 119 161 209 255 301 354
#     4  12  23  38  62  93 126 159 195 246 306 364
#
# _framework density 23.773809
#
# number of rings (size 3 to 8) (size 9 to 14) (size 15 to 20)
#    0.000    1.250    2.500    4.125    0.000    4.000 
#    0.000    4.375    0.000    0.000    0.000    0.000 
#    0.000    0.000    0.000    0.000    0.000    0.000 
#
# Total GULP energy -179114.367047 kJ/mol
# GULP energy per Si atom -5597.323970 kJ/mol
# Density = 2.371970 g / cm^3
# Si number density = 23.773809 Si / 1000 Ang^3
#
#
#
# Elastic Constant Matrix: (Units=GPa)
#
#
# Indices 1 2 3 4 5 6 
#
# 1 129.2253 8.5608 7.2097 0.0003 -23.9698 -0.0001
# 2 8.5608 41.6551 1.4536 -0.0043 1.7422 0.0011
# 3 7.2097 1.4536 67.0339 -0.0018 -27.2648 0.0006
# 4 0.0003 -0.0043 -0.0018 19.5104 0.0006 -9.1840
# 5 -23.9698 1.7422 -27.2648 0.0006 45.2615 -0.0001
# 6 -0.0001 0.0011 0.0006 -9.1840 -0.0001 31.0267
#
#
#
# Elastic Compliance Matrix: (Units=1/GPa)
#
#
# Indices 1 2 3 4 5 6 
#
# 1 0.008837 -0.002097 0.001366 -0.000001 0.005583 0.000000
# 2 -0.002097 0.024615 -0.001517 0.000006 -0.002972 0.000001
# 3 0.001366 -0.001517 0.020029 0.000001 0.012847 0.000000
# 4 -0.000001 0.000006 0.000001 0.059552 -0.000001 0.017628
# 5 0.005583 -0.002972 0.012847 -0.000001 0.032904 0.000000
# 6 0.000000 0.000001 0.000000 0.017628 0.000000 0.037448
#
#
# Mechanical properties :
#
#
# Convention : Reuss Voigt Hill
#
# Bulk Modulus (GPa) = 20.41472 30.26250 25.33861
# Shear Modulus (GPa) = 24.48459 33.87241 29.17850
#
# Velocity S-wave (km/s) = 3.21268 3.77872 3.50714
# Velocity P-wave (km/s) = 4.72943 5.63873 5.20398
#
# Compressibility (1/GPa) = 0.04898427
#
# Stress axis : x y z
#
# Youngs Moduli (GPa) = 113.16298 40.62571 49.92735
#
# Poissons Ratio (x) = 0.08520 -0.06820
# Poissons Ratio (y) = 0.23734 0.07574
# Poissons Ratio (z) = -0.15458 0.06163
#
# Static dielectric constant tensor:
#      x y z
#    x 1.924740 0.000000 -0.023430 
#    y 0.000000 1.801670 0.000000 
#    z -0.023430 0.000000 1.965430 
# 
# From -- ./inp_files/295641.got.cif
#   From: 2010.05.17/outbox.cif.g08.bks.cpg/sg12_148_cif.got.tgz:295641.got - 2010.06.03 13:09:07.
