data_PCOD9210018
_publ_section_title
;
Structure prediction by ZEFSAII (Michael W. Deem and Ramdas Pophale) SiO2 
 PCOD9210018
Probable space group: C 2/M
;
_chemical_formula_sum "Si O2"
_cell_formula_units_Z 56
_cell_length_a 15.622635
_cell_length_b 7.953087
_cell_length_c 25.129777
_cell_angle_alpha 90.000000
_cell_angle_beta 61.449095
_cell_angle_gamma 90.000000
_cell_volume 2742.631351
_symmetry_space_group_name_H-M "C 2/M"
_symmetry_group_IT_number 12
_symmetry_cell_setting 'monoclinic'
loop_
_space_group_symop_operation_xyz
x,y,z
-x,y,-z
-x,-y,-z
x,-y,z
1/2+x,1/2+y,z
1/2-x,1/2+y,-z
1/2-x,1/2-y,-z
1/2+x,1/2-y,z
loop_
_atom_site_type_symbol
_atom_site_label
_atom_site_fract_x
_atom_site_fract_y
_atom_site_fract_z
Si Si1 0.900806 0.701750 0.498619
Si Si2 0.683915 0.802509 0.802894
Si Si3 0.317463 0.203625 0.409762
Si Si4 0.031720 0.807791 0.933427
Si Si5 0.578470 0.795648 0.729508
Si Si6 0.642559 0.700508 0.184724
Si Si7 0.841523 0.694353 0.938101
O O1 0.911104 0.500000 0.492832
O O2 0.795985 0.740808 0.556966
O O3 0.877091 0.762105 0.444893
O O4 0.000000 0.763016 0.500000
O O5 0.613521 0.782676 0.874713
O O6 0.636043 0.730348 0.764217
O O7 0.787656 0.733385 0.789522
O O8 0.695903 0.000000 0.788778
O O9 0.371716 0.258502 0.340093
O O10 0.316589 0.000000 0.411792
O O11 0.934700 0.802237 0.926976
O O12 0.064102 0.000000 0.933022
O O13 0.000000 0.734928 0.000000
O O14 0.468183 0.738324 0.768944
O O15 0.578190 0.000000 0.730304
O O16 0.655836 0.500000 0.175103
O O17 0.674044 0.781876 0.119728
O O18 0.864198 0.500000 0.942364
O O19 0.750000 0.750000 0.000000
#
# Coordination Sequence:
#
# PCOD9210018 Si02
#       7
#     8   8   8   8   8   8   8
#     4   9  18  34  56  84 119 155 195 242 290 338
#     4  10  22  39  58  81 112 150 189 236 293 352
#     4   9  19  35  56  83 116 155 198 240 287 345
#     4  11  23  38  58  85 113 143 187 238 290 351
#     4  10  21  39  59  82 116 157 195 238 296 353
#     4  11  23  39  59  85 114 148 193 241 292 350
#     4  12  24  39  59  83 113 148 188 238 296 352
#
# _framework density 20.418348000000002
#
# number of rings (size 3 to 8) (size 9 to 14) (size 15 to 20)
#    0.000    1.714    1.429    3.000    0.000    6.571 
#    0.000    0.000    0.000    0.000    0.000    0.000 
#    0.000    0.000    0.000    0.000    0.000    0.000 
#
# Total GULP energy -156305.981597 kJ/mol
# GULP energy per Si atom -5582.356486 kJ/mol
# Density = 2.037187 g / cm^3
# Si number density = 20.418348 Si / 1000 Ang^3
#
#
#
# Elastic Constant Matrix: (Units=GPa)
#
#
# Indices 1 2 3 4 5 6 
#
# 1 191.4634 1.0410 79.2200 0.0000 4.7313 0.0001
# 2 1.0410 29.6825 1.0483 0.0000 1.5741 0.0001
# 3 79.2200 1.0483 136.9177 0.0000 2.3042 0.0000
# 4 0.0000 0.0000 0.0000 19.0360 0.0000 0.2406
# 5 4.7313 1.5741 2.3042 0.0000 19.1693 0.0000
# 6 0.0001 0.0001 0.0000 0.2406 0.0000 -16.1705
#
#
#
# Elastic Compliance Matrix: (Units=1/GPa)
#
#
# Indices 1 2 3 4 5 6 
#
# 1 0.006895 -0.000037 -0.003969 0.000000 -0.001222 0.000000
# 2 -0.000037 0.033844 -0.000192 0.000000 -0.002747 0.000000
# 3 -0.003969 -0.000192 0.009604 0.000000 -0.000159 0.000000
# 4 0.000000 0.000000 0.000000 0.052522 0.000000 0.000781
# 5 -0.001222 -0.002747 -0.000159 0.000000 0.052713 0.000000
# 6 0.000000 0.000000 0.000000 0.000781 0.000000 -0.061829
#
#
# Mechanical properties :
#
#
# Convention : Reuss Voigt Hill
#
# Bulk Modulus (GPa) = 23.83863 57.85357 40.84610
# Shear Modulus (GPa) = 43.05642 22.85724 32.95683
#
# Velocity S-wave (km/s) = 4.59705 3.34944 4.02192
# Velocity P-wave (km/s) = 6.31488 6.58437 6.45103
#
# Compressibility (1/GPa) = 0.04194872
#
# Stress axis : x y z
#
# Youngs Moduli (GPa) = 145.02266 29.54765 104.12159
#
# Poissons Ratio (x) = 0.00109 0.41324
# Poissons Ratio (y) = 0.00535 0.01995
# Poissons Ratio (z) = 0.57557 0.00566
#
# Static dielectric constant tensor:
#      x y z
#    x 1.748580 0.000000 0.038180 
#    y 0.000000 1.730770 0.000000 
#    z 0.038180 0.000000 1.714260 
# 
# From -- ./inp_files/308935.got.cif
#   From: 2010.05.17/outbox.cif.g08.bks.cpg/sg12_155_cif.got.tgz:308935.got - 2010.06.03 13:09:07.
