data_PCOD9210737
_publ_section_title
;
Structure prediction by ZEFSAII (Michael W. Deem and Ramdas Pophale) SiO2 
 PCOD9210737
Probable space group: C 2/M
;
_chemical_formula_sum "Si O2"
_cell_formula_units_Z 50
_cell_length_a 11.926151
_cell_length_b 16.674985
_cell_length_c 15.763575
_cell_angle_alpha 90.000000
_cell_angle_beta 54.832129
_cell_angle_gamma 90.000000
_cell_volume 2562.661466
_symmetry_space_group_name_H-M "C 2/M"
_symmetry_group_IT_number 12
_symmetry_cell_setting 'monoclinic'
loop_
_space_group_symop_operation_xyz
x,y,z
-x,y,-z
-x,-y,-z
x,-y,z
1/2+x,1/2+y,z
1/2-x,1/2+y,-z
1/2-x,1/2-y,-z
1/2+x,1/2-y,z
loop_
_atom_site_type_symbol
_atom_site_label
_atom_site_fract_x
_atom_site_fract_y
_atom_site_fract_z
Si Si1 0.148818 0.358266 0.829028
Si Si2 0.322295 0.906626 0.698692
Si Si3 0.592656 0.840914 0.659671
Si Si4 0.438362 0.677519 0.115717
Si Si5 0.535956 0.335926 0.258108
Si Si6 0.500000 0.000000 0.000000
Si Si7 0.774510 0.906818 0.444360
O O1 0.126761 0.371652 0.738476
O O2 0.074224 0.273571 0.880332
O O3 0.309215 0.345106 0.779352
O O4 0.085360 0.429564 0.910816
O O5 0.473037 0.891907 0.667486
O O6 0.213032 0.856930 0.800884
O O7 0.305630 0.883307 0.607331
O O8 0.285635 0.000000 0.719796
O O9 0.531225 0.751335 0.694229
O O10 0.724188 0.851063 0.542401
O O11 0.524916 0.652583 0.161121
O O12 0.500000 0.649019 0.000000
O O13 0.433210 0.396014 0.350558
O O14 0.745548 0.000000 0.476406
#
# Coordination Sequence:
#
# PCOD9210737 Si02
#       7
#     8   8   8   8   8   2   8
#     4  11  25  43  62  93 124 169 209 259 316 376
#     4  10  21  39  63  93 128 160 208 269 312 363
#     4  11  22  40  67  91 126 167 212 254 311 388
#     4  10  21  42  65  89 119 163 217 259 315 368
#     4  10  23  42  63  89 128 165 208 262 310 375
#     4  12  28  44  64  90 134 164 206 260 314 374
#     4  10  22  40  63  93 127 165 210 264 313 363
#
# _framework density 19.510964999999999
#
# number of rings (size 3 to 8) (size 9 to 14) (size 15 to 20)
#    0.000    1.600    2.400    1.440    3.360    4.160 
#    2.880    0.800    0.000    0.000    0.000    0.000 
#    0.000    0.000    0.000    0.000    0.000    0.000 
#
# Total GULP energy -139375.595105 kJ/mol
# GULP energy per Si atom -5575.023804 kJ/mol
# Density = 1.946656 g / cm^3
# Si number density = 19.510965 Si / 1000 Ang^3
#
#
#
# Elastic Constant Matrix: (Units=GPa)
#
#
# Indices 1 2 3 4 5 6 
#
# 1 79.9759 -5.6562 29.2913 0.0000 -0.3510 0.0000
# 2 -5.6562 65.7424 35.1838 0.0000 -1.5681 0.0000
# 3 29.2913 35.1838 136.1983 0.0000 8.2402 0.0000
# 4 0.0000 0.0000 0.0000 29.9742 0.0000 -9.9305
# 5 -0.3510 -1.5681 8.2402 0.0000 6.4092 0.0000
# 6 0.0000 0.0000 0.0000 -9.9305 0.0000 16.6645
#
#
#
# Elastic Compliance Matrix: (Units=1/GPa)
#
#
# Indices 1 2 3 4 5 6 
#
# 1 0.014489 0.003880 -0.004580 0.000000 0.007631 0.000000
# 2 0.003880 0.019441 -0.006677 0.000000 0.013553 0.000000
# 3 -0.004580 -0.006677 0.011023 0.000000 -0.016057 0.000000
# 4 0.000000 0.000000 0.000000 0.041569 0.000000 0.024771
# 5 0.007631 0.013553 -0.016057 0.000000 0.180405 0.000000
# 6 0.000000 0.000000 0.000000 0.024771 0.000000 0.074769
#
#
# Mechanical properties :
#
#
# Convention : Reuss Voigt Hill
#
# Bulk Modulus (GPa) = 33.11264 44.39493 38.75378
# Shear Modulus (GPa) = 13.64193 25.48275 19.56234
#
# Velocity S-wave (km/s) = 2.64709 3.61788 3.16987
# Velocity P-wave (km/s) = 5.13332 6.34471 5.77089
#
# Compressibility (1/GPa) = 0.03019995
#
# Stress axis : x y z
#
# Youngs Moduli (GPa) = 69.01741 51.43746 90.71556
#
# Poissons Ratio (x) = -0.19956 0.41548
# Poissons Ratio (y) = -0.26777 0.60567
# Poissons Ratio (z) = 0.31610 0.34343
#
# Static dielectric constant tensor:
#      x y z
#    x 1.667310 0.000000 0.006400 
#    y 0.000000 1.693790 0.000000 
#    z 0.006400 0.000000 1.673240 
# 
# From -- ./inp_files/206025.got.cif
#   From: 2010.05.17/outbox.cif.g08.bks.cpg/sg12_104_cif.got.tgz:206025.got - 2010.06.03 13:09:07.
