data_PCOD9210671
_publ_section_title
;
Structure prediction by ZEFSAII (Michael W. Deem and Ramdas Pophale) SiO2 
 PCOD9210671
Probable space group: C 2/M
;
_chemical_formula_sum "Si O2"
_cell_formula_units_Z 64
_cell_length_a 19.330652
_cell_length_b 9.076537
_cell_length_c 30.758266
_cell_angle_alpha 90.000000
_cell_angle_beta 38.811752
_cell_angle_gamma 90.000000
_cell_volume 3382.457385
_symmetry_space_group_name_H-M "C 2/M"
_symmetry_group_IT_number 12
_symmetry_cell_setting 'monoclinic'
loop_
_space_group_symop_operation_xyz
x,y,z
-x,y,-z
-x,-y,-z
x,-y,z
1/2+x,1/2+y,z
1/2-x,1/2+y,-z
1/2-x,1/2-y,-z
1/2+x,1/2-y,z
loop_
_atom_site_type_symbol
_atom_site_label
_atom_site_fract_x
_atom_site_fract_y
_atom_site_fract_z
Si Si1 0.457160 0.326731 0.570144
Si Si2 0.519561 0.676282 0.940317
Si Si3 0.130191 0.822483 0.560957
Si Si4 0.370686 0.177395 0.939380
Si Si5 0.274333 0.331615 0.302732
Si Si6 0.959418 0.174492 0.717844
Si Si7 0.498820 0.824337 0.213180
Si Si8 0.752550 0.332504 0.785834
O O1 0.500000 0.313025 0.500000
O O2 0.433338 0.500000 0.590251
O O3 0.550529 0.280936 0.559411
O O4 0.345484 0.234703 0.629165
O O5 0.500330 0.500000 0.944261
O O6 0.442179 0.762551 0.944724
O O7 0.647051 0.704602 0.866423
O O8 0.500000 0.714586 0.000000
O O9 0.250000 0.750000 0.500000
O O10 0.065439 0.781736 0.636948
O O11 0.141562 0.000000 0.554349
O O12 0.433911 0.217138 0.863409
O O13 0.362108 0.000000 0.945393
O O14 0.250000 0.250000 0.000000
O O15 0.282606 0.500000 0.314552
O O16 0.374214 0.235629 0.271822
O O17 0.286180 0.331934 0.244871
O O18 0.951468 0.254932 0.767707
O O19 0.851991 0.220878 0.743413
O O20 0.963566 0.000000 0.722193
O O21 0.499129 0.000000 0.215864
O O22 0.789825 0.500000 0.777942
#
# Coordination Sequence:
#
# PCOD9210671 Si02
#       8
#     8   8   8   8   8   8   8   8
#     4  10  22  41  63  89 122 163 206 249 303 364
#     4  10  22  41  65  92 126 164 203 250 303 361
#     4  10  23  41  60  87 124 162 202 249 303 361
#     4  11  25  43  64  90 124 164 206 254 308 365
#     4  11  22  39  65  93 122 158 203 257 308 358
#     4  11  24  41  63  92 125 161 204 256 306 360
#     4  11  25  43  64  90 123 164 207 252 308 369
#     4  10  21  39  63  91 123 161 203 250 305 362
#
# _framework density 18.921156
#
# number of rings (size 3 to 8) (size 9 to 14) (size 15 to 20)
#    0.000    1.500    2.500    1.500    3.500    4.500 
#    0.000    0.000    0.000    0.000    0.000    0.000 
#    0.000    0.000    0.000    0.000    0.000    0.000 
#
# Total GULP energy -178805.516052 kJ/mol
# GULP energy per Si atom -5587.672377 kJ/mol
# Density = 1.887809 g / cm^3
# Si number density = 18.921156 Si / 1000 Ang^3
#
#
#
# Elastic Constant Matrix: (Units=GPa)
#
#
# Indices 1 2 3 4 5 6 
#
# 1 48.7855 17.9076 0.6999 0.0000 6.0827 -0.0004
# 2 17.9076 47.9442 32.4283 0.0000 0.6819 -0.0004
# 3 0.6999 32.4283 75.9764 -0.0001 2.4495 -0.0001
# 4 0.0000 0.0000 -0.0001 28.9843 0.0001 -4.4728
# 5 6.0827 0.6819 2.4495 0.0001 28.4925 0.0001
# 6 -0.0004 -0.0004 -0.0001 -4.4728 0.0001 36.7686
#
#
#
# Elastic Compliance Matrix: (Units=1/GPa)
#
#
# Indices 1 2 3 4 5 6 
#
# 1 0.026101 -0.013538 0.005723 0.000000 -0.005740 0.000000
# 2 -0.013538 0.036349 -0.015498 0.000000 0.003353 0.000000
# 3 0.005723 -0.015498 0.019806 0.000000 -0.002554 0.000000
# 4 0.000000 0.000000 0.000000 0.035162 0.000000 0.004277
# 5 -0.005740 0.003353 -0.002554 0.000000 0.036462 0.000000
# 6 0.000000 0.000000 0.000000 0.004277 0.000000 0.027717
#
#
# Mechanical properties :
#
#
# Convention : Reuss Voigt Hill
#
# Bulk Modulus (GPa) = 28.06613 30.53085 29.29849
# Shear Modulus (GPa) = 20.82472 26.96043 23.89258
#
# Velocity S-wave (km/s) = 3.32114 3.77886 3.55737
# Velocity P-wave (km/s) = 5.43801 5.93385 5.69133
#
# Compressibility (1/GPa) = 0.03563014
#
# Stress axis : x y z
#
# Youngs Moduli (GPa) = 38.31294 27.51121 50.48882
#
# Poissons Ratio (x) = 0.37245 -0.28894
# Poissons Ratio (y) = 0.51868 0.78247
# Poissons Ratio (z) = -0.21926 0.42636
#
# Static dielectric constant tensor:
#      x y z
#    x 1.634730 0.000000 0.016330 
#    y 0.000000 1.642640 0.000000 
#    z 0.016330 0.000000 1.640030 
# 
# From -- ./inp_files/378173.got.cif
#   From: 2010.05.17/outbox.cif.g08.bks.cpg/sg12_190_cif.got.tgz:378173.got - 2010.06.03 13:09:07.
