data_PCOD9210132
_publ_section_title
;
Structure prediction by ZEFSAII (Michael W. Deem and Ramdas Pophale) SiO2 
 PCOD9210132
Probable space group: C 2/M
;
_chemical_formula_sum "Si O2"
_cell_formula_units_Z 64
_cell_length_a 19.506819
_cell_length_b 8.371025
_cell_length_c 32.026356
_cell_angle_alpha 90.000000
_cell_angle_beta 36.690819
_cell_angle_gamma 90.000000
_cell_volume 3124.698398
_symmetry_space_group_name_H-M "C 2/M"
_symmetry_group_IT_number 12
_symmetry_cell_setting 'monoclinic'
loop_
_space_group_symop_operation_xyz
x,y,z
-x,y,-z
-x,-y,-z
x,-y,z
1/2+x,1/2+y,z
1/2-x,1/2+y,-z
1/2-x,1/2-y,-z
1/2+x,1/2-y,z
loop_
_atom_site_type_symbol
_atom_site_label
_atom_site_fract_x
_atom_site_fract_y
_atom_site_fract_z
Si Si1 0.156656 0.190674 0.332803
Si Si2 0.822756 0.688309 0.400587
Si Si3 0.910157 0.309939 0.447294
Si Si4 0.638651 0.311703 0.710015
Si Si5 0.613278 0.693277 0.175292
Si Si6 0.459919 0.308427 0.066757
Si Si7 0.211420 0.190570 0.212991
Si Si8 0.299810 0.691182 0.018943
O O1 0.260321 0.230763 0.313229
O O2 0.185866 0.252117 0.271779
O O3 0.034640 0.267068 0.403924
O O4 0.142286 0.000000 0.338718
O O5 0.839133 0.500000 0.384938
O O6 0.899162 0.736740 0.403523
O O7 0.692304 0.721645 0.478793
O O8 0.846373 0.782209 0.346699
O O9 0.889757 0.500000 0.459588
O O10 0.644310 0.500000 0.716040
O O11 0.509346 0.252705 0.782835
O O12 0.610903 0.500000 0.177185
O O13 0.633208 0.752160 0.213012
O O14 0.719923 0.746002 0.095201
O O15 0.443768 0.500000 0.078162
O O16 0.341995 0.227125 0.136695
O O17 0.500000 0.274872 0.000000
O O18 0.568312 0.256636 0.041268
O O19 0.195809 0.000000 0.222104
O O20 0.299270 0.500000 0.021436
O O21 0.250000 0.750000 0.000000
#
# Coordination Sequence:
#
# PCOD9210132 Si02
#       8
#     8   8   8   8   8   8   8   8
#     4  11  24  41  60  89 125 159 201 249 299 354
#     4  10  21  39  65  95 125 159 199 246 296 351
#     4  10  21  39  65  95 124 159 202 243 294 354
#     4  11  24  41  61  87 123 162 202 248 300 358
#     4  10  22  41  62  86 117 156 199 244 299 356
#     4  10  21  39  60  86 116 150 195 246 297 350
#     4  10  22  39  62  88 116 154 197 246 298 353
#     4  11  24  40  60  86 118 155 196 245 300 357
#
# _framework density 20.481977000000001
#
# number of rings (size 3 to 8) (size 9 to 14) (size 15 to 20)
#    0.000    1.625    1.250    2.625    1.750    6.250 
#    0.000    2.500    0.000    0.000    0.000    0.000 
#    0.000    0.000    0.000    0.000    0.000    0.000 
#
# Total GULP energy -178848.250887 kJ/mol
# GULP energy per Si atom -5589.007840 kJ/mol
# Density = 2.043536 g / cm^3
# Si number density = 20.481977 Si / 1000 Ang^3
#
#
#
# Elastic Constant Matrix: (Units=GPa)
#
#
# Indices 1 2 3 4 5 6 
#
# 1 95.6270 2.8376 8.0423 0.0002 -26.2200 0.0381
# 2 2.8376 16.6838 -9.1460 -0.0054 -3.0613 0.0103
# 3 8.0423 -9.1460 40.1859 0.0004 -14.3579 0.0019
# 4 0.0002 -0.0054 0.0004 21.8500 -0.0017 2.4031
# 5 -26.2200 -3.0613 -14.3579 -0.0017 36.5971 0.0005
# 6 0.0381 0.0103 0.0019 2.4031 0.0005 21.9216
#
#
#
# Elastic Compliance Matrix: (Units=1/GPa)
#
#
# Indices 1 2 3 4 5 6 
#
# 1 0.013039 0.000027 0.000855 0.000003 0.009679 -0.000023
# 2 0.000027 0.075023 0.022468 0.000024 0.015110 -0.000040
# 3 0.000855 0.022468 0.035725 0.000008 0.016508 -0.000016
# 4 0.000003 0.000024 0.000008 0.046325 0.000010 -0.005078
# 5 0.009679 0.015110 0.016508 0.000010 0.041999 -0.000027
# 6 -0.000023 -0.000040 -0.000016 -0.005078 -0.000027 0.046174
#
#
# Mechanical properties :
#
#
# Convention : Reuss Voigt Hill
#
# Bulk Modulus (GPa) = 5.86560 17.32940 11.59750
# Shear Modulus (GPa) = 18.62799 26.12458 22.37629
#
# Velocity S-wave (km/s) = 3.01903 3.57528 3.30886
# Velocity P-wave (km/s) = 3.87592 5.05199 4.50252
#
# Compressibility (1/GPa) = 0.17048564
#
# Stress axis : x y z
#
# Youngs Moduli (GPa) = 76.69577 13.32928 27.99192
#
# Poissons Ratio (x) = -0.00036 -0.02394
# Poissons Ratio (y) = -0.00209 -0.62891
# Poissons Ratio (z) = -0.06558 -0.29948
#
# Static dielectric constant tensor:
#      x y z
#    x 1.734720 0.000000 -0.001600 
#    y 0.000000 1.700220 0.000000 
#    z -0.001600 0.000000 1.709390 
# 
# From -- ./inp_files/378080.got.cif
#   From: 2010.05.17/outbox.cif.g08.bks.cpg/sg12_190_cif.got.tgz:378080.got - 2010.06.03 13:09:07.
