data_PCOD9210211
_publ_section_title
;
Structure prediction by ZEFSAII (Michael W. Deem and Ramdas Pophale) SiO2 
 PCOD9210211
Probable space group: C 2/M
;
_chemical_formula_sum "Si O2"
_cell_formula_units_Z 64
_cell_length_a 15.200956
_cell_length_b 8.730019
_cell_length_c 24.048021
_cell_angle_alpha 90.000000
_cell_angle_beta 94.853917
_cell_angle_gamma 90.000000
_cell_volume 3179.838860
_symmetry_space_group_name_H-M "C 2/M"
_symmetry_group_IT_number 12
_symmetry_cell_setting 'monoclinic'
loop_
_space_group_symop_operation_xyz
x,y,z
-x,y,-z
-x,-y,-z
x,-y,z
1/2+x,1/2+y,z
1/2-x,1/2+y,-z
1/2-x,1/2-y,-z
1/2+x,1/2-y,z
loop_
_atom_site_type_symbol
_atom_site_label
_atom_site_fract_x
_atom_site_fract_y
_atom_site_fract_z
Si Si1 0.952626 0.179292 0.743661
Si Si2 0.834786 0.823072 0.401345
Si Si3 0.879389 0.681229 0.292398
Si Si4 0.236812 0.684929 0.915778
Si Si5 0.101740 0.815173 0.994273
Si Si6 0.220378 0.186770 0.206239
Si Si7 0.346266 0.324489 0.623390
Si Si8 0.399917 0.826470 0.515403
O O1 0.878665 0.233826 0.783112
O O2 0.906950 0.188211 0.680547
O O3 0.040895 0.276010 0.743984
O O4 0.973132 0.000000 0.755342
O O5 0.891696 0.758902 0.353077
O O6 0.735263 0.790410 0.377099
O O7 0.845999 0.735138 0.459920
O O8 0.854145 0.000000 0.411031
O O9 0.874872 0.500000 0.300974
O O10 0.789620 0.733484 0.257353
O O11 0.230519 0.500000 0.916894
O O12 0.327128 0.727110 0.953718
O O13 0.247775 0.735410 0.852715
O O14 0.150789 0.751887 0.941929
O O15 0.099628 0.000000 0.990953
O O16 0.000000 0.764641 0.000000
O O17 0.219474 0.000000 0.206967
O O18 0.313020 0.500000 0.619823
O O19 0.393029 0.281504 0.568363
O O20 0.500000 0.830343 0.500000
O O21 0.871817 0.500000 0.528237
#
# Coordination Sequence:
#
# PCOD9210211 Si02
#       8
#     8   8   8   8   8   8   8   8
#     4  10  21  39  61  85 114 152 192 235 291 353
#     4  12  24  39  60  84 111 146 190 236 289 351
#     4  11  22  39  60  84 114 150 192 242 293 345
#     4   9  18  34  57  82 113 156 198 235 282 342
#     4   9  18  33  54  84 119 154 191 239 291 334
#     4   9  19  38  59  81 115 156 194 234 288 346
#     4  11  22  39  61  83 112 148 186 233 290 351
#     4  11  24  40  58  83 113 145 185 235 289 350
#
# _framework density 20.126806999999999
#
# number of rings (size 3 to 8) (size 9 to 14) (size 15 to 20)
#    0.000    1.750    1.250    3.375    0.000    5.250 
#    0.000    3.125    0.000    0.000    0.000    0.000 
#    0.000    0.000    0.000    0.000    0.000    0.000 
#
# Total GULP energy -178710.190561 kJ/mol
# GULP energy per Si atom -5584.693455 kJ/mol
# Density = 2.008100 g / cm^3
# Si number density = 20.126807 Si / 1000 Ang^3
#
#
#
# Elastic Constant Matrix: (Units=GPa)
#
#
# Indices 1 2 3 4 5 6 
#
# 1 92.4489 9.7404 17.1082 0.0000 -26.7760 0.0000
# 2 9.7404 31.2409 7.8885 0.0000 -1.7676 0.0000
# 3 17.1082 7.8885 92.4068 0.0000 -27.8360 0.0000
# 4 0.0000 0.0000 0.0000 25.4552 0.0000 -8.0135
# 5 -26.7760 -1.7676 -27.8360 0.0000 27.0252 0.0000
# 6 0.0000 0.0000 0.0000 -8.0135 0.0000 27.8003
#
#
#
# Elastic Compliance Matrix: (Units=1/GPa)
#
#
# Indices 1 2 3 4 5 6 
#
# 1 0.016245 -0.004779 0.003124 0.000000 0.019001 0.000000
# 2 -0.004779 0.034142 -0.004035 0.000000 -0.006658 0.000000
# 3 0.003124 -0.004035 0.016587 0.000000 0.019916 0.000000
# 4 0.000000 0.000000 0.000000 0.043205 0.000000 0.012454
# 5 0.019001 -0.006658 0.019916 0.000000 0.075906 0.000000
# 6 0.000000 0.000000 0.000000 0.012454 0.000000 0.039561
#
#
# Mechanical properties :
#
#
# Convention : Reuss Voigt Hill
#
# Bulk Modulus (GPa) = 17.98777 31.73010 24.85893
# Shear Modulus (GPa) = 19.56503 28.14676 23.85590
#
# Velocity S-wave (km/s) = 3.12122 3.74367 3.44652
# Velocity P-wave (km/s) = 4.68465 5.87249 5.31187
#
# Compressibility (1/GPa) = 0.05559332
#
# Stress axis : x y z
#
# Youngs Moduli (GPa) = 61.55612 29.28985 60.28752
#
# Poissons Ratio (x) = 0.13997 -0.18833
# Poissons Ratio (y) = 0.29416 0.24329
# Poissons Ratio (z) = -0.19229 0.11820
#
# Static dielectric constant tensor:
#      x y z
#    x 1.752680 0.000000 -0.007700 
#    y 0.000000 1.690080 0.000000 
#    z -0.007700 0.000000 1.718640 
# 
# From -- ./inp_files/338699.got.cif
#   From: 2010.05.17/outbox.cif.g08.bks.cpg/sg12_170_cif.got.tgz:338699.got - 2010.06.03 13:09:07.
