data_PCOD9210585
_publ_section_title
;
Structure prediction by ZEFSAII (Michael W. Deem and Ramdas Pophale) SiO2 
 PCOD9210585
Probable space group: C 2/M
;
_chemical_formula_sum "Si O2"
_cell_formula_units_Z 64
_cell_length_a 27.992705
_cell_length_b 15.081210
_cell_length_c 12.781293
_cell_angle_alpha 90.000000
_cell_angle_beta 35.199313
_cell_angle_gamma 90.000000
_cell_volume 3110.260636
_symmetry_space_group_name_H-M "C 2/M"
_symmetry_group_IT_number 12
_symmetry_cell_setting 'monoclinic'
loop_
_space_group_symop_operation_xyz
x,y,z
-x,y,-z
-x,-y,-z
x,-y,z
1/2+x,1/2+y,z
1/2-x,1/2+y,-z
1/2-x,1/2-y,-z
1/2+x,1/2-y,z
loop_
_atom_site_type_symbol
_atom_site_label
_atom_site_fract_x
_atom_site_fract_y
_atom_site_fract_z
Si Si1 0.351604 0.899175 0.108792
Si Si2 0.261529 0.354714 0.494072
Si Si3 0.423889 0.727195 0.909466
Si Si4 0.953355 0.896561 0.195616
Si Si5 0.764878 0.900052 0.882076
Si Si6 0.915216 0.776942 0.676622
Si Si7 0.775244 0.901741 0.236590
Si Si8 0.639236 0.901286 0.303001
O O1 0.302685 0.887934 0.304464
O O2 0.284426 0.883018 0.136545
O O3 0.382202 0.000000 0.042739
O O4 0.420012 0.823445 0.970197
O O5 0.250000 0.250000 0.500000
O O6 0.356038 0.376599 0.357377
O O7 0.248017 0.397072 0.404937
O O8 0.503465 0.670215 0.800692
O O9 0.412935 0.736719 0.804996
O O10 0.344804 0.671499 0.092155
O O11 0.963811 0.000000 0.206480
O O12 0.000000 0.884519 0.000000
O O13 0.835242 0.829622 0.781044
O O14 0.799695 0.000000 0.814728
O O15 0.699316 0.898595 0.094266
O O16 0.917298 0.684017 0.610337
O O17 0.000000 0.827424 0.500000
O O18 0.698153 0.889603 0.297596
O O19 0.810841 0.000000 0.150926
O O20 0.600872 0.000000 0.376333
#
# Coordination Sequence:
#
# PCOD9210585 Si02
#       8
#     8   8   8   8   8   8   8   8
#     4  11  23  41  65  92 126 169 216 266 316 375
#     4  12  24  40  66  99 133 166 212 264 316 380
#     4  12  23  40  63  93 127 174 214 257 324 390
#     4  11  23  40  63  94 132 169 211 263 320 377
#     4  10  21  39  63  88 119 165 214 257 314 380
#     4  12  26  39  59  92 134 164 203 266 329 385
#     4  11  21  38  66  95 124 162 214 266 313 371
#     4  10  21  40  67  91 117 163 219 265 309 375
#
# _framework density 20.577052999999999
#
# number of rings (size 3 to 8) (size 9 to 14) (size 15 to 20)
#    0.000    0.875    5.000    2.625    1.750    1.000 
#    0.000    0.000    0.000    4.875    0.000    0.000 
#    0.000    0.000    0.000    0.000    0.000    0.000 
#
# Total GULP energy -178948.989660 kJ/mol
# GULP energy per Si atom -5592.155927 kJ/mol
# Density = 2.053022 g / cm^3
# Si number density = 20.577053 Si / 1000 Ang^3
#
#
#
# Elastic Constant Matrix: (Units=GPa)
#
#
# Indices 1 2 3 4 5 6 
#
# 1 85.1746 28.0047 15.1587 0.0000 27.7829 0.0000
# 2 28.0047 111.5750 7.3113 0.0000 -2.5139 0.0000
# 3 15.1587 7.3113 36.6061 0.0000 12.8421 0.0000
# 4 0.0000 0.0000 0.0000 8.3818 0.0000 14.8163
# 5 27.7829 -2.5139 12.8421 0.0000 24.7139 0.0000
# 6 0.0000 0.0000 0.0000 14.8163 0.0000 12.3676
#
#
#
# Elastic Compliance Matrix: (Units=1/GPa)
#
#
# Indices 1 2 3 4 5 6 
#
# 1 0.022071 -0.006210 0.001256 0.000000 -0.026096 0.000000
# 2 -0.006210 0.010935 -0.002998 0.000000 0.009652 0.000000
# 3 0.001256 -0.002998 0.034241 0.000000 -0.019509 0.000000
# 4 0.000000 0.000000 0.000000 -0.106747 0.000000 0.127881
# 5 -0.026096 0.009652 -0.019509 0.000000 0.080919 0.000000
# 6 0.000000 0.000000 0.000000 0.127881 0.000000 -0.072344
#
#
# Mechanical properties :
#
#
# Convention : Reuss Voigt Hill
#
# Bulk Modulus (GPa) = 19.47741 37.14503 28.31122
# Shear Modulus (GPa) = 2386.29732 21.28471 1203.79101
#
# Velocity S-wave (km/s) = 34.09114 3.21968 24.21335
# Velocity P-wave (km/s) = 39.48537 5.64913 28.20467
#
# Compressibility (1/GPa) = 0.05134154
#
# Stress axis : x y z
#
# Youngs Moduli (GPa) = 45.30791 91.44774 29.20480
#
# Poissons Ratio (x) = 0.56789 -0.03667
# Poissons Ratio (y) = 0.28136 0.08757
# Poissons Ratio (z) = -0.05689 0.27420
#
# Static dielectric constant tensor:
#      x y z
#    x 1.704090 0.000000 0.009670 
#    y 0.000000 1.774960 0.000000 
#    z 0.009670 0.000000 1.706060 
# 
# From -- ./inp_files/183787.got.cif
#   From: 2010.05.17/outbox.cif.g08.bks.cpg/sg12_92_cif.got.tgz:183787.got - 2010.06.03 13:09:07.
