data_PCOD9210483
_publ_section_title
;
Structure prediction by ZEFSAII (Michael W. Deem and Ramdas Pophale) SiO2 
 PCOD9210483
Probable space group: C 2/M
;
_chemical_formula_sum "Si O2"
_cell_formula_units_Z 48
_cell_length_a 22.703104
_cell_length_b 13.799605
_cell_length_c 8.170122
_cell_angle_alpha 90.000000
_cell_angle_beta 87.367443
_cell_angle_gamma 90.000000
_cell_volume 2556.947747
_symmetry_space_group_name_H-M "C 2/M"
_symmetry_group_IT_number 12
_symmetry_cell_setting 'monoclinic'
loop_
_space_group_symop_operation_xyz
x,y,z
-x,y,-z
-x,-y,-z
x,-y,z
1/2+x,1/2+y,z
1/2-x,1/2+y,-z
1/2-x,1/2-y,-z
1/2+x,1/2-y,z
loop_
_atom_site_type_symbol
_atom_site_label
_atom_site_fract_x
_atom_site_fract_y
_atom_site_fract_z
Si Si1 0.224419 0.000000 0.619458
Si Si2 0.627657 0.500000 0.917319
Si Si3 0.430806 0.294053 0.052235
Si Si4 0.903721 0.211043 0.693435
Si Si5 0.639303 0.500000 0.311138
Si Si6 0.899748 0.391400 0.278271
Si Si7 0.000000 0.326638 0.500000
Si Si8 0.198756 0.326004 0.474044
O O1 0.178330 0.000000 0.773682
O O2 0.267715 0.090654 0.625968
O O3 0.191784 0.000000 0.442552
O O4 0.590045 0.401493 0.891538
O O5 0.649493 0.500000 0.108468
O O6 0.414860 0.203036 0.168115
O O7 0.500000 0.296542 0.000000
O O8 0.397541 0.276754 0.886516
O O9 0.964862 0.257026 0.627908
O O10 0.852061 0.269355 0.613481
O O11 0.897138 0.097983 0.653059
O O12 0.901318 0.500000 0.203253
O O13 0.950563 0.387424 0.411384
O O14 0.835774 0.372547 0.367452
O O15 0.250000 0.250000 0.500000
#
# Coordination Sequence:
#
# PCOD9210483 Si02
#       8
#     4   4   8   8   4   8   4   8
#     4  12  22  43  67  92 122 180 212 267 336 369
#     4  10  25  42  66 100 129 168 223 275 321 394
#     4  11  22  43  63  96 133 168 210 269 334 384
#     4  10  22  40  62  93 128 165 216 267 323 386
#     4  10  22  40  65  94 131 164 215 272 323 387
#     4  11  23  41  62  94 129 170 217 264 324 393
#     4  10  21  39  62  90 126 167 216 263 316 392
#     4  11  22  41  64  91 123 164 223 267 315 390
#
# _framework density 18.772382
#
# number of rings (size 3 to 8) (size 9 to 14) (size 15 to 20)
#    0.000    1.333    4.167    1.500    2.333    0.667 
#    4.500    2.500    0.000    0.000    0.000    0.000 
#    0.000    0.000    0.000    0.000    0.000    0.000 
#
# Total GULP energy -133759.853167 kJ/mol
# GULP energy per Si atom -5573.327215 kJ/mol
# Density = 1.872966 g / cm^3
# Si number density = 18.772382 Si / 1000 Ang^3
#
#
#
# Elastic Constant Matrix: (Units=GPa)
#
#
# Indices 1 2 3 4 5 6 
#
# 1 72.9455 36.5464 25.3944 0.0000 -25.9553 0.0000
# 2 36.5464 171.4771 56.0686 0.0000 -23.1721 0.0000
# 3 25.3944 56.0686 64.0587 0.0000 -22.8045 0.0000
# 4 0.0000 0.0000 0.0000 30.9446 0.0000 -5.0756
# 5 -25.9553 -23.1721 -22.8045 0.0000 38.3703 0.0000
# 6 0.0000 0.0000 0.0000 -5.0756 0.0000 17.6680
#
#
#
# Elastic Compliance Matrix: (Units=1/GPa)
#
#
# Indices 1 2 3 4 5 6 
#
# 1 0.019181 -0.001968 -0.002138 0.000000 0.010516 0.000000
# 2 -0.001968 0.008395 -0.006642 0.000000 -0.000209 0.000000
# 3 -0.002138 -0.006642 0.025784 0.000000 0.009867 0.000000
# 4 0.000000 0.000000 0.000000 0.033914 0.000000 0.009743
# 5 0.010516 -0.000209 0.009867 0.000000 0.038913 0.000000
# 6 0.000000 0.000000 0.000000 0.009743 0.000000 0.059398
#
#
# Mechanical properties :
#
#
# Convention : Reuss Voigt Hill
#
# Bulk Modulus (GPa) = 31.38289 60.50003 45.94146
# Shear Modulus (GPa) = 22.96730 30.09472 26.53101
#
# Velocity S-wave (km/s) = 3.50160 4.00826 3.76347
# Velocity P-wave (km/s) = 5.75344 7.32938 6.58870
#
# Compressibility (1/GPa) = 0.03186450
#
# Stress axis : x y z
#
# Youngs Moduli (GPa) = 52.13576 119.12509 38.78365
#
# Poissons Ratio (x) = 0.23443 0.08291
# Poissons Ratio (y) = 0.10260 0.25759
# Poissons Ratio (z) = 0.11145 0.79120
#
# Static dielectric constant tensor:
#      x y z
#    x 1.398580 0.000000 0.235690 
#    y 0.000000 1.636710 0.000000 
#    z 0.235690 0.000000 1.488680 
# 
# From -- ./inp_files/85739.got.cif
#   From: 2010.05.17/outbox.cif.g08.bks.cpg/sg12_43_cif.got.tgz:85739.got - 2010.06.03 13:09:07.
