data_PCOD9210266
_publ_section_title
;
Structure prediction by ZEFSAII (Michael W. Deem and Ramdas Pophale) SiO2 
 PCOD9210266
Probable space group: C 2/M
;
_chemical_formula_sum "Si O2"
_cell_formula_units_Z 48
_cell_length_a 25.688433
_cell_length_b 8.965357
_cell_length_c 14.358146
_cell_angle_alpha 90.000000
_cell_angle_beta 138.726445
_cell_angle_gamma 90.000000
_cell_volume 2181.324744
_symmetry_space_group_name_H-M "C 2/M"
_symmetry_group_IT_number 12
_symmetry_cell_setting 'monoclinic'
loop_
_space_group_symop_operation_xyz
x,y,z
-x,y,-z
-x,-y,-z
x,-y,z
1/2+x,1/2+y,z
1/2-x,1/2+y,-z
1/2-x,1/2-y,-z
1/2+x,1/2-y,z
loop_
_atom_site_type_symbol
_atom_site_label
_atom_site_fract_x
_atom_site_fract_y
_atom_site_fract_z
Si Si1 0.667855 0.673429 0.495455
Si Si2 0.670395 0.671809 0.275472
Si Si3 0.583713 0.675089 0.655040
Si Si4 0.754676 0.678431 0.109446
Si Si5 0.494653 0.673663 0.256520
Si Si6 0.609772 0.175650 0.026170
O O1 0.685236 0.500000 0.541523
O O2 0.660619 0.685512 0.373270
O O3 0.740193 0.774248 0.623569
O O4 0.580696 0.713422 0.412416
O O5 0.659984 0.500000 0.235219
O O6 0.612589 0.771589 0.136457
O O7 0.500000 0.723594 0.500000
O O8 0.595414 0.500000 0.645815
O O9 0.661159 0.768217 0.736287
O O10 0.568420 0.683762 0.745519
O O11 0.750242 0.500000 0.097658
O O12 0.683190 0.741936 0.074655
O O13 0.750000 0.750000 0.000000
O O14 0.499951 0.500000 0.234691
O O15 0.466836 0.771751 0.133246
O O16 0.619899 0.000000 0.032645
#
# Coordination Sequence:
#
# PCOD9210266 Si02
#       6
#     8   8   8   8   8   8
#     4   9  20  39  63  90 122 160 198 245 303 361
#     4  10  21  39  62  90 122 157 201 248 299 359
#     4  10  22  39  61  91 124 160 199 242 294 353
#     4  12  24  41  63  89 122 159 199 244 296 353
#     4  10  21  39  61  87 122 159 199 246 299 358
#     4  12  25  40  61  88 120 159 204 249 299 355
#
# _framework density 22.004975999999999
#
# number of rings (size 3 to 8) (size 9 to 14) (size 15 to 20)
#    0.000    1.500    1.667    3.500    2.333    2.333 
#    0.000    3.333    0.000    0.000    0.000    0.000 
#    0.000    0.000    0.000    0.000    0.000    0.000 
#
# Total GULP energy -134294.440979 kJ/mol
# GULP energy per Si atom -5595.601707 kJ/mol
# Density = 2.195489 g / cm^3
# Si number density = 22.004976 Si / 1000 Ang^3
#
#
#
# Elastic Constant Matrix: (Units=GPa)
#
#
# Indices 1 2 3 4 5 6 
#
# 1 46.8722 5.0385 -8.2010 0.0000 8.1014 0.0000
# 2 5.0385 105.2724 33.7737 0.0000 2.7521 0.0000
# 3 -8.2010 33.7737 83.4067 0.0000 -1.7184 0.0000
# 4 0.0000 0.0000 0.0000 38.3005 0.0000 4.0120
# 5 8.1014 2.7521 -1.7184 0.0000 32.6584 0.0000
# 6 0.0000 0.0000 0.0000 4.0120 0.0000 23.1245
#
#
#
# Elastic Compliance Matrix: (Units=1/GPa)
#
#
# Indices 1 2 3 4 5 6 
#
# 1 0.022980 -0.001894 0.002916 0.000000 -0.005387 0.000000
# 2 -0.001894 0.011117 -0.004703 0.000000 -0.000714 0.000000
# 3 0.002916 -0.004703 0.014189 0.000000 0.000420 0.000000
# 4 0.000000 0.000000 0.000000 0.026593 0.000000 -0.004614
# 5 -0.005387 -0.000714 0.000420 0.000000 0.032039 0.000000
# 6 0.000000 0.000000 0.000000 -0.004614 0.000000 0.044045
#
#
# Mechanical properties :
#
#
# Convention : Reuss Voigt Hill
#
# Bulk Modulus (GPa) = 24.43624 32.97484 28.70554
# Shear Modulus (GPa) = 29.07560 32.47936 30.77748
#
# Velocity S-wave (km/s) = 3.63894 3.84604 3.74392
# Velocity P-wave (km/s) = 5.36515 5.89410 5.63583
#
# Compressibility (1/GPa) = 0.04092282
#
# Stress axis : x y z
#
# Youngs Moduli (GPa) = 43.51704 89.95058 70.47717
#
# Poissons Ratio (x) = 0.17040 -0.20548
# Poissons Ratio (y) = 0.08244 0.33143
# Poissons Ratio (z) = -0.12688 0.42301
#
# Static dielectric constant tensor:
#      x y z
#    x 1.846240 0.000000 -0.027180 
#    y 0.000000 1.731170 0.000000 
#    z -0.027180 0.000000 1.826150 
# 
# From -- ./inp_files/244611.got.cif
#   From: 2010.05.17/outbox.cif.g08.bks.cpg/sg12_123_cif.got.tgz:244611.got - 2010.06.03 13:09:07.
