data_PCOD9210652
_publ_section_title
;
Structure prediction by ZEFSAII (Michael W. Deem and Ramdas Pophale) SiO2 
 PCOD9210652
Probable space group: C 2/M
;
_chemical_formula_sum "Si O2"
_cell_formula_units_Z 44
_cell_length_a 13.939068
_cell_length_b 11.500023
_cell_length_c 16.316265
_cell_angle_alpha 90.000000
_cell_angle_beta 39.111417
_cell_angle_gamma 90.000000
_cell_volume 1649.931192
_symmetry_space_group_name_H-M "C 2/M"
_symmetry_group_IT_number 12
_symmetry_cell_setting 'monoclinic'
loop_
_space_group_symop_operation_xyz
x,y,z
-x,y,-z
-x,-y,-z
x,-y,z
1/2+x,1/2+y,z
1/2-x,1/2+y,-z
1/2-x,1/2-y,-z
1/2+x,1/2-y,z
loop_
_atom_site_type_symbol
_atom_site_label
_atom_site_fract_x
_atom_site_fract_y
_atom_site_fract_z
Si Si1 0.148064 0.500000 0.472652
Si Si2 0.432468 0.127615 0.916573
Si Si3 0.083189 0.875554 0.638460
Si Si4 0.841666 0.125630 0.032064
Si Si5 0.224966 0.871274 0.364477
Si Si6 0.895126 0.691826 0.687902
O O1 0.285238 0.399002 0.382432
O O2 0.017062 0.599355 0.576220
O O3 0.288793 0.125157 0.951208
O O4 0.593682 0.129802 0.763368
O O5 0.427136 0.000000 0.963627
O O6 0.424671 0.250846 0.968044
O O7 0.176640 0.861940 0.491254
O O8 0.967184 0.771120 0.712767
O O9 0.998829 0.000000 0.692126
O O10 0.751155 0.130400 0.177521
O O11 0.922633 0.000000 0.969660
O O12 0.151246 0.780238 0.352310
O O13 0.174714 0.000000 0.370958
#
# Coordination Sequence:
#
# PCOD9210652 Si02
#       6
#     4   8   8   8   8   8
#     4  10  22  38  58  85 120 164 204 245 303 365
#     4   9  20  40  65  89 119 166 218 256 305 373
#     4   9  21  39  63  85 118 167 209 245 300 373
#     4  10  21  39  65  89 124 165 209 259 314 380
#     4  10  21  39  63  90 123 164 204 256 309 369
#     4  12  21  36  61  94 121 157 205 257 310 363
#
# _framework density 26.667778999999999
#
# number of rings (size 3 to 8) (size 9 to 14) (size 15 to 20)
#    0.545    1.455    0.909    2.727    2.545    3.636 
#    1.636    4.545    0.000    0.000    0.000    0.000 
#    0.000    0.000    0.000    0.000    0.000    0.000 
#
# Total GULP energy -122629.138110 kJ/mol
# GULP energy per Si atom -5574.051732 kJ/mol
# Density = 2.660708 g / cm^3
# Si number density = 26.667779 Si / 1000 Ang^3
#
#
#
# Elastic Constant Matrix: (Units=GPa)
#
#
# Indices 1 2 3 4 5 6 
#
# 1 94.4009 45.3124 5.2672 0.0000 -8.0369 0.0000
# 2 45.3124 265.6805 40.8863 0.0000 -3.9625 0.0000
# 3 5.2672 40.8863 50.8389 0.0000 -3.7510 0.0000
# 4 0.0000 0.0000 0.0000 45.5283 0.0000 -17.7110
# 5 -8.0369 -3.9625 -3.7510 0.0000 26.7190 0.0000
# 6 0.0000 0.0000 0.0000 -17.7110 0.0000 21.7252
#
#
#
# Elastic Compliance Matrix: (Units=1/GPa)
#
#
# Indices 1 2 3 4 5 6 
#
# 1 0.011836 -0.002075 0.000689 0.000000 0.003349 0.000000
# 2 -0.002075 0.004660 -0.003565 0.000000 -0.000433 0.000000
# 3 0.000689 -0.003565 0.022677 0.000000 0.002862 0.000000
# 4 0.000000 0.000000 0.000000 0.032165 0.000000 0.026222
# 5 0.003349 -0.000433 0.002862 0.000000 0.038772 0.000000
# 6 0.000000 0.000000 0.000000 0.026222 0.000000 0.067406
#
#
# Mechanical properties :
#
#
# Convention : Reuss Voigt Hill
#
# Bulk Modulus (GPa) = 34.16213 65.98357 50.07285
# Shear Modulus (GPa) = 25.35862 40.09146 32.72504
#
# Velocity S-wave (km/s) = 3.08703 3.88153 3.50685
# Velocity P-wave (km/s) = 5.05414 6.69962 5.93419
#
# Compressibility (1/GPa) = 0.02927218
#
# Stress axis : x y z
#
# Youngs Moduli (GPa) = 84.49042 214.59762 44.09843
#
# Poissons Ratio (x) = 0.44524 -0.03040
# Poissons Ratio (y) = 0.17530 0.15720
# Poissons Ratio (z) = -0.05825 0.76497
#
# Static dielectric constant tensor:
#      x y z
#    x 2.146870 0.000000 0.028330 
#    y 0.000000 2.611470 0.000000 
#    z 0.028330 0.000000 2.028230 
# 
# From -- ./inp_files/309714.got.cif
#   From: 2010.05.17/outbox.cif.g08.bks.cpg/sg12_155_cif.got.tgz:309714.got - 2010.06.03 13:09:07.
