data_PCOD9210125
_publ_section_title
;
Structure prediction by ZEFSAII (Michael W. Deem and Ramdas Pophale) SiO2 
 PCOD9210125
Probable space group: C 2/M
;
_chemical_formula_sum "Si O2"
_cell_formula_units_Z 48
_cell_length_a 24.672286
_cell_length_b 9.209097
_cell_length_c 9.709229
_cell_angle_alpha 90.000000
_cell_angle_beta 78.109856
_cell_angle_gamma 90.000000
_cell_volume 2158.697244
_symmetry_space_group_name_H-M "C 2/M"
_symmetry_group_IT_number 12
_symmetry_cell_setting 'monoclinic'
loop_
_space_group_symop_operation_xyz
x,y,z
-x,y,-z
-x,-y,-z
x,-y,z
1/2+x,1/2+y,z
1/2-x,1/2+y,-z
1/2-x,1/2-y,-z
1/2+x,1/2-y,z
loop_
_atom_site_type_symbol
_atom_site_label
_atom_site_fract_x
_atom_site_fract_y
_atom_site_fract_z
Si Si1 0.833689 0.171262 0.016215
Si Si2 0.379686 0.832210 0.734046
Si Si3 0.714679 0.833222 0.718762
Si Si4 0.492996 0.831784 0.349862
Si Si5 0.948543 0.828707 0.122069
Si Si6 0.665438 0.666952 0.491170
O O1 0.789043 0.253843 0.132964
O O2 0.891359 0.190693 0.070781
O O3 0.821986 0.000000 0.009791
O O4 0.844752 0.243020 0.863354
O O5 0.444266 0.827912 0.741080
O O6 0.373408 0.759830 0.587814
O O7 0.361948 0.000000 0.737501
O O8 0.677877 0.743658 0.629028
O O9 0.775852 0.834299 0.621507
O O10 0.695920 0.000000 0.741353
O O11 0.500000 0.770419 0.500000
O O12 0.453532 0.750682 0.265086
O O13 0.475439 0.000000 0.372347
O O14 0.955846 0.000000 0.142681
O O15 0.000000 0.779317 0.000000
O O16 0.647501 0.500000 0.519072
#
# Coordination Sequence:
#
# PCOD9210125 Si02
#       6
#     8   8   8   8   8   8
#     4  11  23  39  61  89 120 157 201 246 295 351
#     4  11  23  39  60  88 121 159 200 245 296 349
#     4  10  22  41  64  90 119 154 196 242 296 357
#     4  10  23  40  58  86 120 156 197 241 292 349
#     4  10  21  39  60  85 118 156 196 240 290 347
#     4  10  22  41  64  89 120 156 194 242 297 353
#
# _framework density 22.235631999999999
#
# number of rings (size 3 to 8) (size 9 to 14) (size 15 to 20)
#    0.000    1.667    1.667    2.000    2.333    5.333 
#    0.000    0.000    0.000    0.000    0.000    0.000 
#    0.000    0.000    0.000    0.000    0.000    0.000 
#
# Total GULP energy -134312.802670 kJ/mol
# GULP energy per Si atom -5596.366778 kJ/mol
# Density = 2.218502 g / cm^3
# Si number density = 22.235632 Si / 1000 Ang^3
#
#
#
# Elastic Constant Matrix: (Units=GPa)
#
#
# Indices 1 2 3 4 5 6 
#
# 1 41.2980 18.4297 -0.2431 0.0000 0.9890 0.0000
# 2 18.4297 114.2698 40.8723 0.0000 9.6253 0.0000
# 3 -0.2431 40.8723 112.5425 0.0000 0.2535 0.0000
# 4 0.0000 0.0000 0.0000 38.6273 0.0000 12.1445
# 5 0.9890 9.6253 0.2535 0.0000 40.7634 0.0000
# 6 0.0000 0.0000 0.0000 12.1445 0.0000 -0.2847
#
#
#
# Elastic Compliance Matrix: (Units=1/GPa)
#
#
# Indices 1 2 3 4 5 6 
#
# 1 0.026432 -0.004973 0.001862 0.000000 0.000521 0.000000
# 2 -0.004973 0.011224 -0.004081 0.000000 -0.002504 0.000000
# 3 0.001862 -0.004081 0.010370 0.000000 0.000854 0.000000
# 4 0.000000 0.000000 0.000000 0.001796 0.000000 0.076629
# 5 0.000521 -0.002504 0.000854 0.000000 0.025105 0.000000
# 6 0.000000 0.000000 0.000000 0.076629 0.000000 -0.243730
#
#
# Mechanical properties :
#
#
# Convention : Reuss Voigt Hill
#
# Bulk Modulus (GPa) = 29.72545 42.91424 36.31985
# Shear Modulus (GPa) = -34.91514 29.75795 -2.57860
#
# Velocity S-wave (km/s) = -3.96692 3.66225 -1.07805
# Velocity P-wave (km/s) = 2.75400 6.10118 3.84967
#
# Compressibility (1/GPa) = 0.03364120
#
# Stress axis : x y z
#
# Youngs Moduli (GPa) = 37.83296 89.09456 96.43329
#
# Poissons Ratio (x) = 0.44306 -0.17955
# Poissons Ratio (y) = 0.18814 0.39358
# Poissons Ratio (z) = -0.07044 0.36363
#
# Static dielectric constant tensor:
#      x y z
#    x 1.871970 0.000000 -0.033040 
#    y 0.000000 1.758020 0.000000 
#    z -0.033040 0.000000 1.792650 
# 
# From -- ./inp_files/108635.got.cif
#   From: 2010.05.17/outbox.cif.g08.bks.cpg/sg12_55_cif.got.tgz:108635.got - 2010.06.03 13:09:07.
