data_PCOD9210978
_publ_section_title
;
Structure prediction by ZEFSAII (Michael W. Deem and Ramdas Pophale) SiO2 
 PCOD9210978
Probable space group: C 2/M
;
_chemical_formula_sum "Si O2"
_cell_formula_units_Z 42
_cell_length_a 28.750140
_cell_length_b 7.361837
_cell_length_c 9.142317
_cell_angle_alpha 90.000000
_cell_angle_beta 105.432122
_cell_angle_gamma 90.000000
_cell_volume 1865.242535
_symmetry_space_group_name_H-M "C 2/M"
_symmetry_group_IT_number 12
_symmetry_cell_setting 'monoclinic'
loop_
_space_group_symop_operation_xyz
x,y,z
-x,y,-z
-x,-y,-z
x,-y,z
1/2+x,1/2+y,z
1/2-x,1/2+y,-z
1/2-x,1/2-y,-z
1/2+x,1/2-y,z
loop_
_atom_site_type_symbol
_atom_site_label
_atom_site_fract_x
_atom_site_fract_y
_atom_site_fract_z
Si Si1 0.077139 0.219223 0.702719
Si Si2 0.000000 0.500000 0.500000
Si Si3 0.645157 0.723081 0.268670
Si Si4 0.554059 0.719773 0.018238
Si Si5 0.229212 0.200685 0.139850
Si Si6 0.325315 0.718396 0.382603
O O1 0.130962 0.260111 0.690681
O O2 0.038878 0.340251 0.584022
O O3 0.069268 0.000000 0.676666
O O4 0.071586 0.262519 0.869798
O O5 0.645325 0.500000 0.273118
O O6 0.592397 0.780571 0.171290
O O7 0.684484 0.791746 0.184340
O O8 0.659704 0.779824 0.443238
O O9 0.552658 0.500000 0.025879
O O10 0.500000 0.786715 0.000000
O O11 0.274555 0.205336 0.286661
O O12 0.210177 0.000000 0.098722
O O13 0.250000 0.250000 0.000000
O O14 0.319633 0.500000 0.379153
#
# Coordination Sequence:
#
# PCOD9210978 Si02
#       6
#     8   2   8   8   8   8
#     4  10  23  42  66  92 126 173 212 261 324 376
#     4  12  26  40  66  94 136 160 224 268 306 382
#     4   9  19  36  60  91 120 159 208 259 313 376
#     4   9  18  35  62  90 120 163 214 257 310 380
#     4  11  22  37  61  88 125 164 205 256 315 375
#     4  10  21  39  65  91 121 157 207 258 317 382
#
# _framework density 22.517178999999999
#
# number of rings (size 3 to 8) (size 9 to 14) (size 15 to 20)
#    0.000    2.095    0.000    2.571    4.000    3.048 
#    0.000    1.429    2.095    0.000    0.000    0.000 
#    0.000    0.000    0.000    0.000    0.000    0.000 
#
# Total GULP energy -117083.725058 kJ/mol
# GULP energy per Si atom -5575.415479 kJ/mol
# Density = 2.246593 g / cm^3
# Si number density = 22.517179 Si / 1000 Ang^3
#
#
#
# Elastic Constant Matrix: (Units=GPa)
#
#
# Indices 1 2 3 4 5 6 
#
# 1 116.1546 -12.0055 79.1659 0.0000 -5.0227 0.0000
# 2 -12.0055 78.1451 -5.8025 0.0000 -5.2887 0.0000
# 3 79.1659 -5.8025 91.3992 0.0000 -3.2416 0.0000
# 4 0.0000 0.0000 0.0000 19.1577 0.0000 11.5879
# 5 -5.0227 -5.2887 -3.2416 0.0000 43.3369 0.0000
# 6 0.0000 0.0000 0.0000 11.5879 0.0000 8.1475
#
#
#
# Elastic Compliance Matrix: (Units=1/GPa)
#
#
# Indices 1 2 3 4 5 6 
#
# 1 0.021373 0.002013 -0.018337 0.000000 0.001351 0.000000
# 2 0.002013 0.013164 -0.000845 0.000000 0.001777 0.000000
# 3 -0.018337 -0.000845 0.026762 0.000000 -0.000227 0.000000
# 4 0.000000 0.000000 0.000000 0.373593 0.000000 -0.531348
# 5 0.001351 0.001777 -0.000227 0.000000 0.023431 0.000000
# 6 0.000000 0.000000 0.000000 -0.531348 0.000000 0.878454
#
#
# Mechanical properties :
#
#
# Convention : Reuss Voigt Hill
#
# Bulk Modulus (GPa) = 37.09009 45.37941 41.23475
# Shear Modulus (GPa) = 3.62292 29.08450 16.35371
#
# Velocity S-wave (km/s) = 1.26982 3.59786 2.69788
# Velocity P-wave (km/s) = 4.31944 6.12017 5.29689
#
# Compressibility (1/GPa) = 0.02696138
#
# Stress axis : x y z
#
# Youngs Moduli (GPa) = 46.78713 75.96759 37.36651
#
# Poissons Ratio (x) = -0.15296 0.68519
# Poissons Ratio (y) = -0.09421 0.03159
# Poissons Ratio (z) = 0.85793 0.06422
#
# Static dielectric constant tensor:
#      x y z
#    x 1.817830 0.000000 -0.037130 
#    y 0.000000 1.952800 0.000000 
#    z -0.037130 0.000000 1.802620 
# 
# From -- ./inp_files/108309.got.cif
#   From: 2010.05.17/outbox.cif.g08.bks.cpg/sg12_55_cif.got.tgz:108309.got - 2010.06.03 13:09:07.
