data_PCOD9210898
_publ_section_title
;
Structure prediction by ZEFSAII (Michael W. Deem and Ramdas Pophale) SiO2 
 PCOD9210898
Probable space group: C 2/M
;
_chemical_formula_sum "Si O2"
_cell_formula_units_Z 64
_cell_length_a 20.732770
_cell_length_b 24.860939
_cell_length_c 16.893392
_cell_angle_alpha 90.000000
_cell_angle_beta 159.325273
_cell_angle_gamma 90.000000
_cell_volume 3074.276502
_symmetry_space_group_name_H-M "C 2/M"
_symmetry_group_IT_number 12
_symmetry_cell_setting 'monoclinic'
loop_
_space_group_symop_operation_xyz
x,y,z
-x,y,-z
-x,-y,-z
x,-y,z
1/2+x,1/2+y,z
1/2-x,1/2+y,-z
1/2-x,1/2-y,-z
1/2+x,1/2-y,z
loop_
_atom_site_type_symbol
_atom_site_label
_atom_site_fract_x
_atom_site_fract_y
_atom_site_fract_z
Si Si1 0.689956 0.270146 0.673126
Si Si2 0.198823 0.140921 0.552055
Si Si3 0.708313 0.562168 0.708800
Si Si4 0.540753 0.631461 0.874528
Si Si5 0.326806 0.192142 0.112859
Si Si6 0.775575 0.663613 0.365638
Si Si7 0.892814 0.351350 0.022481
Si Si8 0.305596 0.560128 0.822221
O O1 0.500000 0.260965 0.500000
O O2 0.651744 0.306698 0.551134
O O3 0.777442 0.213646 0.750468
O O4 0.815543 0.305942 0.874505
O O5 0.224768 0.093620 0.645391
O O6 0.055874 0.124461 0.321085
O O7 0.389863 0.152785 0.728450
O O8 0.500000 0.567672 0.500000
O O9 0.754087 0.500000 0.753410
O O10 0.832986 0.592598 0.915348
O O11 0.383981 0.651890 0.754412
O O12 0.700894 0.673272 0.040226
O O13 0.638350 0.580164 0.026117
O O14 0.536643 0.184515 0.379581
O O15 0.250000 0.250000 0.000000
O O16 0.311321 0.156548 0.015571
O O17 0.801241 0.608576 0.344572
O O18 0.225157 0.500000 0.727725
O O19 0.500000 0.557689 0.000000
#
# Coordination Sequence:
#
# PCOD9210898 Si02
#       8
#     8   8   8   8   8   8   8   8
#     4  11  23  39  63  95 134 175 217 269 331 413
#     4  11  22  39  64  95 134 175 217 271 336 397
#     4  10  21  39  64  93 128 172 222 269 327 404
#     4  11  24  43  66  95 133 172 220 279 330 395
#     4  12  26  42  67  98 137 173 216 273 329 403
#     4  11  25  44  67  97 131 174 229 268 342 400
#     4  11  23  41  62  95 135 171 220 268 331 402
#     4   9  22  45  72  97 129 175 230 288 338 393
#
# _framework density 20.817906000000001
#
# number of rings (size 3 to 8) (size 9 to 14) (size 15 to 20)
#    0.000    1.250    1.250    6.000    5.250    4.500 
#    0.000    2.500    0.000    0.000    0.000    0.000 
#    0.000    0.000    0.000    0.000    0.000    0.000 
#
# Total GULP energy -178921.408075 kJ/mol
# GULP energy per Si atom -5591.294002 kJ/mol
# Density = 2.077052 g / cm^3
# Si number density = 20.817906 Si / 1000 Ang^3
#
#
#
# Elastic Constant Matrix: (Units=GPa)
#
#
# Indices 1 2 3 4 5 6 
#
# 1 113.8396 50.0272 35.9654 0.0000 -4.4450 0.0000
# 2 50.0272 146.7894 31.0956 0.0000 -3.6748 0.0000
# 3 35.9654 31.0956 75.5794 -0.0001 3.1905 -0.0001
# 4 0.0000 0.0000 -0.0001 22.0452 0.0000 2.1299
# 5 -4.4450 -3.6748 3.1905 0.0000 33.3457 0.0000
# 6 0.0000 0.0000 -0.0001 2.1299 0.0000 19.2382
#
#
#
# Elastic Compliance Matrix: (Units=1/GPa)
#
#
# Indices 1 2 3 4 5 6 
#
# 1 0.011520 -0.002968 -0.004329 0.000000 0.001623 0.000000
# 2 -0.002968 0.008270 -0.002020 0.000000 0.000709 0.000000
# 3 -0.004329 -0.002020 0.016221 0.000000 -0.002352 0.000000
# 4 0.000000 0.000000 0.000000 0.045852 0.000000 -0.005076
# 5 0.001623 0.000709 -0.002352 0.000000 0.030508 0.000000
# 6 0.000000 0.000000 0.000000 -0.005076 0.000000 0.052542
#
#
# Mechanical properties :
#
#
# Convention : Reuss Voigt Hill
#
# Bulk Modulus (GPa) = 57.54898 63.37607 60.46253
# Shear Modulus (GPa) = 26.40757 29.53384 27.97071
#
# Velocity S-wave (km/s) = 3.56547 3.77062 3.66948
# Velocity P-wave (km/s) = 6.68237 7.03320 6.86003
#
# Compressibility (1/GPa) = 0.01737650
#
# Stress axis : x y z
#
# Youngs Moduli (GPa) = 86.80713 120.92269 61.64688
#
# Poissons Ratio (x) = 0.35894 0.26687
# Poissons Ratio (y) = 0.25768 0.12451
# Poissons Ratio (z) = 0.37579 0.24424
#
# Static dielectric constant tensor:
#      x y z
#    x 1.746460 0.000000 -0.003470 
#    y 0.000000 1.735950 0.000000 
#    z -0.003470 0.000000 1.791990 
# 
# From -- ./inp_files/286439.got.cif
#   From: 2010.05.17/outbox.cif.g08.bks.cpg/sg12_144_cif.got.tgz:286439.got - 2010.06.03 13:09:07.
