data_PCOD9210830
_publ_section_title
;
Structure prediction by ZEFSAII (Michael W. Deem and Ramdas Pophale) SiO2 
 PCOD9210830
Probable space group: C 2/M
;
_chemical_formula_sum "Si O2"
_cell_formula_units_Z 56
_cell_length_a 14.803151
_cell_length_b 14.532984
_cell_length_c 20.037627
_cell_angle_alpha 90.000000
_cell_angle_beta 39.630729
_cell_angle_gamma 90.000000
_cell_volume 2749.571752
_symmetry_space_group_name_H-M "C 2/M"
_symmetry_group_IT_number 12
_symmetry_cell_setting 'monoclinic'
loop_
_space_group_symop_operation_xyz
x,y,z
-x,y,-z
-x,-y,-z
x,-y,z
1/2+x,1/2+y,z
1/2-x,1/2+y,-z
1/2-x,1/2-y,-z
1/2+x,1/2-y,z
loop_
_atom_site_type_symbol
_atom_site_label
_atom_site_fract_x
_atom_site_fract_y
_atom_site_fract_z
Si Si1 0.886935 0.792428 0.851953
Si Si2 0.434148 0.228659 0.971113
Si Si3 0.031399 0.202077 0.407744
Si Si4 0.610054 0.391657 0.631734
Si Si5 0.180895 0.395029 0.776748
Si Si6 0.568033 0.103451 0.553724
Si Si7 0.512756 0.101309 0.740356
O O1 0.918210 0.790935 0.913599
O O2 0.998356 0.855022 0.749414
O O3 0.912725 0.687433 0.812320
O O4 0.723040 0.812833 0.930225
O O5 0.547227 0.149381 0.889499
O O6 0.500000 0.274310 0.000000
O O7 0.179040 0.164602 0.295982
O O8 0.000000 0.166900 0.500000
O O9 0.916032 0.166331 0.420694
O O10 0.030309 0.312452 0.410740
O O11 0.589164 0.500000 0.630177
O O12 0.772306 0.379591 0.562031
O O13 0.205666 0.500000 0.783048
O O14 0.137768 0.393030 0.723187
O O15 0.570579 0.106423 0.632855
O O16 0.522382 0.000000 0.561541
O O17 0.445039 0.000000 0.787900
#
# Coordination Sequence:
#
# PCOD9210830 Si02
#       7
#     8   8   8   8   8   8   8
#     4  10  21  39  64  91 121 164 211 254 316 375
#     4  10  22  38  61  90 122 163 204 261 313 373
#     4  12  24  35  61  91 126 166 197 251 309 371
#     4  11  23  39  61  90 123 160 208 253 306 375
#     4  10  22  38  59  92 125 157 199 253 317 371
#     4  10  22  39  60  87 122 164 205 245 296 364
#     4   9  18  37  64  87 117 160 208 251 299 366
#
# _framework density 20.366807999999999
#
# number of rings (size 3 to 8) (size 9 to 14) (size 15 to 20)
#    0.000    1.714    1.429    2.571    4.000    3.429 
#    0.000    2.143    0.000    2.571    0.000    0.000 
#    0.000    0.000    0.000    0.000    0.000    0.000 
#
# Total GULP energy -156379.846268 kJ/mol
# GULP energy per Si atom -5584.994510 kJ/mol
# Density = 2.032045 g / cm^3
# Si number density = 20.366808 Si / 1000 Ang^3
#
#
#
# Elastic Constant Matrix: (Units=GPa)
#
#
# Indices 1 2 3 4 5 6 
#
# 1 77.6820 22.7391 24.9083 -0.0001 8.7059 0.0000
# 2 22.7391 110.0011 34.0208 0.0000 -28.1881 0.0000
# 3 24.9083 34.0208 81.6236 -0.0001 -9.9862 0.0001
# 4 -0.0001 0.0000 -0.0001 7.3010 0.0001 -2.6707
# 5 8.7059 -28.1881 -9.9862 0.0001 40.5128 0.0000
# 6 0.0000 0.0000 0.0001 -2.6707 0.0000 20.6572
#
#
#
# Elastic Compliance Matrix: (Units=1/GPa)
#
#
# Indices 1 2 3 4 5 6 
#
# 1 0.016166 -0.003894 -0.004193 0.000000 -0.007217 0.000000
# 2 -0.003894 0.013264 -0.003205 0.000000 0.009276 0.000000
# 3 -0.004193 -0.003205 0.015161 0.000000 0.002408 0.000000
# 4 0.000000 0.000000 0.000000 0.143767 0.000000 0.018587
# 5 -0.007217 0.009276 0.002408 0.000000 0.033282 0.000000
# 6 0.000000 0.000000 0.000000 0.018587 0.000000 0.050813
#
#
# Mechanical properties :
#
#
# Convention : Reuss Voigt Hill
#
# Bulk Modulus (GPa) = 45.44144 48.07145 46.75645
# Shear Modulus (GPa) = 16.53580 26.20343 21.36962
#
# Velocity S-wave (km/s) = 2.85248 3.59078 3.24271
# Velocity P-wave (km/s) = 5.76271 6.39106 6.08500
#
# Compressibility (1/GPa) = 0.02200634
#
# Stress axis : x y z
#
# Youngs Moduli (GPa) = 61.85694 75.39137 65.95662
#
# Poissons Ratio (x) = 0.29361 0.27656
# Poissons Ratio (y) = 0.24090 0.21140
# Poissons Ratio (z) = 0.25937 0.24164
#
# Static dielectric constant tensor:
#      x y z
#    x 1.769770 0.000000 0.028310 
#    y 0.000000 1.716880 0.000000 
#    z 0.028310 0.000000 1.722570 
# 
# From -- ./inp_files/310761.got.cif
#   From: 2010.05.17/outbox.cif.g08.bks.cpg/sg12_156_cif.got.tgz:310761.got - 2010.06.03 13:09:07.
