data_PCOD9210940
_publ_section_title
;
Structure prediction by ZEFSAII (Michael W. Deem and Ramdas Pophale) SiO2 
 PCOD9210940
Probable space group: C 2/M
;
_chemical_formula_sum "Si O2"
_cell_formula_units_Z 44
_cell_length_a 17.745558
_cell_length_b 25.478639
_cell_length_c 15.256686
_cell_angle_alpha 90.000000
_cell_angle_beta 17.472127
_cell_angle_gamma 90.000000
_cell_volume 2071.081810
_symmetry_space_group_name_H-M "C 2/M"
_symmetry_group_IT_number 12
_symmetry_cell_setting 'monoclinic'
loop_
_space_group_symop_operation_xyz
x,y,z
-x,y,-z
-x,-y,-z
x,-y,z
1/2+x,1/2+y,z
1/2-x,1/2+y,-z
1/2-x,1/2-y,-z
1/2+x,1/2-y,z
loop_
_atom_site_type_symbol
_atom_site_label
_atom_site_fract_x
_atom_site_fract_y
_atom_site_fract_z
Si Si1 0.797201 0.146424 0.644941
Si Si2 0.616177 0.135283 0.545372
Si Si3 0.000000 0.086596 0.000000
Si Si4 0.240925 0.553795 0.129225
Si Si5 0.546014 0.746717 0.647681
Si Si6 0.244353 0.938902 0.455533
O O1 0.889162 0.195506 0.482065
O O2 0.801125 0.092006 0.584822
O O3 0.000000 0.143656 0.500000
O O4 0.500000 0.154733 0.000000
O O5 0.875437 0.120876 0.212702
O O6 0.406590 0.105822 0.724017
O O7 0.585218 0.196177 0.564492
O O8 0.606002 0.104840 0.650945
O O9 0.809657 0.053030 0.154699
O O10 0.100054 0.500000 0.260444
O O11 0.486007 0.555113 0.795903
O O12 0.750000 0.750000 0.500000
O O13 0.250000 0.750000 0.000000
O O14 0.341800 0.000000 0.338716
#
# Coordination Sequence:
#
# PCOD9210940 Si02
#       6
#     8   8   4   8   8   8
#     4  12  28  48  73 109 148 186 243 302 359 420
#     4  11  23  40  69  96 138 180 239 289 359 433
#     4  10  23  36  58 100 140 178 223 294 358 422
#     4  10  21  39  64  96 137 184 235 287 350 430
#     4  12  26  48  77 101 138 187 238 294 361 424
#     4  10  23  44  70 100 137 188 240 290 358 431
#
# _framework density 21.244935000000002
#
# number of rings (size 3 to 8) (size 9 to 14) (size 15 to 20)
#    0.000    1.091    1.818    3.545    6.364    5.091 
#    0.000    0.000    0.000    0.000    0.000    0.000 
#    0.000    0.000    0.000    0.000    0.000    0.000 
#
# Total GULP energy -122472.716611 kJ/mol
# GULP energy per Si atom -5566.941664 kJ/mol
# Density = 2.119658 g / cm^3
# Si number density = 21.244935 Si / 1000 Ang^3
#
#
#
# Elastic Constant Matrix: (Units=GPa)
#
#
# Indices 1 2 3 4 5 6 
#
# 1 139.2454 33.1988 25.1934 -0.0821 -9.7129 0.1178
# 2 33.1988 150.0738 22.2724 0.3928 11.8087 0.4872
# 3 25.1934 22.2724 97.0830 0.4013 -1.7605 0.4249
# 4 -0.0821 0.3928 0.4013 28.0423 -0.0027 0.5238
# 5 -9.7129 11.8087 -1.7605 -0.0027 27.4799 -0.2268
# 6 0.1178 0.4872 0.4249 0.5238 -0.2268 21.4997
#
#
#
# Elastic Compliance Matrix: (Units=1/GPa)
#
#
# Indices 1 2 3 4 5 6 
#
# 1 0.008166 -0.001846 -0.001631 0.000072 0.003576 0.000065
# 2 -0.001846 0.007585 -0.001332 -0.000090 -0.003999 -0.000175
# 3 -0.001631 -0.001332 0.011044 -0.000141 0.000702 -0.000168
# 4 0.000072 -0.000090 -0.000141 0.035680 0.000051 -0.000864
# 5 0.003576 -0.003999 0.000702 0.000051 0.039421 0.000472
# 6 0.000065 -0.000175 -0.000168 -0.000864 0.000472 0.046545
#
#
# Mechanical properties :
#
#
# Convention : Reuss Voigt Hill
#
# Bulk Modulus (GPa) = 58.22449 60.85906 59.54177
# Shear Modulus (GPa) = 30.52758 35.78689 33.15724
#
# Velocity S-wave (km/s) = 3.79480 4.10871 3.95487
# Velocity P-wave (km/s) = 6.83129 7.15662 6.99585
#
# Compressibility (1/GPa) = 0.01717490
#
# Stress axis : x y z
#
# Youngs Moduli (GPa) = 122.45432 131.83944 90.55061
#
# Poissons Ratio (x) = 0.24340 0.14772
# Poissons Ratio (y) = 0.22607 0.12065
# Poissons Ratio (z) = 0.19977 0.17566
#
# Static dielectric constant tensor:
#      x y z
#    x 1.801870 0.007350 0.006960 
#    y 0.007350 1.434730 -0.005390 
#    z 0.006960 -0.005390 1.856690 
# 
# From -- ./inp_files/11600.got.cif
#   From: 2010.05.17/outbox.cif.g08.bks.cpg/sg12_6_cif.got.tgz:11600.got - 2010.06.03 13:09:07.
