data_PCOD9210963
_publ_section_title
;
Structure prediction by ZEFSAII (Michael W. Deem and Ramdas Pophale) SiO2 
 PCOD9210963
Probable space group: C 2/M
;
_chemical_formula_sum "Si O2"
_cell_formula_units_Z 58
_cell_length_a 14.143407
_cell_length_b 7.981608
_cell_length_c 23.393095
_cell_angle_alpha 90.000000
_cell_angle_beta 84.729445
_cell_angle_gamma 90.000000
_cell_volume 2629.614250
_symmetry_space_group_name_H-M "C 2/M"
_symmetry_group_IT_number 12
_symmetry_cell_setting 'monoclinic'
loop_
_space_group_symop_operation_xyz
x,y,z
-x,y,-z
-x,-y,-z
x,-y,z
1/2+x,1/2+y,z
1/2-x,1/2+y,-z
1/2-x,1/2-y,-z
1/2+x,1/2-y,z
loop_
_atom_site_type_symbol
_atom_site_label
_atom_site_fract_x
_atom_site_fract_y
_atom_site_fract_z
Si Si1 0.501241 0.184979 0.638073
Si Si2 0.378405 0.298010 0.061756
Si Si3 0.272264 0.194119 0.841592
Si Si4 0.000000 0.000000 0.500000
Si Si5 0.837955 0.188019 0.716323
Si Si6 0.633042 0.801325 0.466596
Si Si7 0.707398 0.308014 0.623548
Si Si8 0.100898 0.201478 0.064785
O O1 0.430281 0.203575 0.695349
O O2 0.431270 0.206815 0.588192
O O3 0.594199 0.297993 0.631647
O O4 0.542456 0.000000 0.633561
O O5 0.363605 0.500000 0.060793
O O6 0.315034 0.232086 0.116874
O O7 0.488655 0.270833 0.067532
O O8 0.358180 0.237001 0.998517
O O9 0.298811 0.282139 0.781500
O O10 0.355989 0.209495 0.883086
O O11 0.252966 0.000000 0.828734
O O12 0.082437 0.150455 0.503236
O O13 0.754746 0.216561 0.674855
O O14 0.872966 0.000000 0.707368
O O15 0.738520 0.753150 0.437613
O O16 0.628023 0.000000 0.486181
O O17 0.737553 0.500000 0.628157
O O18 0.116525 0.000000 0.068595
#
# Coordination Sequence:
#
# PCOD9210963 Si02
#       8
#     8   8   8   2   8   8   8   8
#     4  10  21  39  65  89 118 153 199 246 292 355
#     4   8  17  33  54  74 100 142 183 225 278 350
#     4  11  21  34  51  77 113 140 178 235 298 343
#     4  12  22  36  72  86 132 170 206 244 316 330
#     4  11  23  38  57  84 113 151 197 244 297 351
#     4   9  22  40  61  93 128 164 207 250 296 352
#     4  10  21  39  65  89 119 155 199 244 291 355
#     4   9  17  34  55  75  99 139 189 225 277 349
#
# _framework density 22.056467000000001
#
# number of rings (size 3 to 8) (size 9 to 14) (size 15 to 20)
#    0.000    2.207    0.000    4.759    5.793    1.103 
#    0.000    8.276    0.000    0.000    0.000    0.000 
#    0.000    0.000    0.000    0.000    0.000    0.000 
#
# Total GULP energy -161654.043242 kJ/mol
# GULP energy per Si atom -5574.277353 kJ/mol
# Density = 2.200627 g / cm^3
# Si number density = 22.056467 Si / 1000 Ang^3
#
#
#
# Elastic Constant Matrix: (Units=GPa)
#
#
# Indices 1 2 3 4 5 6 
#
# 1 101.3863 8.1033 26.4281 0.0000 -27.6249 0.0000
# 2 8.1033 47.0471 8.4247 0.0000 -1.4084 0.0000
# 3 26.4281 8.4247 117.1636 0.0000 -12.7107 0.0000
# 4 0.0000 0.0000 0.0000 9.8873 0.0000 -2.2893
# 5 -27.6249 -1.4084 -12.7107 0.0000 31.9804 0.0000
# 6 0.0000 0.0000 0.0000 -2.2893 0.0000 26.1002
#
#
#
# Elastic Compliance Matrix: (Units=1/GPa)
#
#
# Indices 1 2 3 4 5 6 
#
# 1 0.013392 -0.001674 -0.001728 0.000000 0.010808 0.000000
# 2 -0.001674 0.021745 -0.001295 0.000000 -0.001003 0.000000
# 3 -0.001728 -0.001295 0.009249 0.000000 0.002126 0.000000
# 4 0.000000 0.000000 0.000000 0.103236 0.000000 0.009055
# 5 0.010808 -0.001003 0.002126 0.000000 0.041406 0.000000
# 6 0.000000 0.000000 0.000000 0.009055 0.000000 0.039108
#
#
# Mechanical properties :
#
#
# Convention : Reuss Voigt Hill
#
# Bulk Modulus (GPa) = 28.57695 39.05658 33.81677
# Shear Modulus (GPa) = 20.06467 28.43631 24.25049
#
# Velocity S-wave (km/s) = 3.01939 3.59451 3.31943
# Velocity P-wave (km/s) = 5.01398 5.91382 5.48239
#
# Compressibility (1/GPa) = 0.03499324
#
# Stress axis : x y z
#
# Youngs Moduli (GPa) = 74.66972 45.98668 108.12416
#
# Poissons Ratio (x) = 0.07697 0.18684
# Poissons Ratio (y) = 0.12497 0.14001
# Poissons Ratio (z) = 0.12903 0.05955
#
# Static dielectric constant tensor:
#      x y z
#    x 1.816280 0.000000 -0.014460 
#    y 0.000000 1.814620 0.000000 
#    z -0.014460 0.000000 1.820770 
# 
# From -- ./inp_files/337997.got.cif
#   From: 2010.05.17/outbox.cif.g08.bks.cpg/sg12_169_cif.got.tgz:337997.got - 2010.06.03 13:09:07.
