data_PCOD9210484
_publ_section_title
;
Structure prediction by ZEFSAII (Michael W. Deem and Ramdas Pophale) SiO2 
 PCOD9210484
Probable space group: C 2/M
;
_chemical_formula_sum "Si O2"
_cell_formula_units_Z 44
_cell_length_a 23.423581
_cell_length_b 13.751613
_cell_length_c 7.458497
_cell_angle_alpha 90.000000
_cell_angle_beta 70.986301
_cell_angle_gamma 90.000000
_cell_volume 2271.394395
_symmetry_space_group_name_H-M "C 2/M"
_symmetry_group_IT_number 12
_symmetry_cell_setting 'monoclinic'
loop_
_space_group_symop_operation_xyz
x,y,z
-x,y,-z
-x,-y,-z
x,-y,z
1/2+x,1/2+y,z
1/2-x,1/2+y,-z
1/2-x,1/2-y,-z
1/2+x,1/2-y,z
loop_
_atom_site_type_symbol
_atom_site_label
_atom_site_fract_x
_atom_site_fract_y
_atom_site_fract_z
Si Si1 0.878039 0.383109 0.642550
Si Si2 0.812327 0.722101 0.032500
Si Si3 0.021558 0.888463 0.773317
Si Si4 0.500000 0.764856 0.500000
Si Si5 0.344093 0.385957 0.250375
Si Si6 0.719020 0.883892 0.567547
O O1 0.883553 0.500000 0.648672
O O2 0.941550 0.332231 0.538133
O O3 0.830299 0.359715 0.533732
O O4 0.851931 0.339092 0.853264
O O5 0.844316 0.819438 0.073780
O O6 0.797300 0.661590 0.226171
O O7 0.750000 0.750000 0.000000
O O8 0.993389 0.807563 0.675350
O O9 0.094062 0.875010 0.703761
O O10 0.008045 0.000000 0.731063
O O11 0.000000 0.878383 0.000000
O O12 0.338212 0.500000 0.208746
O O13 0.285413 0.357042 0.426321
O O14 0.719071 0.000000 0.587092
#
# Coordination Sequence:
#
# PCOD9210484 Si02
#       6
#     8   8   8   4   8   8
#     4  11  25  44  63  92 128 167 215 264 308 371
#     4  12  23  36  66  93 126 162 206 257 318 375
#     4  10  22  41  63  91 128 163 207 262 313 374
#     4  12  24  40  68  90 122 176 216 254 308 370
#     4  10  21  39  62  90 127 163 201 257 320 380
#     4  10  22  41  62  90 129 162 201 259 318 372
#
# _framework density 19.371359999999999
#
# number of rings (size 3 to 8) (size 9 to 14) (size 15 to 20)
#    0.000    1.273    1.818    3.818    2.545    0.727 
#    0.000    0.909    0.000    5.455    0.000    0.000 
#    0.000    0.000    0.000    0.000    0.000    0.000 
#
# Total GULP energy -123020.754101 kJ/mol
# GULP energy per Si atom -5591.852459 kJ/mol
# Density = 1.932727 g / cm^3
# Si number density = 19.371360 Si / 1000 Ang^3
#
#
#
# Elastic Constant Matrix: (Units=GPa)
#
#
# Indices 1 2 3 4 5 6 
#
# 1 74.4628 28.3427 26.1559 0.0000 -14.4740 0.0000
# 2 28.3427 93.6452 47.2755 0.0000 3.8569 0.0000
# 3 26.1559 47.2755 112.2364 0.0000 0.3424 0.0000
# 4 0.0000 0.0000 0.0000 36.9702 0.0000 2.8469
# 5 -14.4740 3.8569 0.3424 0.0000 26.1892 0.0000
# 6 0.0000 0.0000 0.0000 2.8469 0.0000 33.6060
#
#
#
# Elastic Compliance Matrix: (Units=1/GPa)
#
#
# Indices 1 2 3 4 5 6 
#
# 1 0.018134 -0.004803 -0.002236 0.000000 0.010759 0.000000
# 2 -0.004803 0.014932 -0.005156 0.000000 -0.004786 0.000000
# 3 -0.002236 -0.005156 0.011604 0.000000 -0.000628 0.000000
# 4 0.000000 0.000000 0.000000 0.027226 0.000000 -0.002306
# 5 0.010759 -0.004786 -0.000628 0.000000 0.044843 0.000000
# 6 0.000000 0.000000 0.000000 -0.002306 0.000000 0.029952
#
#
# Mechanical properties :
#
#
# Convention : Reuss Voigt Hill
#
# Bulk Modulus (GPa) = 49.30507 53.76582 51.53545
# Shear Modulus (GPa) = 28.11485 31.25776 29.68631
#
# Velocity S-wave (km/s) = 3.81381 4.02133 3.91894
# Velocity P-wave (km/s) = 6.70084 7.02688 6.86580
#
# Compressibility (1/GPa) = 0.02028189
#
# Stress axis : x y z
#
# Youngs Moduli (GPa) = 55.14399 66.96944 86.17418
#
# Poissons Ratio (x) = 0.32165 0.19267
# Poissons Ratio (y) = 0.26485 0.44429
# Poissons Ratio (z) = 0.12329 0.34528
#
# Static dielectric constant tensor:
#      x y z
#    x 1.667950 0.000000 -0.011930 
#    y 0.000000 1.692540 0.000000 
#    z -0.011930 0.000000 1.638250 
# 
# From -- ./inp_files/24260.got.cif
#   From: 2010.05.17/outbox.cif.g08.bks.cpg/sg12_13_cif.got.tgz:24260.got - 2010.06.03 13:09:07.
