data_PCOD9210538
_publ_section_title
;
Structure prediction by ZEFSAII (Michael W. Deem and Ramdas Pophale) SiO2 
 PCOD9210538
Probable space group: C 2/M
;
_chemical_formula_sum "Si O2"
_cell_formula_units_Z 52
_cell_length_a 17.610199
_cell_length_b 13.658224
_cell_length_c 21.974842
_cell_angle_alpha 90.000000
_cell_angle_beta 28.664681
_cell_angle_gamma 90.000000
_cell_volume 2535.352302
_symmetry_space_group_name_H-M "C 2/M"
_symmetry_group_IT_number 12
_symmetry_cell_setting 'monoclinic'
loop_
_space_group_symop_operation_xyz
x,y,z
-x,y,-z
-x,-y,-z
x,-y,z
1/2+x,1/2+y,z
1/2-x,1/2+y,-z
1/2-x,1/2-y,-z
1/2+x,1/2-y,z
loop_
_atom_site_type_symbol
_atom_site_label
_atom_site_fract_x
_atom_site_fract_y
_atom_site_fract_z
Si Si1 0.814589 0.893084 0.652459
Si Si2 0.126990 0.890043 0.248967
Si Si3 0.283839 0.500000 0.247715
Si Si4 0.854667 0.166232 0.896218
Si Si5 0.134634 0.000000 0.010961
Si Si6 0.093837 0.297728 0.582167
Si Si7 0.436704 0.000000 0.712915
Si Si8 0.286794 0.309358 0.330711
O O1 0.792189 0.895349 0.741431
O O2 0.729975 0.796835 0.687700
O O3 0.000000 0.886301 0.500000
O O4 0.759278 0.000000 0.667794
O O5 0.206126 0.871764 0.126949
O O6 0.029142 0.790477 0.327245
O O7 0.049372 0.000000 0.297593
O O8 0.145604 0.500000 0.295611
O O9 0.275273 0.401054 0.293496
O O10 0.465580 0.500000 0.095842
O O11 0.041892 0.189598 0.756732
O O12 0.750000 0.250000 0.000000
O O13 0.858034 0.088614 0.947549
O O14 0.286489 0.000000 0.862370
O O15 0.250000 0.250000 0.500000
O O16 0.143246 0.320657 0.478531
O O17 0.035264 0.399778 0.651753
#
# Coordination Sequence:
#
# PCOD9210538 Si02
#       8
#     8   8   4   8   4   8   4   8
#     4  10  21  39  62  95 132 174 211 264 328 401
#     4  11  22  40  66  90 132 173 217 267 336 391
#     4  10  24  42  71  95 130 178 216 284 339 404
#     4  11  23  43  66  94 127 178 223 272 329 385
#     4  10  23  44  66  94 127 171 229 275 327 399
#     4  12  25  38  63 102 135 171 218 275 336 406
#     4  12  26  44  67 101 137 171 226 279 346 405
#     4  11  23  41  64  97 136 166 220 273 334 402
#
# _framework density 20.509969000000002
#
# number of rings (size 3 to 8) (size 9 to 14) (size 15 to 20)
#    0.000    1.077    3.846    2.538    1.077    0.615 
#    1.385    2.308    0.000    1.846    0.000    0.000 
#    0.000    0.000    0.000    0.000    0.000    0.000 
#
# Total GULP energy -144876.304404 kJ/mol
# GULP energy per Si atom -5572.165554 kJ/mol
# Density = 2.046329 g / cm^3
# Si number density = 20.509969 Si / 1000 Ang^3
#
#
#
# Elastic Constant Matrix: (Units=GPa)
#
#
# Indices 1 2 3 4 5 6 
#
# 1 48.7060 16.9462 17.5633 -0.0001 13.9180 -0.0002
# 2 16.9462 174.1690 49.8879 -0.0024 -8.2238 0.0009
# 3 17.5633 49.8879 68.9842 -0.0014 19.2714 0.0003
# 4 -0.0001 -0.0024 -0.0014 15.0749 0.0008 -0.5772
# 5 13.9180 -8.2238 19.2714 0.0008 25.4916 -0.0001
# 6 -0.0002 0.0009 0.0003 -0.5772 -0.0001 18.1145
#
#
#
# Elastic Compliance Matrix: (Units=1/GPa)
#
#
# Indices 1 2 3 4 5 6 
#
# 1 0.026023 -0.003245 -0.000021 0.000001 -0.015239 0.000000
# 2 -0.003245 0.009202 -0.009068 0.000000 0.011596 0.000000
# 3 -0.000021 -0.009068 0.027730 0.000002 -0.023877 0.000000
# 4 0.000001 0.000000 0.000002 0.066416 -0.000004 0.002116
# 5 -0.015239 0.011596 -0.023877 -0.000004 0.069341 0.000000
# 6 0.000000 0.000000 0.000000 0.002116 0.000000 0.055272
#
#
# Mechanical properties :
#
#
# Convention : Reuss Voigt Hill
#
# Bulk Modulus (GPa) = 26.11967 51.18377 38.65172
# Shear Modulus (GPa) = 17.15767 25.56698 21.36233
#
# Velocity S-wave (km/s) = 2.89546 3.53450 3.23082
# Velocity P-wave (km/s) = 4.89295 6.45497 5.72746
#
# Compressibility (1/GPa) = 0.03828533
#
# Stress axis : x y z
#
# Youngs Moduli (GPa) = 38.42786 108.66905 36.06257
#
# Poissons Ratio (x) = 0.35268 0.00076
# Poissons Ratio (y) = 0.12471 0.32702
# Poissons Ratio (z) = 0.00081 0.98542
#
# Static dielectric constant tensor:
#      x y z
#    x 1.780130 0.000000 0.003690 
#    y 0.000000 1.736900 0.000000 
#    z 0.003690 0.000000 1.760020 
# 
# From -- ./inp_files/316500.got.cif
#   From: 2010.05.17/outbox.cif.g08.bks.cpg/sg12_159_cif.got.tgz:316500.got - 2010.06.03 13:09:07.
