data_PCOD9210915
_publ_section_title
;
Structure prediction by ZEFSAII (Michael W. Deem and Ramdas Pophale) SiO2 
 PCOD9210915
Probable space group: C 2/M
;
_chemical_formula_sum "Si O2"
_cell_formula_units_Z 64
_cell_length_a 29.231179
_cell_length_b 13.960847
_cell_length_c 10.213515
_cell_angle_alpha 90.000000
_cell_angle_beta 130.134706
_cell_angle_gamma 90.000000
_cell_volume 3186.606837
_symmetry_space_group_name_H-M "C 2/M"
_symmetry_group_IT_number 12
_symmetry_cell_setting 'monoclinic'
loop_
_space_group_symop_operation_xyz
x,y,z
-x,y,-z
-x,-y,-z
x,-y,z
1/2+x,1/2+y,z
1/2-x,1/2+y,-z
1/2-x,1/2-y,-z
1/2+x,1/2-y,z
loop_
_atom_site_type_symbol
_atom_site_label
_atom_site_fract_x
_atom_site_fract_y
_atom_site_fract_z
Si Si1 0.369044 0.114969 0.076043
Si Si2 0.355511 0.384431 0.219684
Si Si3 0.856891 0.809986 0.515759
Si Si4 0.472327 0.389483 0.807884
Si Si5 0.537252 0.728424 0.703143
Si Si6 0.329128 0.891663 0.493756
Si Si7 0.227901 0.610641 0.324871
Si Si8 0.226086 0.386423 0.884269
O O1 0.430038 0.174500 0.190110
O O2 0.331125 0.143297 0.135803
O O3 0.379059 0.000000 0.093533
O O4 0.324885 0.138455 0.872996
O O5 0.357297 0.500000 0.226299
O O6 0.364320 0.343580 0.380848
O O7 0.408334 0.344289 0.228031
O O8 0.290029 0.350542 0.050525
O O9 0.901219 0.873569 0.682953
O O10 0.872871 0.698581 0.565642
O O11 0.787637 0.827633 0.422782
O O12 0.485299 0.500000 0.797372
O O13 0.497538 0.319831 0.742473
O O14 0.500000 0.368746 0.000000
O O15 0.500000 0.742258 0.500000
O O16 0.296523 0.887644 0.572895
O O17 0.285201 0.873472 0.289811
O O18 0.353606 0.000000 0.522925
O O19 0.243997 0.500000 0.320307
O O20 0.229057 0.500000 0.913292
#
# Coordination Sequence:
#
# PCOD9210915 Si02
#       8
#     8   8   8   8   8   8   8   8
#     4  10  22  41  65  92 128 165 207 260 312 372
#     4  11  22  38  65  96 126 160 207 261 316 377
#     4  12  22  38  69  92 121 169 209 253 312 379
#     4  11  27  48  66  90 127 166 211 263 307 364
#     4  12  26  41  64  93 123 171 214 258 308 365
#     4  10  23  38  57  94 137 163 198 252 313 373
#     4  10  21  39  64  95 127 162 204 258 317 376
#     4   9  19  37  61  93 125 159 197 252 317 371
#
# _framework density 20.084060000000001
#
# number of rings (size 3 to 8) (size 9 to 14) (size 15 to 20)
#    0.000    1.375    2.500    2.625    3.500    2.750 
#    0.000    3.125    0.000    0.750    0.000    0.000 
#    0.000    0.000    0.000    0.000    0.000    0.000 
#
# Total GULP energy -178783.394077 kJ/mol
# GULP energy per Si atom -5586.981065 kJ/mol
# Density = 2.003835 g / cm^3
# Si number density = 20.084060 Si / 1000 Ang^3
#
#
#
# Elastic Constant Matrix: (Units=GPa)
#
#
# Indices 1 2 3 4 5 6 
#
# 1 47.6520 40.2193 37.0056 0.0000 6.0932 0.0000
# 2 40.2193 101.0138 46.0298 0.0000 -3.9174 0.0000
# 3 37.0056 46.0298 125.5690 0.0000 -1.9998 0.0000
# 4 0.0000 0.0000 0.0000 25.4633 0.0000 3.9220
# 5 6.0932 -3.9174 -1.9998 0.0000 24.0588 0.0000
# 6 0.0000 0.0000 0.0000 3.9220 0.0000 15.6132
#
#
#
# Elastic Compliance Matrix: (Units=1/GPa)
#
#
# Indices 1 2 3 4 5 6 
#
# 1 0.038717 -0.012736 -0.006940 0.000000 -0.012456 0.000000
# 2 -0.012736 0.016134 -0.002071 0.000000 0.005681 0.000000
# 3 -0.006940 -0.002071 0.010805 0.000000 0.002319 0.000000
# 4 0.000000 0.000000 0.000000 0.040853 0.000000 -0.010262
# 5 -0.012456 0.005681 0.002319 0.000000 0.045837 0.000000
# 6 0.000000 0.000000 0.000000 -0.010262 0.000000 0.066626
#
#
# Mechanical properties :
#
#
# Convention : Reuss Voigt Hill
#
# Bulk Modulus (GPa) = 45.11940 57.86050 51.48995
# Shear Modulus (GPa) = 18.52857 23.09240 20.81049
#
# Velocity S-wave (km/s) = 3.04065 3.39453 3.22245
# Velocity P-wave (km/s) = 5.90266 6.65098 6.28796
#
# Compressibility (1/GPa) = 0.02216342
#
# Stress axis : x y z
#
# Youngs Moduli (GPa) = 25.82830 61.97911 92.55123
#
# Poissons Ratio (x) = 0.78938 0.64228
# Poissons Ratio (y) = 0.32896 0.19163
# Poissons Ratio (z) = 0.17924 0.12833
#
# Static dielectric constant tensor:
#      x y z
#    x 1.690690 0.000000 0.004110 
#    y 0.000000 1.754690 0.000000 
#    z 0.004110 0.000000 1.694300 
# 
# From -- ./inp_files/112012.got.cif
#   From: 2010.05.17/outbox.cif.g08.bks.cpg/sg12_57_cif.got.tgz:112012.got - 2010.06.03 13:09:07.
