data_PCOD9210072
_publ_section_title
;
Structure prediction by ZEFSAII (Michael W. Deem and Ramdas Pophale) SiO2 
 PCOD9210072
Probable space group: C 2/M
;
_chemical_formula_sum "Si O2"
_cell_formula_units_Z 56
_cell_length_a 10.060421
_cell_length_b 24.341225
_cell_length_c 15.407603
_cell_angle_alpha 90.000000
_cell_angle_beta 52.391021
_cell_angle_gamma 90.000000
_cell_volume 2988.995237
_symmetry_space_group_name_H-M "C 2/M"
_symmetry_group_IT_number 12
_symmetry_cell_setting 'monoclinic'
loop_
_space_group_symop_operation_xyz
x,y,z
-x,y,-z
-x,-y,-z
x,-y,z
1/2+x,1/2+y,z
1/2-x,1/2+y,-z
1/2-x,1/2-y,-z
1/2+x,1/2-y,z
loop_
_atom_site_type_symbol
_atom_site_label
_atom_site_fract_x
_atom_site_fract_y
_atom_site_fract_z
Si Si1 0.664524 0.721589 0.617726
Si Si2 0.515767 0.388286 0.742111
Si Si3 0.007572 0.000000 0.640490
Si Si4 0.511972 0.062725 0.195451
Si Si5 0.646531 0.850136 0.871842
Si Si6 0.159288 0.123770 0.873461
Si Si7 0.218937 0.500000 0.608504
Si Si8 0.294721 0.762634 0.753460
O O1 0.750000 0.750000 0.500000
O O2 0.607216 0.657174 0.643747
O O3 0.486736 0.752047 0.702279
O O4 0.780938 0.727409 0.655844
O O5 0.499170 0.445550 0.700360
O O6 0.327294 0.367523 0.837623
O O7 0.610699 0.394258 0.795349
O O8 0.857071 0.000000 0.630475
O O9 0.181938 0.000000 0.519086
O O10 0.413633 0.104063 0.172544
O O11 0.691224 0.087224 0.147620
O O12 0.400193 0.052189 0.326256
O O13 0.525417 0.000000 0.153614
O O14 0.683489 0.791101 0.815681
O O15 0.500000 0.845857 0.000000
O O16 0.223099 0.186078 0.835073
O O17 0.000000 0.121523 0.000000
#
# Coordination Sequence:
#
# PCOD9210072 Si02
#       8
#     8   8   4   8   8   8   4   8
#     4  10  21  39  59  91 118 157 193 250 307 352
#     4  10  23  38  60  92 119 155 207 243 297 364
#     4  11  20  43  64  87 121 155 199 259 300 363
#     4  10  22  41  59  91 119 155 211 242 298 366
#     4  11  21  39  62  89 119 157 201 257 299 347
#     4  11  23  41  60  88 126 167 199 247 306 359
#     4   9  22  41  64  87 115 159 199 247 314 345
#     4  10  22  38  62  87 123 153 208 244 297 373
#
# _framework density 18.735392999999998
#
# number of rings (size 3 to 8) (size 9 to 14) (size 15 to 20)
#    0.429    1.286    1.429    2.571    1.000    2.857 
#    5.143    8.571    0.000    0.000    0.000    0.000 
#    0.000    0.000    0.000    0.000    0.000    0.000 
#
# Total GULP energy -156171.732108 kJ/mol
# GULP energy per Si atom -5577.561861 kJ/mol
# Density = 1.869275 g / cm^3
# Si number density = 18.735393 Si / 1000 Ang^3
#
#
#
# Elastic Constant Matrix: (Units=GPa)
#
#
# Indices 1 2 3 4 5 6 
#
# 1 55.4565 1.3915 -9.9694 0.0000 -13.8364 0.0000
# 2 1.3915 81.9622 16.5885 0.0000 -8.1263 0.0000
# 3 -9.9694 16.5885 81.5256 0.0000 -19.7513 0.0000
# 4 0.0000 0.0000 0.0000 0.2057 0.0000 2.9865
# 5 -13.8364 -8.1263 -19.7513 0.0000 22.3700 0.0000
# 6 0.0000 0.0000 0.0000 2.9865 0.0000 -24.0190
#
#
#
# Elastic Compliance Matrix: (Units=1/GPa)
#
#
# Indices 1 2 3 4 5 6 
#
# 1 0.025500 0.000123 0.008810 0.000000 0.023596 0.000000
# 2 0.000123 0.012883 -0.001850 0.000000 0.003123 0.000000
# 3 0.008810 -0.001850 0.018925 0.000000 0.021487 0.000000
# 4 0.000000 0.000000 0.000000 1.732972 0.000000 0.215475
# 5 0.023596 0.003123 0.021487 0.000000 0.079403 0.000000
# 6 0.000000 0.000000 0.000000 0.215475 0.000000 -0.014842
#
#
# Mechanical properties :
#
#
# Convention : Reuss Voigt Hill
#
# Bulk Modulus (GPa) = 13.99088 26.10728 20.04908
# Shear Modulus (GPa) = 2.68168 13.77359 8.22764
#
# Velocity S-wave (km/s) = 1.19769 2.71433 2.09786
# Velocity P-wave (km/s) = 3.06536 4.87734 4.07338
#
# Compressibility (1/GPa) = 0.07147514
#
# Stress axis : x y z
#
# Youngs Moduli (GPa) = 39.21592 77.62382 52.83892
#
# Poissons Ratio (x) = -0.00959 -0.46549
# Poissons Ratio (y) = -0.00484 0.09773
# Poissons Ratio (z) = -0.34548 0.14357
#
# Static dielectric constant tensor:
#      x y z
#    x 1.636360 0.000000 -0.001440 
#    y 0.000000 1.748860 0.000000 
#    z -0.001440 0.000000 1.637670 
# 
# From -- ./inp_files/198830.got.cif
#   From: 2010.05.17/outbox.cif.g08.bks.cpg/sg12_100_cif.got.tgz:198830.got - 2010.06.03 13:09:07.
