data_PCOD9210679
_publ_section_title
;
Structure prediction by ZEFSAII (Michael W. Deem and Ramdas Pophale) SiO2 
 PCOD9210679
Probable space group: C 2/M
;
_chemical_formula_sum "Si O2"
_cell_formula_units_Z 56
_cell_length_a 14.148351
_cell_length_b 21.228051
_cell_length_c 15.107844
_cell_angle_alpha 90.000000
_cell_angle_beta 149.069409
_cell_angle_gamma 90.000000
_cell_volume 2332.281550
_symmetry_space_group_name_H-M "C 2/M"
_symmetry_group_IT_number 12
_symmetry_cell_setting 'monoclinic'
loop_
_space_group_symop_operation_xyz
x,y,z
-x,y,-z
-x,-y,-z
x,-y,z
1/2+x,1/2+y,z
1/2-x,1/2+y,-z
1/2-x,1/2-y,-z
1/2+x,1/2-y,z
loop_
_atom_site_type_symbol
_atom_site_label
_atom_site_fract_x
_atom_site_fract_y
_atom_site_fract_z
Si Si1 0.209639 0.669413 0.167391
Si Si2 0.575154 0.250427 0.794982
Si Si3 0.511956 0.105848 0.303258
Si Si4 0.156025 0.858227 0.308764
Si Si5 0.211586 0.932247 0.193785
Si Si6 0.219745 0.070602 0.622624
Si Si7 0.391521 0.428501 0.210912
O O1 0.355722 0.718660 0.242586
O O2 0.266658 0.631644 0.302395
O O3 0.221872 0.613385 0.105042
O O4 0.000000 0.694066 0.000000
O O5 0.523279 0.178611 0.744592
O O6 0.409167 0.290804 0.706092
O O7 0.750000 0.250000 0.000000
O O8 0.678561 0.109952 0.506137
O O9 0.339972 0.075338 0.212610
O O10 0.595680 0.071709 0.286441
O O11 0.218411 0.869250 0.259009
O O12 0.979339 0.900199 0.192966
O O13 0.260564 0.000000 0.277813
O O14 0.000000 0.936030 0.000000
O O15 0.048947 0.077101 0.415583
O O16 0.204926 0.000000 0.652602
O O17 0.344282 0.500000 0.161731
#
# Coordination Sequence:
#
# PCOD9210679 Si02
#       7
#     8   8   8   8   8   8   8
#     4  11  23  37  57  88 120 159 202 243 294 357
#     4  11  24  43  63  87 125 167 208 255 310 371
#     4  11  23  41  65  92 122 162 211 258 310 374
#     4  10  22  41  65  91 120 160 212 264 311 368
#     4  11  24  41  63  93 127 164 207 259 322 382
#     4  10  21  39  63  91 124 156 192 246 308 368
#     4   9  19  37  61  89 122 158 194 243 308 369
#
# _framework density 24.010822999999998
#
# number of rings (size 3 to 8) (size 9 to 14) (size 15 to 20)
#    0.000    1.571    0.000    4.286    0.000    8.571 
#    0.000    5.714    0.000    0.000    0.000    0.000 
#    0.000    0.000    0.000    0.000    0.000    0.000 
#
# Total GULP energy -156446.837166 kJ/mol
# GULP energy per Si atom -5587.387042 kJ/mol
# Density = 2.395617 g / cm^3
# Si number density = 24.010823 Si / 1000 Ang^3
#
#
#
# Elastic Constant Matrix: (Units=GPa)
#
#
# Indices 1 2 3 4 5 6 
#
# 1 123.0275 34.5487 27.0428 0.0000 29.8129 0.0000
# 2 34.5487 114.5577 -8.1616 0.0000 9.1825 0.0000
# 3 27.0428 -8.1616 46.1439 0.0000 5.4371 0.0000
# 4 0.0000 0.0000 0.0000 21.7727 0.0000 -0.4651
# 5 29.8129 9.1825 5.4371 0.0000 35.0488 0.0000
# 6 0.0000 0.0000 0.0000 -0.4651 0.0000 36.1846
#
#
#
# Elastic Compliance Matrix: (Units=1/GPa)
#
#
# Indices 1 2 3 4 5 6 
#
# 1 0.012891 -0.003685 -0.007159 0.000000 -0.008889 0.000000
# 2 -0.003685 0.010134 0.003968 0.000000 -0.000136 0.000000
# 3 -0.007159 0.003968 0.026457 0.000000 0.000946 0.000000
# 4 0.000000 0.000000 0.000000 0.045942 0.000000 0.000591
# 5 -0.008889 -0.000136 0.000946 0.000000 0.035982 0.000000
# 6 0.000000 0.000000 0.000000 0.000591 0.000000 0.027644
#
#
# Mechanical properties :
#
#
# Convention : Reuss Voigt Hill
#
# Bulk Modulus (GPa) = 27.98749 43.39877 35.69313
# Shear Modulus (GPa) = 27.06917 33.95450 30.51184
#
# Velocity S-wave (km/s) = 3.36128 3.76458 3.56863
# Velocity P-wave (km/s) = 5.17163 6.08358 5.64605
#
# Compressibility (1/GPa) = 0.03573025
#
# Stress axis : x y z
#
# Youngs Moduli (GPa) = 77.57430 98.67541 37.79655
#
# Poissons Ratio (x) = 0.36364 0.27059
# Poissons Ratio (y) = 0.28588 -0.14999
# Poissons Ratio (z) = 0.55537 -0.39157
#
# Static dielectric constant tensor:
#      x y z
#    x 2.040160 0.000000 -0.031880 
#    y 0.000000 1.847440 0.000000 
#    z -0.031880 0.000000 1.719510 
# 
# From -- ./inp_files/272424.got.cif
#   From: 2010.05.17/outbox.cif.g08.bks.cpg/sg12_137_cif.got.tgz:272424.got - 2010.06.03 13:09:07.
