data_PCOD9210646
_publ_section_title
;
Structure prediction by ZEFSAII (Michael W. Deem and Ramdas Pophale) SiO2 
 PCOD9210646
Probable space group: C 2/M
;
_chemical_formula_sum "Si O2"
_cell_formula_units_Z 48
_cell_length_a 7.915371
_cell_length_b 27.513072
_cell_length_c 13.071356
_cell_angle_alpha 90.000000
_cell_angle_beta 133.226741
_cell_angle_gamma 90.000000
_cell_volume 2074.194175
_symmetry_space_group_name_H-M "C 2/M"
_symmetry_group_IT_number 12
_symmetry_cell_setting 'monoclinic'
loop_
_space_group_symop_operation_xyz
x,y,z
-x,y,-z
-x,-y,-z
x,-y,z
1/2+x,1/2+y,z
1/2-x,1/2+y,-z
1/2-x,1/2-y,-z
1/2+x,1/2-y,z
loop_
_atom_site_type_symbol
_atom_site_label
_atom_site_fract_x
_atom_site_fract_y
_atom_site_fract_z
Si Si1 0.276056 0.374327 0.954400
Si Si2 0.352801 0.315507 0.191207
Si Si3 0.804960 0.342325 0.501905
Si Si4 0.883589 0.054712 0.563547
Si Si5 0.001012 0.293307 0.781120
Si Si6 0.887096 0.445980 0.841037
O O1 0.046305 0.406986 0.850543
O O2 0.228517 0.326560 0.866837
O O3 0.500000 0.400027 0.000000
O O4 0.317245 0.353847 0.085487
O O5 0.555944 0.330955 0.351833
O O6 0.126379 0.308127 0.166988
O O7 0.431987 0.262568 0.185710
O O8 0.796425 0.400948 0.511275
O O9 0.847841 0.310449 0.621068
O O10 0.000000 0.329244 0.500000
O O11 0.112009 0.063737 0.728829
O O12 0.000000 0.054953 0.500000
O O13 0.794551 0.000000 0.547627
O O14 0.911196 0.500000 0.804965
O O15 0.000000 0.447280 0.000000
#
# Coordination Sequence:
#
# PCOD9210646 Si02
#       6
#     8   8   8   8   8   8
#     4  12  24  40  63  93 126 161 204 254 308 364
#     4  12  25  43  64  89 123 163 207 253 306 365
#     4  12  24  40  63  93 126 161 204 254 308 364
#     4  10  21  39  63  90 122 162 206 251 305 366
#     4  12  25  43  64  89 123 163 207 253 306 365
#     4  10  21  39  63  90 122 162 206 251 305 366
#
# _framework density 23.141514999999998
#
# number of rings (size 3 to 8) (size 9 to 14) (size 15 to 20)
#    0.000    0.667    0.000   10.000    0.000    0.667 
#    0.000    0.000    0.000   10.000    0.000    0.000 
#    0.000    0.000    0.000    0.000    0.000    0.000 
#
# Total GULP energy -134265.953756 kJ/mol
# GULP energy per Si atom -5594.414740 kJ/mol
# Density = 2.308884 g / cm^3
# Si number density = 23.141515 Si / 1000 Ang^3
#
#
#
# Elastic Constant Matrix: (Units=GPa)
#
#
# Indices 1 2 3 4 5 6 
#
# 1 82.5505 19.0604 -6.2939 0.0000 -1.8968 0.0000
# 2 19.0604 122.4139 1.6752 0.0000 1.0128 0.0000
# 3 -6.2939 1.6752 92.8097 0.0000 -15.1164 0.0000
# 4 0.0000 0.0000 0.0000 -10.9939 0.0000 26.2473
# 5 -1.8968 1.0128 -15.1164 0.0000 25.4766 0.0000
# 6 0.0000 0.0000 0.0000 26.2473 0.0000 20.0189
#
#
#
# Elastic Compliance Matrix: (Units=1/GPa)
#
#
# Indices 1 2 3 4 5 6 
#
# 1 0.012707 -0.002009 0.001179 0.000000 0.001726 0.000000
# 2 -0.002009 0.008493 -0.000408 0.000000 -0.000730 0.000000
# 3 0.001179 -0.000408 0.012043 0.000000 0.007250 0.000000
# 4 0.000000 0.000000 0.000000 -0.022023 0.000000 0.028875
# 5 0.001726 -0.000730 0.007250 0.000000 0.043711 0.000000
# 6 0.000000 0.000000 0.000000 0.028875 0.000000 0.012094
#
#
# Mechanical properties :
#
#
# Convention : Reuss Voigt Hill
#
# Bulk Modulus (GPa) = 32.50248 36.29527 34.39887
# Shear Modulus (GPa) = 62.68965 25.78914 44.23939
#
# Velocity S-wave (km/s) = 5.21042 3.34190 4.37703
# Velocity P-wave (km/s) = 7.09039 5.53255 6.35935
#
# Compressibility (1/GPa) = 0.03076689
#
# Stress axis : x y z
#
# Youngs Moduli (GPa) = 78.69551 117.73794 83.03687
#
# Poissons Ratio (x) = 0.23653 -0.09790
# Poissons Ratio (y) = 0.15810 0.03391
# Poissons Ratio (z) = -0.09279 0.04808
#
# Static dielectric constant tensor:
#      x y z
#    x 1.863170 0.000000 0.017060 
#    y 0.000000 1.911710 0.000000 
#    z 0.017060 0.000000 1.926260 
# 
# From -- ./inp_files/67325.got.cif
#   From: 2010.05.17/outbox.cif.g08.bks.cpg/sg12_34_cif.got.tgz:67325.got - 2010.06.03 13:09:07.
