data_PCOD9210848
_publ_section_title
;
Structure prediction by ZEFSAII (Michael W. Deem and Ramdas Pophale) SiO2 
 PCOD9210848
Probable space group: C 2/M
;
_chemical_formula_sum "Si O2"
_cell_formula_units_Z 48
_cell_length_a 28.034472
_cell_length_b 8.131717
_cell_length_c 10.201735
_cell_angle_alpha 90.000000
_cell_angle_beta 89.832074
_cell_angle_gamma 90.000000
_cell_volume 2325.663140
_symmetry_space_group_name_H-M "C 2/M"
_symmetry_group_IT_number 12
_symmetry_cell_setting 'monoclinic'
loop_
_space_group_symop_operation_xyz
x,y,z
-x,y,-z
-x,-y,-z
x,-y,z
1/2+x,1/2+y,z
1/2-x,1/2+y,-z
1/2-x,1/2-y,-z
1/2+x,1/2-y,z
loop_
_atom_site_type_symbol
_atom_site_label
_atom_site_fract_x
_atom_site_fract_y
_atom_site_fract_z
Si Si1 0.360725 0.307530 0.476114
Si Si2 0.540473 0.198052 0.099094
Si Si3 0.206026 0.693311 0.302086
Si Si4 0.647916 0.799141 0.045164
Si Si5 0.540298 0.698746 0.396842
Si Si6 0.690220 0.192908 0.769428
O O1 0.367169 0.500000 0.447580
O O2 0.315923 0.283941 0.573019
O O3 0.407766 0.246446 0.551692
O O4 0.349811 0.217669 0.340664
O O5 0.593429 0.257398 0.060234
O O6 0.531045 0.242044 0.249938
O O7 0.541244 0.000000 0.089329
O O8 0.500000 0.259982 0.000000
O O9 0.196507 0.500000 0.320825
O O10 0.178226 0.750637 0.171802
O O11 0.261776 0.720255 0.279059
O O12 0.647663 0.000000 0.042740
O O13 0.672136 0.744132 0.909968
O O14 0.500000 0.752514 0.500000
O O15 0.540517 0.500000 0.394050
O O16 0.701106 0.000000 0.781921
#
# Coordination Sequence:
#
# PCOD9210848 Si02
#       6
#     8   8   8   8   8   8
#     4  11  23  40  60  86 119 157 199 242 290 347
#     4  10  21  39  64  92 120 151 192 241 293 352
#     4  11  21  39  63  86 117 156 198 245 295 348
#     4   9  20  38  59  87 121 153 191 241 292 344
#     4  10  23  42  62  87 121 156 194 242 293 348
#     4  11  23  38  59  88 121 156 196 243 293 349
#
# _framework density 20.639275999999999
#
# number of rings (size 3 to 8) (size 9 to 14) (size 15 to 20)
#    0.000    1.667    1.667    2.500    2.333    1.333 
#    0.000    4.167    0.000    0.000    0.000    0.000 
#    0.000    0.000    0.000    0.000    0.000    0.000 
#
# Total GULP energy -134175.831627 kJ/mol
# GULP energy per Si atom -5590.659651 kJ/mol
# Density = 2.059230 g / cm^3
# Si number density = 20.639276 Si / 1000 Ang^3
#
#
#
# Elastic Constant Matrix: (Units=GPa)
#
#
# Indices 1 2 3 4 5 6 
#
# 1 88.3516 -1.2533 21.5023 0.0000 5.0082 0.0000
# 2 -1.2533 14.8565 -9.2485 0.0000 1.7184 0.0000
# 3 21.5023 -9.2485 77.0459 0.0000 3.2170 0.0000
# 4 0.0000 0.0000 0.0000 11.4403 0.0000 11.7040
# 5 5.0082 1.7184 3.2170 0.0000 41.6559 0.0000
# 6 0.0000 0.0000 0.0000 11.7040 0.0000 4.6975
#
#
#
# Elastic Compliance Matrix: (Units=1/GPa)
#
#
# Indices 1 2 3 4 5 6 
#
# 1 0.012217 -0.001003 -0.003482 0.000000 -0.001159 0.000000
# 2 -0.001003 0.073398 0.009242 0.000000 -0.003621 0.000000
# 3 -0.003482 0.009242 0.015107 0.000000 -0.001129 0.000000
# 4 0.000000 0.000000 0.000000 -0.056431 0.000000 0.140601
# 5 -0.001159 -0.003621 -0.001129 0.000000 0.024382 0.000000
# 6 0.000000 0.000000 0.000000 0.140601 0.000000 -0.137434
#
#
# Mechanical properties :
#
#
# Convention : Reuss Voigt Hill
#
# Bulk Modulus (GPa) = 9.07134 22.47277 15.77205
# Shear Modulus (GPa) = -120.39607 22.84231 -48.77688
#
# Velocity S-wave (km/s) = -7.64592 3.33038 -4.86666
# Velocity P-wave (km/s) = 8.57567 5.06957 4.89089
#
# Compressibility (1/GPa) = 0.11023735
#
# Stress axis : x y z
#
# Youngs Moduli (GPa) = 81.85193 13.62435 66.19255
#
# Poissons Ratio (x) = 0.01366 0.23046
# Poissons Ratio (y) = 0.08207 -0.61173
# Poissons Ratio (z) = 0.28498 -0.12591
#
# Static dielectric constant tensor:
#      x y z
#    x 1.723880 0.000000 0.010460 
#    y 0.000000 1.720290 0.000000 
#    z 0.010460 0.000000 1.698250 
# 
# From -- ./inp_files/108616.got.cif
#   From: 2010.05.17/outbox.cif.g08.bks.cpg/sg12_55_cif.got.tgz:108616.got - 2010.06.03 13:09:07.
