data_PCOD9210000
_publ_section_title
;
Structure prediction by ZEFSAII (Michael W. Deem and Ramdas Pophale) SiO2 
 PCOD9210000
Probable space group: C 2/M
;
_chemical_formula_sum "Si O2"
_cell_formula_units_Z 48
_cell_length_a 12.885924
_cell_length_b 17.962285
_cell_length_c 12.022012
_cell_angle_alpha 90.000000
_cell_angle_beta 123.446362
_cell_angle_gamma 90.000000
_cell_volume 2321.826288
_symmetry_space_group_name_H-M "C 2/M"
_symmetry_group_IT_number 12
_symmetry_cell_setting 'monoclinic'
loop_
_space_group_symop_operation_xyz
x,y,z
-x,y,-z
-x,-y,-z
x,-y,z
1/2+x,1/2+y,z
1/2-x,1/2+y,-z
1/2-x,1/2-y,-z
1/2+x,1/2-y,z
loop_
_atom_site_type_symbol
_atom_site_label
_atom_site_fract_x
_atom_site_fract_y
_atom_site_fract_z
Si Si1 0.691655 0.413881 0.415496
Si Si2 0.723280 0.181480 0.324943
Si Si3 0.779155 0.150231 0.114920
Si Si4 0.866237 0.664595 0.372824
Si Si5 0.009493 0.914511 0.882071
Si Si6 0.425660 0.805557 0.167138
O O1 0.671675 0.500000 0.436084
O O2 0.716907 0.361099 0.535314
O O3 0.811292 0.404441 0.407190
O O4 0.579925 0.386599 0.269493
O O5 0.761867 0.138416 0.235150
O O6 0.779029 0.264164 0.344736
O O7 0.574131 0.188913 0.247972
O O8 0.852552 0.090329 0.085407
O O9 0.867450 0.223086 0.149717
O O10 0.644669 0.164942 0.982760
O O11 0.879101 0.651553 0.249606
O O12 0.000000 0.684737 0.500000
O O13 0.968946 0.000000 0.871935
O O14 0.000000 0.878592 0.000000
#
# Coordination Sequence:
#
# PCOD9210000 Si02
#       6
#     8   8   8   8   8   8
#     4  11  24  40  62  91 124 161 204 257 306 364
#     4  11  23  38  61  91 128 157 201 248 314 368
#     4  10  22  37  64  87 121 157 200 252 300 363
#     4  11  22  37  63  90 120 161 205 251 303 357
#     4  10  22  41  63  86 116 159 207 253 302 359
#     4  10  21  39  58  92 119 158 201 251 304 357
#
# _framework density 20.673380000000002
#
# number of rings (size 3 to 8) (size 9 to 14) (size 15 to 20)
#    0.000    1.500    1.667    3.000    4.667    3.667 
#    0.000    2.500    0.000    2.000    0.000    0.000 
#    0.000    0.000    0.000    0.000    0.000    0.000 
#
# Total GULP energy -133963.376802 kJ/mol
# GULP energy per Si atom -5581.807367 kJ/mol
# Density = 2.062633 g / cm^3
# Si number density = 20.673380 Si / 1000 Ang^3
#
#
#
# Elastic Constant Matrix: (Units=GPa)
#
#
# Indices 1 2 3 4 5 6 
#
# 1 87.4751 10.1238 55.3425 0.0000 -0.2504 0.0000
# 2 10.1238 23.5633 20.3946 0.0000 1.2465 0.0000
# 3 55.3425 20.3946 156.6906 0.0000 -3.3386 0.0000
# 4 0.0000 0.0000 0.0000 9.3849 0.0000 2.4640
# 5 -0.2504 1.2465 -3.3386 0.0000 42.1235 0.0000
# 6 0.0000 0.0000 0.0000 2.4640 0.0000 18.8097
#
#
#
# Elastic Compliance Matrix: (Units=1/GPa)
#
#
# Indices 1 2 3 4 5 6 
#
# 1 0.014813 -0.002049 -0.004970 0.000000 -0.000245 0.000000
# 2 -0.002049 0.048265 -0.005598 0.000000 -0.001884 0.000000
# 3 -0.004970 -0.005598 0.008884 0.000000 0.000840 0.000000
# 4 0.000000 0.000000 0.000000 0.110349 0.000000 -0.014455
# 5 -0.000245 -0.001884 0.000840 0.000000 0.023861 0.000000
# 6 0.000000 0.000000 0.000000 -0.014455 0.000000 0.055058
#
#
# Mechanical properties :
#
#
# Convention : Reuss Voigt Hill
#
# Bulk Modulus (GPa) = 21.40160 48.82788 35.11474
# Shear Modulus (GPa) = 16.55408 26.18814 21.37111
#
# Velocity S-wave (km/s) = 2.83281 3.56301 3.21869
# Velocity P-wave (km/s) = 4.59070 6.37156 5.55298
#
# Compressibility (1/GPa) = 0.04672549
#
# Stress axis : x y z
#
# Youngs Moduli (GPa) = 67.50891 20.71909 112.56077
#
# Poissons Ratio (x) = 0.04246 0.55946
# Poissons Ratio (y) = 0.13835 0.63016
# Poissons Ratio (z) = 0.33554 0.11599
#
# Static dielectric constant tensor:
#      x y z
#    x 1.755490 0.000000 0.000150 
#    y 0.000000 1.755670 0.000000 
#    z 0.000150 0.000000 1.773150 
# 
# From -- ./inp_files/132965.got.cif
#   From: 2010.05.17/outbox.cif.g08.bks.cpg/sg12_67_cif.got.tgz:132965.got - 2010.06.03 13:09:07.
