data_PCOD9210628
_publ_section_title
;
Structure prediction by ZEFSAII (Michael W. Deem and Ramdas Pophale) SiO2 
 PCOD9210628
Probable space group: C 2/M
;
_chemical_formula_sum "Si O2"
_cell_formula_units_Z 56
_cell_length_a 30.942864
_cell_length_b 7.989758
_cell_length_c 13.091463
_cell_angle_alpha 90.000000
_cell_angle_beta 47.766808
_cell_angle_gamma 90.000000
_cell_volume 2396.391238
_symmetry_space_group_name_H-M "C 2/M"
_symmetry_group_IT_number 12
_symmetry_cell_setting 'monoclinic'
loop_
_space_group_symop_operation_xyz
x,y,z
-x,y,-z
-x,-y,-z
x,-y,z
1/2+x,1/2+y,z
1/2-x,1/2+y,-z
1/2-x,1/2-y,-z
1/2+x,1/2-y,z
loop_
_atom_site_type_symbol
_atom_site_label
_atom_site_fract_x
_atom_site_fract_y
_atom_site_fract_z
Si Si1 0.554046 0.307280 0.489707
Si Si2 0.801504 0.294978 0.603065
Si Si3 0.904177 0.299429 0.291121
Si Si4 0.324570 0.297270 0.231938
Si Si5 0.644040 0.694558 0.040522
Si Si6 0.985396 0.308294 0.788197
Si Si7 0.674480 0.808826 0.212823
O O1 0.500000 0.318067 0.500000
O O2 0.570484 0.500000 0.489558
O O3 0.530008 0.204206 0.622872
O O4 0.606616 0.214342 0.350777
O O5 0.804505 0.500000 0.601901
O O6 0.858748 0.236780 0.450841
O O7 0.742226 0.248341 0.639287
O O8 0.797556 0.234760 0.727524
O O9 0.908604 0.500000 0.296215
O O10 0.872177 0.264043 0.235998
O O11 0.971110 0.236394 0.193951
O O12 0.327292 0.500000 0.227913
O O13 0.336939 0.231628 0.098141
O O14 0.656651 0.500000 0.014918
O O15 0.573816 0.718304 0.151616
O O16 0.676147 0.750233 0.093099
O O17 0.969225 0.500000 0.836116
O O18 0.693140 0.000000 0.180575
#
# Coordination Sequence:
#
# PCOD9210628 Si02
#       7
#     8   8   8   8   8   8   8
#     4  11  21  33  54  87 123 153 187 240 295 346
#     4   9  19  39  63  89 117 149 193 247 295 343
#     4  10  21  39  63  90 117 144 194 253 295 343
#     4  10  23  42  62  82 116 161 199 240 294 346
#     4  11  24  40  56  85 124 159 196 239 287 349
#     4  11  22  37  60  88 117 155 194 238 293 349
#     4  11  21  36  61  88 118 155 195 237 291 351
#
# _framework density 23.368471
#
# number of rings (size 3 to 8) (size 9 to 14) (size 15 to 20)
#    0.000    1.571    2.857    2.143    0.000    4.000 
#    0.000    4.286    0.000    0.000    0.000    0.000 
#    0.000    0.000    0.000    0.000    0.000    0.000 
#
# Total GULP energy -156280.205527 kJ/mol
# GULP energy per Si atom -5581.435912 kJ/mol
# Density = 2.331528 g / cm^3
# Si number density = 23.368471 Si / 1000 Ang^3
#
#
#
# Elastic Constant Matrix: (Units=GPa)
#
#
# Indices 1 2 3 4 5 6 
#
# 1 124.2869 9.8446 19.7671 0.0000 25.3844 0.0000
# 2 9.8446 25.4858 0.6820 0.0000 2.4816 0.0000
# 3 19.7671 0.6820 65.5642 0.0000 21.7521 0.0000
# 4 0.0000 0.0000 0.0000 19.4459 0.0000 21.8113
# 5 25.3844 2.4816 21.7521 0.0000 31.5302 0.0000
# 6 0.0000 0.0000 0.0000 21.8113 0.0000 50.8944
#
#
#
# Elastic Compliance Matrix: (Units=1/GPa)
#
#
# Indices 1 2 3 4 5 6 
#
# 1 0.009873 -0.003084 -0.000503 0.000000 -0.007359 0.000000
# 2 -0.003084 0.040537 0.000963 0.000000 -0.001373 0.000000
# 3 -0.000503 0.000963 0.019821 0.000000 -0.013345 0.000000
# 4 0.000000 0.000000 0.000000 0.099025 0.000000 -0.042438
# 5 -0.007359 -0.001373 -0.013345 0.000000 0.046955 0.000000
# 6 0.000000 0.000000 0.000000 -0.042438 0.000000 0.037836
#
#
# Mechanical properties :
#
#
# Convention : Reuss Voigt Hill
#
# Bulk Modulus (GPa) = 15.38834 30.65823 23.02328
# Shear Modulus (GPa) = 17.79647 32.71032 25.25340
#
# Velocity S-wave (km/s) = 2.76263 3.74540 3.29091
# Velocity P-wave (km/s) = 4.09580 5.64376 4.93090
#
# Compressibility (1/GPa) = 0.06498428
#
# Stress axis : x y z
#
# Youngs Moduli (GPa) = 101.28463 24.66906 50.45044
#
# Poissons Ratio (x) = 0.07607 0.02538
# Poissons Ratio (y) = 0.31234 -0.04861
# Poissons Ratio (z) = 0.05096 -0.02377
#
# Static dielectric constant tensor:
#      x y z
#    x 1.939390 0.000000 0.030510 
#    y 0.000000 1.896750 0.000000 
#    z 0.030510 0.000000 1.912220 
# 
# From -- ./inp_files/181006.got.cif
#   From: 2010.05.17/outbox.cif.g08.bks.cpg/sg12_91_cif.got.tgz:181006.got - 2010.06.03 13:09:07.
