data_PCOD9210291
_publ_section_title
;
Structure prediction by ZEFSAII (Michael W. Deem and Ramdas Pophale) SiO2 
 PCOD9210291
Probable space group: C 2/M
;
_chemical_formula_sum "Si O2"
_cell_formula_units_Z 50
_cell_length_a 30.960526
_cell_length_b 9.397172
_cell_length_c 30.605790
_cell_angle_alpha 90.000000
_cell_angle_beta 18.140219
_cell_angle_gamma 90.000000
_cell_volume 2772.356036
_symmetry_space_group_name_H-M "C 2/M"
_symmetry_group_IT_number 12
_symmetry_cell_setting 'monoclinic'
loop_
_space_group_symop_operation_xyz
x,y,z
-x,y,-z
-x,-y,-z
x,-y,z
1/2+x,1/2+y,z
1/2-x,1/2+y,-z
1/2-x,1/2-y,-z
1/2+x,1/2-y,z
loop_
_atom_site_type_symbol
_atom_site_label
_atom_site_fract_x
_atom_site_fract_y
_atom_site_fract_z
Si Si1 0.854829 0.166393 0.929988
Si Si2 0.023250 0.332087 0.926125
Si Si3 0.287941 0.156856 0.641972
Si Si4 0.483390 0.170072 0.373372
Si Si5 0.803376 0.169797 0.079184
Si Si6 0.610733 0.332244 0.622276
Si Si7 0.500000 0.000000 0.500000
O O1 0.005622 0.181800 0.763907
O O2 0.816015 0.000000 0.966177
O O3 0.750000 0.250000 0.000000
O O4 0.844869 0.210718 0.989818
O O5 0.023946 0.500000 0.916191
O O6 0.168020 0.261595 0.772256
O O7 0.898051 0.255679 0.021252
O O8 0.000000 0.310954 0.000000
O O9 0.370446 0.202337 0.519209
O O10 0.222790 0.000000 0.695067
O O11 0.403105 0.121610 0.568202
O O12 0.638703 0.195941 0.241849
O O13 0.456368 0.259837 0.355915
O O14 0.474940 0.000000 0.371890
O O15 0.825125 0.000000 0.063981
O O16 0.634506 0.500000 0.591871
O O17 0.750000 0.250000 0.500000
#
# Coordination Sequence:
#
# PCOD9210291 Si02
#       7
#     8   8   8   8   8   8   2
#     4  10  21  39  61  89 121 159 207 252 301 358
#     4  11  26  43  60  90 128 162 200 251 308 366
#     4   9  21  39  66  91 119 151 204 249 299 362
#     4  10  21  39  63  92 120 153 204 257 305 365
#     4  10  22  39  65  92 119 161 207 255 302 358
#     4  11  24  39  59  87 125 167 207 251 304 364
#     4   8  20  40  68  92 112 156 200 260 304 360
#
# _framework density 18.035201000000001
#
# number of rings (size 3 to 8) (size 9 to 14) (size 15 to 20)
#    0.480    1.440    1.600    0.960    4.480    3.840 
#    0.000    0.400    0.000    0.000    0.000    0.000 
#    0.000    0.000    0.000    0.000    0.000    0.000 
#
# Total GULP energy -139248.782558 kJ/mol
# GULP energy per Si atom -5569.951302 kJ/mol
# Density = 1.799415 g / cm^3
# Si number density = 18.035201 Si / 1000 Ang^3
#
#
#
# Elastic Constant Matrix: (Units=GPa)
#
#
# Indices 1 2 3 4 5 6 
#
# 1 94.2693 66.4658 56.9926 0.0011 -7.6274 -0.0014
# 2 66.4658 80.8962 75.1721 -0.0099 0.7278 0.0049
# 3 56.9926 75.1721 107.7493 -0.0109 5.2765 0.0036
# 4 0.0011 -0.0099 -0.0109 23.4235 0.0042 -1.4293
# 5 -7.6274 0.7278 5.2765 0.0042 28.0326 -0.0011
# 6 -0.0014 0.0049 0.0036 -1.4293 -0.0011 32.4253
#
#
#
# Elastic Compliance Matrix: (Units=1/GPa)
#
#
# Indices 1 2 3 4 5 6 
#
# 1 0.027078 -0.024632 0.002493 -0.000012 0.007538 0.000004
# 2 -0.024632 0.057947 -0.027248 0.000013 -0.003078 -0.000006
# 3 0.002493 -0.027248 0.027154 0.000002 -0.003725 0.000001
# 4 -0.000012 0.000013 0.000002 0.042807 -0.000010 0.001887
# 5 0.007538 -0.003078 -0.003725 -0.000010 0.038505 0.000002
# 6 0.000004 -0.000006 0.000001 0.001887 0.000002 0.030923
#
#
# Mechanical properties :
#
#
# Convention : Reuss Voigt Hill
#
# Bulk Modulus (GPa) = 74.59515 75.57507 75.08511
# Shear Modulus (GPa) = 15.25990 22.39522 18.82756
#
# Velocity S-wave (km/s) = 2.91197 3.52767 3.23450
# Velocity P-wave (km/s) = 7.26338 7.65427 7.46138
#
# Compressibility (1/GPa) = 0.01340570
#
# Stress axis : x y z
#
# Youngs Moduli (GPa) = 36.93074 17.25708 36.82712
#
# Poissons Ratio (x) = 0.42508 -0.09183
# Poissons Ratio (y) = 0.90969 1.00345
# Poissons Ratio (z) = -0.09208 0.47021
#
# Static dielectric constant tensor:
#      x y z
#    x 1.599750 0.000000 0.017520 
#    y 0.000000 1.606520 0.000000 
#    z 0.017520 0.000000 1.635800 
# 
# From -- ./inp_files/384782.got.cif
#   From: 2010.05.17/outbox.cif.g08.bks.cpg/sg12_193_cif.got.tgz:384782.got - 2010.06.03 13:09:07.
