data_PCOD9210073
_publ_section_title
;
Structure prediction by ZEFSAII (Michael W. Deem and Ramdas Pophale) SiO2 
 PCOD9210073
Probable space group: C 2/M
;
_chemical_formula_sum "Si O2"
_cell_formula_units_Z 50
_cell_length_a 22.952847
_cell_length_b 10.658539
_cell_length_c 11.540890
_cell_angle_alpha 90.000000
_cell_angle_beta 63.384686
_cell_angle_gamma 90.000000
_cell_volume 2524.223664
_symmetry_space_group_name_H-M "C 2/M"
_symmetry_group_IT_number 12
_symmetry_cell_setting 'monoclinic'
loop_
_space_group_symop_operation_xyz
x,y,z
-x,y,-z
-x,-y,-z
x,-y,z
1/2+x,1/2+y,z
1/2-x,1/2+y,-z
1/2-x,1/2-y,-z
1/2+x,1/2-y,z
loop_
_atom_site_type_symbol
_atom_site_label
_atom_site_fract_x
_atom_site_fract_y
_atom_site_fract_z
Si Si1 0.846387 0.854556 0.352372
Si Si2 0.494036 0.644303 0.136952
Si Si3 0.196699 0.641716 0.024935
Si Si4 0.000000 0.500000 0.500000
Si Si5 0.861637 0.857723 0.598335
Si Si6 0.065702 0.294833 0.276185
Si Si7 0.788874 0.358934 0.245942
O O1 0.917794 0.859296 0.234086
O O2 0.855138 0.803768 0.475102
O O3 0.805211 0.754647 0.316344
O O4 0.820606 0.000000 0.377792
O O5 0.519300 0.500000 0.117371
O O6 0.529457 0.725539 0.203216
O O7 0.500000 0.691896 0.000000
O O8 0.224451 0.500000 0.013636
O O9 0.133319 0.651959 0.162210
O O10 0.250000 0.750000 0.000000
O O11 0.175991 0.655133 0.908756
O O12 0.978846 0.392717 0.615770
O O13 0.910048 0.797461 0.644673
O O14 0.788196 0.855380 0.712271
O O15 0.882650 0.000000 0.560269
O O16 0.802614 0.500000 0.280751
#
# Coordination Sequence:
#
# PCOD9210073 Si02
#       7
#     8   8   8   2   8   8   8
#     4  10  21  39  59  91 130 170 223 274 327 406
#     4  10  22  41  68  98 128 170 228 287 341 411
#     4  11  23  41  66  97 132 170 222 284 342 407
#     4  12  28  44  60  96 152 184 228 276 320 422
#     4  10  21  39  66  95 128 170 224 278 338 404
#     4  12  23  44  67  95 139 180 223 277 345 399
#     4  10  21  39  61  94 129 165 217 279 339 403
#
# _framework density 19.808069
#
# number of rings (size 3 to 8) (size 9 to 14) (size 15 to 20)
#    0.000    1.440    2.400    2.880    0.000    1.280 
#    7.200    3.600    0.000    0.000    0.000    0.000 
#    0.000    0.000    0.000    0.000    0.000    0.000 
#
# Total GULP energy -139209.911576 kJ/mol
# GULP energy per Si atom -5568.396463 kJ/mol
# Density = 1.976299 g / cm^3
# Si number density = 19.808069 Si / 1000 Ang^3
#
#
#
# Elastic Constant Matrix: (Units=GPa)
#
#
# Indices 1 2 3 4 5 6 
#
# 1 75.3415 69.7763 22.4748 0.0000 24.1590 0.0000
# 2 69.7763 126.9093 39.6665 0.0000 32.4706 0.0000
# 3 22.4748 39.6665 124.2954 0.0000 17.6811 0.0000
# 4 0.0000 0.0000 0.0000 31.8600 0.0000 3.5071
# 5 24.1590 32.4706 17.6811 0.0000 33.0820 0.0000
# 6 0.0000 0.0000 0.0000 3.5071 0.0000 1.8139
#
#
#
# Elastic Compliance Matrix: (Units=1/GPa)
#
#
# Indices 1 2 3 4 5 6 
#
# 1 0.028282 -0.013784 0.000323 0.000000 -0.007297 0.000000
# 2 -0.013784 0.017743 -0.002299 0.000000 -0.006120 0.000000
# 3 0.000323 -0.002299 0.009127 0.000000 -0.002857 0.000000
# 4 0.000000 0.000000 0.000000 0.039874 0.000000 -0.077094
# 5 -0.007297 -0.006120 -0.002857 0.000000 0.043091 0.000000
# 6 0.000000 0.000000 0.000000 -0.077094 0.000000 0.700360
#
#
# Mechanical properties :
#
#
# Convention : Reuss Voigt Hill
#
# Bulk Modulus (GPa) = 42.31599 65.59792 53.95696
# Shear Modulus (GPa) = 5.69558 26.32642 16.01100
#
# Velocity S-wave (km/s) = 1.69754 3.64960 2.84616
# Velocity P-wave (km/s) = 5.02509 7.13780 6.17251
#
# Compressibility (1/GPa) = 0.02363173
#
# Stress axis : x y z
#
# Youngs Moduli (GPa) = 35.35810 56.36155 109.56298
#
# Poissons Ratio (x) = 0.77687 -0.03539
# Poissons Ratio (y) = 0.48737 0.25192
# Poissons Ratio (z) = -0.01142 0.12959
#
# Static dielectric constant tensor:
#      x y z
#    x 1.673450 0.000000 -0.017120 
#    y 0.000000 1.717550 0.000000 
#    z -0.017120 0.000000 1.749600 
# 
# From -- ./inp_files/180568.got.cif
#   From: 2010.05.17/outbox.cif.g08.bks.cpg/sg12_91_cif.got.tgz:180568.got - 2010.06.03 13:09:07.
