data_PCOD9210200
_publ_section_title
;
Structure prediction by ZEFSAII (Michael W. Deem and Ramdas Pophale) SiO2 
 PCOD9210200
Probable space group: C 2/M
;
_chemical_formula_sum "Si O2"
_cell_formula_units_Z 48
_cell_length_a 15.440285
_cell_length_b 8.188541
_cell_length_c 28.209726
_cell_angle_alpha 90.000000
_cell_angle_beta 33.148201
_cell_angle_gamma 90.000000
_cell_volume 1950.268410
_symmetry_space_group_name_H-M "C 2/M"
_symmetry_group_IT_number 12
_symmetry_cell_setting 'monoclinic'
loop_
_space_group_symop_operation_xyz
x,y,z
-x,y,-z
-x,-y,-z
x,-y,z
1/2+x,1/2+y,z
1/2-x,1/2+y,-z
1/2-x,1/2-y,-z
1/2+x,1/2-y,z
loop_
_atom_site_type_symbol
_atom_site_label
_atom_site_fract_x
_atom_site_fract_y
_atom_site_fract_z
Si Si1 0.186180 0.689159 0.879262
Si Si2 0.518533 0.691234 0.374077
Si Si3 0.624603 0.196726 0.801536
Si Si4 0.340277 0.816368 0.543783
Si Si5 0.025042 0.315828 0.706758
Si Si6 0.790268 0.194112 0.928506
O O1 0.136797 0.500000 0.902544
O O2 0.122949 0.757091 0.857807
O O3 0.377307 0.701260 0.786253
O O4 0.176548 0.758188 0.937690
O O5 0.523275 0.500000 0.358948
O O6 0.702634 0.738704 0.298058
O O7 0.397802 0.716965 0.471884
O O8 0.466130 0.801059 0.354230
O O9 0.475892 0.259785 0.839955
O O10 0.611229 0.000000 0.809188
O O11 0.500000 0.826871 0.500000
O O12 0.201052 0.738260 0.638664
O O13 0.290522 0.000000 0.552880
O O14 0.989933 0.500000 0.738337
O O15 0.774566 0.000000 0.933839
O O16 0.750000 0.250000 0.000000
#
# Coordination Sequence:
#
# PCOD9210200 Si02
#       6
#     8   8   8   8   8   8
#     4   9  21  42  64  88 121 164 202 243 302 365
#     4  10  21  39  61  84 116 156 198 244 297 355
#     4   9  20  40  64  89 120 158 201 246 299 358
#     4  11  24  38  54  81 118 158 200 247 296 349
#     4  11  22  37  60  86 115 153 199 248 296 351
#     4  11  24  41  64  92 124 158 197 244 301 363
#
# _framework density 24.611998
#
# number of rings (size 3 to 8) (size 9 to 14) (size 15 to 20)
#    0.000    1.833    0.000    4.500    2.333    6.667 
#    0.000    3.333    0.000    0.000    0.000    0.000 
#    0.000    0.000    0.000    0.000    0.000    0.000 
#
# Total GULP energy -134079.304923 kJ/mol
# GULP energy per Si atom -5586.637705 kJ/mol
# Density = 2.455598 g / cm^3
# Si number density = 24.611998 Si / 1000 Ang^3
#
#
#
# Elastic Constant Matrix: (Units=GPa)
#
#
# Indices 1 2 3 4 5 6 
#
# 1 139.3710 -1.9372 -6.6140 -0.0001 6.8314 -0.0014
# 2 -1.9372 58.9236 1.6639 0.0009 -2.8959 0.0000
# 3 -6.6140 1.6639 72.6591 -0.0002 -3.1502 0.0002
# 4 -0.0001 0.0009 -0.0002 26.7429 -0.0001 -0.7702
# 5 6.8314 -2.8959 -3.1502 -0.0001 43.9418 0.0001
# 6 -0.0014 0.0000 0.0002 -0.7702 0.0001 14.5867
#
#
#
# Elastic Compliance Matrix: (Units=1/GPa)
#
#
# Indices 1 2 3 4 5 6 
#
# 1 0.007259 0.000169 0.000610 0.000000 -0.001074 0.000001
# 2 0.000169 0.017039 -0.000328 -0.000001 0.001073 0.000000
# 3 0.000610 -0.000328 0.013864 0.000000 0.000877 0.000000
# 4 0.000000 -0.000001 0.000000 0.037450 0.000000 0.001977
# 5 -0.001074 0.001073 0.000877 0.000000 0.023058 0.000000
# 6 0.000001 0.000000 0.000000 0.001977 0.000000 0.068660
#
#
# Mechanical properties :
#
#
# Convention : Reuss Voigt Hill
#
# Bulk Modulus (GPa) = 25.59958 28.57546 27.08752
# Shear Modulus (GPa) = 27.86302 35.57701 31.72002
#
# Velocity S-wave (km/s) = 3.36831 3.80612 3.59388
# Velocity P-wave (km/s) = 5.05482 5.56336 5.31517
#
# Compressibility (1/GPa) = 0.03906314
#
# Stress axis : x y z
#
# Youngs Moduli (GPa) = 137.75943 58.68997 72.12917
#
# Poissons Ratio (x) = -0.00990 -0.04402
# Poissons Ratio (y) = -0.02323 0.02368
# Poissons Ratio (z) = -0.08408 0.01927
#
# Static dielectric constant tensor:
#      x y z
#    x 2.028600 0.000000 0.009090 
#    y 0.000000 1.904210 0.000000 
#    z 0.009090 0.000000 2.039400 
# 
# From -- ./inp_files/295347.got.cif
#   From: 2010.05.17/outbox.cif.g08.bks.cpg/sg12_148_cif.got.tgz:295347.got - 2010.06.03 13:09:07.
