data_PCOD9210918
_publ_section_title
;
Structure prediction by ZEFSAII (Michael W. Deem and Ramdas Pophale) SiO2 
 PCOD9210918
Probable space group: C 2/M
;
_chemical_formula_sum "Si O2"
_cell_formula_units_Z 60
_cell_length_a 20.522943
_cell_length_b 9.450508
_cell_length_c 27.064872
_cell_angle_alpha 90.000000
_cell_angle_beta 142.446810
_cell_angle_gamma 90.000000
_cell_volume 3199.431522
_symmetry_space_group_name_H-M "C 2/M"
_symmetry_group_IT_number 12
_symmetry_cell_setting 'monoclinic'
loop_
_space_group_symop_operation_xyz
x,y,z
-x,y,-z
-x,-y,-z
x,-y,z
1/2+x,1/2+y,z
1/2-x,1/2+y,-z
1/2-x,1/2-y,-z
1/2+x,1/2-y,z
loop_
_atom_site_type_symbol
_atom_site_label
_atom_site_fract_x
_atom_site_fract_y
_atom_site_fract_z
Si Si1 0.377595 0.831494 0.914361
Si Si2 0.244639 0.669406 0.258200
Si Si3 0.947980 0.668253 0.337658
Si Si4 0.254310 0.272460 0.932083
Si Si5 0.520690 0.840230 0.760238
Si Si6 0.672519 0.331544 0.312844
Si Si7 0.794600 0.000000 0.031746
Si Si8 0.188848 0.332512 0.506393
O O1 0.342869 0.804291 0.837331
O O2 0.303153 0.747474 0.907426
O O3 0.362245 0.000000 0.913369
O O4 0.500000 0.798250 0.000000
O O5 0.254482 0.500000 0.271079
O O6 0.354666 0.737197 0.304278
O O7 0.209893 0.747419 0.287179
O O8 0.925604 0.500000 0.331407
O O9 0.961160 0.691876 0.286721
O O10 0.063274 0.702202 0.430577
O O11 0.321519 0.376136 0.006815
O O12 0.135221 0.336143 0.855440
O O13 0.242120 0.122970 0.951099
O O14 0.440829 0.729213 0.736765
O O15 0.475857 0.000000 0.736937
O O16 0.666252 0.500000 0.299978
O O17 0.754920 0.306366 0.407456
O O18 0.197189 0.500000 0.500749
O O19 0.250000 0.250000 0.500000
#
# Coordination Sequence:
#
# PCOD9210918 Si02
#       8
#     8   8   8   8   8   8   4   8
#     4  10  22  42  66  86 119 167 211 254 313 375
#     4  11  24  42  65  94 128 169 217 261 315 378
#     4  10  21  39  67  93 124 168 212 257 316 378
#     4  11  21  42  61  93 124 162 207 260 316 379
#     4  11  22  39  67  93 125 169 210 261 316 377
#     4  11  25  42  63  96 133 165 209 267 318 376
#     4  10  24  36  62  90 126 154 200 268 314 364
#     4  10  21  39  64  95 128 167 209 260 321 380
#
# _framework density 18.753330999999999
#
# number of rings (size 3 to 8) (size 9 to 14) (size 15 to 20)
#    0.000    1.467    4.000    0.800    0.933    4.267 
#    3.600    3.000    0.000    0.000    0.000    0.000 
#    0.000    0.000    0.000    0.000    0.000    0.000 
#
# Total GULP energy -167036.890542 kJ/mol
# GULP energy per Si atom -5567.896351 kJ/mol
# Density = 1.871065 g / cm^3
# Si number density = 18.753331 Si / 1000 Ang^3
#
#
#
# Elastic Constant Matrix: (Units=GPa)
#
#
# Indices 1 2 3 4 5 6 
#
# 1 120.0053 77.9582 59.3076 0.0000 -12.5505 0.0000
# 2 77.9582 117.4222 48.8512 0.0000 -11.9062 0.0000
# 3 59.3076 48.8512 75.4069 0.0000 3.0073 0.0000
# 4 0.0000 0.0000 0.0000 23.8958 0.0000 -5.3625
# 5 -12.5505 -11.9062 3.0073 0.0000 30.2454 0.0000
# 6 0.0000 0.0000 0.0000 -5.3625 0.0000 31.6348
#
#
#
# Elastic Compliance Matrix: (Units=1/GPa)
#
#
# Indices 1 2 3 4 5 6 
#
# 1 0.019038 -0.007835 -0.010130 0.000000 0.005823 0.000000
# 2 -0.007835 0.015818 -0.004221 0.000000 0.003396 0.000000
# 3 -0.010130 -0.004221 0.024293 0.000000 -0.008281 0.000000
# 4 0.000000 0.000000 0.000000 0.043503 0.000000 0.007374
# 5 0.005823 0.003396 -0.008281 0.000000 0.037639 0.000000
# 6 0.000000 0.000000 0.000000 0.007374 0.000000 0.032861
#
#
# Mechanical properties :
#
#
# Convention : Reuss Voigt Hill
#
# Bulk Modulus (GPa) = 67.66750 76.11870 71.89310
# Shear Modulus (GPa) = 22.47700 25.60303 24.04001
#
# Velocity S-wave (km/s) = 3.46578 3.69894 3.58426
# Velocity P-wave (km/s) = 7.22335 7.67596 7.45309
#
# Compressibility (1/GPa) = 0.01477814
#
# Stress axis : x y z
#
# Youngs Moduli (GPa) = 52.52706 63.21837 41.16364
#
# Poissons Ratio (x) = 0.49530 0.41698
# Poissons Ratio (y) = 0.41153 0.17375
# Poissons Ratio (z) = 0.53209 0.26684
#
# Static dielectric constant tensor:
#      x y z
#    x 1.613820 0.000000 -0.002840 
#    y 0.000000 1.630700 0.000000 
#    z -0.002840 0.000000 1.680320 
# 
# From -- ./inp_files/365484.got.cif
#   From: 2010.05.17/outbox.cif.g08.bks.cpg/sg12_183_cif.got.tgz:365484.got - 2010.06.03 13:09:07.
