data_PCOD9210850
_publ_section_title
;
Structure prediction by ZEFSAII (Michael W. Deem and Ramdas Pophale) SiO2 
 PCOD9210850
Probable space group: C 2/M
;
_chemical_formula_sum "Si O2"
_cell_formula_units_Z 64
_cell_length_a 19.773283
_cell_length_b 17.990780
_cell_length_c 14.338708
_cell_angle_alpha 90.000000
_cell_angle_beta 43.517692
_cell_angle_gamma 90.000000
_cell_volume 3512.305394
_symmetry_space_group_name_H-M "C 2/M"
_symmetry_group_IT_number 12
_symmetry_cell_setting 'monoclinic'
loop_
_space_group_symop_operation_xyz
x,y,z
-x,y,-z
-x,-y,-z
x,-y,z
1/2+x,1/2+y,z
1/2-x,1/2+y,-z
1/2-x,1/2-y,-z
1/2+x,1/2-y,z
loop_
_atom_site_type_symbol
_atom_site_label
_atom_site_fract_x
_atom_site_fract_y
_atom_site_fract_z
Si Si1 0.611119 0.087411 0.715759
Si Si2 0.882603 0.767532 0.617394
Si Si3 0.389204 0.586136 0.223355
Si Si4 0.111125 0.412590 0.062004
Si Si5 0.756769 0.912375 0.743232
Si Si6 0.110794 0.086136 0.001766
Si Si7 0.788932 0.687900 0.531414
Si Si8 0.211070 0.687901 0.109279
O O1 0.499996 0.102833 0.859399
O O2 0.688727 0.101311 0.720626
O O3 0.637048 0.136076 0.600403
O O4 0.617161 0.000000 0.686647
O O5 0.843342 0.852443 0.656654
O O6 0.839047 0.725838 0.570380
O O7 0.839042 0.725840 0.751526
O O8 0.000000 0.765167 0.500000
O O9 0.373873 0.500000 0.266703
O O10 0.387027 0.588379 0.112973
O O11 0.304281 0.638215 0.345914
O O12 0.499999 0.608071 0.141977
O O13 0.117162 0.500000 0.079039
O O14 0.137048 0.363923 0.125509
O O15 0.188738 0.398691 0.901919
O O16 0.785478 0.000000 0.714520
O O17 0.195716 0.138215 0.954480
O O18 0.126125 0.000000 0.014451
O O19 0.750000 0.750000 0.500000
O O20 0.250000 0.750000 0.000000
#
# Coordination Sequence:
#
# PCOD9210850 Si02
#       8
#     8   8   8   8   8   8   8   8
#     4  10  21  39  64  92 120 156 203 250 301 364
#     4  12  26  44  60  89 129 164 201 253 311 364
#     4   9  19  38  64  90 116 150 196 248 299 353
#     4  10  21  39  64  92 120 156 203 250 301 364
#     4  10  21  43  66  88 119 160 206 256 303 352
#     4   9  19  38  64  90 116 150 196 248 299 353
#     4  12  23  40  61  87 127 166 200 248 302 364
#     4  12  23  40  61  87 127 166 200 248 302 364
#
# _framework density 18.221648999999999
#
# number of rings (size 3 to 8) (size 9 to 14) (size 15 to 20)
#    0.000    1.500    3.750    2.625    0.000    3.750 
#    0.000    0.000    0.000    3.000    0.000    0.000 
#    0.000    0.000    0.000    0.000    0.000    0.000 
#
# Total GULP energy -178723.093669 kJ/mol
# GULP energy per Si atom -5585.096677 kJ/mol
# Density = 1.818018 g / cm^3
# Si number density = 18.221649 Si / 1000 Ang^3
#
#
#
# Elastic Constant Matrix: (Units=GPa)
#
#
# Indices 1 2 3 4 5 6 
#
# 1 97.0629 66.3726 68.4946 0.0000 -3.2530 0.0000
# 2 66.3726 92.1001 73.0210 0.0000 -12.1235 0.0000
# 3 68.4946 73.0210 106.7432 0.0000 -14.4407 0.0000
# 4 0.0000 0.0000 0.0000 32.3686 0.0000 1.9566
# 5 -3.2530 -12.1235 -14.4407 0.0000 35.5123 0.0000
# 6 0.0000 0.0000 0.0000 1.9566 0.0000 33.4468
#
#
#
# Elastic Compliance Matrix: (Units=1/GPa)
#
#
# Indices 1 2 3 4 5 6 
#
# 1 0.023482 -0.011137 -0.008119 0.000000 -0.004953 0.000000
# 2 -0.011137 0.029093 -0.012222 0.000000 0.003942 0.000000
# 3 -0.008119 -0.012222 0.023571 0.000000 0.004668 0.000000
# 4 0.000000 0.000000 0.000000 0.031004 0.000000 -0.001814
# 5 -0.004953 0.003942 0.004668 0.000000 0.030950 0.000000
# 6 0.000000 0.000000 0.000000 -0.001814 0.000000 0.030004
#
#
# Mechanical properties :
#
#
# Convention : Reuss Voigt Hill
#
# Bulk Modulus (GPa) = 75.82308 79.07584 77.44946
# Shear Modulus (GPa) = 21.23540 26.13341 23.68441
#
# Velocity S-wave (km/s) = 3.41749 3.79119 3.60918
# Velocity P-wave (km/s) = 7.56797 7.91549 7.74368
#
# Compressibility (1/GPa) = 0.01318860
#
# Stress axis : x y z
#
# Youngs Moduli (GPa) = 42.58664 34.37247 42.42564
#
# Poissons Ratio (x) = 0.38281 0.34445
# Poissons Ratio (y) = 0.47429 0.51854
# Poissons Ratio (z) = 0.34576 0.42011
#
# Static dielectric constant tensor:
#      x y z
#    x 1.606330 0.000000 -0.002140 
#    y 0.000000 1.619230 0.000000 
#    z -0.002140 0.000000 1.607500 
# 
# From -- ./inp_files/226822.got.cif
#   From: 2010.05.17/outbox.cif.g08.bks.cpg/sg12_114_cif.got.tgz:226822.got - 2010.06.03 13:09:07.
