data_PCOD9210093
_publ_section_title
;
Structure prediction by ZEFSAII (Michael W. Deem and Ramdas Pophale) SiO2 
 PCOD9210093
Probable space group: C 2/M
;
_chemical_formula_sum "Si O2"
_cell_formula_units_Z 32
_cell_length_a 8.801400
_cell_length_b 30.000285
_cell_length_c 10.442235
_cell_angle_alpha 90.000000
_cell_angle_beta 30.167160
_cell_angle_gamma 90.000000
_cell_volume 1385.567968
_symmetry_space_group_name_H-M "C 2/M"
_symmetry_group_IT_number 12
_symmetry_cell_setting 'monoclinic'
loop_
_space_group_symop_operation_xyz
x,y,z
-x,y,-z
-x,-y,-z
x,-y,z
1/2+x,1/2+y,z
1/2-x,1/2+y,-z
1/2-x,1/2-y,-z
1/2+x,1/2-y,z
loop_
_atom_site_type_symbol
_atom_site_label
_atom_site_fract_x
_atom_site_fract_y
_atom_site_fract_z
Si Si1 0.358849 0.200651 0.746089
Si Si2 0.355983 0.700505 0.748942
Si Si3 0.853090 0.551016 0.747997
Si Si4 0.269251 0.373251 0.551648
O O1 0.500000 0.196710 0.500000
O O2 0.425974 0.250497 0.750247
O O3 0.503294 0.163930 0.732952
O O4 0.000000 0.196377 0.000000
O O5 0.500000 0.701570 0.500000
O O6 0.496328 0.655734 0.707274
O O7 0.000000 0.696409 0.000000
O O8 0.847390 0.500000 0.801256
O O9 0.000000 0.550703 0.500000
O O10 0.083796 0.582644 0.654973
O O11 0.500000 0.566164 0.000000
O O12 0.500000 0.384093 0.500000
#
# Coordination Sequence:
#
# PCOD9210093 Si02
#       4
#     8   8   8   8
#     4  10  21  39  60  82 117 167 211 240 280 347
#     4   9  20  36  55  83 120 160 200 242 288 343
#     4  10  23  45  69  90 116 155 200 242 293 364
#     4  11  23  38  61  93 125 153 195 251 305 347
#
# _framework density 23.095222
#
# number of rings (size 3 to 8) (size 9 to 14) (size 15 to 20)
#    0.000    2.000    0.000    2.250    0.000    8.500 
#    0.000   16.250    0.000    5.250    0.000    0.000 
#    0.000    0.000    0.000    0.000    0.000    0.000 
#
# Total GULP energy -89109.018572 kJ/mol
# GULP energy per Si atom -5569.313661 kJ/mol
# Density = 2.304266 g / cm^3
# Si number density = 23.095222 Si / 1000 Ang^3
#
#
#
# Elastic Constant Matrix: (Units=GPa)
#
#
# Indices 1 2 3 4 5 6 
#
# 1 120.9903 86.9535 71.8637 0.0000 -36.0787 0.0000
# 2 86.9535 164.6306 47.1556 0.0000 -51.9783 0.0000
# 3 71.8637 47.1556 217.4271 0.0000 -37.3870 0.0000
# 4 0.0000 0.0000 0.0000 42.4620 0.0000 -19.0748
# 5 -36.0787 -51.9783 -37.3870 0.0000 71.2077 0.0000
# 6 0.0000 0.0000 0.0000 -19.0748 0.0000 33.9253
#
#
#
# Elastic Compliance Matrix: (Units=1/GPa)
#
#
# Indices 1 2 3 4 5 6 
#
# 1 0.015619 -0.006927 -0.003483 0.000000 0.001028 0.000000
# 2 -0.006927 0.011092 0.000739 0.000000 0.004975 0.000000
# 3 -0.003483 0.000739 0.005913 0.000000 0.001880 0.000000
# 4 0.000000 0.000000 0.000000 0.031509 0.000000 0.017716
# 5 0.001028 0.004975 0.001880 0.000000 0.019183 0.000000
# 6 0.000000 0.000000 0.000000 0.017716 0.000000 0.039438
#
#
# Mechanical properties :
#
#
# Convention : Reuss Voigt Hill
#
# Bulk Modulus (GPa) = 75.28764 101.66594 88.47679
# Shear Modulus (GPa) = 34.12424 49.32402 41.72413
#
# Velocity S-wave (km/s) = 3.84806 4.62636 4.25504
# Velocity P-wave (km/s) = 7.23968 8.52370 7.90779
#
# Compressibility (1/GPa) = 0.01328239
#
# Stress axis : x y z
#
# Youngs Moduli (GPa) = 64.02396 90.15563 169.10868
#
# Poissons Ratio (x) = 0.62453 0.58904
# Poissons Ratio (y) = 0.44351 -0.12504
# Poissons Ratio (z) = 0.22301 -0.06666
#
# Static dielectric constant tensor:
#      x y z
#    x 2.033190 0.000000 0.032960 
#    y 0.000000 1.949650 0.000000 
#    z 0.032960 0.000000 1.922420 
# 
# From -- ./inp_files/124969.got.cif
#   From: 2010.05.17/outbox.cif.g08.bks.cpg/sg12_63_cif.got.tgz:124969.got - 2010.06.03 13:09:07.
