data_PCOD9210322
_publ_section_title
;
Structure prediction by ZEFSAII (Michael W. Deem and Ramdas Pophale) SiO2 
 PCOD9210322
Probable space group: C 2/M
;
_chemical_formula_sum "Si O2"
_cell_formula_units_Z 48
_cell_length_a 22.693889
_cell_length_b 20.524008
_cell_length_c 7.336912
_cell_angle_alpha 90.000000
_cell_angle_beta 38.500771
_cell_angle_gamma 90.000000
_cell_volume 2127.361649
_symmetry_space_group_name_H-M "C 2/M"
_symmetry_group_IT_number 12
_symmetry_cell_setting 'monoclinic'
loop_
_space_group_symop_operation_xyz
x,y,z
-x,y,-z
-x,-y,-z
x,-y,z
1/2+x,1/2+y,z
1/2-x,1/2+y,-z
1/2-x,1/2-y,-z
1/2+x,1/2-y,z
loop_
_atom_site_type_symbol
_atom_site_label
_atom_site_fract_x
_atom_site_fract_y
_atom_site_fract_z
Si Si1 0.508551 0.421049 0.193069
Si Si2 0.670009 0.158149 0.785980
Si Si3 0.465927 0.193175 0.395756
Si Si4 0.222186 0.279986 0.305738
Si Si5 0.843858 0.882404 0.863147
Si Si6 0.343585 0.927946 0.843742
O O1 0.500000 0.226805 0.500000
O O2 0.507151 0.500000 0.209275
O O3 0.420042 0.393121 0.520093
O O4 0.600561 0.396573 0.082741
O O5 0.727153 0.216776 0.741806
O O6 0.709212 0.162132 0.487962
O O7 0.558963 0.176633 0.057160
O O8 0.678793 0.095987 0.895568
O O9 0.385302 0.232545 0.490179
O O10 0.412989 0.126728 0.590749
O O11 0.500000 0.403318 0.000000
O O12 0.292804 0.312129 0.990438
O O13 0.753965 0.927103 0.032306
O O14 0.384608 0.000000 0.742676
#
# Coordination Sequence:
#
# PCOD9210322 Si02
#       6
#     8   8   8   8   8   8
#     4  10  21  39  62  90 131 173 217 266 320 386
#     4  10  22  41  65  94 128 172 213 264 326 381
#     4   9  20  38  64  90 124 166 211 263 322 375
#     4  10  22  42  63  93 133 163 216 269 314 393
#     4  10  21  39  61  92 128 170 216 266 326 378
#     4  10  21  39  64  91 126 166 213 266 322 384
#
# _framework density 22.563161000000001
#
# number of rings (size 3 to 8) (size 9 to 14) (size 15 to 20)
#    0.000    2.167    0.000    2.500    2.333    9.000 
#   15.000    4.167    0.000    8.000    0.000    0.000 
#    0.000    0.000    0.000    0.000    0.000    0.000 
#
# Total GULP energy -134097.927280 kJ/mol
# GULP energy per Si atom -5587.413637 kJ/mol
# Density = 2.251181 g / cm^3
# Si number density = 22.563161 Si / 1000 Ang^3
#
#
#
# Elastic Constant Matrix: (Units=GPa)
#
#
# Indices 1 2 3 4 5 6 
#
# 1 145.6157 20.0552 64.7856 0.0000 -22.7299 0.0000
# 2 20.0552 29.3621 9.8883 0.0000 -10.8794 0.0000
# 3 64.7856 9.8883 118.7783 0.0000 -18.8753 0.0000
# 4 0.0000 0.0000 0.0000 18.4447 0.0000 5.3778
# 5 -22.7299 -10.8794 -18.8753 0.0000 47.3818 0.0000
# 6 0.0000 0.0000 0.0000 5.3778 0.0000 22.7384
#
#
#
# Elastic Compliance Matrix: (Units=1/GPa)
#
#
# Indices 1 2 3 4 5 6 
#
# 1 0.009869 -0.004474 -0.004720 0.000000 0.001827 0.000000
# 2 -0.004474 0.039641 0.000262 0.000000 0.007060 0.000000
# 3 -0.004720 0.000262 0.011339 0.000000 0.002313 0.000000
# 4 0.000000 0.000000 0.000000 0.058232 0.000000 -0.013772
# 5 0.001827 0.007060 0.002313 0.000000 0.024524 0.000000
# 6 0.000000 0.000000 0.000000 -0.013772 0.000000 0.047236
#
#
# Mechanical properties :
#
#
# Convention : Reuss Voigt Hill
#
# Bulk Modulus (GPa) = 23.26387 53.69048 38.47717
# Shear Modulus (GPa) = 22.41822 30.98143 26.69982
#
# Velocity S-wave (km/s) = 3.15552 3.70955 3.44370
# Velocity P-wave (km/s) = 4.85895 6.49577 5.73604
#
# Compressibility (1/GPa) = 0.04298512
#
# Stress axis : x y z
#
# Youngs Moduli (GPa) = 101.33055 25.22624 88.18947
#
# Poissons Ratio (x) = 0.11287 0.41625
# Poissons Ratio (y) = 0.45338 -0.02313
# Poissons Ratio (z) = 0.47828 -0.00661
#
# Static dielectric constant tensor:
#      x y z
#    x 1.913000 0.000000 0.031900 
#    y 0.000000 1.838210 0.000000 
#    z 0.031900 0.000000 1.821700 
# 
# From -- ./inp_files/106507.got.cif
#   From: 2010.05.17/outbox.cif.g08.bks.cpg/sg12_54_cif.got.tgz:106507.got - 2010.06.03 13:09:07.
