data_PCOD9210274
_publ_section_title
;
Structure prediction by ZEFSAII (Michael W. Deem and Ramdas Pophale) SiO2 
 PCOD9210274
Probable space group: C 2/M
;
_chemical_formula_sum "Si O2"
_cell_formula_units_Z 44
_cell_length_a 16.660079
_cell_length_b 17.145301
_cell_length_c 13.109639
_cell_angle_alpha 90.000000
_cell_angle_beta 40.470364
_cell_angle_gamma 90.000000
_cell_volume 2430.491828
_symmetry_space_group_name_H-M "C 2/M"
_symmetry_group_IT_number 12
_symmetry_cell_setting 'monoclinic'
loop_
_space_group_symop_operation_xyz
x,y,z
-x,y,-z
-x,-y,-z
x,-y,z
1/2+x,1/2+y,z
1/2-x,1/2+y,-z
1/2-x,1/2-y,-z
1/2+x,1/2-y,z
loop_
_atom_site_type_symbol
_atom_site_label
_atom_site_fract_x
_atom_site_fract_y
_atom_site_fract_z
Si Si1 0.767465 0.221745 0.781699
Si Si2 0.346162 0.218998 0.323717
Si Si3 0.501536 0.909487 0.287730
Si Si4 0.718829 0.410943 0.061314
Si Si5 0.550989 0.659604 0.057591
Si Si6 0.500000 0.171680 0.500000
O O1 0.720471 0.194544 0.716477
O O2 0.790661 0.152803 0.839745
O O3 0.888356 0.273363 0.644129
O O4 0.659505 0.278156 0.927868
O O5 0.250000 0.250000 0.500000
O O6 0.425402 0.147210 0.288495
O O7 0.438858 0.290306 0.211455
O O8 0.469947 0.882148 0.432518
O O9 0.471135 0.000000 0.302417
O O10 0.647728 0.899845 0.122513
O O11 0.714385 0.500000 0.103678
O O12 0.611644 0.397176 0.081470
O O13 0.500000 0.625119 0.000000
#
# Coordination Sequence:
#
# PCOD9210274 Si02
#       6
#     8   8   8   8   8   4
#     4  11  22  37  65  89 118 159 210 250 298 368
#     4  11  22  39  62  91 118 160 210 248 301 361
#     4  11  23  39  62  92 124 155 200 260 311 355
#     4  11  23  40  62  91 124 161 202 252 315 367
#     4  10  21  39  61  88 119 159 211 249 294 365
#     4  12  21  38  65  90 116 162 210 254 295 360
#
# _framework density 18.103332999999999
#
# number of rings (size 3 to 8) (size 9 to 14) (size 15 to 20)
#    0.000    1.091    5.455    1.909    0.000    1.091 
#    0.000    3.182    0.000    0.000    0.000    0.000 
#    0.000    0.000    0.000    0.000    0.000    0.000 
#
# Total GULP energy -122868.579343 kJ/mol
# GULP energy per Si atom -5584.935425 kJ/mol
# Density = 1.806213 g / cm^3
# Si number density = 18.103333 Si / 1000 Ang^3
#
#
#
# Elastic Constant Matrix: (Units=GPa)
#
#
# Indices 1 2 3 4 5 6 
#
# 1 81.0323 26.7960 6.3824 0.0000 5.7735 0.0001
# 2 26.7960 59.5590 17.8291 0.0000 1.9396 0.0000
# 3 6.3824 17.8291 93.7024 0.0000 -8.7301 0.0001
# 4 0.0000 0.0000 0.0000 3.0713 0.0000 -30.0243
# 5 5.7735 1.9396 -8.7301 0.0000 30.8981 0.0000
# 6 0.0001 0.0000 0.0001 -30.0243 0.0000 -10.0320
#
#
#
# Elastic Compliance Matrix: (Units=1/GPa)
#
#
# Indices 1 2 3 4 5 6 
#
# 1 0.014663 -0.006530 0.000027 0.000000 -0.002322 0.000000
# 2 -0.006530 0.020850 -0.003626 0.000000 -0.001113 0.000000
# 3 0.000027 -0.003626 0.011689 0.000000 0.003525 0.000000
# 4 0.000000 0.000000 0.000000 0.010761 0.000000 -0.032206
# 5 -0.002322 -0.001113 0.003525 0.000000 0.033864 0.000000
# 6 0.000000 0.000000 0.000000 -0.032206 0.000000 -0.003294
#
#
# Mechanical properties :
#
#
# Convention : Reuss Voigt Hill
#
# Bulk Modulus (GPa) = 37.11326 37.36763 37.24044
# Shear Modulus (GPa) = 42.45542 17.00656 29.73099
#
# Velocity S-wave (km/s) = 4.84795 3.06831 4.05692
# Velocity P-wave (km/s) = 7.20293 5.76531 6.52384
#
# Compressibility (1/GPa) = 0.02694455
#
# Stress axis : x y z
#
# Youngs Moduli (GPa) = 68.19738 47.96266 85.55347
#
# Poissons Ratio (x) = 0.31318 -0.00233
# Poissons Ratio (y) = 0.44531 0.31022
# Poissons Ratio (z) = -0.00186 0.17392
#
# Static dielectric constant tensor:
#      x y z
#    x 1.664450 0.000000 0.010600 
#    y 0.000000 1.591180 0.000000 
#    z 0.010600 0.000000 1.611450 
# 
# From -- ./inp_files/145348.got.cif
#   From: 2010.05.17/outbox.cif.g08.bks.cpg/sg12_73_cif.got.tgz:145348.got - 2010.06.03 13:09:07.
