data_PCOD9210900
_publ_section_title
;
Structure prediction by ZEFSAII (Michael W. Deem and Ramdas Pophale) SiO2 
 PCOD9210900
Probable space group: C 2/M
;
_chemical_formula_sum "Si O2"
_cell_formula_units_Z 58
_cell_length_a 22.823780
_cell_length_b 20.635946
_cell_length_c 8.809946
_cell_angle_alpha 90.000000
_cell_angle_beta 37.666131
_cell_angle_gamma 90.000000
_cell_volume 2535.528542
_symmetry_space_group_name_H-M "C 2/M"
_symmetry_group_IT_number 12
_symmetry_cell_setting 'monoclinic'
loop_
_space_group_symop_operation_xyz
x,y,z
-x,y,-z
-x,-y,-z
x,-y,z
1/2+x,1/2+y,z
1/2-x,1/2+y,-z
1/2-x,1/2-y,-z
1/2+x,1/2-y,z
loop_
_atom_site_type_symbol
_atom_site_label
_atom_site_fract_x
_atom_site_fract_y
_atom_site_fract_z
Si Si1 0.085582 0.424160 0.211003
Si Si2 0.500000 0.000000 0.000000
Si Si3 0.416824 0.651208 0.460524
Si Si4 0.789267 0.077345 0.961288
Si Si5 0.373410 0.662360 0.032247
Si Si6 0.644557 0.109163 0.763558
Si Si7 0.634967 0.570717 0.686584
Si Si8 0.385191 0.249779 0.261525
O O1 0.068165 0.500000 0.196983
O O2 0.000000 0.405252 0.500000
O O3 0.183876 0.422338 0.104299
O O4 0.098937 0.385134 0.027316
O O5 0.581625 0.056267 0.808406
O O6 0.353452 0.627258 0.729859
O O7 0.526640 0.672489 0.262512
O O8 0.414740 0.584211 0.369970
O O9 0.370334 0.705408 0.441994
O O10 0.799305 0.114952 0.100376
O O11 0.818132 0.000000 0.909190
O O12 0.403904 0.621654 0.116405
O O13 0.339613 0.725727 0.193574
O O14 0.752023 0.083481 0.567328
O O15 0.643575 0.175231 0.672479
O O16 0.619114 0.500000 0.778211
O O17 0.500000 0.250911 0.000000
#
# Coordination Sequence:
#
# PCOD9210900 Si02
#       8
#     8   2   8   8   8   8   8   8
#     4  10  22  42  65  91 132 172 213 273 345 401
#     4  12  24  36  74 104 122 158 232 286 326 398
#     4  10  21  39  64  93 131 175 217 261 328 395
#     4  11  22  40  66  97 136 176 219 278 329 389
#     4  10  23  39  59  96 131 173 224 264 316 393
#     4  12  22  42  67  99 126 168 220 279 344 391
#     4  11  21  36  61  92 132 163 214 280 333 387
#     4   9  21  42  65  91 131 174 214 271 329 394
#
# _framework density 22.874915999999999
#
# number of rings (size 3 to 8) (size 9 to 14) (size 15 to 20)
#    0.000    1.517    3.448    2.483    0.000    6.621 
#    2.483    3.448    0.000    0.000    0.000    0.000 
#    0.000    0.000    0.000    0.000    0.000    0.000 
#
# Total GULP energy -161474.317776 kJ/mol
# GULP energy per Si atom -5568.079923 kJ/mol
# Density = 2.282285 g / cm^3
# Si number density = 22.874916 Si / 1000 Ang^3
#
#
#
# Elastic Constant Matrix: (Units=GPa)
#
#
# Indices 1 2 3 4 5 6 
#
# 1 64.4003 28.5846 14.2904 0.0000 -1.1588 0.0000
# 2 28.5846 129.5422 21.8016 0.0000 -3.4371 0.0000
# 3 14.2904 21.8016 89.7795 0.0000 -6.9894 0.0000
# 4 0.0000 0.0000 0.0000 16.1994 0.0000 0.4326
# 5 -1.1588 -3.4371 -6.9894 0.0000 32.0789 0.0000
# 6 0.0000 0.0000 0.0000 0.4326 0.0000 24.2806
#
#
#
# Elastic Compliance Matrix: (Units=1/GPa)
#
#
# Indices 1 2 3 4 5 6 
#
# 1 0.017530 -0.003546 -0.001942 0.000000 -0.000170 0.000000
# 2 -0.003546 0.008772 -0.001528 0.000000 0.000479 0.000000
# 3 -0.001942 -0.001528 0.012004 0.000000 0.002382 0.000000
# 4 0.000000 0.000000 0.000000 0.061760 0.000000 -0.001100
# 5 -0.000170 0.000479 0.002382 0.000000 0.031737 0.000000
# 6 0.000000 0.000000 0.000000 -0.001100 0.000000 0.041205
#
#
# Mechanical properties :
#
#
# Convention : Reuss Voigt Hill
#
# Bulk Modulus (GPa) = 41.19896 45.89724 43.54810
# Shear Modulus (GPa) = 25.62375 29.11480 27.36927
#
# Velocity S-wave (km/s) = 3.35052 3.57148 3.46276
# Velocity P-wave (km/s) = 5.74610 6.09223 5.92169
#
# Compressibility (1/GPa) = 0.02427246
#
# Stress axis : x y z
#
# Youngs Moduli (GPa) = 57.04625 114.00148 83.30452
#
# Poissons Ratio (x) = 0.40421 0.16181
# Poissons Ratio (y) = 0.20227 0.12733
# Poissons Ratio (z) = 0.11081 0.17425
#
# Static dielectric constant tensor:
#      x y z
#    x 1.922710 0.000000 0.035230 
#    y 0.000000 1.853430 0.000000 
#    z 0.035230 0.000000 2.028130 
# 
# From -- ./inp_files/99257.got.cif
#   From: 2010.05.17/outbox.cif.g08.bks.cpg/sg12_50_cif.got.tgz:99257.got - 2010.06.03 13:09:07.
