data_PCOD9210692
_publ_section_title
;
Structure prediction by ZEFSAII (Michael W. Deem and Ramdas Pophale) SiO2 
 PCOD9210692
Probable space group: C 2/M
;
_chemical_formula_sum "Si O2"
_cell_formula_units_Z 64
_cell_length_a 23.744236
_cell_length_b 18.169365
_cell_length_c 22.444737
_cell_angle_alpha 90.000000
_cell_angle_beta 160.949784
_cell_angle_gamma 90.000000
_cell_volume 3160.517860
_symmetry_space_group_name_H-M "C 2/M"
_symmetry_group_IT_number 12
_symmetry_cell_setting 'monoclinic'
loop_
_space_group_symop_operation_xyz
x,y,z
-x,y,-z
-x,-y,-z
x,-y,z
1/2+x,1/2+y,z
1/2-x,1/2+y,-z
1/2-x,1/2-y,-z
1/2+x,1/2-y,z
loop_
_atom_site_type_symbol
_atom_site_label
_atom_site_fract_x
_atom_site_fract_y
_atom_site_fract_z
Si Si1 0.203302 0.581555 0.458419
Si Si2 0.203791 0.841278 0.328482
Si Si3 0.296151 0.341213 0.920836
Si Si4 0.289677 0.828317 0.930781
Si Si5 0.796911 0.581568 0.052042
Si Si6 0.205836 0.583837 0.705846
Si Si7 0.710619 0.171754 0.351766
Si Si8 0.500131 0.414097 0.571217
O O1 0.280750 0.500000 0.527365
O O2 0.224526 0.608664 0.546903
O O3 0.261205 0.641590 0.467965
O O4 0.000106 0.575241 0.244215
O O5 0.242227 0.873568 0.301997
O O6 0.260680 0.756901 0.393172
O O7 0.999968 0.841125 0.132990
O O8 0.239442 0.256809 0.871883
O O9 0.224323 0.391214 0.901959
O O10 0.257709 0.373542 0.817488
O O11 0.172978 0.876070 0.769613
O O12 0.239001 0.858481 0.945713
O O13 0.500162 0.834879 0.132835
O O14 0.719465 0.500000 0.966178
O O15 0.275011 0.500000 0.775034
O O16 0.000000 0.579598 0.500000
O O17 0.827476 0.124029 0.424177
O O18 0.500000 0.407906 0.500000
O O19 0.500046 0.500000 0.587942
#
# Coordination Sequence:
#
# PCOD9210692 Si02
#       8
#     8   8   8   8   8   8   8   8
#     4  10  21  39  63  91 127 170 214 263 323 382
#     4  11  24  39  62  94 127 168 213 266 325 380
#     4  11  24  39  62  94 127 168 213 266 325 380
#     4  10  24  43  66  96 132 170 215 266 324 384
#     4  10  21  39  63  91 127 170 214 263 323 382
#     4  11  25  43  63  89 127 174 217 262 322 384
#     4  10  24  43  66  96 132 170 215 266 324 384
#     4  11  26  44  68 100 128 169 219 263 324 386
#
# _framework density 20.249845000000001
#
# number of rings (size 3 to 8) (size 9 to 14) (size 15 to 20)
#    0.000    1.500    0.000    3.375    7.000    6.500 
#    0.000    1.250    0.000    0.000    0.000    0.000 
#    0.000    0.000    0.000    0.000    0.000    0.000 
#
# Total GULP energy -178739.448886 kJ/mol
# GULP energy per Si atom -5585.607778 kJ/mol
# Density = 2.020376 g / cm^3
# Si number density = 20.249845 Si / 1000 Ang^3
#
#
#
# Elastic Constant Matrix: (Units=GPa)
#
#
# Indices 1 2 3 4 5 6 
#
# 1 100.9383 65.4610 2.2378 0.0130 -23.2055 -0.0002
# 2 65.4610 170.3926 23.6027 0.0282 -26.4869 0.0088
# 3 2.2378 23.6027 45.8921 0.0307 -11.6356 0.0197
# 4 0.0130 0.0282 0.0307 62.7557 0.0159 10.0409
# 5 -23.2055 -26.4869 -11.6356 0.0159 38.2814 -0.0068
# 6 -0.0002 0.0088 0.0197 10.0409 -0.0068 47.0594
#
#
#
# Elastic Compliance Matrix: (Units=1/GPa)
#
#
# Indices 1 2 3 4 5 6 
#
# 1 0.014613 -0.005109 0.003537 -0.000004 0.006398 0.000001
# 2 -0.005109 0.008619 -0.003746 -0.000002 0.001728 0.000001
# 3 0.003537 -0.003746 0.025387 -0.000012 0.007269 -0.000006
# 4 -0.000004 -0.000002 -0.000012 0.016498 -0.000015 -0.003520
# 5 0.006398 0.001728 0.007269 -0.000015 0.033406 0.000005
# 6 0.000001 0.000001 -0.000006 -0.003520 0.000005 0.022001
#
#
# Mechanical properties :
#
#
# Convention : Reuss Voigt Hill
#
# Bulk Modulus (GPa) = 26.32673 55.53623 40.93148
# Shear Modulus (GPa) = 34.76546 44.68076 39.72311
#
# Velocity S-wave (km/s) = 4.14796 4.70241 4.43386
# Velocity P-wave (km/s) = 5.99749 7.54775 6.81683
#
# Compressibility (1/GPa) = 0.03798421
#
# Stress axis : x y z
#
# Youngs Moduli (GPa) = 68.43138 116.02018 39.38991
#
# Poissons Ratio (x) = 0.59280 -0.13934
# Poissons Ratio (y) = 0.34965 0.14754
# Poissons Ratio (z) = -0.24208 0.43458
#
# Static dielectric constant tensor:
#      x y z
#    x 1.654870 0.000000 0.040080 
#    y 0.000000 1.742580 -0.000010 
#    z 0.040080 -0.000010 1.718740 
# 
# From -- ./inp_files/326093.got.cif
#   From: 2010.05.17/outbox.cif.g08.bks.cpg/sg12_164_cif.got.tgz:326093.got - 2010.06.03 13:09:07.
