data_PCOD9210119
_publ_section_title
;
Structure prediction by ZEFSAII (Michael W. Deem and Ramdas Pophale) SiO2 
 PCOD9210119
Probable space group: C 2/M
;
_chemical_formula_sum "Si O2"
_cell_formula_units_Z 64
_cell_length_a 13.425036
_cell_length_b 13.800023
_cell_length_c 16.292461
_cell_angle_alpha 90.000000
_cell_angle_beta 98.235228
_cell_angle_gamma 90.000000
_cell_volume 2987.310855
_symmetry_space_group_name_H-M "C 2/M"
_symmetry_group_IT_number 12
_symmetry_cell_setting 'monoclinic'
loop_
_space_group_symop_operation_xyz
x,y,z
-x,y,-z
-x,-y,-z
x,-y,z
1/2+x,1/2+y,z
1/2-x,1/2+y,-z
1/2-x,1/2-y,-z
1/2+x,1/2-y,z
loop_
_atom_site_type_symbol
_atom_site_label
_atom_site_fract_x
_atom_site_fract_y
_atom_site_fract_z
Si Si1 0.565329 0.288927 0.317303
Si Si2 0.646732 0.614096 0.698071
Si Si3 0.155101 0.885360 0.046494
Si Si4 0.444819 0.112140 0.350984
Si Si5 0.727901 0.780295 0.589546
Si Si6 0.866427 0.613354 0.155338
Si Si7 0.552485 0.768234 0.126996
Si Si8 0.252134 0.384118 0.115754
O O1 0.471429 0.360230 0.318962
O O2 0.536137 0.188081 0.359351
O O3 0.670824 0.326581 0.362003
O O4 0.572998 0.262006 0.223069
O O5 0.664503 0.500000 0.685670
O O6 0.701280 0.684860 0.640380
O O7 0.686877 0.639207 0.794088
O O8 0.252746 0.864541 0.115882
O O9 0.064095 0.827625 0.075294
O O10 0.136480 0.000000 0.044919
O O11 0.188523 0.855523 0.959234
O O12 0.365409 0.147437 0.409046
O O13 0.389802 0.125423 0.255143
O O14 0.473304 0.000000 0.362238
O O15 0.750000 0.750000 0.500000
O O16 0.883346 0.500000 0.138134
O O17 0.946896 0.676664 0.115372
O O18 0.642256 0.837690 0.107706
O O19 0.240904 0.500000 0.111251
#
# Coordination Sequence:
#
# PCOD9210119 Si02
#       8
#     8   8   8   8   8   8   8   8
#     4  10  22  39  62  89 118 153 198 241 292 354
#     4  10  23  43  63  86 122 162 199 241 295 356
#     4  10  22  38  56  84 123 160 200 252 299 343
#     4   9  20  38  61  88 122 156 193 240 292 352
#     4  11  23  41  64  93 122 149 191 245 295 358
#     4   9  19  36  59  88 116 152 202 251 294 346
#     4  11  20  35  62  86 117 155 207 244 300 349
#     4  10  21  39  60  84 119 161 203 249 296 347
#
# _framework density 21.423950000000001
#
# number of rings (size 3 to 8) (size 9 to 14) (size 15 to 20)
#    0.000    2.000    1.250    1.500    3.500    5.000 
#    2.250    3.125    0.000    2.250    0.000    0.000 
#    0.000    0.000    0.000    0.000    0.000    0.000 
#
# Total GULP energy -179079.797270 kJ/mol
# GULP energy per Si atom -5596.243665 kJ/mol
# Density = 2.137519 g / cm^3
# Si number density = 21.423950 Si / 1000 Ang^3
#
#
#
# Elastic Constant Matrix: (Units=GPa)
#
#
# Indices 1 2 3 4 5 6 
#
# 1 61.7739 5.2578 11.3561 0.0000 -19.8788 0.0000
# 2 5.2578 62.2602 2.4013 0.0000 -14.4248 0.0000
# 3 11.3561 2.4013 56.7733 0.0000 -24.2482 0.0000
# 4 0.0000 0.0000 0.0000 23.5896 0.0000 -10.0142
# 5 -19.8788 -14.4248 -24.2482 0.0000 28.7857 0.0000
# 6 0.0000 0.0000 0.0000 -10.0142 0.0000 -2.9492
#
#
#
# Elastic Compliance Matrix: (Units=1/GPa)
#
#
# Indices 1 2 3 4 5 6 
#
# 1 0.021494 0.002522 0.003863 0.000000 0.019361 0.000000
# 2 0.002522 0.019374 0.005571 0.000000 0.016142 0.000000
# 3 0.003863 0.005571 0.029579 0.000000 0.030376 0.000000
# 4 0.000000 0.000000 0.000000 0.017363 0.000000 -0.058957
# 5 0.019361 0.016142 0.030376 0.000000 0.081787 0.000000
# 6 0.000000 0.000000 0.000000 -0.058957 0.000000 -0.138881
#
#
# Mechanical properties :
#
#
# Convention : Reuss Voigt Hill
#
# Bulk Modulus (GPa) = 10.59800 24.31531 17.45666
# Shear Modulus (GPa) = 130.69256 20.67135 75.68196
#
# Velocity S-wave (km/s) = 7.81892 3.10961 5.95000
# Velocity P-wave (km/s) = 9.29900 4.92617 7.44105
#
# Compressibility (1/GPa) = 0.09435745
#
# Stress axis : x y z
#
# Youngs Moduli (GPa) = 46.52561 51.61611 33.80730
#
# Poissons Ratio (x) = -0.13015 -0.13060
# Poissons Ratio (y) = -0.11732 -0.18833
# Poissons Ratio (z) = -0.17974 -0.28754
#
# Static dielectric constant tensor:
#      x y z
#    x 1.758770 0.000000 0.029260 
#    y 0.000000 1.769940 0.000000 
#    z 0.029260 0.000000 1.769720 
# 
# From -- ./inp_files/263331.got.cif
#   From: 2010.05.17/outbox.cif.g08.bks.cpg/sg12_132_cif.got.tgz:263331.got - 2010.06.03 13:09:07.
