data_PCOD9210925
_publ_section_title
;
Structure prediction by ZEFSAII (Michael W. Deem and Ramdas Pophale) SiO2 
 PCOD9210925
Probable space group: C 2/M
;
_chemical_formula_sum "Si O2"
_cell_formula_units_Z 44
_cell_length_a 29.032986
_cell_length_b 7.554484
_cell_length_c 14.689010
_cell_angle_alpha 90.000000
_cell_angle_beta 36.890893
_cell_angle_gamma 90.000000
_cell_volume 1933.981857
_symmetry_space_group_name_H-M "C 2/M"
_symmetry_group_IT_number 12
_symmetry_cell_setting 'monoclinic'
loop_
_space_group_symop_operation_xyz
x,y,z
-x,y,-z
-x,-y,-z
x,-y,z
1/2+x,1/2+y,z
1/2-x,1/2+y,-z
1/2-x,1/2-y,-z
1/2+x,1/2-y,z
loop_
_atom_site_type_symbol
_atom_site_label
_atom_site_fract_x
_atom_site_fract_y
_atom_site_fract_z
Si Si1 0.681278 0.788483 0.040049
Si Si2 0.248663 0.000000 0.657998
Si Si3 0.983302 0.709021 0.127663
Si Si4 0.656379 0.207705 0.882674
Si Si5 0.984608 0.714840 0.628402
Si Si6 0.621964 0.693939 0.547620
O O1 0.599518 0.722490 0.206528
O O2 0.674322 0.000000 0.043064
O O3 0.750000 0.750000 0.000000
O O4 0.697284 0.727814 0.911468
O O5 0.182794 0.157833 0.764399
O O6 0.315378 0.154599 0.557845
O O7 0.963398 0.500000 0.152166
O O8 0.918383 0.796800 0.290094
O O9 0.065714 0.722301 0.046291
O O10 0.000000 0.774809 0.000000
O O11 0.669528 0.000000 0.841952
O O12 0.984463 0.500000 0.632434
O O13 0.000000 0.767327 0.500000
O O14 0.053271 0.777348 0.584239
O O15 0.655947 0.500000 0.478869
#
# Coordination Sequence:
#
# PCOD9210925 Si02
#       6
#     8   4   8   8   8   8
#     4  10  22  36  59  93 134 175 227 280 334 407
#     4  12  26  44  69  96 141 184 216 288 354 408
#     4  10  21  45  80 106 134 182 239 291 346 421
#     4  10  23  43  68 100 136 180 234 286 348 415
#     4  10  21  39  64  95 135 181 227 284 342 403
#     4  12  25  43  71 103 138 183 233 286 348 418
#
# _framework density 22.750989000000001
#
# number of rings (size 3 to 8) (size 9 to 14) (size 15 to 20)
#    0.000    1.455    3.636    0.545    5.091    1.455 
#    0.000    0.909    0.000    0.000    0.000    0.000 
#    0.000    0.000    0.000    0.000    0.000    0.000 
#
# Total GULP energy -122518.814770 kJ/mol
# GULP energy per Si atom -5569.037035 kJ/mol
# Density = 2.269921 g / cm^3
# Si number density = 22.750989 Si / 1000 Ang^3
#
#
#
# Elastic Constant Matrix: (Units=GPa)
#
#
# Indices 1 2 3 4 5 6 
#
# 1 40.8674 -0.6686 9.9282 0.0001 18.4170 0.0000
# 2 -0.6686 140.7495 33.3584 0.0012 -12.0354 0.0002
# 3 9.9282 33.3584 84.3123 0.0005 -11.5198 0.0001
# 4 0.0001 0.0012 0.0005 6.7076 -0.0001 9.3663
# 5 18.4170 -12.0354 -11.5198 -0.0001 36.5482 -0.0001
# 6 0.0000 0.0002 0.0001 9.3663 -0.0001 -5.4210
#
#
#
# Elastic Compliance Matrix: (Units=1/GPa)
#
#
# Indices 1 2 3 4 5 6 
#
# 1 0.035066 0.000103 -0.006876 0.000000 -0.019803 0.000000
# 2 0.000103 0.007940 -0.002930 0.000000 0.001639 -0.000001
# 3 -0.006876 -0.002930 0.014809 0.000000 0.007168 0.000000
# 4 0.000000 0.000000 0.000000 0.043686 0.000000 0.075480
# 5 -0.019803 0.001639 0.007168 0.000000 0.040139 0.000000
# 6 0.000000 -0.000001 0.000000 0.075480 0.000000 -0.054054
#
#
# Mechanical properties :
#
#
# Convention : Reuss Voigt Hill
#
# Bulk Modulus (GPa) = 26.03515 39.01837 32.52676
# Shear Modulus (GPa) = 41.73855 22.45438 32.09647
#
# Velocity S-wave (km/s) = 4.28785 3.14500 3.76010
# Velocity P-wave (km/s) = 5.99855 5.51140 5.76012
#
# Compressibility (1/GPa) = 0.03840961
#
# Stress axis : x y z
#
# Youngs Moduli (GPa) = 28.51774 125.94771 67.52774
#
# Poissons Ratio (x) = -0.01294 0.46430
# Poissons Ratio (y) = -0.00293 0.19782
# Poissons Ratio (z) = 0.19608 0.36896
#
# Static dielectric constant tensor:
#      x y z
#    x 1.897430 0.000000 0.076590 
#    y 0.000000 1.828580 0.000000 
#    z 0.076590 0.000000 1.860240 
# 
# From -- ./inp_files/248045.got.cif
#   From: 2010.05.17/outbox.cif.g08.bks.cpg/sg12_125_cif.got.tgz:248045.got - 2010.06.03 13:09:07.
