data_PCOD9210460
_publ_section_title
;
Structure prediction by ZEFSAII (Michael W. Deem and Ramdas Pophale) SiO2 
 PCOD9210460
Probable space group: C 2/M
;
_chemical_formula_sum "Si O2"
_cell_formula_units_Z 48
_cell_length_a 14.984918
_cell_length_b 15.648585
_cell_length_c 30.037630
_cell_angle_alpha 90.000000
_cell_angle_beta 162.074398
_cell_angle_gamma 90.000000
_cell_volume 2167.893973
_symmetry_space_group_name_H-M "C 2/M"
_symmetry_group_IT_number 12
_symmetry_cell_setting 'monoclinic'
loop_
_space_group_symop_operation_xyz
x,y,z
-x,y,-z
-x,-y,-z
x,-y,z
1/2+x,1/2+y,z
1/2-x,1/2+y,-z
1/2-x,1/2-y,-z
1/2+x,1/2-y,z
loop_
_atom_site_type_symbol
_atom_site_label
_atom_site_fract_x
_atom_site_fract_y
_atom_site_fract_z
Si Si1 0.033206 0.783998 0.091802
Si Si2 0.185465 0.903237 0.340484
Si Si3 0.059249 0.783564 0.204215
Si Si4 0.261803 0.092261 0.793115
Si Si5 0.577865 0.633923 0.607094
Si Si6 0.017699 0.402851 0.285720
O O1 0.084521 0.681751 0.122019
O O2 0.263747 0.833211 0.171056
O O3 0.062077 0.820109 0.155686
O O4 0.701085 0.785924 0.918748
O O5 0.500000 0.865407 0.500000
O O6 0.019192 0.850433 0.224251
O O7 0.009087 0.906353 0.302197
O O8 0.228091 0.000000 0.344218
O O9 0.358466 0.734180 0.355448
O O10 0.157971 0.095338 0.692851
O O11 0.415135 0.000000 0.873268
O O12 0.795615 0.605490 0.670985
O O13 0.256257 0.613671 0.437679
O O14 0.905728 0.500000 0.235749
#
# Coordination Sequence:
#
# PCOD9210460 Si02
#       6
#     8   8   8   8   8   8
#     4  10  24  42  64  96 124 172 219 259 329 392
#     4  10  23  38  61  97 129 167 216 267 326 387
#     4  10  23  43  64  90 132 167 213 271 318 389
#     4  10  21  39  62  89 127 167 210 265 323 387
#     4  10  22  39  64  92 125 168 217 266 324 387
#     4  11  23  40  63  94 127 166 216 269 327 384
#
# _framework density 22.141304000000002
#
# number of rings (size 3 to 8) (size 9 to 14) (size 15 to 20)
#    0.000    1.833    0.000    3.000    7.000    5.333 
#    0.000   10.833    0.000    0.000    0.000    0.000 
#    0.000    0.000    0.000    0.000    0.000    0.000 
#
# Total GULP energy -134023.337481 kJ/mol
# GULP energy per Si atom -5584.305728 kJ/mol
# Density = 2.209091 g / cm^3
# Si number density = 22.141304 Si / 1000 Ang^3
#
#
#
# Elastic Constant Matrix: (Units=GPa)
#
#
# Indices 1 2 3 4 5 6 
#
# 1 112.6265 32.9495 24.0757 0.0078 -7.1716 -0.0076
# 2 32.9495 74.2417 26.4828 -0.0123 -13.8022 0.0248
# 3 24.0757 26.4828 46.1481 0.1103 -5.2868 -0.0917
# 4 0.0078 -0.0123 0.1103 15.2024 -0.0516 4.6078
# 5 -7.1716 -13.8022 -5.2868 -0.0516 28.7915 0.0260
# 6 -0.0076 0.0248 -0.0917 4.6078 0.0260 8.6835
#
#
#
# Elastic Compliance Matrix: (Units=1/GPa)
#
#
# Indices 1 2 3 4 5 6 
#
# 1 0.010657 -0.003385 -0.003575 0.000030 0.000376 -0.000036
# 2 -0.003385 0.019281 -0.008516 0.000183 0.006837 -0.000265
# 3 -0.003575 -0.008516 0.028452 -0.000367 0.000250 0.000516
# 4 0.000030 0.000183 -0.000367 0.078392 0.000206 -0.041602
# 5 0.000376 0.006837 0.000250 0.000206 0.038150 -0.000240
# 6 -0.000036 -0.000265 0.000516 -0.041602 -0.000240 0.137243
#
#
# Mechanical properties :
#
#
# Convention : Reuss Voigt Hill
#
# Bulk Modulus (GPa) = 36.44534 44.44805 40.44669
# Shear Modulus (GPa) = 14.19353 20.50269 17.34811
#
# Velocity S-wave (km/s) = 2.53463 3.04631 2.80218
# Velocity P-wave (km/s) = 5.00618 5.70015 5.36440
#
# Compressibility (1/GPa) = 0.02743835
#
# Stress axis : x y z
#
# Youngs Moduli (GPa) = 93.83321 51.86516 35.14679
#
# Poissons Ratio (x) = 0.17556 0.12563
# Poissons Ratio (y) = 0.31761 0.29932
# Poissons Ratio (z) = 0.33541 0.44171
#
# Static dielectric constant tensor:
#      x y z
#    x 1.808570 0.000010 0.003990 
#    y 0.000010 1.874320 -0.000020 
#    z 0.003990 -0.000020 1.806150 
# 
# From -- ./inp_files/376643.got.cif
#   From: 2010.05.17/outbox.cif.g08.bks.cpg/sg12_189_cif.got.tgz:376643.got - 2010.06.03 13:09:07.
