data_PCOD9210635
_publ_section_title
;
Structure prediction by ZEFSAII (Michael W. Deem and Ramdas Pophale) SiO2 
 PCOD9210635
Probable space group: C 2/M
;
_chemical_formula_sum "Si O2"
_cell_formula_units_Z 28
_cell_length_a 5.171943
_cell_length_b 25.550824
_cell_length_c 9.777474
_cell_angle_alpha 90.000000
_cell_angle_beta 64.314564
_cell_angle_gamma 90.000000
_cell_volume 1164.395012
_symmetry_space_group_name_H-M "C 2/M"
_symmetry_group_IT_number 12
_symmetry_cell_setting 'monoclinic'
loop_
_space_group_symop_operation_xyz
x,y,z
-x,y,-z
-x,-y,-z
x,-y,z
1/2+x,1/2+y,z
1/2-x,1/2+y,-z
1/2-x,1/2-y,-z
1/2+x,1/2-y,z
loop_
_atom_site_type_symbol
_atom_site_label
_atom_site_fract_x
_atom_site_fract_y
_atom_site_fract_z
Si Si1 0.628802 0.279770 0.814748
Si Si2 0.679778 0.061906 0.600088
Si Si3 0.337785 0.500000 0.890889
Si Si4 0.873444 0.895947 0.180343
O O1 0.451469 0.239300 0.763943
O O2 0.595399 0.338395 0.764813
O O3 0.500000 0.279005 0.000000
O O4 0.500000 0.066458 0.500000
O O5 0.463228 0.090842 0.751411
O O6 0.000000 0.081581 0.500000
O O7 0.689053 0.000000 0.632245
O O8 0.460971 0.446573 0.796230
O O9 0.500000 0.500000 0.000000
O O10 0.000000 0.500000 0.000000
O O11 0.000000 0.891114 0.000000
#
# Coordination Sequence:
#
# PCOD9210635 Si02
#       4
#     8   8   4   8
#     4   9  19  34  55  83 115 151 194 241 291 342
#     4  10  22  39  58  84 121 160 193 233 296 363
#     4  10  22  34  52  88 120 142 181 242 299 334
#     4  10  21  39  63  90 120 155 199 250 293 346
#
# _framework density 24.046821999999999
#
# number of rings (size 3 to 8) (size 9 to 14) (size 15 to 20)
#    0.000    2.286    1.429    0.000    0.000   14.857 
#    0.000    0.000    0.000    5.143    0.000    0.000 
#    0.000    0.000    0.000    0.000    0.000    0.000 
#
# Total GULP energy -78265.618425 kJ/mol
# GULP energy per Si atom -5590.401316 kJ/mol
# Density = 2.399209 g / cm^3
# Si number density = 24.046822 Si / 1000 Ang^3
#
#
#
# Elastic Constant Matrix: (Units=GPa)
#
#
# Indices 1 2 3 4 5 6 
#
# 1 112.1634 45.9171 40.6874 0.0000 -40.8527 0.0000
# 2 45.9171 165.0966 19.2511 0.0000 -18.0605 0.0000
# 3 40.6874 19.2511 138.6718 0.0000 -42.6858 0.0000
# 4 0.0000 0.0000 0.0000 -13.0913 0.0000 -3.7283
# 5 -40.8527 -18.0605 -42.6858 0.0000 47.4034 0.0000
# 6 0.0000 0.0000 0.0000 -3.7283 0.0000 27.0410
#
#
#
# Elastic Compliance Matrix: (Units=1/GPa)
#
#
# Indices 1 2 3 4 5 6 
#
# 1 0.014080 -0.002692 -0.000468 0.000000 0.010687 0.000000
# 2 -0.002692 0.006839 -0.000099 0.000000 0.000196 0.000000
# 3 -0.000468 -0.000099 0.009998 0.000000 0.008562 0.000000
# 4 0.000000 0.000000 0.000000 -0.073501 0.000000 -0.010134
# 5 0.010687 0.000196 0.008562 0.000000 0.038091 0.000000
# 6 0.000000 0.000000 0.000000 -0.010134 0.000000 0.035584
#
#
# Mechanical properties :
#
#
# Convention : Reuss Voigt Hill
#
# Bulk Modulus (GPa) = 40.98598 69.73808 55.36203
# Shear Modulus (GPa) = 109.31009 32.94236 71.12623
#
# Velocity S-wave (km/s) = 6.74951 3.70527 5.44449
# Velocity P-wave (km/s) = 8.82170 6.88253 7.91175
#
# Compressibility (1/GPa) = 0.02439859
#
# Stress axis : x y z
#
# Youngs Moduli (GPa) = 71.02279 146.22330 100.02202
#
# Poissons Ratio (x) = 0.39368 0.04677
# Poissons Ratio (y) = 0.19121 0.00991
# Poissons Ratio (z) = 0.03321 0.01449
#
# Static dielectric constant tensor:
#      x y z
#    x 2.399990 0.000000 0.119110 
#    y 0.000000 1.917360 0.000000 
#    z 0.119110 0.000000 1.980880 
# 
# From -- ./inp_files/33982.got.cif
#   From: 2010.05.17/outbox.cif.g08.bks.cpg/sg12_17_cif.got.tgz:33982.got - 2010.06.03 13:09:07.
