data_PCOD9210249
_publ_section_title
;
Structure prediction by ZEFSAII (Michael W. Deem and Ramdas Pophale) SiO2 
 PCOD9210249
Probable space group: C 2/M
;
_chemical_formula_sum "Si O2"
_cell_formula_units_Z 56
_cell_length_a 26.126099
_cell_length_b 18.225654
_cell_length_c 9.376122
_cell_angle_alpha 90.000000
_cell_angle_beta 36.728445
_cell_angle_gamma 90.000000
_cell_volume 2669.924097
_symmetry_space_group_name_H-M "C 2/M"
_symmetry_group_IT_number 12
_symmetry_cell_setting 'monoclinic'
loop_
_space_group_symop_operation_xyz
x,y,z
-x,y,-z
-x,-y,-z
x,-y,z
1/2+x,1/2+y,z
1/2-x,1/2+y,-z
1/2-x,1/2-y,-z
1/2+x,1/2-y,z
loop_
_atom_site_type_symbol
_atom_site_label
_atom_site_fract_x
_atom_site_fract_y
_atom_site_fract_z
Si Si1 0.170701 0.081526 0.150441
Si Si2 0.598593 0.263162 0.319917
Si Si3 0.606230 0.818470 0.596526
Si Si4 0.023884 0.584387 0.277196
Si Si5 0.729510 0.583543 0.695772
Si Si6 0.202273 0.648880 0.922112
Si Si7 0.321970 0.303589 0.404001
O O1 0.109638 0.150276 0.314229
O O2 0.258243 0.104656 0.033885
O O3 0.143369 0.000000 0.258049
O O4 0.188400 0.080042 0.943389
O O5 0.500000 0.249267 0.500000
O O6 0.627008 0.222282 0.400565
O O7 0.660778 0.226675 0.062984
O O8 0.525469 0.865708 0.726846
O O9 0.680709 0.873223 0.483396
O O10 0.602527 0.751212 0.716951
O O11 0.003399 0.500000 0.295130
O O12 0.000000 0.596825 0.500000
O O13 0.123493 0.602249 0.039297
O O14 0.742665 0.500000 0.614948
O O15 0.668250 0.631527 0.730789
O O16 0.276883 0.661142 0.642665
O O17 0.250000 0.250000 0.500000
#
# Coordination Sequence:
#
# PCOD9210249 Si02
#       7
#     8   8   8   8   8   8   8
#     4  11  23  38  63  92 118 155 202 253 302 349
#     4  12  21  36  62  92 123 154 194 249 303 352
#     4  11  18  38  57  86 120 159 194 236 294 360
#     4  11  21  34  57  94 132 156 187 243 313 366
#     4  10  21  39  61  86 121 158 197 247 302 353
#     4  12  20  37  64  93 120 151 203 248 294 359
#     4  10  23  37  59  83 120 161 205 241 285 351
#
# _framework density 20.97438
#
# number of rings (size 3 to 8) (size 9 to 14) (size 15 to 20)
#    0.000    1.000    5.714    3.000    0.000    3.714 
#    0.000    2.857    0.000    4.286    0.000    2.000 
#    0.000    0.000    0.000    0.000    0.000    0.000 
#
# Total GULP energy -156292.726422 kJ/mol
# GULP energy per Si atom -5581.883086 kJ/mol
# Density = 2.092664 g / cm^3
# Si number density = 20.974380 Si / 1000 Ang^3
#
#
#
# Elastic Constant Matrix: (Units=GPa)
#
#
# Indices 1 2 3 4 5 6 
#
# 1 116.4881 60.7429 18.9408 0.0000 5.0929 0.0000
# 2 60.7429 177.0468 24.0822 0.0000 7.3594 0.0000
# 3 18.9408 24.0822 17.1557 0.0000 -3.0982 0.0000
# 4 0.0000 0.0000 0.0000 19.1881 0.0000 -2.4810
# 5 5.0929 7.3594 -3.0982 0.0000 16.5844 0.0000
# 6 0.0000 0.0000 0.0000 -2.4810 0.0000 -26.4292
#
#
#
# Elastic Compliance Matrix: (Units=1/GPa)
#
#
# Indices 1 2 3 4 5 6 
#
# 1 0.011729 -0.002433 -0.010339 0.000000 -0.004454 0.000000
# 2 -0.002433 0.007929 -0.009258 0.000000 -0.004501 0.000000
# 3 -0.010339 -0.009258 0.086948 0.000000 0.023526 0.000000
# 4 0.000000 0.000000 0.000000 0.051491 0.000000 -0.004834
# 5 -0.004454 -0.004501 0.023526 0.000000 0.068057 0.000000
# 6 0.000000 0.000000 0.000000 -0.004834 0.000000 -0.037383
#
#
# Mechanical properties :
#
#
# Convention : Reuss Voigt Hill
#
# Bulk Modulus (GPa) = 15.98776 57.58029 36.78402
# Shear Modulus (GPa) = 19.71004 15.66364 17.68684
#
# Velocity S-wave (km/s) = 3.06881 2.73573 2.90704
# Velocity P-wave (km/s) = 4.49398 6.12301 5.37062
#
# Compressibility (1/GPa) = 0.06254787
#
# Stress axis : x y z
#
# Youngs Moduli (GPa) = 85.25984 126.11686 11.50116
#
# Poissons Ratio (x) = 0.30679 0.11891
# Poissons Ratio (y) = 0.20740 0.10647
# Poissons Ratio (z) = 0.88148 1.16753
#
# Static dielectric constant tensor:
#      x y z
#    x 1.728400 0.000000 -0.043820 
#    y 0.000000 1.758740 0.000000 
#    z -0.043820 0.000000 1.672170 
# 
# From -- ./inp_files/105977.got.cif
#   From: 2010.05.17/outbox.cif.g08.bks.cpg/sg12_53_cif.got.tgz:105977.got - 2010.06.03 13:09:07.
