data_PCOD9210636
_publ_section_title
;
Structure prediction by ZEFSAII (Michael W. Deem and Ramdas Pophale) SiO2 
 PCOD9210636
Probable space group: C 2/M
;
_chemical_formula_sum "Si O2"
_cell_formula_units_Z 56
_cell_length_a 12.019172
_cell_length_b 22.852560
_cell_length_c 12.737507
_cell_angle_alpha 90.000000
_cell_angle_beta 53.248280
_cell_angle_gamma 90.000000
_cell_volume 2803.200856
_symmetry_space_group_name_H-M "C 2/M"
_symmetry_group_IT_number 12
_symmetry_cell_setting 'monoclinic'
loop_
_space_group_symop_operation_xyz
x,y,z
-x,y,-z
-x,-y,-z
x,-y,z
1/2+x,1/2+y,z
1/2-x,1/2+y,-z
1/2-x,1/2-y,-z
1/2+x,1/2-y,z
loop_
_atom_site_type_symbol
_atom_site_label
_atom_site_fract_x
_atom_site_fract_y
_atom_site_fract_z
Si Si1 0.386964 0.936198 0.471436
Si Si2 0.644164 0.803695 0.857717
Si Si3 0.333737 0.324878 0.096504
Si Si4 0.946041 0.204562 0.416553
Si Si5 0.129620 0.932380 0.768907
Si Si6 0.875212 0.319812 0.375198
Si Si7 0.631244 0.362746 0.150754
O O1 0.500000 0.933257 0.500000
O O2 0.235759 0.930092 0.611037
O O3 0.417535 0.885293 0.373832
O O4 0.395427 0.000000 0.417035
O O5 0.715141 0.739963 0.842030
O O6 0.614144 0.804050 0.751855
O O7 0.743693 0.857451 0.835972
O O8 0.500000 0.807982 0.000000
O O9 0.315995 0.381487 0.181947
O O10 0.500000 0.318319 0.000000
O O11 0.299064 0.338972 0.995592
O O12 0.958416 0.274218 0.398887
O O13 0.785245 0.187886 0.502860
O O14 0.000000 0.184723 0.500000
O O15 0.019722 0.178079 0.273263
O O16 0.970319 0.916269 0.825954
O O17 0.134851 0.000000 0.805917
#
# Coordination Sequence:
#
# PCOD9210636 Si02
#       7
#     8   8   8   8   8   8   8
#     4  10  22  39  60  86 117 154 197 245 297 352
#     4  11  23  38  57  88 121 160 198 239 305 361
#     4   9  20  35  58  86 121 156 192 242 297 354
#     4  11  21  35  58  90 118 152 197 241 299 349
#     4  10  21  39  63  90 120 155 202 249 296 353
#     4  11  22  36  60  85 119 154 194 247 292 355
#     4  11  21  38  59  85 125 158 196 246 292 358
#
# _framework density 19.977163000000001
#
# number of rings (size 3 to 8) (size 9 to 14) (size 15 to 20)
#    0.000    1.571    2.857    3.429    2.000    4.857 
#    0.000    0.714    0.000    4.286    0.000    0.000 
#    0.000    0.000    0.000    0.000    0.000    0.000 
#
# Total GULP energy -156060.810665 kJ/mol
# GULP energy per Si atom -5573.600381 kJ/mol
# Density = 1.993169 g / cm^3
# Si number density = 19.977163 Si / 1000 Ang^3
#
#
#
# Elastic Constant Matrix: (Units=GPa)
#
#
# Indices 1 2 3 4 5 6 
#
# 1 39.2792 6.9472 4.4771 0.0000 -4.5689 0.0000
# 2 6.9472 96.4344 35.4854 0.0000 6.4074 0.0000
# 3 4.4771 35.4854 64.7940 0.0000 4.3705 0.0000
# 4 0.0000 0.0000 0.0000 -122.7525 0.0000 229.9724
# 5 -4.5689 6.4074 4.3705 0.0000 33.3549 0.0000
# 6 0.0000 0.0000 0.0000 229.9724 0.0000 -357.9326
#
#
#
# Elastic Compliance Matrix: (Units=1/GPa)
#
#
# Indices 1 2 3 4 5 6 
#
# 1 0.026375 -0.001753 -0.001139 0.000000 0.004099 0.000000
# 2 -0.001753 0.013186 -0.006975 0.000000 -0.001859 0.000000
# 3 -0.001139 -0.006975 0.019424 0.000000 -0.001361 0.000000
# 4 0.000000 0.000000 0.000000 0.039992 0.000000 0.025695
# 5 0.004099 -0.001859 -0.001361 0.000000 0.031078 0.000000
# 6 0.000000 0.000000 0.000000 0.025695 0.000000 0.013715
#
#
# Mechanical properties :
#
#
# Convention : Reuss Voigt Hill
#
# Bulk Modulus (GPa) = 25.47681 32.70299 29.08990
# Shear Modulus (GPa) = 28.31442 -79.22618 -25.45588
#
# Velocity S-wave (km/s) = 3.76884 -6.30432 -3.57354
# Velocity P-wave (km/s) = 5.63201 6.04871 1.56003
#
# Compressibility (1/GPa) = 0.03925139
#
# Stress axis : x y z
#
# Youngs Moduli (GPa) = 37.91398 75.83655 51.48266
#
# Poissons Ratio (x) = 0.13298 0.05862
# Poissons Ratio (y) = 0.06648 0.35910
# Poissons Ratio (z) = 0.04317 0.52897
#
# Static dielectric constant tensor:
#      x y z
#    x 1.752450 0.000000 -0.013080 
#    y 0.000000 1.731470 0.000000 
#    z -0.013080 0.000000 1.726950 
# 
# From -- ./inp_files/135287.got.cif
#   From: 2010.05.17/outbox.cif.g08.bks.cpg/sg12_68_cif.got.tgz:135287.got - 2010.06.03 13:09:07.
