data_PCOD9210507
_publ_section_title
;
Structure prediction by ZEFSAII (Michael W. Deem and Ramdas Pophale) SiO2 
 PCOD9210507
Probable space group: C 2/M
;
_chemical_formula_sum "Si O2"
_cell_formula_units_Z 64
_cell_length_a 16.951082
_cell_length_b 16.417602
_cell_length_c 18.878152
_cell_angle_alpha 90.000000
_cell_angle_beta 38.028831
_cell_angle_gamma 90.000000
_cell_volume 3236.593611
_symmetry_space_group_name_H-M "C 2/M"
_symmetry_group_IT_number 12
_symmetry_cell_setting 'monoclinic'
loop_
_space_group_symop_operation_xyz
x,y,z
-x,y,-z
-x,-y,-z
x,-y,z
1/2+x,1/2+y,z
1/2-x,1/2+y,-z
1/2-x,1/2-y,-z
1/2+x,1/2-y,z
loop_
_atom_site_type_symbol
_atom_site_label
_atom_site_fract_x
_atom_site_fract_y
_atom_site_fract_z
Si Si1 0.792069 0.594752 0.642540
Si Si2 0.787729 0.594049 0.310403
Si Si3 0.043101 0.159164 0.746958
Si Si4 0.644617 0.305851 0.532719
Si Si5 0.009369 0.650778 0.386311
Si Si6 0.766865 0.095934 0.954185
Si Si7 0.036419 0.348112 0.203724
Si Si8 0.851385 0.400863 0.111159
O O1 0.767170 0.500000 0.673790
O O2 0.663111 0.639819 0.711465
O O3 0.864362 0.634655 0.657709
O O4 0.894030 0.602603 0.506014
O O5 0.745569 0.500000 0.341895
O O6 0.709892 0.646236 0.422690
O O7 0.786554 0.625893 0.230558
O O8 0.936328 0.599586 0.228910
O O9 0.085113 0.138564 0.636540
O O10 0.916083 0.112089 0.858389
O O11 0.008817 0.254695 0.770904
O O12 0.750000 0.250000 0.500000
O O13 0.537531 0.244251 0.579672
O O14 0.026451 0.627426 0.292703
O O15 0.724842 0.123862 0.905092
O O16 0.739648 0.000000 0.978789
O O17 0.677452 0.141195 0.073441
O O18 0.852661 0.500000 0.113088
O O19 0.000000 0.374574 0.000000
#
# Coordination Sequence:
#
# PCOD9210507 Si02
#       8
#     8   8   8   8   8   8   8   8
#     4  11  22  39  64  93 126 164 209 263 319 377
#     4  11  20  34  65  96 122 161 207 262 314 372
#     4  11  23  42  60  87 130 167 207 256 323 384
#     4  11  20  42  60  90 127 163 203 261 318 379
#     4  10  21  39  62  92 124 158 214 264 310 372
#     4  11  23  40  63  90 123 169 209 260 319 374
#     4  11  21  40  63  90 122 161 217 257 310 380
#     4   9  18  36  57  89 122 149 203 258 305 362
#
# _framework density 19.773875
#
# number of rings (size 3 to 8) (size 9 to 14) (size 15 to 20)
#    0.000    1.375    5.000    1.875    0.000    4.000 
#   13.500    0.625    0.000    3.750    0.000    0.000 
#    0.000    0.000    0.000    0.000    0.000    0.000 
#
# Total GULP energy -178833.082273 kJ/mol
# GULP energy per Si atom -5588.533821 kJ/mol
# Density = 1.972887 g / cm^3
# Si number density = 19.773875 Si / 1000 Ang^3
#
#
#
# Elastic Constant Matrix: (Units=GPa)
#
#
# Indices 1 2 3 4 5 6 
#
# 1 115.4217 32.0827 45.3668 0.0000 -4.8635 0.0000
# 2 32.0827 46.2817 17.1921 0.0001 3.0700 0.0000
# 3 45.3668 17.1921 99.0910 0.0002 0.0278 -0.0001
# 4 0.0000 0.0001 0.0002 26.9405 0.0000 -1.2992
# 5 -4.8635 3.0700 0.0278 0.0000 33.2861 0.0000
# 6 0.0000 0.0000 -0.0001 -1.2992 0.0000 20.7676
#
#
#
# Elastic Compliance Matrix: (Units=1/GPa)
#
#
# Indices 1 2 3 4 5 6 
#
# 1 0.012531 -0.007184 -0.004492 0.000000 0.002497 0.000000
# 2 -0.007184 0.027365 -0.001458 0.000000 -0.003572 0.000000
# 3 -0.004492 -0.001458 0.012401 0.000000 -0.000532 0.000000
# 4 0.000000 0.000000 0.000000 0.037231 0.000000 0.002329
# 5 0.002497 -0.003572 -0.000532 0.000000 0.030737 0.000000
# 6 0.000000 0.000000 0.000000 0.002329 0.000000 0.048298
#
#
# Mechanical properties :
#
#
# Convention : Reuss Voigt Hill
#
# Bulk Modulus (GPa) = 38.41547 50.00865 44.21206
# Shear Modulus (GPa) = 24.56908 27.27568 25.92238
#
# Velocity S-wave (km/s) = 3.52874 3.71803 3.62462
# Velocity P-wave (km/s) = 6.00602 6.61641 6.31859
#
# Compressibility (1/GPa) = 0.02603118
#
# Stress axis : x y z
#
# Youngs Moduli (GPa) = 79.79957 36.54265 80.63766
#
# Poissons Ratio (x) = 0.26252 0.36219
# Poissons Ratio (y) = 0.57328 0.11755
# Poissons Ratio (z) = 0.35842 0.05327
#
# Static dielectric constant tensor:
#      x y z
#    x 1.689020 0.000000 0.003920 
#    y 0.000000 1.707940 0.000000 
#    z 0.003920 0.000000 1.700940 
# 
# From -- ./inp_files/271717.got.cif
#   From: 2010.05.17/outbox.cif.g08.bks.cpg/sg12_136_cif.got.tgz:271717.got - 2010.06.03 13:09:07.
