data_PCOD9210703
_publ_section_title
;
Structure prediction by ZEFSAII (Michael W. Deem and Ramdas Pophale) SiO2 
 PCOD9210703
Probable space group: C 2/M
;
_chemical_formula_sum "Si O2"
_cell_formula_units_Z 56
_cell_length_a 22.537882
_cell_length_b 29.609667
_cell_length_c 9.772341
_cell_angle_alpha 90.000000
_cell_angle_beta 26.766866
_cell_angle_gamma 90.000000
_cell_volume 2937.015827
_symmetry_space_group_name_H-M "C 2/M"
_symmetry_group_IT_number 12
_symmetry_cell_setting 'monoclinic'
loop_
_space_group_symop_operation_xyz
x,y,z
-x,y,-z
-x,-y,-z
x,-y,z
1/2+x,1/2+y,z
1/2-x,1/2+y,-z
1/2-x,1/2-y,-z
1/2+x,1/2-y,z
loop_
_atom_site_type_symbol
_atom_site_label
_atom_site_fract_x
_atom_site_fract_y
_atom_site_fract_z
Si Si1 0.348025 0.188284 0.326088
Si Si2 0.714737 0.238747 0.798531
Si Si3 0.750814 0.947799 0.650735
Si Si4 0.007752 0.120890 0.825005
Si Si5 0.215970 0.589937 0.430263
Si Si6 0.009343 0.554287 0.638915
Si Si7 0.533406 0.291000 0.585864
O O1 0.292101 0.195959 0.289314
O O2 0.271505 0.220955 0.587135
O O3 0.334933 0.138002 0.408107
O O4 0.500000 0.202162 0.000000
O O5 0.820594 0.228633 0.696646
O O6 0.573406 0.254342 0.142847
O O7 0.710350 0.942387 0.574511
O O8 0.871719 0.914186 0.430757
O O9 0.787252 0.000000 0.601002
O O10 0.626248 0.935875 0.001699
O O11 0.021984 0.164425 0.701618
O O12 0.869253 0.096542 0.077475
O O13 0.000000 0.135858 0.000000
O O14 0.127680 0.574739 0.484943
O O15 0.026088 0.500000 0.603251
O O16 0.000000 0.569628 0.500000
O O17 0.500000 0.302436 0.500000
#
# Coordination Sequence:
#
# PCOD9210703 Si02
#       7
#     8   8   8   8   8   8   8
#     4  11  21  36  65  91 117 152 204 251 302 357
#     4  11  23  40  62  88 117 160 201 249 301 365
#     4  10  21  39  63  92 125 159 200 252 307 355
#     4  10  23  40  63  93 123 156 203 252 307 365
#     4  11  21  37  63  93 121 155 205 257 301 354
#     4  10  22  40  61  87 124 168 207 243 295 365
#     4  12  25  43  62  89 126 162 203 253 306 362
#
# _framework density 19.066973000000001
#
# number of rings (size 3 to 8) (size 9 to 14) (size 15 to 20)
#    0.000    1.286    2.857    3.857    2.000    5.429 
#    0.000    0.714    0.000    3.000    0.000    0.000 
#    0.000    0.000    0.000    0.000    0.000    0.000 
#
# Total GULP energy -156480.110058 kJ/mol
# GULP energy per Si atom -5588.575359 kJ/mol
# Density = 1.902358 g / cm^3
# Si number density = 19.066973 Si / 1000 Ang^3
#
#
#
# Elastic Constant Matrix: (Units=GPa)
#
#
# Indices 1 2 3 4 5 6 
#
# 1 168.6991 54.3791 66.5526 -0.0011 -8.0788 0.0000
# 2 54.3791 58.2027 25.5213 0.0001 6.2636 -0.0001
# 3 66.5526 25.5213 66.8122 -0.0015 -5.0906 0.0000
# 4 -0.0011 0.0001 -0.0015 21.3234 0.0008 -2.4155
# 5 -8.0788 6.2636 -5.0906 0.0008 17.8932 0.0000
# 6 0.0000 -0.0001 0.0000 -2.4155 0.0000 22.7871
#
#
#
# Elastic Compliance Matrix: (Units=1/GPa)
#
#
# Indices 1 2 3 4 5 6 
#
# 1 0.012313 -0.008383 -0.008602 0.000000 0.006046 0.000000
# 2 -0.008383 0.028126 -0.003508 0.000000 -0.014629 0.000000
# 3 -0.008602 -0.003508 0.025221 0.000001 0.004519 0.000000
# 4 0.000000 0.000000 0.000001 0.047467 -0.000002 0.005032
# 5 0.006046 -0.014629 0.004519 -0.000002 0.065024 0.000000
# 6 0.000000 0.000000 0.000000 0.005032 0.000000 0.044418
#
#
# Mechanical properties :
#
#
# Convention : Reuss Voigt Hill
#
# Bulk Modulus (GPa) = 40.52988 65.17999 52.85494
# Shear Modulus (GPa) = 18.39729 22.21815 20.30772
#
# Velocity S-wave (km/s) = 3.10962 3.41731 3.26709
# Velocity P-wave (km/s) = 5.84771 7.05901 6.48172
#
# Compressibility (1/GPa) = 0.02467315
#
# Stress axis : x y z
#
# Youngs Moduli (GPa) = 81.21390 35.55428 39.64989
#
# Poissons Ratio (x) = 0.29805 0.34109
# Poissons Ratio (y) = 0.68080 0.13909
# Poissons Ratio (z) = 0.69864 0.12473
#
# Static dielectric constant tensor:
#      x y z
#    x 1.658290 0.000000 -0.017390 
#    y 0.000000 1.651660 0.000000 
#    z -0.017390 0.000000 1.660030 
# 
# From -- ./inp_files/91530.got.cif
#   From: 2010.05.17/outbox.cif.g08.bks.cpg/sg12_46_cif.got.tgz:91530.got - 2010.06.03 13:09:07.
