data_PCOD9210224
_publ_section_title
;
Structure prediction by ZEFSAII (Michael W. Deem and Ramdas Pophale) SiO2 
 PCOD9210224
Probable space group: C 2/M
;
_chemical_formula_sum "Si O2"
_cell_formula_units_Z 48
_cell_length_a 20.671832
_cell_length_b 14.341768
_cell_length_c 11.615364
_cell_angle_alpha 90.000000
_cell_angle_beta 39.960809
_cell_angle_gamma 90.000000
_cell_volume 2211.707594
_symmetry_space_group_name_H-M "C 2/M"
_symmetry_group_IT_number 12
_symmetry_cell_setting 'monoclinic'
loop_
_space_group_symop_operation_xyz
x,y,z
-x,y,-z
-x,-y,-z
x,-y,z
1/2+x,1/2+y,z
1/2-x,1/2+y,-z
1/2-x,1/2-y,-z
1/2+x,1/2-y,z
loop_
_atom_site_type_symbol
_atom_site_label
_atom_site_fract_x
_atom_site_fract_y
_atom_site_fract_z
Si Si1 0.196737 0.612360 0.001306
Si Si2 0.114051 0.612131 0.355652
Si Si3 0.797422 0.103350 0.255176
Si Si4 0.216904 0.157510 0.477525
Si Si5 0.895164 0.699450 0.080045
Si Si6 0.106172 0.887925 0.412400
O O1 0.187731 0.500000 0.007590
O O2 0.111802 0.659603 0.038313
O O3 0.303955 0.637488 0.798385
O O4 0.180083 0.641153 0.155320
O O5 0.105277 0.500000 0.362763
O O6 0.182969 0.629402 0.373192
O O7 0.000000 0.648760 0.500000
O O8 0.806236 0.095779 0.380650
O O9 0.863400 0.191352 0.124939
O O10 0.820765 0.000000 0.173479
O O11 0.250000 0.250000 0.500000
O O12 0.313180 0.139461 0.264990
O O13 0.127155 0.158713 0.507538
O O14 0.000000 0.689882 0.000000
O O15 0.000000 0.866383 0.500000
O O16 0.111366 0.000000 0.424040
#
# Coordination Sequence:
#
# PCOD9210224 Si02
#       6
#     8   8   8   8   8   8
#     4   9  19  37  59  89 125 155 199 258 305 363
#     4   9  19  36  59  88 119 158 207 250 302 370
#     4  10  21  39  61  85 121 164 202 249 306 367
#     4   9  19  37  56  82 119 152 199 249 292 363
#     4  10  22  38  58  88 122 155 203 253 303 366
#     4   9  17  33  59  88 117 154 198 249 309 364
#
# _framework density 21.702687000000001
#
# number of rings (size 3 to 8) (size 9 to 14) (size 15 to 20)
#    0.000    2.667    0.000    0.500    2.333    2.000 
#    6.000    7.500    0.000    0.000    0.000    0.000 
#    0.000    0.667    0.000    0.000    0.000    0.000 
#
# Total GULP energy -133825.084895 kJ/mol
# GULP energy per Si atom -5576.045204 kJ/mol
# Density = 2.165329 g / cm^3
# Si number density = 21.702687 Si / 1000 Ang^3
#
#
#
# Elastic Constant Matrix: (Units=GPa)
#
#
# Indices 1 2 3 4 5 6 
#
# 1 186.7189 18.8155 53.6092 0.0000 -9.2019 0.0000
# 2 18.8155 91.1931 1.5444 0.0000 7.7461 0.0000
# 3 53.6092 1.5444 43.7090 0.0000 2.6895 0.0000
# 4 0.0000 0.0000 0.0000 1.5531 0.0000 -6.1591
# 5 -9.2019 7.7461 2.6895 0.0000 36.2038 0.0000
# 6 0.0000 0.0000 0.0000 -6.1591 0.0000 21.9066
#
#
#
# Elastic Compliance Matrix: (Units=1/GPa)
#
#
# Indices 1 2 3 4 5 6 
#
# 1 0.008901 -0.001946 -0.011063 0.000000 0.003501 0.000000
# 2 -0.001946 0.011597 0.002171 0.000000 -0.003137 0.000000
# 3 -0.011063 0.002171 0.036741 0.000000 -0.006006 0.000000
# 4 0.000000 0.000000 0.000000 -5.600684 0.000000 -1.574650
# 5 0.003501 -0.003137 -0.006006 0.000000 0.029629 0.000000
# 6 0.000000 0.000000 0.000000 -1.574650 0.000000 -0.397069
#
#
# Mechanical properties :
#
#
# Convention : Reuss Voigt Hill
#
# Bulk Modulus (GPa) = 28.12150 52.17323 40.14737
# Shear Modulus (GPa) = -0.85072 28.44282 13.79605
#
# Velocity S-wave (km/s) = -0.62677 3.62410 2.52401
# Velocity P-wave (km/s) = 3.53015 6.45014 5.19934
#
# Compressibility (1/GPa) = 0.03555998
#
# Stress axis : x y z
#
# Youngs Moduli (GPa) = 112.35040 86.22872 27.21782
#
# Poissons Ratio (x) = 0.16784 0.30112
# Poissons Ratio (y) = 0.21868 -0.05908
# Poissons Ratio (z) = 1.24297 -0.18717
#
# Static dielectric constant tensor:
#      x y z
#    x 1.827340 0.000000 0.031550 
#    y 0.000000 1.869680 0.000000 
#    z 0.031550 0.000000 1.807090 
# 
# From -- ./inp_files/167529.got.cif
#   From: 2010.05.17/outbox.cif.g08.bks.cpg/sg12_84_cif.got.tgz:167529.got - 2010.06.03 13:09:07.
