data_PCOD9210142
_publ_section_title
;
Structure prediction by ZEFSAII (Michael W. Deem and Ramdas Pophale) SiO2 
 PCOD9210142
Probable space group: C 2/M
;
_chemical_formula_sum "Si O2"
_cell_formula_units_Z 60
_cell_length_a 14.233394
_cell_length_b 19.620210
_cell_length_c 18.532973
_cell_angle_alpha 90.000000
_cell_angle_beta 145.689254
_cell_angle_gamma 90.000000
_cell_volume 2917.363828
_symmetry_space_group_name_H-M "C 2/M"
_symmetry_group_IT_number 12
_symmetry_cell_setting 'monoclinic'
loop_
_space_group_symop_operation_xyz
x,y,z
-x,y,-z
-x,-y,-z
x,-y,z
1/2+x,1/2+y,z
1/2-x,1/2+y,-z
1/2-x,1/2-y,-z
1/2+x,1/2-y,z
loop_
_atom_site_type_symbol
_atom_site_label
_atom_site_fract_x
_atom_site_fract_y
_atom_site_fract_z
Si Si1 0.000000 0.324619 0.000000
Si Si2 0.557357 0.160628 0.265426
Si Si3 0.834624 0.582736 0.016764
Si Si4 0.264763 0.748436 0.743765
Si Si5 0.571963 0.772886 0.417822
Si Si6 0.322187 0.880927 0.394818
Si Si7 0.998375 0.922974 0.266570
Si Si8 0.398712 0.417808 0.509803
O O1 0.934719 0.377345 0.018378
O O2 0.864263 0.275653 0.876318
O O3 0.637459 0.215709 0.260615
O O4 0.488700 0.196570 0.293285
O O5 0.715968 0.114448 0.387213
O O6 0.414764 0.114892 0.138965
O O7 0.853741 0.500000 0.029045
O O8 0.645551 0.604462 0.877136
O O9 0.245764 0.667526 0.713412
O O10 0.071166 0.769704 0.632282
O O11 0.750000 0.750000 0.500000
O O12 0.625614 0.827026 0.511058
O O13 0.500000 0.918699 0.500000
O O14 0.170131 0.921415 0.332167
O O15 0.024846 0.894547 0.364130
O O16 0.943056 0.000000 0.245204
O O17 0.500000 0.403951 0.500000
O O18 0.383664 0.500000 0.504461
#
# Coordination Sequence:
#
# PCOD9210142 Si02
#       8
#     4   8   8   8   8   8   8   8
#     4  10  23  38  60  84 123 168 202 238 298 370
#     4  11  22  37  62  86 118 165 197 243 305 364
#     4  10  23  40  59  88 126 163 203 246 299 361
#     4  10  24  38  55  89 118 157 203 243 300 364
#     4  11  22  36  58  86 120 155 199 255 302 350
#     4  10  21  39  60  87 121 154 201 261 306 349
#     4  10  22  40  62  88 118 160 204 252 306 359
#     4  10  22  35  55  87 119 152 201 253 298 358
#
# _framework density 20.566513
#
# number of rings (size 3 to 8) (size 9 to 14) (size 15 to 20)
#    0.000    1.733    2.667    0.600    7.467    1.333 
#    0.000    2.667    0.000    0.000    0.000    7.933 
#    0.000    0.000    0.000    0.000    0.000    0.000 
#
# Total GULP energy -167081.750317 kJ/mol
# GULP energy per Si atom -5569.391677 kJ/mol
# Density = 2.051970 g / cm^3
# Si number density = 20.566513 Si / 1000 Ang^3
#
#
#
# Elastic Constant Matrix: (Units=GPa)
#
#
# Indices 1 2 3 4 5 6 
#
# 1 67.2011 9.4195 23.6048 0.0002 -3.9010 0.0000
# 2 9.4195 45.3403 20.2216 0.0006 -9.7709 0.0000
# 3 23.6048 20.2216 130.6453 0.0016 -10.3089 0.0001
# 4 0.0002 0.0006 0.0016 7.1477 0.0006 3.9851
# 5 -3.9010 -9.7709 -10.3089 0.0006 35.0621 0.0000
# 6 0.0000 0.0000 0.0001 3.9851 0.0000 25.0461
#
#
#
# Elastic Compliance Matrix: (Units=1/GPa)
#
#
# Indices 1 2 3 4 5 6 
#
# 1 0.016097 -0.002111 -0.002546 0.000000 0.000454 0.000000
# 2 -0.002111 0.025116 -0.003043 -0.000002 0.005870 0.000000
# 3 -0.002546 -0.003043 0.008698 -0.000002 0.001426 0.000000
# 4 0.000000 -0.000002 -0.000002 0.153524 -0.000004 -0.024427
# 5 0.000454 0.005870 0.001426 -0.000004 0.030626 0.000001
# 6 0.000000 0.000000 0.000000 -0.024427 0.000001 0.043813
#
#
# Mechanical properties :
#
#
# Convention : Reuss Voigt Hill
#
# Bulk Modulus (GPa) = 28.97575 38.85318 33.91447
# Shear Modulus (GPa) = 16.40541 26.11391 21.25966
#
# Velocity S-wave (km/s) = 2.82738 3.56719 3.21861
# Velocity P-wave (km/s) = 4.97777 5.99157 5.50805
#
# Compressibility (1/GPa) = 0.03451161
#
# Stress axis : x y z
#
# Youngs Moduli (GPa) = 62.12262 39.81521 114.97128
#
# Poissons Ratio (x) = 0.08405 0.29270
# Poissons Ratio (y) = 0.13113 0.34985
# Poissons Ratio (z) = 0.15816 0.12116
#
# Static dielectric constant tensor:
#      x y z
#    x 1.765870 0.000000 0.015530 
#    y 0.000000 1.779690 0.000000 
#    z 0.015530 0.000000 1.776110 
# 
# From -- ./inp_files/312162.got.cif
#   From: 2010.05.17/outbox.cif.g08.bks.cpg/sg12_157_cif.got.tgz:312162.got - 2010.06.03 13:09:07.
