data_PCOD9210801
_publ_section_title
;
Structure prediction by ZEFSAII (Michael W. Deem and Ramdas Pophale) SiO2 
 PCOD9210801
Probable space group: C 2/M
;
_chemical_formula_sum "Si O2"
_cell_formula_units_Z 48
_cell_length_a 10.447688
_cell_length_b 28.289071
_cell_length_c 7.541259
_cell_angle_alpha 90.000000
_cell_angle_beta 98.927581
_cell_angle_gamma 90.000000
_cell_volume 2201.857709
_symmetry_space_group_name_H-M "C 2/M"
_symmetry_group_IT_number 12
_symmetry_cell_setting 'monoclinic'
loop_
_space_group_symop_operation_xyz
x,y,z
-x,y,-z
-x,-y,-z
x,-y,z
1/2+x,1/2+y,z
1/2-x,1/2+y,-z
1/2-x,1/2-y,-z
1/2+x,1/2-y,z
loop_
_atom_site_type_symbol
_atom_site_label
_atom_site_fract_x
_atom_site_fract_y
_atom_site_fract_z
Si Si1 0.539419 0.142952 0.216211
Si Si2 0.195808 0.000000 0.352586
Si Si3 0.111001 0.742828 0.377917
Si Si4 0.213340 0.899392 0.826513
Si Si5 0.529035 0.657743 0.214699
Si Si6 0.403264 0.500000 0.260024
Si Si7 0.722539 0.898098 0.744135
O O1 0.599703 0.194015 0.269958
O O2 0.656428 0.105678 0.259472
O O3 0.414486 0.128581 0.305950
O O4 0.500000 0.143302 0.000000
O O5 0.272349 0.952577 0.315160
O O6 0.144197 0.000000 0.544012
O O7 0.053444 0.000000 0.233441
O O8 0.250000 0.750000 0.500000
O O9 0.070405 0.788553 0.255690
O O10 0.000000 0.739693 0.500000
O O11 0.105219 0.862182 0.735217
O O12 0.154270 0.951111 0.817028
O O13 0.252259 0.892054 0.039567
O O14 0.650357 0.626936 0.308104
O O15 0.500000 0.651173 0.000000
#
# Coordination Sequence:
#
# PCOD9210801 Si02
#       7
#     8   4   8   8   8   4   8
#     4  10  23  43  63  89 124 164 205 253 305 361
#     4  11  23  38  59  92 126 162 194 246 313 367
#     4  12  25  40  61  92 125 163 200 252 311 366
#     4  10  21  39  64  90 117 159 207 255 296 353
#     4  10  21  39  64  89 116 161 211 254 297 357
#     4  11  23  38  59  92 126 158 198 249 307 367
#     4  10  21  39  65  89 119 158 209 253 298 354
#
# _framework density 21.799775
#
# number of rings (size 3 to 8) (size 9 to 14) (size 15 to 20)
#    0.000    1.500    1.667    3.000    0.000    5.333 
#    0.000   10.000    0.000    0.000    0.000    0.000 
#    0.000    0.000    0.000    0.000    0.000    0.000 
#
# Total GULP energy -134010.894465 kJ/mol
# GULP energy per Si atom -5583.787269 kJ/mol
# Density = 2.175016 g / cm^3
# Si number density = 21.799775 Si / 1000 Ang^3
#
#
#
# Elastic Constant Matrix: (Units=GPa)
#
#
# Indices 1 2 3 4 5 6 
#
# 1 148.2346 52.1635 35.5335 0.0000 16.4561 0.0000
# 2 52.1635 125.6302 -2.7410 0.0000 23.2074 0.0000
# 3 35.5335 -2.7410 31.4058 0.0000 4.2714 0.0000
# 4 0.0000 0.0000 0.0000 24.8023 0.0000 -8.9699
# 5 16.4561 23.2074 4.2714 0.0000 24.2863 0.0000
# 6 0.0000 0.0000 0.0000 -8.9699 0.0000 41.1543
#
#
#
# Elastic Compliance Matrix: (Units=1/GPa)
#
#
# Indices 1 2 3 4 5 6 
#
# 1 0.011962 -0.005129 -0.013878 0.000000 -0.000764 0.000000
# 2 -0.005129 0.012009 0.008134 0.000000 -0.009431 0.000000
# 3 -0.013878 0.008134 0.049209 0.000000 -0.007023 0.000000
# 4 0.000000 0.000000 0.000000 0.043769 0.000000 0.009540
# 5 -0.000764 -0.009431 -0.007023 0.000000 0.051940 0.000000
# 6 0.000000 0.000000 0.000000 0.009540 0.000000 0.026378
#
#
# Mechanical properties :
#
#
# Convention : Reuss Voigt Hill
#
# Bulk Modulus (GPa) = 19.44272 52.79808 36.12040
# Shear Modulus (GPa) = 21.35300 32.73622 27.04461
#
# Velocity S-wave (km/s) = 3.13310 3.87935 3.52602
# Velocity P-wave (km/s) = 4.69325 6.65868 5.76040
#
# Compressibility (1/GPa) = 0.05143312
#
# Stress axis : x y z
#
# Youngs Moduli (GPa) = 83.59485 83.27105 20.32153
#
# Poissons Ratio (x) = 0.42707 0.28203
# Poissons Ratio (y) = 0.42873 -0.16529
# Poissons Ratio (z) = 1.16017 -0.67729
#
# Static dielectric constant tensor:
#      x y z
#    x 1.810050 0.000000 0.019780 
#    y 0.000000 1.853400 0.000000 
#    z 0.019780 0.000000 1.841490 
# 
# From -- ./inp_files/42254.got.cif
#   From: 2010.05.17/outbox.cif.g08.bks.cpg/sg12_22_cif.got.tgz:42254.got - 2010.06.03 13:09:07.
