data_PCOD9210389
_publ_section_title
;
Structure prediction by ZEFSAII (Michael W. Deem and Ramdas Pophale) SiO2 
 PCOD9210389
Probable space group: C 2/M
;
_chemical_formula_sum "Si O2"
_cell_formula_units_Z 64
_cell_length_a 15.124830
_cell_length_b 8.711729
_cell_length_c 26.587287
_cell_angle_alpha 90.000000
_cell_angle_beta 90.024219
_cell_angle_gamma 90.000000
_cell_volume 3503.231554
_symmetry_space_group_name_H-M "C 2/M"
_symmetry_group_IT_number 12
_symmetry_cell_setting 'monoclinic'
loop_
_space_group_symop_operation_xyz
x,y,z
-x,y,-z
-x,-y,-z
x,-y,z
1/2+x,1/2+y,z
1/2-x,1/2+y,-z
1/2-x,1/2-y,-z
1/2+x,1/2-y,z
loop_
_atom_site_type_symbol
_atom_site_label
_atom_site_fract_x
_atom_site_fract_y
_atom_site_fract_z
Si Si1 0.092121 0.316673 0.368520
Si Si2 0.349583 0.315178 0.999938
Si Si3 0.243922 0.315450 0.444385
Si Si4 0.099264 0.184359 0.630857
Si Si5 0.002428 0.682036 0.809025
Si Si6 0.840965 0.817232 0.254658
Si Si7 0.499980 0.314273 0.920498
Si Si8 0.149410 0.817470 0.261235
O O1 0.100613 0.500000 0.361553
O O2 0.155891 0.269294 0.414135
O O3 0.121992 0.236165 0.317045
O O4 0.991941 0.269906 0.378777
O O5 0.342872 0.500000 0.999969
O O6 0.411767 0.272099 0.952268
O O7 0.250000 0.250000 0.000000
O O8 0.411978 0.271940 0.047531
O O9 0.244123 0.500000 0.447433
O O10 0.250000 0.250000 0.500000
O O11 0.326397 0.270359 0.409231
O O12 0.131615 0.217328 0.687603
O O13 0.086066 0.000000 0.627727
O O14 0.990491 0.500000 0.805851
O O15 0.093897 0.730786 0.782869
O O16 0.000363 0.737759 0.866325
O O17 0.926219 0.765168 0.777089
O O18 0.741026 0.763718 0.247639
O O19 0.849322 0.000000 0.247434
O O20 0.500094 0.500000 0.915865
O O21 0.159240 0.000000 0.260253
#
# Coordination Sequence:
#
# PCOD9210389 Si02
#       8
#     8   8   8   8   8   8   8   8
#     4  11  22  39  62  88 119 153 197 247 296 358
#     4   9  19  37  64  90 118 159 206 251 302 358
#     4  10  23  42  61  86 120 154 194 247 301 357
#     4  10  21  39  62  87 117 154 195 241 299 359
#     4  12  25  40  60  91 127 163 205 253 306 362
#     4  11  22  40  63  88 120 158 201 249 302 361
#     4   9  20  40  60  85 123 165 202 247 305 361
#     4  12  24  39  61  89 120 160 204 247 301 363
#
# _framework density 18.268847000000001
#
# number of rings (size 3 to 8) (size 9 to 14) (size 15 to 20)
#    0.000    1.500    2.500    3.750    0.000    4.500 
#    0.000    6.250    0.000    0.000    0.000    0.000 
#    0.000    0.000    0.000    0.000    0.000    0.000 
#
# Total GULP energy -178812.723685 kJ/mol
# GULP energy per Si atom -5587.897615 kJ/mol
# Density = 1.822727 g / cm^3
# Si number density = 18.268847 Si / 1000 Ang^3
#
#
#
# Elastic Constant Matrix: (Units=GPa)
#
#
# Indices 1 2 3 4 5 6 
#
# 1 101.6028 -7.9291 31.5434 0.0000 4.2406 0.0000
# 2 -7.9291 20.1254 9.4819 0.0000 -0.8645 0.0000
# 3 31.5434 9.4819 129.1847 0.0000 3.8746 0.0000
# 4 0.0000 0.0000 0.0000 32.1439 0.0000 -0.2790
# 5 4.2406 -0.8645 3.8746 0.0000 22.1415 0.0000
# 6 0.0000 0.0000 0.0000 -0.2790 0.0000 37.4638
#
#
#
# Elastic Compliance Matrix: (Units=1/GPa)
#
#
# Indices 1 2 3 4 5 6 
#
# 1 0.011342 0.005898 -0.003161 0.000000 -0.001389 0.000000
# 2 0.005898 0.054694 -0.005514 0.000000 0.001971 0.000000
# 3 -0.003161 -0.005514 0.008953 0.000000 -0.001177 0.000000
# 4 0.000000 0.000000 0.000000 0.031112 0.000000 0.000232
# 5 -0.001389 0.001971 -0.001177 0.000000 0.045713 0.000000
# 6 0.000000 0.000000 0.000000 0.000232 0.000000 0.026694
#
#
# Mechanical properties :
#
#
# Convention : Reuss Voigt Hill
#
# Bulk Modulus (GPa) = 14.40175 35.23392 24.81784
# Shear Modulus (GPa) = 24.13057 32.87097 28.50077
#
# Velocity S-wave (km/s) = 3.63831 4.24641 3.95406
# Velocity P-wave (km/s) = 5.05470 6.58565 5.87030
#
# Compressibility (1/GPa) = 0.06943599
#
# Stress axis : x y z
#
# Youngs Moduli (GPa) = 88.17011 18.28338 111.69989
#
# Poissons Ratio (x) = -0.10783 0.35304
# Poissons Ratio (y) = -0.52002 0.61588
# Poissons Ratio (z) = 0.27867 0.10081
#
# Static dielectric constant tensor:
#      x y z
#    x 1.608540 0.000000 0.001300 
#    y 0.000000 1.613090 0.000000 
#    z 0.001300 0.000000 1.600860 
# 
# From -- ./inp_files/338749.got.cif
#   From: 2010.05.17/outbox.cif.g08.bks.cpg/sg12_170_cif.got.tgz:338749.got - 2010.06.03 13:09:07.
