data_PCOD9210092
_publ_section_title
;
Structure prediction by ZEFSAII (Michael W. Deem and Ramdas Pophale) SiO2 
 PCOD9210092
Probable space group: C 2/M
;
_chemical_formula_sum "Si O2"
_cell_formula_units_Z 48
_cell_length_a 23.814276
_cell_length_b 7.674193
_cell_length_c 12.195869
_cell_angle_alpha 90.000000
_cell_angle_beta 68.352492
_cell_angle_gamma 90.000000
_cell_volume 2071.660861
_symmetry_space_group_name_H-M "C 2/M"
_symmetry_group_IT_number 12
_symmetry_cell_setting 'monoclinic'
loop_
_space_group_symop_operation_xyz
x,y,z
-x,y,-z
-x,-y,-z
x,-y,z
1/2+x,1/2+y,z
1/2-x,1/2+y,-z
1/2-x,1/2-y,-z
1/2+x,1/2-y,z
loop_
_atom_site_type_symbol
_atom_site_label
_atom_site_fract_x
_atom_site_fract_y
_atom_site_fract_z
Si Si1 0.694129 0.786555 0.772989
Si Si2 0.502665 0.298344 0.874064
Si Si3 0.178373 0.789818 0.230007
Si Si4 0.869897 0.706508 0.958944
Si Si5 0.433445 0.699748 0.556847
Si Si6 0.110222 0.299726 0.643195
O O1 0.762112 0.729116 0.749190
O O2 0.664094 0.729984 0.680983
O O3 0.692967 0.000000 0.772923
O O4 0.653372 0.730806 0.906132
O O5 0.521686 0.500000 0.866218
O O6 0.434165 0.288307 0.881726
O O7 0.550553 0.205717 0.762439
O O8 0.500000 0.226623 0.000000
O O9 0.177562 0.744519 0.102719
O O10 0.116430 0.720009 0.327363
O O11 0.177965 0.000000 0.239857
O O12 0.878680 0.500000 0.960069
O O13 0.500000 0.781728 0.500000
O O14 0.443100 0.500000 0.588021
O O15 0.404195 0.700395 0.457522
O O16 0.123101 0.500000 0.604481
#
# Coordination Sequence:
#
# PCOD9210092 Si02
#       6
#     8   8   8   8   8   8
#     4   9  20  37  57  85 120 157 192 239 298 347
#     4  11  22  36  57  86 117 150 191 234 286 351
#     4  10  21  39  60  82 117 162 202 239 288 346
#     4  11  21  36  59  87 121 154 194 244 294 345
#     4  10  22  40  60  83 115 153 197 247 295 345
#     4  11  22  38  61  87 119 153 193 243 295 348
#
# _framework density 23.169815
#
# number of rings (size 3 to 8) (size 9 to 14) (size 15 to 20)
#    0.000    1.667    1.667    3.000    0.000    3.667 
#    0.000    2.500    0.000    0.000    0.000    0.000 
#    0.000    0.000    0.000    0.000    0.000    0.000 
#
# Total GULP energy -134223.988384 kJ/mol
# GULP energy per Si atom -5592.666183 kJ/mol
# Density = 2.311708 g / cm^3
# Si number density = 23.169815 Si / 1000 Ang^3
#
#
#
# Elastic Constant Matrix: (Units=GPa)
#
#
# Indices 1 2 3 4 5 6 
#
# 1 123.5530 -1.0119 10.2468 0.0000 18.4823 0.0000
# 2 -1.0119 52.5790 -5.9246 0.0000 -7.0404 0.0000
# 3 10.2468 -5.9246 54.6782 0.0000 19.4570 0.0000
# 4 0.0000 0.0000 0.0000 3.1345 0.0000 19.2939
# 5 18.4823 -7.0404 19.4570 0.0000 32.2068 0.0000
# 6 0.0000 0.0000 0.0000 19.2939 0.0000 -40.1335
#
#
#
# Elastic Compliance Matrix: (Units=1/GPa)
#
#
# Indices 1 2 3 4 5 6 
#
# 1 0.008869 -0.000521 0.000170 0.000000 -0.005306 0.000000
# 2 -0.000521 0.019648 0.000754 0.000000 0.004138 0.000000
# 3 0.000170 0.000754 0.023330 0.000000 -0.014027 0.000000
# 4 0.000000 0.000000 0.000000 0.080580 0.000000 0.038739
# 5 -0.005306 0.004138 -0.014027 0.000000 0.043473 0.000000
# 6 0.000000 0.000000 0.000000 0.038739 0.000000 -0.006294
#
#
# Mechanical properties :
#
#
# Convention : Reuss Voigt Hill
#
# Bulk Modulus (GPa) = 18.99232 26.38121 22.68677
# Shear Modulus (GPa) = 26.83087 14.20823 20.51955
#
# Velocity S-wave (km/s) = 3.40665 2.47902 2.97916
# Velocity P-wave (km/s) = 4.86708 4.42773 4.65259
#
# Compressibility (1/GPa) = 0.05265285
#
# Stress axis : x y z
#
# Youngs Moduli (GPa) = 112.75136 50.89555 42.86301
#
# Poissons Ratio (x) = 0.02650 -0.00727
# Poissons Ratio (y) = 0.05871 -0.03231
# Poissons Ratio (z) = -0.01912 -0.03837
#
# Static dielectric constant tensor:
#      x y z
#    x 1.879150 0.000000 -0.001700 
#    y 0.000000 1.886310 0.000000 
#    z -0.001700 0.000000 1.844130 
# 
# From -- ./inp_files/172859.got.cif
#   From: 2010.05.17/outbox.cif.g08.bks.cpg/sg12_87_cif.got.tgz:172859.got - 2010.06.03 13:09:07.
