data_PCOD9210114
_publ_section_title
;
Structure prediction by ZEFSAII (Michael W. Deem and Ramdas Pophale) SiO2 
 PCOD9210114
Probable space group: C 2/M
;
_chemical_formula_sum "Si O2"
_cell_formula_units_Z 56
_cell_length_a 15.640207
_cell_length_b 8.082948
_cell_length_c 25.275863
_cell_angle_alpha 90.000000
_cell_angle_beta 120.719688
_cell_angle_gamma 90.000000
_cell_volume 2746.967207
_symmetry_space_group_name_H-M "C 2/M"
_symmetry_group_IT_number 12
_symmetry_cell_setting 'monoclinic'
loop_
_space_group_symop_operation_xyz
x,y,z
-x,y,-z
-x,-y,-z
x,-y,z
1/2+x,1/2+y,z
1/2-x,1/2+y,-z
1/2-x,1/2-y,-z
1/2+x,1/2-y,z
loop_
_atom_site_type_symbol
_atom_site_label
_atom_site_fract_x
_atom_site_fract_y
_atom_site_fract_z
Si Si1 0.358839 0.694251 0.515111
Si Si2 0.911367 0.196385 0.707220
Si Si3 0.494572 0.301081 0.844117
Si Si4 0.220287 0.698195 0.931346
Si Si5 0.970370 0.307884 0.354252
Si Si6 0.689293 0.798483 0.615069
Si Si7 0.585547 0.702291 0.068611
O O1 0.371013 0.500000 0.529470
O O2 0.250000 0.750000 0.500000
O O3 0.442269 0.787825 0.574841
O O4 0.362232 0.730407 0.453901
O O5 0.992331 0.224215 0.687353
O O6 0.803521 0.259165 0.654274
O O7 0.946196 0.264430 0.774757
O O8 0.898314 0.000000 0.709325
O O9 0.483776 0.500000 0.840670
O O10 0.611430 0.263425 0.883308
O O11 0.442884 0.239986 0.881705
O O12 0.217688 0.500000 0.928505
O O13 0.307388 0.756100 0.919294
O O14 0.250000 0.750000 0.000000
O O15 0.955836 0.500000 0.337408
O O16 0.871293 0.246008 0.352063
O O17 0.686180 0.000000 0.610786
O O18 0.585376 0.500000 0.069027
O O19 0.500000 0.752623 0.000000
#
# Coordination Sequence:
#
# PCOD9210114 Si02
#       7
#     8   8   8   8   8   8   8
#     4  12  23  37  61  91 121 155 197 247 304 355
#     4  10  22  40  61  83 115 160 199 241 294 352
#     4  10  21  39  60  84 116 154 198 240 289 348
#     4  11  21  35  59  88 116 148 188 237 292 349
#     4  11  23  39  62  90 121 156 199 249 295 349
#     4  10  22  40  61  87 119 157 202 246 294 351
#     4   9  17  33  58  84 112 149 190 228 281 352
#
# _framework density 20.386118
#
# number of rings (size 3 to 8) (size 9 to 14) (size 15 to 20)
#    0.000    1.571    2.857    2.571    0.000    4.571 
#    0.000    5.000    0.000    0.000    0.000    0.000 
#    0.000    0.000    0.000    0.000    0.000    0.000 
#
# Total GULP energy -156472.632016 kJ/mol
# GULP energy per Si atom -5588.308286 kJ/mol
# Density = 2.033972 g / cm^3
# Si number density = 20.386118 Si / 1000 Ang^3
#
#
#
# Elastic Constant Matrix: (Units=GPa)
#
#
# Indices 1 2 3 4 5 6 
#
# 1 123.8928 -2.1178 26.0552 0.0000 -27.7527 0.0000
# 2 -2.1178 14.9854 -5.9773 0.0000 -3.0617 0.0000
# 3 26.0552 -5.9773 101.7192 0.0000 -28.4876 0.0000
# 4 0.0000 0.0000 0.0000 18.3615 0.0000 -0.1652
# 5 -27.7527 -3.0617 -28.4876 0.0000 25.3761 0.0000
# 6 0.0000 0.0000 0.0000 -0.1652 0.0000 27.1400
#
#
#
# Elastic Compliance Matrix: (Units=1/GPa)
#
#
# Indices 1 2 3 4 5 6 
#
# 1 0.011071 0.005106 0.001499 0.000000 0.014406 0.000000
# 2 0.005106 0.077288 0.010807 0.000000 0.027041 0.000000
# 3 0.001499 0.010807 0.015908 0.000000 0.020802 0.000000
# 4 0.000000 0.000000 0.000000 0.054465 0.000000 0.000332
# 5 0.014406 0.027041 0.020802 0.000000 0.081777 0.000000
# 6 0.000000 0.000000 0.000000 0.000332 0.000000 0.036848
#
#
# Mechanical properties :
#
#
# Convention : Reuss Voigt Hill
#
# Bulk Modulus (GPa) = 7.18957 30.72417 18.95687
# Shear Modulus (GPa) = 17.30720 29.01800 23.16260
#
# Velocity S-wave (km/s) = 2.91687 3.77692 3.37441
# Velocity P-wave (km/s) = 3.85727 5.84157 4.94987
#
# Compressibility (1/GPa) = 0.13909029
#
# Stress axis : x y z
#
# Youngs Moduli (GPa) = 90.32923 12.93854 62.86229
#
# Poissons Ratio (x) = -0.06606 -0.09423
# Poissons Ratio (y) = -0.46120 -0.67936
# Poissons Ratio (z) = -0.13540 -0.13983
#
# Static dielectric constant tensor:
#      x y z
#    x 1.733880 0.000000 -0.023720 
#    y 0.000000 1.738190 0.000000 
#    z -0.023720 0.000000 1.707380 
# 
# From -- ./inp_files/339091.got.cif
#   From: 2010.05.17/outbox.cif.g08.bks.cpg/sg12_170_cif.got.tgz:339091.got - 2010.06.03 13:09:07.
