data_PCOD9210127
_publ_section_title
;
Structure prediction by ZEFSAII (Michael W. Deem and Ramdas Pophale) SiO2 
 PCOD9210127
Probable space group: C 2/M
;
_chemical_formula_sum "Si O2"
_cell_formula_units_Z 56
_cell_length_a 19.266564
_cell_length_b 8.912659
_cell_length_c 23.901500
_cell_angle_alpha 90.000000
_cell_angle_beta 137.914648
_cell_angle_gamma 90.000000
_cell_volume 2750.838258
_symmetry_space_group_name_H-M "C 2/M"
_symmetry_group_IT_number 12
_symmetry_cell_setting 'monoclinic'
loop_
_space_group_symop_operation_xyz
x,y,z
-x,y,-z
-x,-y,-z
x,-y,z
1/2+x,1/2+y,z
1/2-x,1/2+y,-z
1/2-x,1/2-y,-z
1/2+x,1/2-y,z
loop_
_atom_site_type_symbol
_atom_site_label
_atom_site_fract_x
_atom_site_fract_y
_atom_site_fract_z
Si Si1 0.507693 0.677569 0.369273
Si Si2 0.916580 0.823930 0.996987
Si Si3 0.608792 0.830011 0.531224
Si Si4 0.995955 0.322330 0.244912
Si Si5 0.220334 0.821729 0.922364
Si Si6 0.917331 0.824282 0.808684
Si Si7 0.804521 0.679411 0.300957
O O1 0.505979 0.500000 0.362006
O O2 0.587874 0.726750 0.465693
O O3 0.532617 0.756271 0.325773
O O4 0.393775 0.735025 0.321067
O O5 0.979916 0.809551 0.092740
O O6 0.888223 0.000000 0.972519
O O7 0.814946 0.724042 0.938675
O O8 0.000000 0.783868 0.000000
O O9 0.500000 0.834664 0.500000
O O10 0.685734 0.784169 0.626810
O O11 0.632848 0.000000 0.527331
O O12 0.984567 0.500000 0.241659
O O13 0.885305 0.247920 0.163990
O O14 0.070036 0.275523 0.238361
O O15 0.210168 0.000000 0.921890
O O16 0.250000 0.750000 0.000000
O O17 0.815023 0.789255 0.783975
O O18 0.907576 0.000000 0.786621
O O19 0.824245 0.500000 0.306556
#
# Coordination Sequence:
#
# PCOD9210127 Si02
#       7
#     8   8   8   8   8   8   8
#     4  11  22  36  58  89 119 150 195 245 289 341
#     4  10  22  39  61  90 121 155 193 238 291 344
#     4   8  15  32  56  83 116 153 194 235 286 347
#     4  12  25  41  61  84 116 156 197 241 292 346
#     4  12  24  41  63  88 117 154 197 239 286 341
#     4  10  21  39  60  85 120 154 192 240 292 347
#     4   9  19  36  60  88 119 157 193 236 293 350
#
# _framework density 20.357430999999998
#
# number of rings (size 3 to 8) (size 9 to 14) (size 15 to 20)
#    0.000    1.714    1.429    4.714    2.000    3.429 
#    0.000    0.714    0.000    0.000    0.000    0.000 
#    0.000    0.000    0.000    0.000    0.000    0.000 
#
# Total GULP energy -156447.873074 kJ/mol
# GULP energy per Si atom -5587.424038 kJ/mol
# Density = 2.031110 g / cm^3
# Si number density = 20.357431 Si / 1000 Ang^3
#
#
#
# Elastic Constant Matrix: (Units=GPa)
#
#
# Indices 1 2 3 4 5 6 
#
# 1 58.0179 32.1839 -6.9638 0.0000 -13.7391 0.0000
# 2 32.1839 109.4175 5.2325 0.0000 -15.1261 0.0000
# 3 -6.9638 5.2325 14.5133 0.0000 -4.2932 0.0000
# 4 0.0000 0.0000 0.0000 24.1185 0.0000 -3.7701
# 5 -13.7391 -15.1261 -4.2932 0.0000 35.1985 0.0000
# 6 0.0000 0.0000 0.0000 -3.7701 0.0000 29.6712
#
#
#
# Elastic Compliance Matrix: (Units=1/GPa)
#
#
# Indices 1 2 3 4 5 6 
#
# 1 0.025358 -0.007047 0.017367 0.000000 0.008988 0.000000
# 2 -0.007047 0.011753 -0.007198 0.000000 0.001422 0.000000
# 3 0.017367 -0.007198 0.083950 0.000000 0.013925 0.000000
# 4 0.000000 0.000000 0.000000 0.042302 0.000000 0.005375
# 5 0.008988 0.001422 0.013925 0.000000 0.034228 0.000000
# 6 0.000000 0.000000 0.000000 0.005375 0.000000 0.034386
#
#
# Mechanical properties :
#
#
# Convention : Reuss Voigt Hill
#
# Bulk Modulus (GPa) = 7.85517 26.98377 17.41947
# Shear Modulus (GPa) = 18.64509 27.89737 23.27123
#
# Velocity S-wave (km/s) = 3.02964 3.70588 3.38469
# Velocity P-wave (km/s) = 4.01314 5.62096 4.88367
#
# Compressibility (1/GPa) = 0.12730476
#
# Stress axis : x y z
#
# Youngs Moduli (GPa) = 39.43528 85.08583 11.91192
#
# Poissons Ratio (x) = 0.59958 -0.20687
# Poissons Ratio (y) = 0.27789 0.08574
# Poissons Ratio (z) = -0.68486 0.61243
#
# Static dielectric constant tensor:
#      x y z
#    x 1.729000 0.000000 -0.004880 
#    y 0.000000 1.680590 0.000000 
#    z -0.004880 0.000000 1.754160 
# 
# From -- ./inp_files/342611.got.cif
#   From: 2010.05.17/outbox.cif.g08.bks.cpg/sg12_172_cif.got.tgz:342611.got - 2010.06.03 13:09:07.
