data_PCOD9210428
_publ_section_title
;
Structure prediction by ZEFSAII (Michael W. Deem and Ramdas Pophale) SiO2 
 PCOD9210428
Probable space group: C 2/M
;
_chemical_formula_sum "Si O2"
_cell_formula_units_Z 48
_cell_length_a 14.215920
_cell_length_b 29.003654
_cell_length_c 4.976605
_cell_angle_alpha 90.000000
_cell_angle_beta 104.283481
_cell_angle_gamma 90.000000
_cell_volume 1988.490784
_symmetry_space_group_name_H-M "C 2/M"
_symmetry_group_IT_number 12
_symmetry_cell_setting 'monoclinic'
loop_
_space_group_symop_operation_xyz
x,y,z
-x,y,-z
-x,-y,-z
x,-y,z
1/2+x,1/2+y,z
1/2-x,1/2+y,-z
1/2-x,1/2-y,-z
1/2+x,1/2-y,z
loop_
_atom_site_type_symbol
_atom_site_label
_atom_site_fract_x
_atom_site_fract_y
_atom_site_fract_z
Si Si1 0.065333 0.618823 0.783416
Si Si2 0.101396 0.282582 0.915580
Si Si3 0.774285 0.449300 0.887384
Si Si4 0.141624 0.050960 0.293329
Si Si5 0.105421 0.149990 0.136004
Si Si6 0.194960 0.194766 0.711132
O O1 0.095823 0.670875 0.733658
O O2 0.000000 0.598630 0.500000
O O3 0.153925 0.587653 0.938279
O O4 0.000000 0.623468 0.000000
O O5 0.132782 0.238790 0.763404
O O6 0.192227 0.292590 0.178606
O O7 0.000000 0.276219 0.000000
O O8 0.821980 0.500000 0.922636
O O9 0.731682 0.441728 0.561048
O O10 0.683065 0.451685 0.022429
O O11 0.086051 0.099243 0.248995
O O12 0.098285 0.000000 0.326434
O O13 0.163948 0.178963 0.396321
O O14 0.165926 0.154373 0.902787
O O15 0.000000 0.169843 0.000000
#
# Coordination Sequence:
#
# PCOD9210428 Si02
#       6
#     8   8   8   8   8   8
#     4  11  23  36  58  90 125 166 211 265 323 384
#     4  10  24  45  70  99 134 174 222 273 329 391
#     4  10  21  39  62  88 124 168 214 266 322 384
#     4  10  21  39  64  91 122 165 214 265 322 385
#     4  12  25  43  68  98 135 176 220 273 331 394
#     4  11  26  45  69  98 133 176 221 273 329 392
#
# _framework density 24.138907
#
# number of rings (size 3 to 8) (size 9 to 14) (size 15 to 20)
#    0.000    1.333    0.000    5.000    0.000   11.667 
#    0.000    0.000    0.000    5.000    0.000    0.000 
#    0.000    0.000    0.000    0.000    0.000    0.000 
#
# Total GULP energy -134323.581556 kJ/mol
# GULP energy per Si atom -5596.815898 kJ/mol
# Density = 2.408397 g / cm^3
# Si number density = 24.138907 Si / 1000 Ang^3
#
#
#
# Elastic Constant Matrix: (Units=GPa)
#
#
# Indices 1 2 3 4 5 6 
#
# 1 87.7138 6.6826 17.2652 0.0000 13.8981 0.0000
# 2 6.6826 119.3619 25.7916 0.0000 17.0481 0.0000
# 3 17.2652 25.7916 91.4045 0.0000 1.0711 0.0000
# 4 0.0000 0.0000 0.0000 11.6139 0.0000 -6.4721
# 5 13.8981 17.0481 1.0711 0.0000 31.6864 0.0000
# 6 0.0000 0.0000 0.0000 -6.4721 0.0000 26.7944
#
#
#
# Elastic Compliance Matrix: (Units=1/GPa)
#
#
# Indices 1 2 3 4 5 6 
#
# 1 0.012780 0.000672 -0.002535 0.000000 -0.005882 0.000000
# 2 0.000672 0.009722 -0.002807 0.000000 -0.005431 0.000000
# 3 -0.002535 -0.002807 0.012185 0.000000 0.002210 0.000000
# 4 0.000000 0.000000 0.000000 0.099497 0.000000 0.024033
# 5 -0.005882 -0.005431 0.002210 0.000000 0.036986 0.000000
# 6 0.000000 0.000000 0.000000 0.024033 0.000000 0.043126
#
#
# Mechanical properties :
#
#
# Convention : Reuss Voigt Hill
#
# Bulk Modulus (GPa) = 39.44857 44.21767 41.83312
# Shear Modulus (GPa) = 21.54378 30.60167 26.07272
#
# Velocity S-wave (km/s) = 2.99070 3.56439 3.29007
# Velocity P-wave (km/s) = 5.32011 5.94118 5.63920
#
# Compressibility (1/GPa) = 0.02534946
#
# Stress axis : x y z
#
# Youngs Moduli (GPa) = 78.24486 102.85530 82.06638
#
# Poissons Ratio (x) = -0.06915 0.20803
# Poissons Ratio (y) = -0.05260 0.23034
# Poissons Ratio (z) = 0.19834 0.28869
#
# Static dielectric constant tensor:
#      x y z
#    x 1.887150 0.000000 0.003850 
#    y 0.000000 2.027600 0.000000 
#    z 0.003850 0.000000 1.862500 
# 
# From -- ./inp_files/13243.got.cif
#   From: 2010.05.17/outbox.cif.g08.bks.cpg/sg12_7_cif.got.tgz:13243.got - 2010.06.03 13:09:07.
