data_PCOD9210066
_publ_section_title
;
Structure prediction by ZEFSAII (Michael W. Deem and Ramdas Pophale) SiO2 
 PCOD9210066
Probable space group: C 2/M
;
_chemical_formula_sum "Si O2"
_cell_formula_units_Z 56
_cell_length_a 12.729831
_cell_length_b 19.246244
_cell_length_c 11.090052
_cell_angle_alpha 90.000000
_cell_angle_beta 87.902318
_cell_angle_gamma 90.000000
_cell_volume 2715.257857
_symmetry_space_group_name_H-M "C 2/M"
_symmetry_group_IT_number 12
_symmetry_cell_setting 'monoclinic'
loop_
_space_group_symop_operation_xyz
x,y,z
-x,y,-z
-x,-y,-z
x,-y,z
1/2+x,1/2+y,z
1/2-x,1/2+y,-z
1/2-x,1/2-y,-z
1/2+x,1/2-y,z
loop_
_atom_site_type_symbol
_atom_site_label
_atom_site_fract_x
_atom_site_fract_y
_atom_site_fract_z
Si Si1 0.540453 0.812410 0.865897
Si Si2 0.935518 0.170572 0.284735
Si Si3 0.153353 0.920149 0.912388
Si Si4 0.845687 0.196609 0.641861
Si Si5 0.876668 0.579065 0.762338
Si Si6 0.231152 0.185372 0.090416
Si Si7 0.218618 0.657937 0.441735
O O1 0.557351 0.745037 0.782109
O O2 0.459730 0.865853 0.809599
O O3 0.654594 0.845545 0.884165
O O4 0.500000 0.790616 0.000000
O O5 0.924437 0.112228 0.182827
O O6 0.829515 0.167449 0.366931
O O7 0.040058 0.162791 0.359067
O O8 0.269719 0.915462 0.846000
O O9 0.130994 0.000000 0.940454
O O10 0.159123 0.870571 0.027448
O O11 0.816583 0.210374 0.781934
O O12 0.845426 0.270682 0.574498
O O13 0.755701 0.152125 0.578070
O O14 0.914546 0.500000 0.768540
O O15 0.843831 0.598987 0.627002
O O16 0.250000 0.250000 0.000000
#
# Coordination Sequence:
#
# PCOD9210066 Si02
#       7
#     8   8   8   8   8   8   8
#     4  12  21  33  62  95 120 154 201 246 300 359
#     4  11  21  37  61  90 120 153 200 250 296 352
#     4  10  22  39  60  87 123 160 197 243 301 360
#     4  11  22  36  61  89 115 157 203 253 293 348
#     4  10  21  39  61  88 123 160 200 248 297 353
#     4  12  21  38  59  89 125 155 196 248 304 357
#     4  10  21  39  59  89 116 154 206 248 298 347
#
# _framework density 20.624192000000001
#
# number of rings (size 3 to 8) (size 9 to 14) (size 15 to 20)
#    0.000    1.143    5.714    2.143    0.000    0.857 
#    0.000    3.571    0.000    4.286    0.000    0.000 
#    0.000    0.000    0.000    0.000    0.000    0.000 
#
# Total GULP energy -156538.768814 kJ/mol
# GULP energy per Si atom -5590.670315 kJ/mol
# Density = 2.057725 g / cm^3
# Si number density = 20.624192 Si / 1000 Ang^3
#
#
#
# Elastic Constant Matrix: (Units=GPa)
#
#
# Indices 1 2 3 4 5 6 
#
# 1 76.4815 18.5823 16.6592 0.0000 23.6888 0.0000
# 2 18.5823 104.6648 41.5946 0.0000 16.3906 0.0000
# 3 16.6592 41.5946 112.6847 0.0000 22.3774 0.0000
# 4 0.0000 0.0000 0.0000 22.1788 0.0000 6.2393
# 5 23.6888 16.3906 22.3774 0.0000 33.5670 0.0000
# 6 0.0000 0.0000 0.0000 6.2393 0.0000 23.3385
#
#
#
# Elastic Compliance Matrix: (Units=1/GPa)
#
#
# Indices 1 2 3 4 5 6 
#
# 1 0.016882 -0.001308 0.000261 0.000000 -0.011449 0.000000
# 2 -0.001308 0.011590 -0.003624 0.000000 -0.002320 0.000000
# 3 0.000261 -0.003624 0.011363 0.000000 -0.005989 0.000000
# 4 0.000000 0.000000 0.000000 0.048755 0.000000 -0.013034
# 5 -0.011449 -0.002320 -0.005989 0.000000 0.042997 0.000000
# 6 0.000000 0.000000 0.000000 -0.013034 0.000000 0.046332
#
#
# Mechanical properties :
#
#
# Convention : Reuss Voigt Hill
#
# Bulk Modulus (GPa) = 32.79496 49.72257 41.25877
# Shear Modulus (GPa) = 25.32594 30.28318 27.80456
#
# Velocity S-wave (km/s) = 3.50805 3.83604 3.67570
# Velocity P-wave (km/s) = 5.68720 6.61676 6.16951
#
# Compressibility (1/GPa) = 0.03049249
#
# Stress axis : x y z
#
# Youngs Moduli (GPa) = 59.23386 86.28049 88.00572
#
# Poissons Ratio (x) = 0.11285 -0.02293
# Poissons Ratio (y) = 0.07747 0.31893
# Poissons Ratio (z) = -0.01543 0.31268
#
# Static dielectric constant tensor:
#      x y z
#    x 1.793410 0.000000 -0.002880 
#    y 0.000000 1.698840 0.000000 
#    z -0.002880 0.000000 1.782220 
# 
# From -- ./inp_files/133313.got.cif
#   From: 2010.05.17/outbox.cif.g08.bks.cpg/sg12_67_cif.got.tgz:133313.got - 2010.06.03 13:09:07.
