data_PCOD9210581
_publ_section_title
;
Structure prediction by ZEFSAII (Michael W. Deem and Ramdas Pophale) SiO2 
 PCOD9210581
Probable space group: C 2/M
;
_chemical_formula_sum "Si O2"
_cell_formula_units_Z 56
_cell_length_a 9.259521
_cell_length_b 16.415238
_cell_length_c 18.274714
_cell_angle_alpha 90.000000
_cell_angle_beta 74.855306
_cell_angle_gamma 90.000000
_cell_volume 2681.233954
_symmetry_space_group_name_H-M "C 2/M"
_symmetry_group_IT_number 12
_symmetry_cell_setting 'monoclinic'
loop_
_space_group_symop_operation_xyz
x,y,z
-x,y,-z
-x,-y,-z
x,-y,z
1/2+x,1/2+y,z
1/2-x,1/2+y,-z
1/2-x,1/2-y,-z
1/2+x,1/2-y,z
loop_
_atom_site_type_symbol
_atom_site_label
_atom_site_fract_x
_atom_site_fract_y
_atom_site_fract_z
Si Si1 0.406574 0.902213 0.355206
Si Si2 0.370312 0.798773 0.074055
Si Si3 0.007429 0.406733 0.813009
Si Si4 0.898107 0.908995 0.941028
Si Si5 0.164419 0.900469 0.502802
Si Si6 0.750314 0.597823 0.653984
Si Si7 0.676719 0.642703 0.819740
O O1 0.414739 0.870991 0.270697
O O2 0.283590 0.870074 0.427401
O O3 0.571070 0.892139 0.366845
O O4 0.382651 0.000000 0.351850
O O5 0.445616 0.860753 0.120922
O O6 0.231160 0.842334 0.052222
O O7 0.319704 0.724140 0.131818
O O8 0.500000 0.775768 0.000000
O O9 0.052909 0.500000 0.814329
O O10 0.829085 0.403338 0.822427
O O11 0.021066 0.899821 0.861095
O O12 0.831449 0.000000 0.949938
O O13 0.000000 0.901685 0.000000
O O14 0.194327 0.876012 0.582122
O O15 0.000000 0.876817 0.500000
O O16 0.173781 0.000000 0.501880
O O17 0.719753 0.500000 0.668844
O O18 0.684291 0.647200 0.731112
#
# Coordination Sequence:
#
# PCOD9210581 Si02
#       7
#     8   8   8   8   8   8   8
#     4   8  15  29  50  78 111 149 193 237 284 341
#     4  12  26  42  61  88 121 156 196 245 304 362
#     4  10  21  39  63  88 118 157 200 246 294 351
#     4  11  24  41  63  89 117 152 197 250 302 356
#     4   9  16  26  46  81 121 154 188 237 291 341
#     4   9  17  31  54  81 112 154 199 240 285 345
#     4  11  22  39  60  86 120 156 199 246 297 355
#
# _framework density 20.885905999999999
#
# number of rings (size 3 to 8) (size 9 to 14) (size 15 to 20)
#    0.000    2.000    0.000    5.143    0.000    6.857 
#    0.000    2.857    0.000    0.857    0.000    2.000 
#    0.000    0.000    0.000    0.000    0.000    0.143 
#
# Total GULP energy -156396.128247 kJ/mol
# GULP energy per Si atom -5585.576009 kJ/mol
# Density = 2.083837 g / cm^3
# Si number density = 20.885906 Si / 1000 Ang^3
#
#
#
# Elastic Constant Matrix: (Units=GPa)
#
#
# Indices 1 2 3 4 5 6 
#
# 1 65.8616 21.3722 62.0992 0.0000 -5.7302 0.0000
# 2 21.3722 67.9529 38.8964 0.0000 0.2132 0.0000
# 3 62.0992 38.8964 152.7013 0.0000 -15.8659 0.0000
# 4 0.0000 0.0000 0.0000 -22.2812 0.0000 -2.3503
# 5 -5.7302 0.2132 -15.8659 0.0000 31.4684 0.0000
# 6 0.0000 0.0000 0.0000 -2.3503 0.0000 18.0627
#
#
#
# Elastic Compliance Matrix: (Units=1/GPa)
#
#
# Indices 1 2 3 4 5 6 
#
# 1 0.024955 -0.002368 -0.009573 0.000000 -0.000266 0.000000
# 2 -0.002368 0.017635 -0.003784 0.000000 -0.002459 0.000000
# 3 -0.009573 -0.003784 0.011848 0.000000 0.004256 0.000000
# 4 0.000000 0.000000 0.000000 -0.044273 0.000000 -0.005761
# 5 -0.000266 -0.002459 0.004256 0.000000 0.033892 0.000000
# 6 0.000000 0.000000 0.000000 -0.005761 0.000000 0.054613
#
#
# Mechanical properties :
#
#
# Convention : Reuss Voigt Hill
#
# Bulk Modulus (GPa) = 43.50370 59.02792 51.26581
# Shear Modulus (GPa) = 36.28920 16.39317 26.34119
#
# Velocity S-wave (km/s) = 4.17285 2.80463 3.55518
# Velocity P-wave (km/s) = 6.64013 6.22988 6.43827
#
# Compressibility (1/GPa) = 0.02298655
#
# Stress axis : x y z
#
# Youngs Moduli (GPa) = 40.07279 56.70597 84.40354
#
# Poissons Ratio (x) = 0.13430 0.80797
# Poissons Ratio (y) = 0.09490 0.31941
# Poissons Ratio (z) = 0.38361 0.21459
#
# Static dielectric constant tensor:
#      x y z
#    x 1.706140 0.000000 -0.000010 
#    y 0.000000 1.786660 0.000000 
#    z -0.000010 0.000000 1.766060 
# 
# From -- ./inp_files/257029.got.cif
#   From: 2010.05.17/outbox.cif.g08.bks.cpg/sg12_129_cif.got.tgz:257029.got - 2010.06.03 13:09:07.
