data_PCOD9210394
_publ_section_title
;
Structure prediction by ZEFSAII (Michael W. Deem and Ramdas Pophale) SiO2 
 PCOD9210394
Probable space group: C 2/M
;
_chemical_formula_sum "Si O2"
_cell_formula_units_Z 48
_cell_length_a 23.608788
_cell_length_b 8.701688
_cell_length_c 12.763731
_cell_angle_alpha 90.000000
_cell_angle_beta 88.496660
_cell_angle_gamma 90.000000
_cell_volume 2621.231218
_symmetry_space_group_name_H-M "C 2/M"
_symmetry_group_IT_number 12
_symmetry_cell_setting 'monoclinic'
loop_
_space_group_symop_operation_xyz
x,y,z
-x,y,-z
-x,-y,-z
x,-y,z
1/2+x,1/2+y,z
1/2-x,1/2+y,-z
1/2-x,1/2-y,-z
1/2+x,1/2-y,z
loop_
_atom_site_type_symbol
_atom_site_label
_atom_site_fract_x
_atom_site_fract_y
_atom_site_fract_z
Si Si1 0.072716 0.817427 0.087884
Si Si2 0.866808 0.316454 0.722737
Si Si3 0.251468 0.684388 0.382046
Si Si4 0.549705 0.816375 0.866649
Si Si5 0.435038 0.683750 0.529767
Si Si6 0.870196 0.315895 0.333280
O O1 0.119433 0.762156 0.167841
O O2 0.011327 0.765064 0.135242
O O3 0.073287 0.000000 0.075618
O O4 0.077275 0.737827 0.974432
O O5 0.869352 0.500000 0.734269
O O6 0.805983 0.274333 0.676455
O O7 0.913640 0.262402 0.636653
O O8 0.254824 0.500000 0.387527
O O9 0.250000 0.750000 0.500000
O O10 0.307096 0.751330 0.324102
O O11 0.589379 0.778358 0.766541
O O12 0.540855 0.000000 0.869575
O O13 0.500000 0.721782 0.500000
O O14 0.429929 0.500000 0.540365
O O15 0.396404 0.742756 0.436612
O O16 0.868236 0.500000 0.345355
#
# Coordination Sequence:
#
# PCOD9210394 Si02
#       6
#     8   8   8   8   8   8
#     4  11  22  37  61  90 119 153 194 242 294 348
#     4  11  23  39  59  84 115 154 196 238 291 351
#     4  11  23  39  61  85 115 155 198 243 291 349
#     4  10  21  39  62  87 119 157 195 238 290 352
#     4  11  23  36  55  85 118 151 189 239 294 347
#     4  11  23  38  59  86 116 154 196 238 291 349
#
# _framework density 18.312007000000001
#
# number of rings (size 3 to 8) (size 9 to 14) (size 15 to 20)
#    0.000    1.167    1.667    6.000    0.000    8.667 
#    0.000    0.833    0.000    0.000    0.000    0.000 
#    0.000    0.000    0.000    0.000    0.000    0.000 
#
# Total GULP energy -134220.071436 kJ/mol
# GULP energy per Si atom -5592.502977 kJ/mol
# Density = 1.827033 g / cm^3
# Si number density = 18.312007 Si / 1000 Ang^3
#
#
#
# Elastic Constant Matrix: (Units=GPa)
#
#
# Indices 1 2 3 4 5 6 
#
# 1 38.5547 3.0425 -1.6448 0.0000 15.8736 0.0000
# 2 3.0425 35.3318 -1.6628 0.0000 5.6692 0.0000
# 3 -1.6448 -1.6628 54.2591 0.0000 15.0822 0.0000
# 4 0.0000 0.0000 0.0000 18.4680 0.0000 -1.6768
# 5 15.8736 5.6692 15.0822 0.0000 31.4237 0.0000
# 6 0.0000 0.0000 0.0000 -1.6768 0.0000 32.0721
#
#
#
# Elastic Compliance Matrix: (Units=1/GPa)
#
#
# Indices 1 2 3 4 5 6 
#
# 1 0.034846 0.000704 0.006931 0.000000 -0.021056 0.000000
# 2 0.000704 0.029513 0.002890 0.000000 -0.007067 0.000000
# 3 0.006931 0.002890 0.022902 0.000000 -0.015015 0.000000
# 4 0.000000 0.000000 0.000000 0.054406 0.000000 0.002845
# 5 -0.021056 -0.007067 -0.015015 0.000000 0.050941 0.000000
# 6 0.000000 0.000000 0.000000 0.002845 0.000000 0.031328
#
#
# Mechanical properties :
#
#
# Convention : Reuss Voigt Hill
#
# Bulk Modulus (GPa) = 9.23264 14.17949 11.70607
# Shear Modulus (GPa) = 20.92133 24.95347 22.93740
#
# Velocity S-wave (km/s) = 3.38374 3.69546 3.54303
# Velocity P-wave (km/s) = 4.50767 5.09594 4.81081
#
# Compressibility (1/GPa) = 0.10831135
#
# Stress axis : x y z
#
# Youngs Moduli (GPa) = 28.69737 33.88393 43.66361
#
# Poissons Ratio (x) = -0.02386 -0.30262
# Poissons Ratio (y) = -0.02020 -0.12620
# Poissons Ratio (z) = -0.19890 -0.09793
#
# Static dielectric constant tensor:
#      x y z
#    x 1.623730 0.000000 0.006040 
#    y 0.000000 1.611420 0.000000 
#    z 0.006040 0.000000 1.610070 
# 
# From -- ./inp_files/172276.got.cif
#   From: 2010.05.17/outbox.cif.g08.bks.cpg/sg12_87_cif.got.tgz:172276.got - 2010.06.03 13:09:07.
