data_PCOD9210424
_publ_section_title
;
Structure prediction by ZEFSAII (Michael W. Deem and Ramdas Pophale) SiO2 
 PCOD9210424
Probable space group: C 2/M
;
_chemical_formula_sum "Si O2"
_cell_formula_units_Z 64
_cell_length_a 17.183499
_cell_length_b 14.126834
_cell_length_c 22.474944
_cell_angle_alpha 90.000000
_cell_angle_beta 33.637692
_cell_angle_gamma 90.000000
_cell_volume 3022.158879
_symmetry_space_group_name_H-M "C 2/M"
_symmetry_group_IT_number 12
_symmetry_cell_setting 'monoclinic'
loop_
_space_group_symop_operation_xyz
x,y,z
-x,y,-z
-x,-y,-z
x,-y,z
1/2+x,1/2+y,z
1/2-x,1/2+y,-z
1/2-x,1/2-y,-z
1/2+x,1/2-y,z
loop_
_atom_site_type_symbol
_atom_site_label
_atom_site_fract_x
_atom_site_fract_y
_atom_site_fract_z
Si Si1 0.152155 0.269870 0.425054
Si Si2 0.409378 0.223738 0.411073
Si Si3 0.142832 0.385808 0.879558
Si Si4 0.412227 0.386346 0.229873
Si Si5 0.442066 0.612287 0.736227
Si Si6 0.411766 0.384758 0.997299
Si Si7 0.911564 0.612955 0.800110
Si Si8 0.147893 0.612692 0.738858
O O1 0.107400 0.321993 0.514185
O O2 0.258785 0.339694 0.323565
O O3 0.245428 0.174536 0.368420
O O4 0.000000 0.240958 0.500000
O O5 0.250000 0.250000 0.500000
O O6 0.488348 0.324522 0.359184
O O7 0.493220 0.160962 0.310951
O O8 0.132099 0.500000 0.882805
O O9 0.276939 0.366580 0.835529
O O10 0.161220 0.355992 0.799181
O O11 0.000000 0.350580 0.000000
O O12 0.401098 0.500000 0.235393
O O13 0.486167 0.361571 0.246219
O O14 0.507800 0.354966 0.113751
O O15 0.461855 0.500000 0.715039
O O16 0.407721 0.500000 0.998401
O O17 0.500000 0.359491 0.000000
O O18 0.249338 0.353289 0.100473
O O19 0.910968 0.500000 0.791034
O O20 0.992211 0.629316 0.811219
O O21 0.175877 0.500000 0.716983
#
# Coordination Sequence:
#
# PCOD9210424 Si02
#       8
#     8   8   8   8   8   8   8   8
#     4  12  26  42  62  88 125 162 204 257 304 359
#     4  12  23  42  61  87 125 155 207 257 294 360
#     4   9  19  36  61  90 123 158 197 248 299 362
#     4  10  22  41  64  92 122 159 204 249 308 366
#     4  10  21  39  62  88 122 163 201 243 304 360
#     4   9  20  40  64  90 123 160 206 256 299 360
#     4  10  22  40  66  92 121 164 202 249 309 359
#     4  10  21  40  61  90 124 159 206 247 300 363
#
# _framework density 21.176914
#
# number of rings (size 3 to 8) (size 9 to 14) (size 15 to 20)
#    0.000    1.750    2.500    0.750    3.500    2.000 
#    2.250    1.250    0.000    0.000    0.000    0.000 
#    0.000    0.000    0.000    0.000    0.000    0.000 
#
# Total GULP energy -178526.712600 kJ/mol
# GULP energy per Si atom -5578.959769 kJ/mol
# Density = 2.112871 g / cm^3
# Si number density = 21.176914 Si / 1000 Ang^3
#
#
#
# Elastic Constant Matrix: (Units=GPa)
#
#
# Indices 1 2 3 4 5 6 
#
# 1 71.0779 16.1746 53.0038 -0.0001 -15.3253 0.0000
# 2 16.1746 73.4544 34.4263 -0.0003 -4.8999 0.0000
# 3 53.0038 34.4263 159.8514 -0.0007 -16.6617 0.0001
# 4 -0.0001 -0.0003 -0.0007 26.6757 0.0002 -1.2548
# 5 -15.3253 -4.8999 -16.6617 0.0002 44.6799 -0.0001
# 6 0.0000 0.0000 0.0001 -1.2548 -0.0001 27.3725
#
#
#
# Elastic Compliance Matrix: (Units=1/GPa)
#
#
# Indices 1 2 3 4 5 6 
#
# 1 0.019621 -0.001326 -0.005758 0.000000 0.004438 0.000000
# 2 -0.001326 0.015241 -0.002826 0.000000 0.000163 0.000000
# 3 -0.005758 -0.002826 0.008881 0.000000 0.001027 0.000000
# 4 0.000000 0.000000 0.000000 0.037568 0.000000 0.001722
# 5 0.004438 0.000163 0.001027 0.000000 0.024304 0.000000
# 6 0.000000 0.000000 0.000000 0.001722 0.000000 0.036612
#
#
# Mechanical properties :
#
#
# Convention : Reuss Voigt Hill
#
# Bulk Modulus (GPa) = 41.79953 56.84368 49.32161
# Shear Modulus (GPa) = 29.40800 33.13089 31.26945
#
# Velocity S-wave (km/s) = 3.73055 3.95964 3.84680
# Velocity P-wave (km/s) = 6.19169 6.91416 6.56288
#
# Compressibility (1/GPa) = 0.02392371
#
# Stress axis : x y z
#
# Youngs Moduli (GPa) = 50.96469 65.61214 112.60444
#
# Poissons Ratio (x) = 0.08700 0.64838
# Poissons Ratio (y) = 0.06758 0.31819
# Poissons Ratio (z) = 0.29345 0.18540
#
# Static dielectric constant tensor:
#      x y z
#    x 1.874210 0.000000 -0.059890 
#    y 0.000000 1.752940 0.000000 
#    z -0.059890 0.000000 1.742090 
# 
# From -- ./inp_files/344000.got.cif
#   From: 2010.05.17/outbox.cif.g08.bks.cpg/sg12_172_cif.got.tgz:344000.got - 2010.06.03 13:09:07.
