data_PCOD9210099
_publ_section_title
;
Structure prediction by ZEFSAII (Michael W. Deem and Ramdas Pophale) SiO2 
 PCOD9210099
Probable space group: C 2/M
;
_chemical_formula_sum "Si O2"
_cell_formula_units_Z 58
_cell_length_a 16.413700
_cell_length_b 9.487378
_cell_length_c 16.417537
_cell_angle_alpha 90.000000
_cell_angle_beta 85.448801
_cell_angle_gamma 90.000000
_cell_volume 2548.526357
_symmetry_space_group_name_H-M "C 2/M"
_symmetry_group_IT_number 12
_symmetry_cell_setting 'monoclinic'
loop_
_space_group_symop_operation_xyz
x,y,z
-x,y,-z
-x,-y,-z
x,-y,z
1/2+x,1/2+y,z
1/2-x,1/2+y,-z
1/2-x,1/2-y,-z
1/2+x,1/2-y,z
loop_
_atom_site_type_symbol
_atom_site_label
_atom_site_fract_x
_atom_site_fract_y
_atom_site_fract_z
Si Si1 0.402542 0.660343 0.698430
Si Si2 0.970329 0.336842 0.838353
Si Si3 0.935679 0.234667 0.404184
Si Si4 0.373438 0.666353 0.959931
Si Si5 0.312665 0.342336 0.545550
Si Si6 0.500000 0.000000 0.500000
Si Si7 0.849440 0.336247 0.254888
Si Si8 0.230176 0.833233 0.877135
O O1 0.383209 0.500000 0.726496
O O2 0.415156 0.767915 0.771065
O O3 0.490690 0.656967 0.646667
O O4 0.339123 0.706697 0.633296
O O5 0.949382 0.500000 0.854517
O O6 0.953260 0.243476 0.919229
O O7 0.062599 0.332080 0.797977
O O8 0.893541 0.157697 0.482939
O O9 0.867551 0.273010 0.342079
O O10 0.972348 0.377951 0.437048
O O11 0.375430 0.500000 0.940757
O O12 0.301270 0.747662 0.917214
O O13 0.348232 0.679453 0.056213
O O14 0.280197 0.500000 0.555386
O O15 0.250000 0.250000 0.500000
O O16 0.824117 0.500000 0.260864
O O17 0.789505 0.241567 0.206122
O O18 0.248055 0.000000 0.868030
#
# Coordination Sequence:
#
# PCOD9210099 Si02
#       8
#     8   8   8   8   8   2   8   8
#     4  10  21  39  60  83 114 152 195 244 296 351
#     4  10  22  37  60  89 119 151 194 240 291 351
#     4  11  22  38  65  87 116 156 201 244 295 348
#     4  10  21  40  63  87 116 158 200 241 295 353
#     4  11  25  39  57  84 116 152 194 242 296 349
#     4  12  20  36  70  92 112 158 204 252 284 362
#     4  10  22  38  58  90 121 154 193 241 298 346
#     4  10  22  39  62  87 118 157 200 243 292 354
#
# _framework density 22.758251000000001
#
# number of rings (size 3 to 8) (size 9 to 14) (size 15 to 20)
#    0.000    1.655    2.069    1.655    1.931    8.276 
#    0.000    4.138    0.000    0.000    0.000    0.000 
#    0.000    0.000    0.000    0.000    0.000    0.000 
#
# Total GULP energy -161963.879760 kJ/mol
# GULP energy per Si atom -5584.961371 kJ/mol
# Density = 2.270645 g / cm^3
# Si number density = 22.758251 Si / 1000 Ang^3
#
#
#
# Elastic Constant Matrix: (Units=GPa)
#
#
# Indices 1 2 3 4 5 6 
#
# 1 52.6621 18.8071 15.8334 0.0000 0.6437 0.0000
# 2 18.8071 137.2276 43.5186 0.0000 13.8915 0.0000
# 3 15.8334 43.5186 112.6966 0.0000 11.7052 0.0000
# 4 0.0000 0.0000 0.0000 28.5836 0.0000 4.9163
# 5 0.6437 13.8915 11.7052 0.0000 52.2220 0.0000
# 6 0.0000 0.0000 0.0000 4.9163 0.0000 -1.6557
#
#
#
# Elastic Compliance Matrix: (Units=1/GPa)
#
#
# Indices 1 2 3 4 5 6 
#
# 1 0.020399 -0.002213 -0.002095 0.000000 0.000807 0.000000
# 2 -0.002213 0.008665 -0.002865 0.000000 -0.001635 0.000000
# 3 -0.002095 -0.002865 0.010435 0.000000 -0.001551 0.000000
# 4 0.000000 0.000000 0.000000 0.023158 0.000000 0.068762
# 5 0.000807 -0.001635 -0.001551 0.000000 0.019922 0.000000
# 6 0.000000 0.000000 0.000000 0.068762 0.000000 -0.399787
#
#
# Mechanical properties :
#
#
# Convention : Reuss Voigt Hill
#
# Bulk Modulus (GPa) = 39.75743 50.98938 45.37341
# Shear Modulus (GPa) = -16.97924 30.79178 6.90627
#
# Velocity S-wave (km/s) = -2.73439 3.68230 1.74391
# Velocity P-wave (km/s) = 2.74558 6.36652 4.90259
#
# Compressibility (1/GPa) = 0.02515253
#
# Stress axis : x y z
#
# Youngs Moduli (GPa) = 49.02101 115.41201 95.82905
#
# Poissons Ratio (x) = 0.25540 0.20079
# Poissons Ratio (y) = 0.10848 0.27456
# Poissons Ratio (z) = 0.10271 0.33067
#
# Static dielectric constant tensor:
#      x y z
#    x 1.928740 0.000000 -0.042770 
#    y 0.000000 1.774680 0.000000 
#    z -0.042770 0.000000 1.829380 
# 
# From -- ./inp_files/275425.got.cif
#   From: 2010.05.17/outbox.cif.g08.bks.cpg/sg12_138_cif.got.tgz:275425.got - 2010.06.03 13:09:07.
