data_PCOD9210207
_publ_section_title
;
Structure prediction by ZEFSAII (Michael W. Deem and Ramdas Pophale) SiO2 
 PCOD9210207
Probable space group: C 2/M
;
_chemical_formula_sum "Si O2"
_cell_formula_units_Z 64
_cell_length_a 9.476369
_cell_length_b 16.746354
_cell_length_c 28.946825
_cell_angle_alpha 90.000000
_cell_angle_beta 143.714253
_cell_angle_gamma 90.000000
_cell_volume 2718.613253
_symmetry_space_group_name_H-M "C 2/M"
_symmetry_group_IT_number 12
_symmetry_cell_setting 'monoclinic'
loop_
_space_group_symop_operation_xyz
x,y,z
-x,y,-z
-x,-y,-z
x,-y,z
1/2+x,1/2+y,z
1/2-x,1/2+y,-z
1/2-x,1/2-y,-z
1/2+x,1/2-y,z
loop_
_atom_site_type_symbol
_atom_site_label
_atom_site_fract_x
_atom_site_fract_y
_atom_site_fract_z
Si Si1 0.556121 0.805179 0.726143
Si Si2 0.822917 0.714947 0.876817
Si Si3 0.975983 0.090293 0.146363
Si Si4 0.979566 0.663831 0.551700
Si Si5 0.967922 0.585407 0.852188
Si Si6 0.989515 0.870393 0.680667
Si Si7 0.924699 0.883016 0.929704
Si Si8 0.469649 0.650743 0.410236
O O1 0.617273 0.759679 0.791462
O O2 0.775552 0.864579 0.777433
O O3 0.543009 0.725192 0.692033
O O4 0.311178 0.852907 0.653092
O O5 0.716314 0.648632 0.881997
O O6 0.998866 0.665404 0.890025
O O7 0.946501 0.787972 0.933977
O O8 0.953936 0.088002 0.084873
O O9 0.966123 0.000000 0.161385
O O10 0.725971 0.627294 0.500455
O O11 0.000000 0.671046 0.500000
O O12 0.222917 0.618970 0.628982
O O13 0.998851 0.752400 0.578194
O O14 0.009439 0.500000 0.886433
O O15 0.694705 0.590683 0.764613
O O16 0.145279 0.592351 0.855740
O O17 0.009190 0.894006 0.632941
O O18 0.000000 0.912181 0.000000
#
# Coordination Sequence:
#
# PCOD9210207 Si02
#       8
#     8   8   8   8   8   8   8   8
#     4   9  17  30  51  76 108 144 184 228 276 329
#     4  10  21  39  61  85 111 147 191 231 271 326
#     4  11  22  36  57  86 117 147 184 231 278 325
#     4   8  15  24  40  69 102 133 177 235 280 310
#     4  11  23  39  60  86 117 149 182 226 281 335
#     4   9  16  29  49  72 101 138 183 227 269 323
#     4  11  24  42  62  84 113 148 184 224 274 332
#     4   9  14  24  43  69 102 137 179 229 277 321
#
# _framework density 23.541415000000001
#
# number of rings (size 3 to 8) (size 9 to 14) (size 15 to 20)
#    0.000    2.250    0.000    5.250    0.000    3.000 
#    0.000    0.000    0.000    6.375    0.000    0.000 
#    0.000   88.500    0.000    0.000    0.000    0.000 
#
# Total GULP energy -178327.639617 kJ/mol
# GULP energy per Si atom -5572.738738 kJ/mol
# Density = 2.348783 g / cm^3
# Si number density = 23.541415 Si / 1000 Ang^3
#
#
#
# Elastic Constant Matrix: (Units=GPa)
#
#
# Indices 1 2 3 4 5 6 
#
# 1 57.0346 23.9401 4.4032 0.0000 1.5760 0.0000
# 2 23.9401 124.9511 9.9921 0.0000 8.2473 -0.0001
# 3 4.4032 9.9921 64.4402 -0.0001 0.8614 -0.0004
# 4 0.0000 0.0000 -0.0001 4.1820 0.0000 12.2640
# 5 1.5760 8.2473 0.8614 0.0000 21.7808 0.0002
# 6 0.0000 -0.0001 -0.0004 12.2640 0.0002 61.6452
#
#
#
# Elastic Compliance Matrix: (Units=1/GPa)
#
#
# Indices 1 2 3 4 5 6 
#
# 1 0.019102 -0.003601 -0.000747 0.000000 0.000011 0.000000
# 2 -0.003601 0.008986 -0.001106 0.000000 -0.003098 0.000000
# 3 -0.000747 -0.001106 0.015743 0.000000 -0.000150 0.000000
# 4 0.000000 0.000000 0.000000 0.574005 0.000002 -0.114195
# 5 0.000011 -0.003098 -0.000150 0.000002 0.047090 -0.000001
# 6 0.000000 0.000000 0.000000 -0.114195 -0.000001 0.038941
#
#
# Mechanical properties :
#
#
# Convention : Reuss Voigt Hill
#
# Bulk Modulus (GPa) = 30.37367 35.89961 33.13664
# Shear Modulus (GPa) = 6.88944 31.39430 19.14187
#
# Velocity S-wave (km/s) = 1.71256 3.65578 2.85461
# Velocity P-wave (km/s) = 4.10375 5.75346 4.99715
#
# Compressibility (1/GPa) = 0.03292325
#
# Stress axis : x y z
#
# Youngs Moduli (GPa) = 52.35043 111.28458 63.52113
#
# Poissons Ratio (x) = 0.40072 0.04745
# Poissons Ratio (y) = 0.18851 0.07025
# Poissons Ratio (z) = 0.03911 0.12307
#
# Static dielectric constant tensor:
#      x y z
#    x 1.935160 0.000000 0.009520 
#    y 0.000000 1.861170 0.000000 
#    z 0.009520 0.000000 1.998970 
# 
# From -- ./inp_files/372998.got.cif
#   From: 2010.05.17/outbox.cif.g08.bks.cpg/sg12_187_cif.got.tgz:372998.got - 2010.06.03 13:09:07.
