data_PCOD9210277
_publ_section_title
;
Structure prediction by ZEFSAII (Michael W. Deem and Ramdas Pophale) SiO2 
 PCOD9210277
Probable space group: C 2/M
;
_chemical_formula_sum "Si O2"
_cell_formula_units_Z 56
_cell_length_a 13.757020
_cell_length_b 11.237617
_cell_length_c 28.931196
_cell_angle_alpha 90.000000
_cell_angle_beta 37.766914
_cell_angle_gamma 90.000000
_cell_volume 2739.277914
_symmetry_space_group_name_H-M "C 2/M"
_symmetry_group_IT_number 12
_symmetry_cell_setting 'monoclinic'
loop_
_space_group_symop_operation_xyz
x,y,z
-x,y,-z
-x,-y,-z
x,-y,z
1/2+x,1/2+y,z
1/2-x,1/2+y,-z
1/2-x,1/2-y,-z
1/2+x,1/2-y,z
loop_
_atom_site_type_symbol
_atom_site_label
_atom_site_fract_x
_atom_site_fract_y
_atom_site_fract_z
Si Si1 0.139681 0.364060 0.486020
Si Si2 0.520976 0.360661 0.684266
Si Si3 0.651555 0.366469 0.053727
Si Si4 0.496853 0.631130 0.556790
Si Si5 0.567835 0.716556 0.182251
Si Si6 0.237373 0.637997 0.727571
Si Si7 0.879797 0.861577 0.084900
O O1 0.148679 0.500000 0.501588
O O2 0.305416 0.327591 0.399641
O O3 0.088469 0.251283 0.536360
O O4 0.000000 0.370920 0.500000
O O5 0.512078 0.500000 0.677533
O O6 0.502636 0.343718 0.745657
O O7 0.369538 0.309920 0.713204
O O8 0.712123 0.500000 0.017119
O O9 0.633105 0.362148 0.115733
O O10 0.479356 0.354166 0.094498
O O11 0.750000 0.250000 0.000000
O O12 0.500000 0.628108 0.500000
O O13 0.557749 0.500000 0.549132
O O14 0.324395 0.640788 0.644876
O O15 0.427004 0.794268 0.213297
O O16 0.716136 0.793343 0.144185
O O17 0.205810 0.500000 0.751147
O O18 0.848032 0.000000 0.086867
O O19 0.000000 0.816643 0.000000
#
# Coordination Sequence:
#
# PCOD9210277 Si02
#       7
#     8   8   8   8   8   8   8
#     4   9  17  32  55  81 113 159 202 239 298 361
#     4  10  22  39  57  84 123 159 200 255 307 358
#     4  11  24  42  64  93 123 155 197 247 305 363
#     4   9  17  32  54  83 118 153 199 254 294 341
#     4  12  21  38  65  88 117 159 205 252 297 363
#     4  10  22  38  59  88 122 164 205 246 308 366
#     4  10  21  39  61  88 122 157 193 242 307 368
#
# _framework density 20.443344
#
# number of rings (size 3 to 8) (size 9 to 14) (size 15 to 20)
#    0.000    1.857    1.429    3.429    0.000    1.143 
#    0.000    3.571    0.000    3.429    0.000    0.000 
#    0.000    0.000    0.000    0.000    0.000    0.000 
#
# Total GULP energy -156070.083104 kJ/mol
# GULP energy per Si atom -5573.931539 kJ/mol
# Density = 2.039681 g / cm^3
# Si number density = 20.443344 Si / 1000 Ang^3
#
#
#
# Elastic Constant Matrix: (Units=GPa)
#
#
# Indices 1 2 3 4 5 6 
#
# 1 84.9526 18.8387 17.9903 0.0000 -10.3691 0.0000
# 2 18.8387 126.9377 40.9185 0.0000 -12.3863 0.0000
# 3 17.9903 40.9185 71.3351 -0.0001 -7.3940 0.0000
# 4 0.0000 0.0000 -0.0001 14.5321 0.0000 -9.2041
# 5 -10.3691 -12.3863 -7.3940 0.0000 42.1739 0.0000
# 6 0.0000 0.0000 0.0000 -9.2041 0.0000 10.3022
#
#
#
# Elastic Compliance Matrix: (Units=1/GPa)
#
#
# Indices 1 2 3 4 5 6 
#
# 1 0.012786 -0.000859 -0.002477 0.000000 0.002457 0.000000
# 2 -0.000859 0.009875 -0.005264 0.000000 0.001766 0.000000
# 3 -0.002477 -0.005264 0.017762 0.000000 0.000959 0.000000
# 4 0.000000 0.000000 0.000000 0.158504 0.000000 0.141610
# 5 0.002457 0.001766 0.000959 0.000000 0.025002 0.000000
# 6 0.000000 0.000000 0.000000 0.141610 0.000000 0.223584
#
#
# Mechanical properties :
#
#
# Convention : Reuss Voigt Hill
#
# Bulk Modulus (GPa) = 43.06355 48.74671 45.90513
# Shear Modulus (GPa) = 10.58300 27.10017 18.84159
#
# Velocity S-wave (km/s) = 2.27772 3.64486 3.03916
# Velocity P-wave (km/s) = 5.29414 6.45057 5.90075
#
# Compressibility (1/GPa) = 0.02322149
#
# Stress axis : x y z
#
# Youngs Moduli (GPa) = 78.20879 101.26845 56.29939
#
# Poissons Ratio (x) = 0.08703 0.13945
# Poissons Ratio (y) = 0.06721 0.29639
# Poissons Ratio (z) = 0.19372 0.53313
#
# Static dielectric constant tensor:
#      x y z
#    x 1.772420 0.000000 0.007550 
#    y 0.000000 1.616830 0.000000 
#    z 0.007550 0.000000 1.718640 
# 
# From -- ./inp_files/376224.got.cif
#   From: 2010.05.17/outbox.cif.g08.bks.cpg/sg12_189_cif.got.tgz:376224.got - 2010.06.03 13:09:07.
