data_PCOD9210956
_publ_section_title
;
Structure prediction by ZEFSAII (Michael W. Deem and Ramdas Pophale) SiO2 
 PCOD9210956
Probable space group: C 2/M
;
_chemical_formula_sum "Si O2"
_cell_formula_units_Z 36
_cell_length_a 24.991259
_cell_length_b 7.679719
_cell_length_c 16.075509
_cell_angle_alpha 90.000000
_cell_angle_beta 152.100743
_cell_angle_gamma 90.000000
_cell_volume 1443.671152
_symmetry_space_group_name_H-M "C 2/M"
_symmetry_group_IT_number 12
_symmetry_cell_setting 'monoclinic'
loop_
_space_group_symop_operation_xyz
x,y,z
-x,y,-z
-x,-y,-z
x,-y,z
1/2+x,1/2+y,z
1/2-x,1/2+y,-z
1/2-x,1/2-y,-z
1/2+x,1/2-y,z
loop_
_atom_site_type_symbol
_atom_site_label
_atom_site_fract_x
_atom_site_fract_y
_atom_site_fract_z
Si Si1 0.898039 0.299467 0.415785
Si Si2 0.312261 0.698366 0.000411
Si Si3 0.568676 0.697830 0.200156
Si Si4 0.205419 0.200511 0.554693
Si Si5 0.060305 0.500000 0.917369
O O1 0.930100 0.500000 0.477998
O O2 0.784979 0.297233 0.204340
O O3 0.865891 0.216155 0.459135
O O4 0.000000 0.221922 0.500000
O O5 0.357441 0.500000 0.069268
O O6 0.400162 0.846093 0.094625
O O7 0.250000 0.750000 0.000000
O O8 0.674897 0.699315 0.282374
O O9 0.631102 0.755810 0.372883
O O10 0.765145 0.000000 0.419121
O O11 0.474894 0.845268 0.063918
O O12 0.025359 0.000000 0.146107
#
# Coordination Sequence:
#
# PCOD9210956 Si02
#       5
#     8   8   8   8   4
#     4  10  24  42  67  98 132 173 219 274 331 390
#     4  11  25  45  67  97 136 174 220 271 328 399
#     4  10  22  40  67 101 132 174 219 274 328 392
#     4  10  21  39  65 100 137 165 221 279 328 388
#     4  12  24  42  70  93 133 180 222 264 331 402
#
# _framework density 24.936426999999998
#
# number of rings (size 3 to 8) (size 9 to 14) (size 15 to 20)
#    0.000    1.556    2.222    1.333    7.778    0.444 
#    0.000    2.222    0.000    4.000    0.000    0.000 
#    0.000    0.000    0.000    0.000    0.000    0.000 
#
# Total GULP energy -100249.265545 kJ/mol
# GULP energy per Si atom -5569.403641 kJ/mol
# Density = 2.487967 g / cm^3
# Si number density = 24.936427 Si / 1000 Ang^3
#
#
#
# Elastic Constant Matrix: (Units=GPa)
#
#
# Indices 1 2 3 4 5 6 
#
# 1 176.9884 44.8863 33.6742 0.0000 16.1439 0.0000
# 2 44.8863 169.8581 29.8474 0.0000 23.4416 0.0000
# 3 33.6742 29.8474 38.7792 0.0000 -12.7880 0.0000
# 4 0.0000 0.0000 0.0000 19.4941 0.0000 5.1681
# 5 16.1439 23.4416 -12.7880 0.0000 43.2249 0.0000
# 6 0.0000 0.0000 0.0000 5.1681 0.0000 47.9221
#
#
#
# Elastic Compliance Matrix: (Units=1/GPa)
#
#
# Indices 1 2 3 4 5 6 
#
# 1 0.007779 0.000281 -0.008842 0.000000 -0.005673 0.000000
# 2 0.000281 0.008450 -0.009190 0.000000 -0.007407 0.000000
# 3 -0.008842 -0.009190 0.047949 0.000000 0.022472 0.000000
# 4 0.000000 0.000000 0.000000 0.052807 0.000000 -0.005695
# 5 -0.005673 -0.007407 0.022472 0.000000 0.035919 0.000000
# 6 0.000000 0.000000 0.000000 -0.005695 0.000000 0.021481
#
#
# Mechanical properties :
#
#
# Convention : Reuss Voigt Hill
#
# Bulk Modulus (GPa) = 34.87311 66.93794 50.90552
# Shear Modulus (GPa) = 22.78472 40.60941 31.69706
#
# Velocity S-wave (km/s) = 3.02605 4.03987 3.56914
# Velocity P-wave (km/s) = 5.12098 6.97585 6.11910
#
# Compressibility (1/GPa) = 0.02867539
#
# Stress axis : x y z
#
# Youngs Moduli (GPa) = 128.55850 118.34252 20.85557
#
# Poissons Ratio (x) = -0.03327 0.18440
# Poissons Ratio (y) = -0.03614 0.19167
# Poissons Ratio (z) = 1.13669 1.08760
#
# Static dielectric constant tensor:
#      x y z
#    x 1.983750 0.000000 0.011350 
#    y 0.000000 1.822510 0.000000 
#    z 0.011350 0.000000 2.087000 
# 
# From -- ./inp_files/231139.got.cif
#   From: 2010.05.17/outbox.cif.g08.bks.cpg/sg12_116_cif.got.tgz:231139.got - 2010.06.03 13:09:07.
