data_PCOD9210351
_publ_section_title
;
Structure prediction by ZEFSAII (Michael W. Deem and Ramdas Pophale) SiO2 
 PCOD9210351
Probable space group: C 2/M
;
_chemical_formula_sum "Si O2"
_cell_formula_units_Z 32
_cell_length_a 14.414482
_cell_length_b 9.677637
_cell_length_c 18.849548
_cell_angle_alpha 90.000000
_cell_angle_beta 31.505623
_cell_angle_gamma 90.000000
_cell_volume 1374.117767
_symmetry_space_group_name_H-M "C 2/M"
_symmetry_group_IT_number 12
_symmetry_cell_setting 'monoclinic'
loop_
_space_group_symop_operation_xyz
x,y,z
-x,y,-z
-x,-y,-z
x,-y,z
1/2+x,1/2+y,z
1/2-x,1/2+y,-z
1/2-x,1/2-y,-z
1/2+x,1/2-y,z
loop_
_atom_site_type_symbol
_atom_site_label
_atom_site_fract_x
_atom_site_fract_y
_atom_site_fract_z
Si Si1 0.091787 0.156619 0.572944
Si Si2 0.814359 0.341977 0.687407
Si Si3 0.287645 0.244599 0.859066
Si Si4 0.009229 0.651979 0.845258
O O1 0.250000 0.250000 0.500000
O O2 0.992211 0.250025 0.579087
O O3 0.937948 0.150354 0.733138
O O4 0.143692 0.000000 0.519095
O O5 0.840043 0.500000 0.649756
O O6 0.746049 0.338455 0.814501
O O7 0.664154 0.264066 0.741089
O O8 0.385841 0.158398 0.856340
O O9 0.119009 0.314113 0.005137
O O10 0.088117 0.500000 0.802899
#
# Coordination Sequence:
#
# PCOD9210351 Si02
#       4
#     8   8   8   8
#     4  10  21  39  62  85 114 155 197 240 290 343
#     4  10  22  38  58  87 120 156 193 238 290 347
#     4   9  23  37  60  85 122 155 192 238 291 346
#     4  11  21  37  61  90 120 154 194 238 292 349
#
# _framework density 23.287669999999999
#
# number of rings (size 3 to 8) (size 9 to 14) (size 15 to 20)
#    1.500    0.500    0.000    3.750    0.000    8.000 
#    0.000    1.250    0.000    6.000    0.000    0.000 
#    0.000    0.000    0.000    0.000    0.000    0.000 
#
# Total GULP energy -89314.046002 kJ/mol
# GULP energy per Si atom -5582.127875 kJ/mol
# Density = 2.323467 g / cm^3
# Si number density = 23.287670 Si / 1000 Ang^3
#
#
#
# Elastic Constant Matrix: (Units=GPa)
#
#
# Indices 1 2 3 4 5 6 
#
# 1 82.8183 35.3512 14.0940 -0.0002 -8.8623 0.0000
# 2 35.3512 222.2880 34.6799 -0.0004 -27.4245 0.0000
# 3 14.0940 34.6799 101.8802 -0.0007 -2.3481 0.0001
# 4 -0.0002 -0.0004 -0.0007 10.5878 0.0002 -12.7151
# 5 -8.8623 -27.4245 -2.3481 0.0002 37.3736 0.0000
# 6 0.0000 0.0000 0.0001 -12.7151 0.0000 15.2637
#
#
#
# Elastic Compliance Matrix: (Units=1/GPa)
#
#
# Indices 1 2 3 4 5 6 
#
# 1 0.013194 -0.001686 -0.001210 -0.000310 0.001816 -0.000258
# 2 -0.001686 0.005438 -0.001537 0.000014 0.003494 0.000012
# 3 -0.001210 -0.001537 0.010489 -0.001337 -0.000756 -0.001114
# 4 -0.000310 0.000014 -0.001337********** 0.001115**********
# 5 0.001816 0.003494 -0.000756 0.001115 0.029704 0.000929
# 6 -0.000258 0.000012 -0.001114********** 0.000929**********
#
#
# Mechanical properties :
#
#
# Convention : Reuss Voigt Hill
#
# Bulk Modulus (GPa) = 49.36917 63.91518 56.64218
# Shear Modulus (GPa) = -0.01294 34.16910 17.07808
#
# Velocity S-wave (km/s) = -0.07461 3.83464 2.71099
# Velocity P-wave (km/s) = 4.60850 6.86378 5.84593
#
# Compressibility (1/GPa) = 0.02025556
#
# Stress axis : x y z
#
# Youngs Moduli (GPa) = 75.79032 183.90452 95.34123
#
# Poissons Ratio (x) = 0.30999 0.11533
# Poissons Ratio (y) = 0.12775 0.14656
# Poissons Ratio (z) = 0.09168 0.28271
#
# Static dielectric constant tensor:
#      x y z
#    x 1.870020 0.000000 0.060340 
#    y 0.000000 1.846580 0.000000 
#    z 0.060340 0.000000 1.919960 
# 
# From -- ./inp_files/150883.got.cif
#   From: 2010.05.17/outbox.cif.g08.bks.cpg/sg12_76_cif.got.tgz:150883.got - 2010.06.03 13:09:07.
