data_PCOD9210264
_publ_section_title
;
Structure prediction by ZEFSAII (Michael W. Deem and Ramdas Pophale) SiO2 
 PCOD9210264
Probable space group: C 2/M
;
_chemical_formula_sum "Si O2"
_cell_formula_units_Z 42
_cell_length_a 5.272445
_cell_length_b 21.707862
_cell_length_c 18.499087
_cell_angle_alpha 90.000000
_cell_angle_beta 47.986515
_cell_angle_gamma 90.000000
_cell_volume 1573.116213
_symmetry_space_group_name_H-M "C 2/M"
_symmetry_group_IT_number 12
_symmetry_cell_setting 'monoclinic'
loop_
_space_group_symop_operation_xyz
x,y,z
-x,y,-z
-x,-y,-z
x,-y,z
1/2+x,1/2+y,z
1/2-x,1/2+y,-z
1/2-x,1/2-y,-z
1/2+x,1/2-y,z
loop_
_atom_site_type_symbol
_atom_site_label
_atom_site_fract_x
_atom_site_fract_y
_atom_site_fract_z
Si Si1 0.222945 0.766863 0.391024
Si Si2 0.692426 0.788518 0.117174
Si Si3 0.318253 0.426989 0.112396
Si Si4 0.931758 0.902087 0.624674
Si Si5 0.000000 0.000000 0.500000
Si Si6 0.356930 0.570230 0.257472
O O1 0.609721 0.769687 0.342240
O O2 0.089180 0.834066 0.400638
O O3 0.000000 0.740901 0.500000
O O4 0.372838 0.751550 0.145539
O O5 0.614504 0.860755 0.149553
O O6 0.000000 0.791263 0.000000
O O7 0.196783 0.500000 0.142042
O O8 0.535107 0.416389 0.145788
O O9 0.500000 0.427461 0.000000
O O10 0.128031 0.946393 0.532823
O O11 0.541150 0.926587 0.689968
O O12 0.067910 0.899234 0.680331
O O13 0.437589 0.500000 0.259550
#
# Coordination Sequence:
#
# PCOD9210264 Si02
#       6
#     8   8   8   8   2   8
#     4  10  21  39  61  87 121 166 208 251 304 371
#     4   9  18  35  59  88 121 159 207 260 309 366
#     4   9  20  41  68  95 127 173 219 259 321 388
#     4  12  24  42  64  95 128 160 212 257 311 374
#     4  12  24  42  68  98 118 170 204 256 308 390
#     4  11  23  41  62  95 134 162 202 271 315 359
#
# _framework density 26.698601
#
# number of rings (size 3 to 8) (size 9 to 14) (size 15 to 20)
#    0.000    1.714    2.857    1.143    0.000    3.048 
#    0.000   11.429    0.000   14.857    0.000    0.000 
#    0.000    0.000    0.000    0.000    0.000    0.000 
#
# Total GULP energy -116924.270291 kJ/mol
# GULP energy per Si atom -5567.822395 kJ/mol
# Density = 2.663783 g / cm^3
# Si number density = 26.698601 Si / 1000 Ang^3
#
#
#
# Elastic Constant Matrix: (Units=GPa)
#
#
# Indices 1 2 3 4 5 6 
#
# 1 183.9008 64.5268 60.8686 0.0000 49.0620 0.0000
# 2 64.5268 209.4336 27.7344 0.0000 33.5556 0.0000
# 3 60.8686 27.7344 117.4423 0.0000 33.4175 0.0000
# 4 0.0000 0.0000 0.0000 13.9926 0.0000 -1.8352
# 5 49.0620 33.5556 33.4175 0.0000 41.6742 0.0000
# 6 0.0000 0.0000 0.0000 -1.8352 0.0000 -6.0915
#
#
#
# Elastic Compliance Matrix: (Units=1/GPa)
#
#
# Indices 1 2 3 4 5 6 
#
# 1 0.008500 -0.001157 -0.002008 0.000000 -0.007465 0.000000
# 2 -0.001157 0.005640 0.000223 0.000000 -0.003358 0.000000
# 3 -0.002008 0.000223 0.011507 0.000000 -0.007043 0.000000
# 4 0.000000 0.000000 0.000000 0.068750 0.000000 -0.020712
# 5 -0.007465 -0.003358 -0.007043 0.000000 0.041135 0.000000
# 6 0.000000 0.000000 0.000000 -0.020712 0.000000 -0.157923
#
#
# Mechanical properties :
#
#
# Convention : Reuss Voigt Hill
#
# Bulk Modulus (GPa) = 50.59926 90.78181 70.69054
# Shear Modulus (GPa) = -504.03109 33.75817 -235.13646
#
# Velocity S-wave (km/s) = -13.75483 3.55972 -9.39478
# Velocity P-wave (km/s) = 15.27309 7.13945 9.54714
#
# Compressibility (1/GPa) = 0.01976313
#
# Stress axis : x y z
#
# Youngs Moduli (GPa) = 117.65005 177.31491 86.90503
#
# Poissons Ratio (x) = 0.20513 0.17451
# Poissons Ratio (y) = 0.13610 -0.01940
# Poissons Ratio (z) = 0.23624 -0.03959
#
# Static dielectric constant tensor:
#      x y z
#    x 2.232110 0.000000 -0.042220 
#    y 0.000000 2.126030 0.000000 
#    z -0.042220 0.000000 2.248270 
# 
# From -- ./inp_files/252878.got.cif
#   From: 2010.05.17/outbox.cif.g08.bks.cpg/sg12_127_cif.got.tgz:252878.got - 2010.06.03 13:09:07.
