data_PCOD9210854
_publ_section_title
;
Structure prediction by ZEFSAII (Michael W. Deem and Ramdas Pophale) SiO2 
 PCOD9210854
Probable space group: C 2/M
;
_chemical_formula_sum "Si O2"
_cell_formula_units_Z 48
_cell_length_a 30.680273
_cell_length_b 8.819804
_cell_length_c 15.006082
_cell_angle_alpha 90.000000
_cell_angle_beta 139.945251
_cell_angle_gamma 90.000000
_cell_volume 2613.045984
_symmetry_space_group_name_H-M "C 2/M"
_symmetry_group_IT_number 12
_symmetry_cell_setting 'monoclinic'
loop_
_space_group_symop_operation_xyz
x,y,z
-x,y,-z
-x,-y,-z
x,-y,z
1/2+x,1/2+y,z
1/2-x,1/2+y,-z
1/2-x,1/2-y,-z
1/2+x,1/2-y,z
loop_
_atom_site_type_symbol
_atom_site_label
_atom_site_fract_x
_atom_site_fract_y
_atom_site_fract_z
Si Si1 0.818604 0.680559 0.648778
Si Si2 0.574602 0.818799 0.654179
Si Si3 0.674164 0.681056 0.665410
Si Si4 0.317519 0.681438 0.842733
Si Si5 0.588025 0.318481 0.351933
Si Si6 0.935350 0.817864 0.166945
O O1 0.812551 0.500000 0.641077
O O2 0.750000 0.750000 0.500000
O O3 0.827271 0.743449 0.761704
O O4 0.879505 0.732886 0.680380
O O5 0.500000 0.777832 0.500000
O O6 0.630628 0.741592 0.679751
O O7 0.579100 0.762807 0.762379
O O8 0.581719 0.000000 0.660534
O O9 0.682009 0.500000 0.683553
O O10 0.746907 0.759078 0.771954
O O11 0.632445 0.714777 0.509467
O O12 0.314607 0.500000 0.827702
O O13 0.378889 0.718779 0.005258
O O14 0.591597 0.500000 0.341724
O O15 0.510419 0.277281 0.250220
O O16 0.934783 0.000000 0.180570
#
# Coordination Sequence:
#
# PCOD9210854 Si02
#       6
#     8   8   8   8   8   8
#     4  12  24  39  63  92 124 162 205 252 303 362
#     4  11  23  38  62  94 126 160 203 255 306 360
#     4  11  22  38  65  92 122 162 205 252 303 363
#     4  11  24  42  64  91 126 161 202 254 307 363
#     4  10  21  39  64  92 121 158 207 253 301 360
#     4  10  23  43  65  90 123 164 204 251 306 363
#
# _framework density 18.369365999999999
#
# number of rings (size 3 to 8) (size 9 to 14) (size 15 to 20)
#    0.000    1.167    3.333    3.000    0.000    4.667 
#    0.000    3.333    0.000    0.000    0.000    0.000 
#    0.000    0.000    0.000    0.000    0.000    0.000 
#
# Total GULP energy -134231.132996 kJ/mol
# GULP energy per Si atom -5592.963875 kJ/mol
# Density = 1.832756 g / cm^3
# Si number density = 18.369366 Si / 1000 Ang^3
#
#
#
# Elastic Constant Matrix: (Units=GPa)
#
#
# Indices 1 2 3 4 5 6 
#
# 1 153.5642 63.9065 63.6369 0.0000 -3.5180 0.0000
# 2 63.9065 72.0181 61.9329 0.0000 -5.1014 0.0000
# 3 63.6369 61.9329 128.0949 0.0000 -0.0224 0.0000
# 4 0.0000 0.0000 0.0000 24.1759 0.0000 -5.3883
# 5 -3.5180 -5.1014 -0.0224 0.0000 32.7667 0.0000
# 6 0.0000 0.0000 0.0000 -5.3883 0.0000 30.9329
#
#
#
# Elastic Compliance Matrix: (Units=1/GPa)
#
#
# Indices 1 2 3 4 5 6 
#
# 1 0.010434 -0.008238 -0.001201 0.000000 -0.000163 0.000000
# 2 -0.008238 0.030727 -0.010763 0.000000 0.003892 0.000000
# 3 -0.001201 -0.010763 0.013607 0.000000 -0.001795 0.000000
# 4 0.000000 0.000000 0.000000 0.043034 0.000000 0.007496
# 5 -0.000163 0.003892 -0.001795 0.000000 0.031106 0.000000
# 6 0.000000 0.000000 0.000000 0.007496 0.000000 0.033634
#
#
# Mechanical properties :
#
#
# Convention : Reuss Voigt Hill
#
# Bulk Modulus (GPa) = 69.61571 81.40333 75.50952
# Shear Modulus (GPa) = 24.06941 28.52183 26.29562
#
# Velocity S-wave (km/s) = 3.62374 3.94469 3.78761
# Velocity P-wave (km/s) = 7.44907 8.07207 7.76682
#
# Compressibility (1/GPa) = 0.01436457
#
# Stress axis : x y z
#
# Youngs Moduli (GPa) = 95.84107 32.54490 73.49310
#
# Poissons Ratio (x) = 0.26810 0.08824
# Poissons Ratio (y) = 0.78952 0.79101
# Poissons Ratio (z) = 0.11507 0.35028
#
# Static dielectric constant tensor:
#      x y z
#    x 1.596770 0.000000 0.006870 
#    y 0.000000 1.614120 0.000000 
#    z 0.006870 0.000000 1.607490 
# 
# From -- ./inp_files/244696.got.cif
#   From: 2010.05.17/outbox.cif.g08.bks.cpg/sg12_123_cif.got.tgz:244696.got - 2010.06.03 13:09:07.
