data_PCOD9210681
_publ_section_title
;
Structure prediction by ZEFSAII (Michael W. Deem and Ramdas Pophale) SiO2 
 PCOD9210681
Probable space group: C 2/M
;
_chemical_formula_sum "Si O2"
_cell_formula_units_Z 34
_cell_length_a 7.650276
_cell_length_b 11.629766
_cell_length_c 15.667947
_cell_angle_alpha 90.000000
_cell_angle_beta 92.862582
_cell_angle_gamma 90.000000
_cell_volume 1392.252211
_symmetry_space_group_name_H-M "C 2/M"
_symmetry_group_IT_number 12
_symmetry_cell_setting 'monoclinic'
loop_
_space_group_symop_operation_xyz
x,y,z
-x,y,-z
-x,-y,-z
x,-y,z
1/2+x,1/2+y,z
1/2-x,1/2+y,-z
1/2-x,1/2-y,-z
1/2+x,1/2-y,z
loop_
_atom_site_type_symbol
_atom_site_label
_atom_site_fract_x
_atom_site_fract_y
_atom_site_fract_z
Si Si1 0.500000 0.500000 0.000000
Si Si2 0.204178 0.628127 0.356048
Si Si3 0.782486 0.816039 0.088194
Si Si4 0.960015 0.622366 0.185046
Si Si5 0.580926 0.374414 0.406731
O O1 0.564218 0.401906 0.932549
O O2 0.174338 0.500000 0.398016
O O3 0.070967 0.629048 0.274108
O O4 0.410991 0.626603 0.341157
O O5 0.177438 0.752565 0.399804
O O6 0.604076 0.874799 0.113551
O O7 0.834195 0.727300 0.163361
O O8 0.750000 0.750000 0.000000
O O9 0.863864 0.500000 0.179533
O O10 0.500000 0.376271 0.500000
O O11 0.672032 0.500000 0.395953
#
# Coordination Sequence:
#
# PCOD9210681 Si02
#       5
#     2   8   8   8   8
#     4  12  24  40  60  88 116 144 204 246 294 352
#     4  10  22  40  59  90 121 158 201 243 298 355
#     4  12  24  40  60  87 113 154 198 244 296 351
#     4  11  24  40  61  83 120 155 193 247 297 350
#     4  10  21  39  63  91 124 159 198 244 294 352
#
# _framework density 24.420864999999999
#
# number of rings (size 3 to 8) (size 9 to 14) (size 15 to 20)
#    0.000    1.176    3.529    2.118    1.647    2.353 
#    2.118    0.000    0.000    0.000    0.000    0.000 
#    0.000    0.000    0.000    0.000    0.000    0.000 
#
# Total GULP energy -94650.084233 kJ/mol
# GULP energy per Si atom -5567.652014 kJ/mol
# Density = 2.436528 g / cm^3
# Si number density = 24.420865 Si / 1000 Ang^3
#
#
#
# Elastic Constant Matrix: (Units=GPa)
#
#
# Indices 1 2 3 4 5 6 
#
# 1 31.0662 33.4711 -11.3992 0.0000 9.2592 0.0000
# 2 33.4711 255.1081 31.9015 0.0000 1.9097 0.0000
# 3 -11.3992 31.9015 56.2914 0.0000 18.9145 0.0000
# 4 0.0000 0.0000 0.0000 20.2238 0.0000 -1.3189
# 5 9.2592 1.9097 18.9145 0.0000 35.6327 0.0000
# 6 0.0000 0.0000 0.0000 -1.3189 0.0000 8.5118
#
#
#
# Elastic Compliance Matrix: (Units=1/GPa)
#
#
# Indices 1 2 3 4 5 6 
#
# 1 0.068054 -0.012738 0.032511 0.000000 -0.034259 0.000000
# 2 -0.012738 0.006651 -0.008935 0.000000 0.007696 0.000000
# 3 0.032511 -0.008935 0.039056 0.000000 -0.028701 0.000000
# 4 0.000000 0.000000 0.000000 0.049952 0.000000 0.007740
# 5 -0.034259 0.007696 -0.028701 0.000000 0.051789 0.000000
# 6 0.000000 0.000000 0.000000 0.007740 0.000000 0.118683
#
#
# Mechanical properties :
#
#
# Convention : Reuss Voigt Hill
#
# Bulk Modulus (GPa) = 7.38350 50.04584 28.71467
# Shear Modulus (GPa) = 13.98006 32.10645 23.04326
#
# Velocity S-wave (km/s) = 2.39522 3.62983 3.07512
# Velocity P-wave (km/s) = 3.26794 6.17294 4.93885
#
# Compressibility (1/GPa) = 0.13543711
#
# Stress axis : x y z
#
# Youngs Moduli (GPa) = 14.69431 150.35646 25.60453
#
# Poissons Ratio (x) = 1.91524 -0.83244
# Poissons Ratio (y) = 0.18718 0.22877
# Poissons Ratio (z) = -0.47773 1.34339
#
# Static dielectric constant tensor:
#      x y z
#    x 1.925790 0.000000 0.027220 
#    y 0.000000 2.007130 0.000000 
#    z 0.027220 0.000000 1.952880 
# 
# From -- ./inp_files/250680.got.cif
#   From: 2010.05.17/outbox.cif.g08.bks.cpg/sg12_126_cif.got.tgz:250680.got - 2010.06.03 13:09:07.
