data_PCOD9210096
_publ_section_title
;
Structure prediction by ZEFSAII (Michael W. Deem and Ramdas Pophale) SiO2 
 PCOD9210096
Probable space group: C 2/M
;
_chemical_formula_sum "Si O2"
_cell_formula_units_Z 56
_cell_length_a 18.778058
_cell_length_b 8.764341
_cell_length_c 19.046992
_cell_angle_alpha 90.000000
_cell_angle_beta 104.439983
_cell_angle_gamma 90.000000
_cell_volume 3035.675390
_symmetry_space_group_name_H-M "C 2/M"
_symmetry_group_IT_number 12
_symmetry_cell_setting 'monoclinic'
loop_
_space_group_symop_operation_xyz
x,y,z
-x,y,-z
-x,-y,-z
x,-y,z
1/2+x,1/2+y,z
1/2-x,1/2+y,-z
1/2-x,1/2-y,-z
1/2+x,1/2-y,z
loop_
_atom_site_type_symbol
_atom_site_label
_atom_site_fract_x
_atom_site_fract_y
_atom_site_fract_z
Si Si1 0.362819 0.182531 0.140013
Si Si2 0.418120 0.814257 0.999821
Si Si3 0.705578 0.816689 0.142754
Si Si4 0.983959 0.818275 0.270610
Si Si5 0.346729 0.682565 0.723131
Si Si6 0.963266 0.818577 0.565717
Si Si7 0.690792 0.180359 0.432806
O O1 0.284379 0.256585 0.137096
O O2 0.422136 0.230301 0.212907
O O3 0.354790 0.000000 0.137021
O O4 0.393242 0.233223 0.071383
O O5 0.357783 0.767513 0.927642
O O6 0.419851 0.000000 0.000172
O O7 0.500000 0.761133 0.000000
O O8 0.685516 0.752727 0.214183
O O9 0.706637 0.000000 0.145289
O O10 0.066228 0.779769 0.263539
O O11 0.985288 0.786064 0.354391
O O12 0.973152 0.000000 0.258518
O O13 0.340476 0.500000 0.722571
O O14 0.306856 0.746847 0.644193
O O15 0.889456 0.723420 0.557363
O O16 0.000000 0.790273 0.500000
O O17 0.944703 0.000000 0.565820
O O18 0.750000 0.250000 0.500000
O O19 0.700150 0.000000 0.430017
#
# Coordination Sequence:
#
# PCOD9210096 Si02
#       7
#     8   8   8   8   8   8   8
#     4  11  22  36  56  82 115 151 188 232 279 331
#     4   9  19  36  58  83 110 145 189 233 278 333
#     4  11  22  37  58  83 114 149 186 231 284 337
#     4   9  19  36  57  81 110 144 185 234 285 338
#     4  10  21  39  60  83 112 145 187 235 283 338
#     4   9  19  37  59  82 112 149 189 236 286 335
#     4  11  22  37  58  84 116 152 191 233 280 334
#
# _framework density 18.447295
#
# number of rings (size 3 to 8) (size 9 to 14) (size 15 to 20)
#    0.000    2.000    0.000    4.714    0.000    5.429 
#    0.000    6.429    0.000    5.143    0.000    0.000 
#    0.000    0.000    0.000    0.000    0.000    0.000 
#
# Total GULP energy -156409.171658 kJ/mol
# GULP energy per Si atom -5586.041845 kJ/mol
# Density = 1.840531 g / cm^3
# Si number density = 18.447295 Si / 1000 Ang^3
#
#
#
# Elastic Constant Matrix: (Units=GPa)
#
#
# Indices 1 2 3 4 5 6 
#
# 1 126.4467 55.7828 107.2943 0.0000 -2.8193 0.0000
# 2 55.7828 66.3757 62.8732 0.0000 3.1708 0.0000
# 3 107.2943 62.8732 175.7865 0.0000 1.7045 0.0000
# 4 0.0000 0.0000 0.0000 23.8587 0.0000 -0.0173
# 5 -2.8193 3.1708 1.7045 0.0000 37.8898 0.0000
# 6 0.0000 0.0000 0.0000 -0.0173 0.0000 25.0553
#
#
#
# Elastic Compliance Matrix: (Units=1/GPa)
#
#
# Indices 1 2 3 4 5 6 
#
# 1 0.018718 -0.007565 -0.008743 0.000000 0.002419 0.000000
# 2 -0.007565 0.025933 -0.004633 0.000000 -0.002525 0.000000
# 3 -0.008743 -0.004633 0.012690 0.000000 -0.000834 0.000000
# 4 0.000000 0.000000 0.000000 0.041913 0.000000 0.000029
# 5 0.002419 -0.002525 -0.000834 0.000000 0.026821 0.000000
# 6 0.000000 0.000000 0.000000 0.000029 0.000000 0.039912
#
#
# Mechanical properties :
#
#
# Convention : Reuss Voigt Hill
#
# Bulk Modulus (GPa) = 64.68679 91.16772 77.92725
# Shear Modulus (GPa) = 23.47156 26.87134 25.17145
#
# Velocity S-wave (km/s) = 3.57088 3.82075 3.69793
# Velocity P-wave (km/s) = 7.22104 8.30615 7.78253
#
# Compressibility (1/GPa) = 0.01545911
#
# Stress axis : x y z
#
# Youngs Moduli (GPa) = 53.42355 38.56060 78.80072
#
# Poissons Ratio (x) = 0.29172 0.68893
# Poissons Ratio (y) = 0.40417 0.36511
# Poissons Ratio (z) = 0.46706 0.17867
#
# Static dielectric constant tensor:
#      x y z
#    x 1.608180 0.000000 -0.003370 
#    y 0.000000 1.619170 0.000000 
#    z -0.003370 0.000000 1.618080 
# 
# From -- ./inp_files/275089.got.cif
#   From: 2010.05.17/outbox.cif.g08.bks.cpg/sg12_138_cif.got.tgz:275089.got - 2010.06.03 13:09:07.
