data_PCOD9210612
_publ_section_title
;
Structure prediction by ZEFSAII (Michael W. Deem and Ramdas Pophale) SiO2 
 PCOD9210612
Probable space group: C 2/M
;
_chemical_formula_sum "Si O2"
_cell_formula_units_Z 64
_cell_length_a 16.659150
_cell_length_b 8.652572
_cell_length_c 19.842604
_cell_angle_alpha 90.000000
_cell_angle_beta 105.682096
_cell_angle_gamma 90.000000
_cell_volume 2753.734703
_symmetry_space_group_name_H-M "C 2/M"
_symmetry_group_IT_number 12
_symmetry_cell_setting 'monoclinic'
loop_
_space_group_symop_operation_xyz
x,y,z
-x,y,-z
-x,-y,-z
x,-y,z
1/2+x,1/2+y,z
1/2-x,1/2+y,-z
1/2-x,1/2-y,-z
1/2+x,1/2-y,z
loop_
_atom_site_type_symbol
_atom_site_label
_atom_site_fract_x
_atom_site_fract_y
_atom_site_fract_z
Si Si1 0.388602 0.177595 0.923362
Si Si2 0.472423 0.179057 0.162663
Si Si3 0.901055 0.179623 0.709838
Si Si4 0.766816 0.317940 0.779753
Si Si5 0.053481 0.318321 0.414298
Si Si6 0.661651 0.320376 0.958315
Si Si7 0.316346 0.317687 0.462384
Si Si8 0.864660 0.316319 0.335200
O O1 0.461410 0.189113 0.884573
O O2 0.302788 0.205379 0.862648
O O3 0.389008 0.000000 0.949044
O O4 0.393667 0.291001 0.987057
O O5 0.513952 0.278300 0.231164
O O6 0.385416 0.236306 0.113253
O O7 0.468652 0.000000 0.183219
O O8 0.895525 0.283679 0.642209
O O9 0.827854 0.221829 0.744907
O O10 0.898499 0.000000 0.690764
O O11 0.777059 0.500000 0.767922
O O12 0.674965 0.264583 0.738857
O O13 0.055840 0.500000 0.431987
O O14 0.905258 0.223108 0.516417
O O15 0.959533 0.273355 0.373764
O O16 0.669797 0.500000 0.944992
O O17 0.750000 0.250000 0.000000
O O18 0.305283 0.500000 0.452326
O O19 0.250000 0.250000 0.500000
O O20 0.313266 0.235817 0.389457
O O21 0.860606 0.500000 0.325824
#
# Coordination Sequence:
#
# PCOD9210612 Si02
#       8
#     8   8   8   8   8   8   8   8
#     4   9  20  39  62  87 117 154 195 242 295 350
#     4  10  21  40  64  88 118 155 196 243 296 352
#     4  11  22  38  62  91 122 155 198 245 290 347
#     4  10  21  39  63  89 120 157 197 242 292 348
#     4  11  24  42  62  87 123 161 198 242 295 352
#     4  12  25  39  58  85 119 157 198 245 297 354
#     4  12  25  42  65  90 119 155 199 247 295 350
#     4  11  24  41  62  89 122 158 196 242 296 352
#
# _framework density 23.241164000000001
#
# number of rings (size 3 to 8) (size 9 to 14) (size 15 to 20)
#    0.000    1.250    0.000    7.125    0.000    9.000 
#    0.000    2.500    0.000    0.000    0.000    0.000 
#    0.000    0.000    0.000    0.000    0.000    0.000 
#
# Total GULP energy -179271.335408 kJ/mol
# GULP energy per Si atom -5602.229231 kJ/mol
# Density = 2.318827 g / cm^3
# Si number density = 23.241164 Si / 1000 Ang^3
#
#
#
# Elastic Constant Matrix: (Units=GPa)
#
#
# Indices 1 2 3 4 5 6 
#
# 1 83.0904 16.1455 10.9316 0.0000 22.1428 0.0000
# 2 16.1455 52.5157 8.4777 0.0000 13.2687 0.0000
# 3 10.9316 8.4777 70.2498 0.0000 16.9196 0.0000
# 4 0.0000 0.0000 0.0000 29.8088 0.0000 10.0593
# 5 22.1428 13.2687 16.9196 0.0000 45.7726 0.0000
# 6 0.0000 0.0000 0.0000 10.0593 0.0000 32.0591
#
#
#
# Elastic Compliance Matrix: (Units=1/GPa)
#
#
# Indices 1 2 3 4 5 6 
#
# 1 0.014211 -0.002807 -0.000453 0.000000 -0.005893 0.000000
# 2 -0.002807 0.021186 -0.001062 0.000000 -0.004391 0.000000
# 3 -0.000453 -0.001062 0.015705 0.000000 -0.005278 0.000000
# 4 0.000000 0.000000 0.000000 0.037520 0.000000 -0.011773
# 5 -0.005893 -0.004391 -0.005278 0.000000 0.027922 0.000000
# 6 0.000000 0.000000 0.000000 -0.011773 0.000000 0.034886
#
#
# Mechanical properties :
#
#
# Convention : Reuss Voigt Hill
#
# Bulk Modulus (GPa) = 23.55353 30.77396 27.16375
# Shear Modulus (GPa) = 28.69833 32.88152 30.78992
#
# Velocity S-wave (km/s) = 3.51779 3.76546 3.64373
# Velocity P-wave (km/s) = 5.16297 5.67228 5.42361
#
# Compressibility (1/GPa) = 0.04245648
#
# Stress axis : x y z
#
# Youngs Moduli (GPa) = 70.36994 47.20160 63.67464
#
# Poissons Ratio (x) = 0.13248 0.02886
# Poissons Ratio (y) = 0.19751 0.06765
# Poissons Ratio (z) = 0.03189 0.05015
#
# Static dielectric constant tensor:
#      x y z
#    x 1.964710 0.000000 -0.016390 
#    y 0.000000 1.769640 0.000000 
#    z -0.016390 0.000000 1.863120 
# 
# From -- ./inp_files/314112.got.cif
#   From: 2010.05.17/outbox.cif.g08.bks.cpg/sg12_158_cif.got.tgz:314112.got - 2010.06.03 13:09:07.
