data_PCOD9210632
_publ_section_title
;
Structure prediction by ZEFSAII (Michael W. Deem and Ramdas Pophale) SiO2 
 PCOD9210632
Probable space group: C 2/M
;
_chemical_formula_sum "Si O2"
_cell_formula_units_Z 48
_cell_length_a 14.503618
_cell_length_b 8.478150
_cell_length_c 24.378700
_cell_angle_alpha 90.000000
_cell_angle_beta 139.084617
_cell_angle_gamma 90.000000
_cell_volume 1963.324007
_symmetry_space_group_name_H-M "C 2/M"
_symmetry_group_IT_number 12
_symmetry_cell_setting 'monoclinic'
loop_
_space_group_symop_operation_xyz
x,y,z
-x,y,-z
-x,-y,-z
x,-y,z
1/2+x,1/2+y,z
1/2-x,1/2+y,-z
1/2-x,1/2-y,-z
1/2+x,1/2-y,z
loop_
_atom_site_type_symbol
_atom_site_label
_atom_site_fract_x
_atom_site_fract_y
_atom_site_fract_z
Si Si1 0.203990 0.183229 0.620526
Si Si2 0.268134 0.317575 0.811270
Si Si3 0.291491 0.820382 0.932174
Si Si4 0.457114 0.685206 0.678465
Si Si5 0.033492 0.683354 0.876235
Si Si6 0.441784 0.814342 0.553452
O O1 0.365921 0.228151 0.683931
O O2 0.133205 0.221419 0.529476
O O3 0.109069 0.286241 0.618703
O O4 0.188379 0.000000 0.627445
O O5 0.242479 0.500000 0.788000
O O6 0.330782 0.295191 0.900706
O O7 0.377178 0.244392 0.817350
O O8 0.120902 0.227235 0.750483
O O9 0.132651 0.783728 0.880819
O O10 0.303586 0.000000 0.917198
O O11 0.387615 0.805904 0.029164
O O12 0.435217 0.500000 0.674199
O O13 0.404334 0.744819 0.595378
O O14 0.034235 0.500000 0.859839
O O15 0.410638 0.000000 0.535663
#
# Coordination Sequence:
#
# PCOD9210632 Si02
#       6
#     8   8   8   8   8   8
#     4  11  22  40  64  92 121 155 198 244 293 347
#     4  12  25  40  59  87 121 158 198 242 295 354
#     4  10  21  39  63  90 119 154 197 244 293 347
#     4  12  25  42  61  86 120 159 199 244 297 352
#     4  10  21  39  63  90 119 154 197 244 293 347
#     4  11  22  40  64  92 121 155 198 244 293 347
#
# _framework density 24.448335
#
# number of rings (size 3 to 8) (size 9 to 14) (size 15 to 20)
#    0.000    1.000    0.000    9.000    0.000    5.333 
#    0.000    6.667    0.000    0.000    0.000    0.000 
#    0.000    0.000    0.000    0.000    0.000    0.000 
#
# Total GULP energy -134571.071038 kJ/mol
# GULP energy per Si atom -5607.127960 kJ/mol
# Density = 2.439269 g / cm^3
# Si number density = 24.448335 Si / 1000 Ang^3
#
#
#
# Elastic Constant Matrix: (Units=GPa)
#
#
# Indices 1 2 3 4 5 6 
#
# 1 113.5358 3.5440 10.1797 0.0000 20.7587 0.0000
# 2 3.5440 106.4687 -4.9109 0.0000 -0.2143 0.0000
# 3 10.1797 -4.9109 71.0464 0.0000 17.8888 0.0000
# 4 0.0000 0.0000 0.0000 29.5169 0.0000 2.5530
# 5 20.7587 -0.2143 17.8888 0.0000 49.0563 0.0000
# 6 0.0000 0.0000 0.0000 2.5530 0.0000 38.6555
#
#
#
# Elastic Compliance Matrix: (Units=1/GPa)
#
#
# Indices 1 2 3 4 5 6 
#
# 1 0.009569 -0.000345 -0.000413 0.000000 -0.003900 0.000000
# 2 -0.000345 0.009437 0.000721 0.000000 -0.000075 0.000000
# 3 -0.000413 0.000721 0.015569 0.000000 -0.005499 0.000000
# 4 0.000000 0.000000 0.000000 0.034074 0.000000 -0.002250
# 5 -0.003900 -0.000075 -0.005499 0.000000 0.024040 0.000000
# 6 0.000000 0.000000 0.000000 -0.002250 0.000000 0.026018
#
#
# Mechanical properties :
#
#
# Convention : Reuss Voigt Hill
#
# Bulk Modulus (GPa) = 28.98578 34.29740 31.64159
# Shear Modulus (GPa) = 38.37844 42.26163 40.32003
#
# Velocity S-wave (km/s) = 3.96634 4.16217 4.06543
# Velocity P-wave (km/s) = 5.73214 6.09567 5.91670
#
# Compressibility (1/GPa) = 0.03449967
#
# Stress axis : x y z
#
# Youngs Moduli (GPa) = 104.50775 105.96566 64.23016
#
# Poissons Ratio (x) = 0.03660 0.02652
# Poissons Ratio (y) = 0.03610 -0.04630
# Poissons Ratio (z) = 0.04315 -0.07638
#
# Static dielectric constant tensor:
#      x y z
#    x 1.925020 0.000000 -0.038090 
#    y 0.000000 1.811600 0.000000 
#    z -0.038090 0.000000 2.136130 
# 
# From -- ./inp_files/375158.got.cif
#   From: 2010.05.17/outbox.cif.g08.bks.cpg/sg12_188_cif.got.tgz:375158.got - 2010.06.03 13:09:07.
