data_PCOD9210829
_publ_section_title
;
Structure prediction by ZEFSAII (Michael W. Deem and Ramdas Pophale) SiO2 
 PCOD9210829
Probable space group: C 2/M
;
_chemical_formula_sum "Si O2"
_cell_formula_units_Z 64
_cell_length_a 25.649257
_cell_length_b 20.927475
_cell_length_c 20.232074
_cell_angle_alpha 90.000000
_cell_angle_beta 18.628237
_cell_angle_gamma 90.000000
_cell_volume 3468.987824
_symmetry_space_group_name_H-M "C 2/M"
_symmetry_group_IT_number 12
_symmetry_cell_setting 'monoclinic'
loop_
_space_group_symop_operation_xyz
x,y,z
-x,y,-z
-x,-y,-z
x,-y,z
1/2+x,1/2+y,z
1/2-x,1/2+y,-z
1/2-x,1/2-y,-z
1/2+x,1/2-y,z
loop_
_atom_site_type_symbol
_atom_site_label
_atom_site_fract_x
_atom_site_fract_y
_atom_site_fract_z
Si Si1 0.850121 0.430241 0.628321
Si Si2 0.924696 0.574192 0.267560
Si Si3 0.804291 0.697733 0.236427
Si Si4 0.575355 0.074189 0.232359
Si Si5 0.805480 0.805981 0.983466
Si Si6 0.304287 0.802266 0.736432
Si Si7 0.305457 0.305976 0.483502
Si Si8 0.850086 0.430241 0.128380
O O1 0.769748 0.500000 0.721493
O O2 0.745337 0.371789 0.781607
O O3 0.000000 0.435623 0.500000
O O4 0.934671 0.415158 0.456557
O O5 0.869326 0.500000 0.325109
O O6 0.787030 0.627719 0.422591
O O7 0.000006 0.580190 0.249986
O O8 0.065402 0.584851 0.043346
O O9 0.750013 0.749993 0.249974
O O10 0.746194 0.711365 0.379864
O O11 0.745301 0.628206 0.281676
O O12 0.000000 0.695982 0.000000
O O13 0.630758 0.000000 0.174764
O O14 0.713026 0.127713 0.077316
O O15 0.000012 0.813257 0.749983
O O16 0.750000 0.750000 0.000000
O O17 0.753807 0.788659 0.120128
O O18 0.500000 0.804006 0.500000
O O19 0.250000 0.250000 0.500000
O O20 0.769718 0.500000 0.221548
O O21 0.000000 0.435624 0.000000
#
# Coordination Sequence:
#
# PCOD9210829 Si02
#       8
#     8   8   8   8   8   8   8   8
#     4   9  17  35  63  86 109 150 205 244 286 355
#     4  10  21  39  64  91 120 159 204 249 302 364
#     4  11  22  39  60  87 115 157 200 244 294 355
#     4  10  21  39  64  91 120 159 204 249 302 364
#     4  12  25  39  59  89 126 162 197 250 303 359
#     4  11  22  39  60  87 115 157 200 244 294 355
#     4  12  25  39  59  89 126 162 197 250 303 359
#     4   9  17  35  63  86 109 150 205 244 286 355
#
# _framework density 18.449186000000001
#
# number of rings (size 3 to 8) (size 9 to 14) (size 15 to 20)
#    0.000    1.500    5.000    2.250    3.500    0.500 
#    0.000    0.000    0.000    0.750    0.000    0.000 
#    0.000    0.000    0.000    0.000    0.000    0.000 
#
# Total GULP energy -178512.921298 kJ/mol
# GULP energy per Si atom -5578.528791 kJ/mol
# Density = 1.840719 g / cm^3
# Si number density = 18.449186 Si / 1000 Ang^3
#
#
#
# Elastic Constant Matrix: (Units=GPa)
#
#
# Indices 1 2 3 4 5 6 
#
# 1 126.1047 65.8995 47.2902 0.0548 38.7808 -0.0453
# 2 65.8995 161.1179 35.5188 0.0574 6.0146 -0.0476
# 3 47.2902 35.5188 74.4930 0.0545 23.0018 -0.0405
# 4 0.0548 0.0574 0.0545 181.4771 -0.0523 -119.2405
# 5 38.7808 6.0146 23.0018 -0.0523 39.7562 0.0415
# 6 -0.0453 -0.0476 -0.0405 -119.2405 0.0415 129.7118
#
#
#
# Elastic Compliance Matrix: (Units=1/GPa)
#
#
# Indices 1 2 3 4 5 6 
#
# 1 0.015932 -0.005223 -0.003737 -0.000004 -0.012589 0.000003
# 2 -0.005223 0.008684 -0.002426 0.000001 0.005184 0.000000
# 3 -0.003737 -0.002426 0.019132 -0.000005 -0.007057 0.000002
# 4 -0.000004 0.000001 -0.000005 0.013915 0.000011 0.012792
# 5 -0.012589 0.005184 -0.007057 0.000011 0.040732 -0.000008
# 6 0.000003 0.000000 0.000002 0.012792 -0.000008 0.019469
#
#
# Mechanical properties :
#
#
# Convention : Reuss Voigt Hill
#
# Bulk Modulus (GPa) = 47.66986 73.23697 60.45341
# Shear Modulus (GPa) = 33.86899 84.38949 59.12924
#
# Velocity S-wave (km/s) = 4.28927 6.77059 5.66739
# Velocity P-wave (km/s) = 7.10106 10.04510 8.69853
#
# Compressibility (1/GPa) = 0.02097762
#
# Stress axis : x y z
#
# Youngs Moduli (GPa) = 62.76700 115.15351 52.26838
#
# Poissons Ratio (x) = 0.60141 0.19530
# Poissons Ratio (y) = 0.32781 0.12680
# Poissons Ratio (z) = 0.23453 0.27936
#
# Static dielectric constant tensor:
#      x y z
#    x 1.626230 0.000010 0.008780 
#    y 0.000010 1.735600 0.000000 
#    z 0.008780 0.000000 1.615330 
# 
# From -- ./inp_files/290896.got.cif
#   From: 2010.05.17/outbox.cif.g08.bks.cpg/sg12_146_cif.got.tgz:290896.got - 2010.06.03 13:09:07.
