data_PCOD9210076
_publ_section_title
;
Structure prediction by ZEFSAII (Michael W. Deem and Ramdas Pophale) SiO2 
 PCOD9210076
Probable space group: C 2/M
;
_chemical_formula_sum "Si O2"
_cell_formula_units_Z 36
_cell_length_a 7.786898
_cell_length_b 23.404928
_cell_length_c 12.215762
_cell_angle_alpha 90.000000
_cell_angle_beta 52.681756
_cell_angle_gamma 90.000000
_cell_volume 1770.568293
_symmetry_space_group_name_H-M "C 2/M"
_symmetry_group_IT_number 12
_symmetry_cell_setting 'monoclinic'
loop_
_space_group_symop_operation_xyz
x,y,z
-x,y,-z
-x,-y,-z
x,-y,z
1/2+x,1/2+y,z
1/2-x,1/2+y,-z
1/2-x,1/2-y,-z
1/2+x,1/2-y,z
loop_
_atom_site_type_symbol
_atom_site_label
_atom_site_fract_x
_atom_site_fract_y
_atom_site_fract_z
Si Si1 0.500000 0.595357 0.000000
Si Si2 0.732097 0.000000 0.997151
Si Si3 0.500000 0.786417 0.000000
Si Si4 0.327664 0.815734 0.468656
Si Si5 0.322116 0.185613 0.844633
Si Si6 0.000000 0.095727 0.500000
Si Si7 0.280644 0.000000 0.263352
O O1 0.633332 0.555958 0.028051
O O2 0.659256 0.636533 0.873454
O O3 0.542268 0.000000 0.164689
O O4 0.717250 0.000000 0.870882
O O5 0.611118 0.820336 0.054430
O O6 0.311057 0.744454 0.117650
O O7 0.500000 0.825870 0.500000
O O8 0.250000 0.750000 0.500000
O O9 0.464271 0.818727 0.305538
O O10 0.137605 0.862408 0.527435
O O11 0.161630 0.054362 0.366851
#
# Coordination Sequence:
#
# PCOD9210076 Si02
#       7
#     4   4   4   8   8   4   4
#     4  10  22  37  66  96 126 155 222 274 338 398
#     4  10  22  44  68  96 120 168 216 290 339 392
#     4   9  20  37  62  88 132 167 212 269 324 392
#     4  12  25  42  66  99 141 185 223 272 327 412
#     4  10  21  39  59  96 127 173 215 266 330 395
#     4  11  26  46  68 102 136 181 234 274 338 407
#     4  10  24  48  70  94 130 174 228 283 340 403
#
# _framework density 20.332455
#
# number of rings (size 3 to 8) (size 9 to 14) (size 15 to 20)
#    0.000    1.556    1.111    2.667    3.111    3.556 
#    0.000    1.111    0.000    0.000    0.000    0.000 
#    0.000    0.000    0.000    0.000    0.000    0.000 
#
# Total GULP energy -100324.168604 kJ/mol
# GULP energy per Si atom -5573.564922 kJ/mol
# Density = 2.028618 g / cm^3
# Si number density = 20.332455 Si / 1000 Ang^3
#
#
#
# Elastic Constant Matrix: (Units=GPa)
#
#
# Indices 1 2 3 4 5 6 
#
# 1 100.0065 53.1804 17.7131 0.0000 -6.6482 0.0000
# 2 53.1804 126.2268 52.1885 0.0000 -12.0597 0.0000
# 3 17.7131 52.1885 80.3859 0.0000 -16.4243 0.0000
# 4 0.0000 0.0000 0.0000 -26.2179 0.0000 12.8145
# 5 -6.6482 -12.0597 -16.4243 0.0000 25.8217 0.0000
# 6 0.0000 0.0000 0.0000 12.8145 0.0000 27.2725
#
#
#
# Elastic Compliance Matrix: (Units=1/GPa)
#
#
# Indices 1 2 3 4 5 6 
#
# 1 0.012981 -0.005838 0.001213 0.000000 0.001387 0.000000
# 2 -0.005838 0.013465 -0.007445 0.000000 0.000050 0.000000
# 3 0.001213 -0.007445 0.018803 0.000000 0.008795 0.000000
# 4 0.000000 0.000000 0.000000 -0.031018 0.000000 0.014575
# 5 0.001387 0.000050 0.008795 0.000000 0.044702 0.000000
# 6 0.000000 0.000000 0.000000 0.014575 0.000000 0.029819
#
#
# Mechanical properties :
#
#
# Convention : Reuss Voigt Hill
#
# Bulk Modulus (GPa) = 47.37219 61.42036 54.39627
# Shear Modulus (GPa) = 41.69158 17.61108 29.65133
#
# Velocity S-wave (km/s) = 4.53315 2.94625 3.82295
# Velocity P-wave (km/s) = 7.12381 6.46896 6.80427
#
# Compressibility (1/GPa) = 0.02110943
#
# Stress axis : x y z
#
# Youngs Moduli (GPa) = 77.03421 74.26737 53.18241
#
# Poissons Ratio (x) = 0.43359 -0.06453
# Poissons Ratio (y) = 0.44974 0.39595
# Poissons Ratio (z) = -0.09347 0.55293
#
# Static dielectric constant tensor:
#      x y z
#    x 1.892450 0.000000 -0.040970 
#    y 0.000000 1.756050 0.000000 
#    z -0.040970 0.000000 1.701430 
# 
# From -- ./inp_files/121667.got.cif
#   From: 2010.05.17/outbox.cif.g08.bks.cpg/sg12_61_cif.got.tgz:121667.got - 2010.06.03 13:09:07.
