data_PCOD9210305
_publ_section_title
;
Structure prediction by ZEFSAII (Michael W. Deem and Ramdas Pophale) SiO2 
 PCOD9210305
Probable space group: C 2/M
;
_chemical_formula_sum "Si O2"
_cell_formula_units_Z 38
_cell_length_a 12.143920
_cell_length_b 22.910348
_cell_length_c 11.747896
_cell_angle_alpha 90.000000
_cell_angle_beta 38.896089
_cell_angle_gamma 90.000000
_cell_volume 2052.333955
_symmetry_space_group_name_H-M "C 2/M"
_symmetry_group_IT_number 12
_symmetry_cell_setting 'monoclinic'
loop_
_space_group_symop_operation_xyz
x,y,z
-x,y,-z
-x,-y,-z
x,-y,z
1/2+x,1/2+y,z
1/2-x,1/2+y,-z
1/2-x,1/2-y,-z
1/2+x,1/2-y,z
loop_
_atom_site_type_symbol
_atom_site_label
_atom_site_fract_x
_atom_site_fract_y
_atom_site_fract_z
Si Si1 0.000000 0.500000 0.500000
Si Si2 0.168435 0.276417 0.303297
Si Si3 0.570828 0.857128 0.184305
Si Si4 0.580030 0.430805 0.061408
Si Si5 0.773054 0.392430 0.591350
Si Si6 0.500000 0.805200 0.000000
O O1 0.145839 0.448490 0.410139
O O2 0.116878 0.298910 0.219369
O O3 0.206704 0.334933 0.346477
O O4 0.335657 0.235672 0.163526
O O5 0.000000 0.248164 0.500000
O O6 0.394863 0.882474 0.383551
O O7 0.733424 0.900483 0.073407
O O8 0.546241 0.843009 0.072931
O O9 0.598320 0.500000 0.060103
O O10 0.431305 0.404848 0.264105
O O11 0.500000 0.419081 0.000000
#
# Coordination Sequence:
#
# PCOD9210305 Si02
#       6
#     2   8   8   8   8   4
#     4  12  16  36  66  98 126 144 186 268 338 336
#     4  10  21  39  61  90 119 156 209 260 297 357
#     4  11  24  40  60  92 126 160 212 246 305 374
#     4  11  21  34  64  96 120 151 193 260 318 363
#     4  11  21  36  64  99 124 149 198 261 316 364
#     4  12  26  42  61  81 128 182 200 250 298 354
#
# _framework density 18.515504
#
# number of rings (size 3 to 8) (size 9 to 14) (size 15 to 20)
#    0.000    1.053    6.316    1.895    4.421    5.053 
#    0.000    0.526    0.000    1.263    0.000    0.000 
#    0.000    0.000    0.000    0.000    0.000    0.000 
#
# Total GULP energy -105916.740305 kJ/mol
# GULP energy per Si atom -5574.565279 kJ/mol
# Density = 1.847336 g / cm^3
# Si number density = 18.515504 Si / 1000 Ang^3
#
#
#
# Elastic Constant Matrix: (Units=GPa)
#
#
# Indices 1 2 3 4 5 6 
#
# 1 96.3191 45.1245 69.0953 0.0000 13.7973 0.0000
# 2 45.1245 68.2015 67.7129 0.0000 2.2521 0.0000
# 3 69.0953 67.7129 164.9085 0.0000 -18.7834 0.0000
# 4 0.0000 0.0000 0.0000 13.2394 0.0000 -4.1960
# 5 13.7973 2.2521 -18.7834 0.0000 23.0798 0.0000
# 6 0.0000 0.0000 0.0000 -4.1960 0.0000 31.4100
#
#
#
# Elastic Compliance Matrix: (Units=1/GPa)
#
#
# Indices 1 2 3 4 5 6 
#
# 1 0.022839 -0.004127 -0.010343 0.000000 -0.021668 0.000000
# 2 -0.004127 0.028791 -0.011167 0.000000 -0.009431 0.000000
# 3 -0.010343 -0.011167 0.017427 0.000000 0.021455 0.000000
# 4 0.000000 0.000000 0.000000 0.078871 0.000000 0.010536
# 5 -0.021668 -0.009431 0.021455 0.000000 0.074663 0.000000
# 6 0.000000 0.000000 0.000000 0.010536 0.000000 0.033245
#
#
# Mechanical properties :
#
#
# Convention : Reuss Voigt Hill
#
# Bulk Modulus (GPa) = 56.23190 77.03270 66.63230
# Shear Modulus (GPa) = 15.97257 23.37893 19.67575
#
# Velocity S-wave (km/s) = 2.94029 3.55726 3.26339
# Velocity P-wave (km/s) = 6.47790 7.65290 7.08978
#
# Compressibility (1/GPa) = 0.01778350
#
# Stress axis : x y z
#
# Youngs Moduli (GPa) = 43.78508 34.73271 57.38339
#
# Poissons Ratio (x) = 0.14333 0.59351
# Poissons Ratio (y) = 0.18069 0.64081
# Poissons Ratio (z) = 0.45286 0.38786
#
# Static dielectric constant tensor:
#      x y z
#    x 1.625960 0.000000 -0.010850 
#    y 0.000000 1.612830 0.000000 
#    z -0.010850 0.000000 1.717150 
# 
# From -- ./inp_files/133681.got.cif
#   From: 2010.05.17/outbox.cif.g08.bks.cpg/sg12_67_cif.got.tgz:133681.got - 2010.06.03 13:09:07.
