data_PCOD9210308
_publ_section_title
;
Structure prediction by ZEFSAII (Michael W. Deem and Ramdas Pophale) SiO2 
 PCOD9210308
Probable space group: C 2/M
;
_chemical_formula_sum "Si O2"
_cell_formula_units_Z 64
_cell_length_a 33.035993
_cell_length_b 8.659370
_cell_length_c 20.115287
_cell_angle_alpha 90.000000
_cell_angle_beta 30.740523
_cell_angle_gamma 90.000000
_cell_volume 2941.365878
_symmetry_space_group_name_H-M "C 2/M"
_symmetry_group_IT_number 12
_symmetry_cell_setting 'monoclinic'
loop_
_space_group_symop_operation_xyz
x,y,z
-x,y,-z
-x,-y,-z
x,-y,z
1/2+x,1/2+y,z
1/2-x,1/2+y,-z
1/2-x,1/2-y,-z
1/2+x,1/2-y,z
loop_
_atom_site_type_symbol
_atom_site_label
_atom_site_fract_x
_atom_site_fract_y
_atom_site_fract_z
Si Si1 0.927456 0.819950 0.649483
Si Si2 0.282656 0.323634 0.521000
Si Si3 0.685655 0.181760 0.890972
Si Si4 0.258965 0.182254 0.913200
Si Si5 0.993593 0.323903 0.343123
Si Si6 0.696056 0.820935 0.371359
Si Si7 0.458553 0.820983 0.993297
Si Si8 0.440835 0.173871 0.279393
O O1 0.845334 0.729371 0.762630
O O2 0.000000 0.765101 0.500000
O O3 0.959102 0.795037 0.679488
O O4 0.913152 0.000000 0.655076
O O5 0.257073 0.500000 0.564433
O O6 0.250000 0.250000 0.500000
O O7 0.266159 0.229367 0.611443
O O8 0.376782 0.305668 0.379249
O O9 0.695655 0.255086 0.949242
O O10 0.766976 0.213154 0.736731
O O11 0.618269 0.246344 0.935739
O O12 0.670429 0.000000 0.920668
O O13 0.252874 0.000000 0.926115
O O14 0.250000 0.250000 0.000000
O O15 0.015174 0.500000 0.332193
O O16 0.899073 0.304828 0.488830
O O17 0.003956 0.309818 0.249370
O O18 0.713077 0.000000 0.332690
O O19 0.437530 0.000000 0.040836
O O20 0.500000 0.750756 0.000000
O O21 0.523067 0.823863 0.843897
O O22 0.404976 0.000000 0.340895
#
# Coordination Sequence:
#
# PCOD9210308 Si02
#       8
#     8   8   8   8   8   8   8   8
#     4  11  24  41  65  98 134 170 218 277 328 392
#     4  11  22  36  57  86 119 158 204 262 326 387
#     4  11  23  40  66  98 132 172 216 264 318 386
#     4  12  27  47  70  98 135 179 227 280 340 404
#     4   9  19  35  59  89 122 166 209 255 317 381
#     4  10  21  39  61  90 127 168 212 260 319 383
#     4   9  20  38  62  92 125 167 212 254 309 379
#     4   9  19  37  59  85 120 159 207 256 308 380
#
# _framework density 21.758597999999999
#
# number of rings (size 3 to 8) (size 9 to 14) (size 15 to 20)
#    0.000    1.750    0.000    4.875    3.500    5.500 
#    0.000    1.250    0.000    1.875    0.000    0.000 
#    0.000    0.000    0.000    0.000    0.000    0.000 
#
# Total GULP energy -178734.981795 kJ/mol
# GULP energy per Si atom -5585.468181 kJ/mol
# Density = 2.170907 g / cm^3
# Si number density = 21.758598 Si / 1000 Ang^3
#
#
#
# Elastic Constant Matrix: (Units=GPa)
#
#
# Indices 1 2 3 4 5 6 
#
# 1 154.8527 37.2551 33.9718 0.0002 15.8549 0.0000
# 2 37.2551 67.2393 13.0866 -0.0057 -4.4205 0.0026
# 3 33.9718 13.0866 58.2880 -0.0025 12.6711 0.0017
# 4 0.0002 -0.0057 -0.0025 22.4521 0.0010 1.3804
# 5 15.8549 -4.4205 12.6711 0.0010 27.4722 -0.0006
# 6 0.0000 0.0026 0.0017 1.3804 -0.0006 31.8975
#
#
#
# Elastic Compliance Matrix: (Units=1/GPa)
#
#
# Indices 1 2 3 4 5 6 
#
# 1 0.008654 -0.004471 -0.003110 -0.000001 -0.004279 0.000001
# 2 -0.004471 0.018396 -0.003033 0.000004 0.006939 -0.000001
# 3 -0.003110 -0.003033 0.021523 0.000002 -0.008621 -0.000001
# 4 -0.000001 0.000004 0.000002 0.044658 -0.000001 -0.001933
# 5 -0.004279 0.006939 -0.008621 -0.000001 0.043963 0.000001
# 6 0.000001 -0.000001 -0.000001 -0.001933 0.000001 0.031434
#
#
# Mechanical properties :
#
#
# Convention : Reuss Voigt Hill
#
# Bulk Modulus (GPa) = 36.56785 49.88968 43.22876
# Shear Modulus (GPa) = 25.12936 29.43546 27.28241
#
# Velocity S-wave (km/s) = 3.40209 3.68206 3.54484
# Velocity P-wave (km/s) = 5.68111 6.40744 6.05517
#
# Compressibility (1/GPa) = 0.02734643
#
# Stress axis : x y z
#
# Youngs Moduli (GPa) = 115.55750 54.35990 46.46089
#
# Poissons Ratio (x) = 0.24304 0.14447
# Poissons Ratio (y) = 0.51664 0.14091
# Poissons Ratio (z) = 0.35933 0.16487
#
# Static dielectric constant tensor:
#      x y z
#    x 1.849370 0.000000 -0.026790 
#    y 0.000000 1.788120 0.000000 
#    z -0.026790 0.000000 1.820400 
# 
# From -- ./inp_files/295596.got.cif
#   From: 2010.05.17/outbox.cif.g08.bks.cpg/sg12_148_cif.got.tgz:295596.got - 2010.06.03 13:09:07.
