data_PCOD9210711
_publ_section_title
;
Structure prediction by ZEFSAII (Michael W. Deem and Ramdas Pophale) SiO2 
 PCOD9210711
Probable space group: C 2/M
;
_chemical_formula_sum "Si O2"
_cell_formula_units_Z 48
_cell_length_a 26.595729
_cell_length_b 9.193865
_cell_length_c 13.590991
_cell_angle_alpha 90.000000
_cell_angle_beta 47.526435
_cell_angle_gamma 90.000000
_cell_volume 2451.181975
_symmetry_space_group_name_H-M "C 2/M"
_symmetry_group_IT_number 12
_symmetry_cell_setting 'monoclinic'
loop_
_space_group_symop_operation_xyz
x,y,z
-x,y,-z
-x,-y,-z
x,-y,z
1/2+x,1/2+y,z
1/2-x,1/2+y,-z
1/2-x,1/2-y,-z
1/2+x,1/2-y,z
loop_
_atom_site_type_symbol
_atom_site_label
_atom_site_fract_x
_atom_site_fract_y
_atom_site_fract_z
Si Si1 0.522220 0.168594 0.581329
Si Si2 0.191118 0.164608 0.131507
Si Si3 0.718509 0.824528 0.638940
Si Si4 0.577732 0.825586 0.928480
Si Si5 0.933557 0.164059 0.853957
Si Si6 0.180360 0.330895 0.345976
O O1 0.500000 0.220589 0.500000
O O2 0.489821 0.255616 0.713905
O O3 0.603452 0.172869 0.488061
O O4 0.499271 0.000000 0.616460
O O5 0.129685 0.157017 0.136472
O O6 0.173090 0.258829 0.249545
O O7 0.210571 0.000000 0.134026
O O8 0.250000 0.250000 0.000000
O O9 0.750000 0.750000 0.500000
O O10 0.639405 0.788102 0.771412
O O11 0.765804 0.762071 0.663522
O O12 0.723229 0.000000 0.624633
O O13 0.580734 0.000000 0.936900
O O14 0.500000 0.788881 0.000000
O O15 0.587701 0.748667 0.019993
O O16 0.954911 0.000000 0.851427
O O17 0.201968 0.500000 0.312088
#
# Coordination Sequence:
#
# PCOD9210711 Si02
#       6
#     8   8   8   8   8   8
#     4  10  21  39  63  92 126 171 215 252 308 383
#     4  11  23  38  59  89 125 164 206 256 318 385
#     4  11  25  45  69  97 130 169 213 269 325 382
#     4  10  24  46  69  92 123 168 218 261 314 386
#     4  11  24  39  61  94 129 162 204 265 323 373
#     4  11  23  40  64  92 126 166 212 262 313 380
#
# _framework density 19.58239
#
# number of rings (size 3 to 8) (size 9 to 14) (size 15 to 20)
#    0.000    1.333    1.667    3.000    2.333    8.000 
#    0.000    0.000    0.000    0.000    0.000    0.000 
#    0.000    0.000    0.000    0.000    0.000    0.000 
#
# Total GULP energy -134016.283166 kJ/mol
# GULP energy per Si atom -5584.011799 kJ/mol
# Density = 1.953782 g / cm^3
# Si number density = 19.582390 Si / 1000 Ang^3
#
#
#
# Elastic Constant Matrix: (Units=GPa)
#
#
# Indices 1 2 3 4 5 6 
#
# 1 78.3156 32.0431 42.3193 0.0000 0.7132 0.0000
# 2 32.0431 90.2319 75.4205 0.0000 -2.9023 0.0000
# 3 42.3193 75.4205 152.4149 0.0000 3.6530 0.0000
# 4 0.0000 0.0000 0.0000 27.7665 0.0000 3.4829
# 5 0.7132 -2.9023 3.6530 0.0000 29.9111 0.0000
# 6 0.0000 0.0000 0.0000 3.4829 0.0000 30.8715
#
#
#
# Elastic Compliance Matrix: (Units=1/GPa)
#
#
# Indices 1 2 3 4 5 6 
#
# 1 0.015572 -0.003300 -0.002682 0.000000 -0.000364 0.000000
# 2 -0.003300 0.019868 -0.008990 0.000000 0.003104 0.000000
# 3 -0.002682 -0.008990 0.011808 0.000000 -0.002250 0.000000
# 4 0.000000 0.000000 0.000000 0.036532 0.000000 -0.004122
# 5 -0.000364 0.003104 -0.002250 0.000000 0.034017 0.000000
# 6 0.000000 0.000000 0.000000 -0.004122 0.000000 0.032857
#
#
# Mechanical properties :
#
#
# Convention : Reuss Voigt Hill
#
# Bulk Modulus (GPa) = 57.78683 68.94758 63.36720
# Shear Modulus (GPa) = 26.82901 29.12179 27.97540
#
# Velocity S-wave (km/s) = 3.70545 3.86053 3.78378
# Velocity P-wave (km/s) = 6.91959 7.42678 7.17767
#
# Compressibility (1/GPa) = 0.01730498
#
# Stress axis : x y z
#
# Youngs Moduli (GPa) = 64.21974 50.33140 84.68724
#
# Poissons Ratio (x) = 0.16608 0.22714
# Poissons Ratio (y) = 0.21190 0.76132
# Poissons Ratio (z) = 0.17224 0.45247
#
# Static dielectric constant tensor:
#      x y z
#    x 1.681060 0.000000 -0.023560 
#    y 0.000000 1.684730 0.000000 
#    z -0.023560 0.000000 1.690430 
# 
# From -- ./inp_files/244685.got.cif
#   From: 2010.05.17/outbox.cif.g08.bks.cpg/sg12_123_cif.got.tgz:244685.got - 2010.06.03 13:09:07.
