data_PCOD9210765
_publ_section_title
;
Structure prediction by ZEFSAII (Michael W. Deem and Ramdas Pophale) SiO2 
 PCOD9210765
Probable space group: C 2/M
;
_chemical_formula_sum "Si O2"
_cell_formula_units_Z 44
_cell_length_a 11.368048
_cell_length_b 27.068582
_cell_length_c 12.451020
_cell_angle_alpha 90.000000
_cell_angle_beta 33.624292
_cell_angle_gamma 90.000000
_cell_volume 2121.611538
_symmetry_space_group_name_H-M "C 2/M"
_symmetry_group_IT_number 12
_symmetry_cell_setting 'monoclinic'
loop_
_space_group_symop_operation_xyz
x,y,z
-x,y,-z
-x,-y,-z
x,-y,z
1/2+x,1/2+y,z
1/2-x,1/2+y,-z
1/2-x,1/2-y,-z
1/2+x,1/2-y,z
loop_
_atom_site_type_symbol
_atom_site_label
_atom_site_fract_x
_atom_site_fract_y
_atom_site_fract_z
Si Si1 0.372994 0.361052 0.996168
Si Si2 0.500000 0.354706 0.500000
Si Si3 0.198315 0.265920 0.770156
Si Si4 0.494509 0.790589 0.712510
Si Si5 0.308213 0.382507 0.435755
Si Si6 0.433235 0.942726 0.672768
O O1 0.541664 0.378683 0.781238
O O2 0.500000 0.337858 0.000000
O O3 0.201290 0.321353 0.085344
O O4 0.246110 0.407270 0.143188
O O5 0.301269 0.319332 0.674323
O O6 0.454150 0.383734 0.428264
O O7 0.383977 0.235911 0.693773
O O8 0.105639 0.255855 0.718889
O O9 0.000000 0.268465 0.000000
O O10 0.658310 0.833381 0.551094
O O11 0.151912 0.428792 0.563891
O O12 0.500000 0.929693 0.500000
O O13 0.374890 0.000000 0.722498
#
# Coordination Sequence:
#
# PCOD9210765 Si02
#       6
#     8   4   8   8   8   8
#     4  11  21  37  62  91 120 158 194 245 305 357
#     4  10  24  40  61  80 120 168 209 244 290 348
#     4  11  22  39  55  85 115 164 207 262 297 349
#     4  10  24  37  57  83 122 159 208 253 299 346
#     4  10  22  42  59  88 121 162 198 245 295 359
#     4  10  21  39  63  96 125 146 185 242 303 365
#
# _framework density 20.738952999999999
#
# number of rings (size 3 to 8) (size 9 to 14) (size 15 to 20)
#    0.000    1.636    1.818    2.182    0.000    8.364 
#    0.000    0.455    0.000    1.091    0.000    0.000 
#    0.000    0.000    0.000    0.000    0.000    0.000 
#
# Total GULP energy -122872.618766 kJ/mol
# GULP energy per Si atom -5585.119035 kJ/mol
# Density = 2.069175 g / cm^3
# Si number density = 20.738953 Si / 1000 Ang^3
#
#
#
# Elastic Constant Matrix: (Units=GPa)
#
#
# Indices 1 2 3 4 5 6 
#
# 1 140.5281 17.6073 40.8460 0.0000 5.3488 0.0000
# 2 17.6073 25.5255 20.1083 0.0000 -0.8423 0.0000
# 3 40.8460 20.1083 115.2489 0.0000 0.6126 0.0000
# 4 0.0000 0.0000 0.0000 18.0684 0.0000 1.0262
# 5 5.3488 -0.8423 0.6126 0.0000 30.2189 0.0000
# 6 0.0000 0.0000 0.0000 1.0262 0.0000 49.0534
#
#
#
# Elastic Compliance Matrix: (Units=1/GPa)
#
#
# Indices 1 2 3 4 5 6 
#
# 1 0.008331 -0.004032 -0.002241 0.000000 -0.001542 0.000000
# 2 -0.004032 0.047432 -0.006858 0.000000 0.002175 0.000000
# 3 -0.002241 -0.006858 0.010668 0.000000 -0.000011 0.000000
# 4 0.000000 0.000000 0.000000 0.055411 0.000000 -0.001159
# 5 -0.001542 0.002175 -0.000011 0.000000 0.033426 0.000000
# 6 0.000000 0.000000 0.000000 -0.001159 0.000000 0.020410
#
#
# Mechanical properties :
#
#
# Convention : Reuss Voigt Hill
#
# Bulk Modulus (GPa) = 24.89528 48.71398 36.80463
# Shear Modulus (GPa) = 23.22005 32.98419 28.10212
#
# Velocity S-wave (km/s) = 3.34972 3.99237 3.68508
# Velocity P-wave (km/s) = 5.19529 6.69269 5.99096
#
# Compressibility (1/GPa) = 0.04016825
#
# Stress axis : x y z
#
# Youngs Moduli (GPa) = 120.02946 21.08262 93.74020
#
# Poissons Ratio (x) = 0.08501 0.21007
# Poissons Ratio (y) = 0.48400 0.64290
# Poissons Ratio (z) = 0.26899 0.14459
#
# Static dielectric constant tensor:
#      x y z
#    x 1.889130 0.000000 0.097040 
#    y 0.000000 1.733960 0.000000 
#    z 0.097040 0.000000 1.973860 
# 
# From -- ./inp_files/136868.got.cif
#   From: 2010.05.17/outbox.cif.g08.bks.cpg/sg12_69_cif.got.tgz:136868.got - 2010.06.03 13:09:07.
