data_PCOD9210879
_publ_section_title
;
Structure prediction by ZEFSAII (Michael W. Deem and Ramdas Pophale) SiO2 
 PCOD9210879
Probable space group: C 2/M
;
_chemical_formula_sum "Si O2"
_cell_formula_units_Z 64
_cell_length_a 19.097325
_cell_length_b 14.695607
_cell_length_c 16.838407
_cell_angle_alpha 90.000000
_cell_angle_beta 138.407677
_cell_angle_gamma 90.000000
_cell_volume 3137.005902
_symmetry_space_group_name_H-M "C 2/M"
_symmetry_group_IT_number 12
_symmetry_cell_setting 'monoclinic'
loop_
_space_group_symop_operation_xyz
x,y,z
-x,y,-z
-x,-y,-z
x,-y,z
1/2+x,1/2+y,z
1/2-x,1/2+y,-z
1/2-x,1/2-y,-z
1/2+x,1/2-y,z
loop_
_atom_site_type_symbol
_atom_site_label
_atom_site_fract_x
_atom_site_fract_y
_atom_site_fract_z
Si Si1 0.770872 0.759111 0.208581
Si Si2 0.067936 0.256095 0.129304
Si Si3 0.698521 0.347378 0.473835
Si Si4 0.778292 0.894810 0.075726
Si Si5 0.620614 0.894166 0.792984
Si Si6 0.378528 0.603633 0.420842
Si Si7 0.993740 0.105959 0.804919
Si Si8 0.915151 0.399248 0.716369
O O1 0.672954 0.721324 0.175268
O O2 0.740115 0.818874 0.105140
O O3 0.845766 0.677484 0.244742
O O4 0.824465 0.832529 0.311057
O O5 0.008361 0.174227 0.122903
O O6 0.094335 0.330258 0.218652
O O7 0.000000 0.296994 0.000000
O O8 0.750000 0.250000 0.500000
O O9 0.638254 0.354727 0.506428
O O10 0.613428 0.375778 0.335771
O O11 0.805155 0.404316 0.576680
O O12 0.901108 0.877403 0.158326
O O13 0.770088 0.000000 0.098302
O O14 0.708555 0.888940 0.937117
O O15 0.509036 0.868579 0.737965
O O16 0.615273 0.000000 0.762279
O O17 0.500000 0.598879 0.500000
O O18 0.335778 0.500000 0.384822
O O19 0.997330 0.000000 0.831355
O O20 0.944843 0.500000 0.770546
#
# Coordination Sequence:
#
# PCOD9210879 Si02
#       8
#     8   8   8   8   8   8   8   8
#     4  12  22  37  61  89 124 163 198 255 311 372
#     4  12  25  40  61  96 131 163 204 255 318 375
#     4  12  23  42  66  94 128 167 210 260 309 376
#     4  10  21  39  64  93 122 159 213 264 310 369
#     4  10  23  41  62  89 123 170 216 254 300 368
#     4  11  24  40  62  94 126 155 198 261 321 368
#     4  11  23  42  68  93 122 165 212 262 313 368
#     4  11  23  42  65  91 129 172 212 255 304 377
#
# _framework density 20.401619
#
# number of rings (size 3 to 8) (size 9 to 14) (size 15 to 20)
#    0.000    0.875    2.500    4.875    1.750    3.500 
#    0.000    0.000    0.000    0.375    0.000    0.000 
#    0.000    0.000    0.000    0.000    0.000    0.000 
#
# Total GULP energy -178870.023050 kJ/mol
# GULP energy per Si atom -5589.688220 kJ/mol
# Density = 2.035518 g / cm^3
# Si number density = 20.401619 Si / 1000 Ang^3
#
#
#
# Elastic Constant Matrix: (Units=GPa)
#
#
# Indices 1 2 3 4 5 6 
#
# 1 116.7901 41.3435 0.0939 0.0000 -0.9701 0.0000
# 2 41.3435 81.6996 -4.9066 0.0000 -24.6790 0.0000
# 3 0.0939 -4.9066 44.5169 0.0000 4.5657 0.0000
# 4 0.0000 0.0000 0.0000 72.7188 0.0000 -42.1281
# 5 -0.9701 -24.6790 4.5657 0.0000 29.0526 0.0000
# 6 0.0000 0.0000 0.0000 -42.1281 0.0000 65.9837
#
#
#
# Elastic Compliance Matrix: (Units=1/GPa)
#
#
# Indices 1 2 3 4 5 6 
#
# 1 0.011148 -0.007441 -0.000237 0.000000 -0.005911 0.000000
# 2 -0.007441 0.021438 0.000545 0.000000 0.017877 0.000000
# 3 -0.000237 0.000545 0.022846 0.000000 -0.003135 0.000000
# 4 0.000000 0.000000 0.000000 0.021824 0.000000 0.013934
# 5 -0.005911 0.017877 -0.003135 0.000000 0.049901 0.000000
# 6 0.000000 0.000000 0.000000 0.013934 0.000000 0.024051
#
#
# Mechanical properties :
#
#
# Convention : Reuss Voigt Hill
#
# Bulk Modulus (GPa) = 24.29267 35.11871 29.70569
# Shear Modulus (GPa) = 27.90242 47.31607 37.60925
#
# Velocity S-wave (km/s) = 3.70220 4.82106 4.29819
# Velocity P-wave (km/s) = 5.49619 6.94559 6.26296
#
# Compressibility (1/GPa) = 0.04116468
#
# Stress axis : x y z
#
# Youngs Moduli (GPa) = 89.70564 46.64567 43.77228
#
# Poissons Ratio (x) = 0.34709 0.01039
# Poissons Ratio (y) = 0.66750 -0.02386
# Poissons Ratio (z) = 0.02129 -0.02543
#
# Static dielectric constant tensor:
#      x y z
#    x 1.753180 0.000000 0.027600 
#    y 0.000000 1.593920 0.000000 
#    z 0.027600 0.000000 1.730210 
# 
# From -- ./inp_files/225736.got.cif
#   From: 2010.05.17/outbox.cif.g08.bks.cpg/sg12_113_cif.got.tgz:225736.got - 2010.06.03 13:09:07.
