data_PCOD9210237
_publ_section_title
;
Structure prediction by ZEFSAII (Michael W. Deem and Ramdas Pophale) SiO2 
 PCOD9210237
Probable space group: C 2/M
;
_chemical_formula_sum "Si O2"
_cell_formula_units_Z 64
_cell_length_a 9.770516
_cell_length_b 16.100550
_cell_length_c 29.244436
_cell_angle_alpha 90.000000
_cell_angle_beta 132.617844
_cell_angle_gamma 90.000000
_cell_volume 3385.416831
_symmetry_space_group_name_H-M "C 2/M"
_symmetry_group_IT_number 12
_symmetry_cell_setting 'monoclinic'
loop_
_space_group_symop_operation_xyz
x,y,z
-x,y,-z
-x,-y,-z
x,-y,z
1/2+x,1/2+y,z
1/2-x,1/2+y,-z
1/2-x,1/2-y,-z
1/2+x,1/2-y,z
loop_
_atom_site_type_symbol
_atom_site_label
_atom_site_fract_x
_atom_site_fract_y
_atom_site_fract_z
Si Si1 0.954511 0.819567 0.151858
Si Si2 0.536018 0.594733 0.940400
Si Si3 0.728979 0.756332 0.352584
Si Si4 0.709464 0.094611 0.173749
Si Si5 0.700955 0.150901 0.925810
Si Si6 0.957242 0.404034 0.436407
Si Si7 0.215436 0.905294 0.563270
Si Si8 0.807340 0.776319 0.267278
O O1 0.977843 0.883414 0.115672
O O2 0.827855 0.855280 0.163304
O O3 0.853925 0.740134 0.106547
O O4 0.152772 0.790038 0.216299
O O5 0.595258 0.500000 0.960535
O O6 0.339193 0.608755 0.920659
O O7 0.684151 0.651160 0.001114
O O8 0.817467 0.669689 0.390429
O O9 0.752616 0.831692 0.393493
O O10 0.819721 0.778262 0.324593
O O11 0.510166 0.745035 0.294635
O O12 0.492373 0.103004 0.112596
O O13 0.741831 0.137899 0.229853
O O14 0.768804 0.000000 0.187438
O O15 0.890681 0.500000 0.413820
O O16 0.000000 0.395797 0.500000
O O17 0.143686 0.394211 0.447711
O O18 0.000000 0.900998 0.500000
O O19 0.248683 0.000000 0.588423
#
# Coordination Sequence:
#
# PCOD9210237 Si02
#       8
#     8   8   8   8   8   8   8   8
#     4  11  23  41  60  85 119 160 199 247 306 367
#     4  11  22  38  60  89 118 152 197 248 309 366
#     4  12  23  43  67  91 126 168 211 257 300 368
#     4  11  23  41  62  88 121 156 203 260 306 358
#     4  10  21  39  61  86 118 153 197 248 304 371
#     4  10  23  42  66  97 130 166 206 253 312 367
#     4  10  23  42  65  97 131 164 206 256 308 365
#     4  11  25  42  61  89 122 163 211 248 305 362
#
# _framework density 18.904615
#
# number of rings (size 3 to 8) (size 9 to 14) (size 15 to 20)
#    0.000    1.250    2.500    4.125    3.500    3.500 
#    0.000    2.500    0.000    0.000    0.000    0.000 
#    0.000    0.000    0.000    0.000    0.000    0.000 
#
# Total GULP energy -178730.292798 kJ/mol
# GULP energy per Si atom -5585.321650 kJ/mol
# Density = 1.886159 g / cm^3
# Si number density = 18.904615 Si / 1000 Ang^3
#
#
#
# Elastic Constant Matrix: (Units=GPa)
#
#
# Indices 1 2 3 4 5 6 
#
# 1 58.4097 37.2978 31.2588 0.0000 -6.3972 0.0000
# 2 37.2978 100.6622 41.6597 0.0000 5.4718 0.0000
# 3 31.2588 41.6597 74.1625 0.0000 4.3580 0.0000
# 4 0.0000 0.0000 0.0000 9.1200 0.0000 2.7742
# 5 -6.3972 5.4718 4.3580 0.0000 38.8828 0.0000
# 6 0.0000 0.0000 0.0000 2.7742 0.0000 64.8348
#
#
#
# Elastic Compliance Matrix: (Units=1/GPa)
#
#
# Indices 1 2 3 4 5 6 
#
# 1 0.026257 -0.006949 -0.007525 0.000000 0.006141 0.000000
# 2 -0.006949 0.014822 -0.005242 0.000000 -0.002641 0.000000
# 3 -0.007525 -0.005242 0.019760 0.000000 -0.002715 0.000000
# 4 0.000000 0.000000 0.000000 0.111095 0.000000 -0.004754
# 5 0.006141 -0.002641 -0.002715 0.000000 0.027405 0.000000
# 6 0.000000 0.000000 0.000000 -0.004754 0.000000 0.015627
#
#
# Mechanical properties :
#
#
# Convention : Reuss Voigt Hill
#
# Bulk Modulus (GPa) = 46.71146 50.40745 48.55945
# Shear Modulus (GPa) = 19.11815 30.76872 24.94344
#
# Velocity S-wave (km/s) = 3.18354 4.03870 3.63635
# Velocity P-wave (km/s) = 6.18675 6.96205 6.58582
#
# Compressibility (1/GPa) = 0.02140802
#
# Stress axis : x y z
#
# Youngs Moduli (GPa) = 38.08509 67.46797 50.60812
#
# Poissons Ratio (x) = 0.46880 0.38081
# Poissons Ratio (y) = 0.26464 0.26529
# Poissons Ratio (z) = 0.28658 0.35367
#
# Static dielectric constant tensor:
#      x y z
#    x 1.630840 0.000000 -0.002490 
#    y 0.000000 1.656960 0.000000 
#    z -0.002490 0.000000 1.637680 
# 
# From -- ./inp_files/372613.got.cif
#   From: 2010.05.17/outbox.cif.g08.bks.cpg/sg12_187_cif.got.tgz:372613.got - 2010.06.03 13:09:07.
