data_PCOD9210281
_publ_section_title
;
Structure prediction by ZEFSAII (Michael W. Deem and Ramdas Pophale) SiO2 
 PCOD9210281
Probable space group: C 2/M
;
_chemical_formula_sum "Si O2"
_cell_formula_units_Z 64
_cell_length_a 19.667311
_cell_length_b 9.025434
_cell_length_c 31.597585
_cell_angle_alpha 90.000000
_cell_angle_beta 36.272646
_cell_angle_gamma 90.000000
_cell_volume 3318.302280
_symmetry_space_group_name_H-M "C 2/M"
_symmetry_group_IT_number 12
_symmetry_cell_setting 'monoclinic'
loop_
_space_group_symop_operation_xyz
x,y,z
-x,y,-z
-x,-y,-z
x,-y,z
1/2+x,1/2+y,z
1/2-x,1/2+y,-z
1/2-x,1/2-y,-z
1/2+x,1/2-y,z
loop_
_atom_site_type_symbol
_atom_site_label
_atom_site_fract_x
_atom_site_fract_y
_atom_site_fract_z
Si Si1 0.689326 0.676955 0.989776
Si Si2 0.253340 0.172915 0.267729
Si Si3 0.826959 0.673814 0.327346
Si Si4 0.011206 0.676401 0.374870
Si Si5 0.605370 0.822363 0.479117
Si Si6 0.760906 0.677216 0.122247
Si Si7 0.557039 0.823294 0.899333
Si Si8 0.982980 0.824334 0.715933
O O1 0.695086 0.500000 0.989863
O O2 0.746765 0.735049 0.917549
O O3 0.750000 0.750000 0.000000
O O4 0.557999 0.733181 0.051606
O O5 0.303599 0.191637 0.289308
O O6 0.141437 0.272897 0.318796
O O7 0.350818 0.202760 0.184179
O O8 0.218105 0.000000 0.279918
O O9 0.839835 0.500000 0.329938
O O10 0.717795 0.738794 0.407021
O O11 0.939219 0.759814 0.285970
O O12 0.006138 0.500000 0.373279
O O13 0.978223 0.751879 0.347448
O O14 0.933910 0.719576 0.453938
O O15 0.500000 0.790206 0.500000
O O16 0.624966 0.000000 0.467972
O O17 0.762250 0.500000 0.113224
O O18 0.876102 0.713453 0.090751
O O19 0.650434 0.708140 0.207027
O O20 0.530482 0.000000 0.913538
O O21 0.995830 0.000000 0.706839
#
# Coordination Sequence:
#
# PCOD9210281 Si02
#       8
#     8   8   8   8   8   8   8   8
#     4  12  27  44  64  95 131 166 209 256 307 363
#     4  10  21  39  63  93 126 162 206 254 312 370
#     4  11  24  39  61  94 127 163 210 260 314 372
#     4  11  22  38  64  93 124 161 210 261 308 368
#     4  10  21  39  61  88 123 165 209 256 314 373
#     4  10  22  43  69  94 124 167 207 248 309 374
#     4  10  21  42  68  94 127 166 207 251 308 374
#     4  11  24  43  65  91 127 166 207 255 315 375
#
# _framework density 19.286971999999999
#
# number of rings (size 3 to 8) (size 9 to 14) (size 15 to 20)
#    0.000    1.375    2.500    2.625    1.750    5.750 
#    0.000    0.000    0.000    0.000    0.000    0.000 
#    0.000    0.000    0.000    0.000    0.000    0.000 
#
# Total GULP energy -178935.812474 kJ/mol
# GULP energy per Si atom -5591.744140 kJ/mol
# Density = 1.924307 g / cm^3
# Si number density = 19.286972 Si / 1000 Ang^3
#
#
#
# Elastic Constant Matrix: (Units=GPa)
#
#
# Indices 1 2 3 4 5 6 
#
# 1 78.0297 47.0866 26.0353 0.0005 7.1664 0.0084
# 2 47.0866 64.0738 34.6309 0.0015 10.1490 0.0031
# 3 26.0353 34.6309 66.6038 -0.0011 18.2511 -0.0005
# 4 0.0005 0.0015 -0.0011 31.0392 -0.0001 -3.2732
# 5 7.1664 10.1490 18.2511 -0.0001 33.1716 -0.0007
# 6 0.0084 0.0031 -0.0005 -3.2732 -0.0007 35.8905
#
#
#
# Elastic Compliance Matrix: (Units=1/GPa)
#
#
# Indices 1 2 3 4 5 6 
#
# 1 0.023035 -0.016781 -0.000379 0.000000 0.000367 -0.000004
# 2 -0.016781 0.033939 -0.010875 -0.000002 -0.000775 0.000001
# 3 -0.000379 -0.010875 0.023413 0.000001 -0.009473 0.000001
# 4 0.000000 -0.000002 0.000001 0.032530 0.000000 0.002967
# 5 0.000367 -0.000775 -0.009473 0.000000 0.035516 0.000001
# 6 -0.000004 0.000001 0.000001 0.002967 0.000001 0.028133
#
#
# Mechanical properties :
#
#
# Convention : Reuss Voigt Hill
#
# Bulk Modulus (GPa) = 41.12430 47.13475 44.12952
# Shear Modulus (GPa) = 20.76911 26.75057 23.75984
#
# Velocity S-wave (km/s) = 3.28509 3.72825 3.51367
# Velocity P-wave (km/s) = 5.97978 6.55933 6.27625
#
# Compressibility (1/GPa) = 0.02431653
#
# Stress axis : x y z
#
# Youngs Moduli (GPa) = 43.41245 29.46432 42.71191
#
# Poissons Ratio (x) = 0.49443 0.01621
# Poissons Ratio (y) = 0.72850 0.46449
# Poissons Ratio (z) = 0.01647 0.32042
#
# Static dielectric constant tensor:
#      x y z
#    x 1.660840 0.000000 0.006430 
#    y 0.000000 1.642380 0.000000 
#    z 0.006430 0.000000 1.658380 
# 
# From -- ./inp_files/378092.got.cif
#   From: 2010.05.17/outbox.cif.g08.bks.cpg/sg12_190_cif.got.tgz:378092.got - 2010.06.03 13:09:07.
