data_PCOD9210196
_publ_section_title
;
Structure prediction by ZEFSAII (Michael W. Deem and Ramdas Pophale) SiO2 
 PCOD9210196
Probable space group: C 2/M
;
_chemical_formula_sum "Si O2"
_cell_formula_units_Z 48
_cell_length_a 34.349252
_cell_length_b 14.471434
_cell_length_c 17.123424
_cell_angle_alpha 90.000000
_cell_angle_beta 163.063596
_cell_angle_gamma 90.000000
_cell_volume 2479.561894
_symmetry_space_group_name_H-M "C 2/M"
_symmetry_group_IT_number 12
_symmetry_cell_setting 'monoclinic'
loop_
_space_group_symop_operation_xyz
x,y,z
-x,y,-z
-x,-y,-z
x,-y,z
1/2+x,1/2+y,z
1/2-x,1/2+y,-z
1/2-x,1/2-y,-z
1/2+x,1/2-y,z
loop_
_atom_site_type_symbol
_atom_site_label
_atom_site_fract_x
_atom_site_fract_y
_atom_site_fract_z
Si Si1 0.852341 0.889868 0.741287
Si Si2 0.876434 0.609307 0.820818
Si Si3 0.424200 0.889779 0.272816
Si Si4 0.885666 0.889517 0.342425
Si Si5 0.467600 0.739710 0.639540
Si Si6 0.310369 0.266388 0.809433
O O1 0.753133 0.869031 0.480069
O O2 0.814072 0.840008 0.747134
O O3 0.850084 0.000000 0.748549
O O4 0.000000 0.860765 0.000000
O O5 0.879671 0.500000 0.845768
O O6 0.866519 0.671909 0.878203
O O7 0.000000 0.628695 0.000000
O O8 0.500000 0.871987 0.500000
O O9 0.488325 0.828127 0.327558
O O10 0.435593 0.000000 0.278465
O O11 0.265912 0.866794 0.974551
O O12 0.000000 0.862722 0.500000
O O13 0.921667 0.838683 0.491136
O O14 0.891549 0.000000 0.363280
O O15 0.339756 0.758133 0.448154
O O16 0.591793 0.709913 0.931453
#
# Coordination Sequence:
#
# PCOD9210196 Si02
#       6
#     8   8   8   8   8   8
#     4  10  21  39  61  84 114 157 209 258 300 355
#     4  10  21  39  63  86 114 161 214 257 299 358
#     4  10  23  44  68  91 121 165 211 253 299 363
#     4  10  23  44  68  91 121 165 211 252 300 365
#     4  12  25  39  60  94 131 166 197 253 315 371
#     4  12  24  37  59  90 127 162 199 251 318 367
#
# _framework density 19.358259
#
# number of rings (size 3 to 8) (size 9 to 14) (size 15 to 20)
#    0.000    1.333    1.667    3.500    2.333    4.000 
#    0.000    0.000    0.000    0.000    0.000    0.000 
#    0.000    0.000    0.000    0.000    0.000    0.000 
#
# Total GULP energy -134186.983576 kJ/mol
# GULP energy per Si atom -5591.124316 kJ/mol
# Density = 1.931420 g / cm^3
# Si number density = 19.358259 Si / 1000 Ang^3
#
#
#
# Elastic Constant Matrix: (Units=GPa)
#
#
# Indices 1 2 3 4 5 6 
#
# 1 86.9822 25.4478 12.5994 0.0000 13.8745 0.0000
# 2 25.4478 45.6340 17.1782 0.0000 -3.4883 0.0000
# 3 12.5994 17.1782 91.2491 0.0000 10.6653 0.0000
# 4 0.0000 0.0000 0.0000 23.4824 0.0000 13.9142
# 5 13.8745 -3.4883 10.6653 0.0000 41.1318 0.0000
# 6 0.0000 0.0000 0.0000 13.9142 0.0000 -19.1159
#
#
#
# Elastic Compliance Matrix: (Units=1/GPa)
#
#
# Indices 1 2 3 4 5 6 
#
# 1 0.015007 -0.008932 0.000299 0.000000 -0.005897 0.000000
# 2 -0.008932 0.029330 -0.005085 0.000000 0.006819 0.000000
# 3 0.000299 -0.005085 0.012310 0.000000 -0.003724 0.000000
# 4 0.000000 0.000000 0.000000 0.029753 0.000000 0.021657
# 5 -0.005897 0.006819 -0.003724 0.000000 0.027845 0.000000
# 6 0.000000 0.000000 0.000000 0.021657 0.000000 -0.036549
#
#
# Mechanical properties :
#
#
# Convention : Reuss Voigt Hill
#
# Bulk Modulus (GPa) = 34.23449 37.14623 35.69036
# Shear Modulus (GPa) = 43.52739 20.34233 31.93486
#
# Velocity S-wave (km/s) = 4.74700 3.24517 4.06603
# Velocity P-wave (km/s) = 6.91147 5.76819 6.36555
#
# Compressibility (1/GPa) = 0.02921030
#
# Stress axis : x y z
#
# Youngs Moduli (GPa) = 66.63498 34.09491 81.23230
#
# Poissons Ratio (x) = 0.30453 -0.02426
# Poissons Ratio (y) = 0.59518 0.41309
# Poissons Ratio (z) = -0.01990 0.17338
#
# Static dielectric constant tensor:
#      x y z
#    x 1.727460 0.000000 0.105540 
#    y 0.000000 1.682970 0.000000 
#    z 0.105540 0.000000 1.756240 
# 
# From -- ./inp_files/251403.got.cif
#   From: 2010.05.17/outbox.cif.g08.bks.cpg/sg12_126_cif.got.tgz:251403.got - 2010.06.03 13:09:07.
