data_PCOD9210832
_publ_section_title
;
Structure prediction by ZEFSAII (Michael W. Deem and Ramdas Pophale) SiO2 
 PCOD9210832
Probable space group: C 2/M
;
_chemical_formula_sum "Si O2"
_cell_formula_units_Z 44
_cell_length_a 14.120154
_cell_length_b 7.330517
_cell_length_c 26.643890
_cell_angle_alpha 90.000000
_cell_angle_beta 145.491304
_cell_angle_gamma 90.000000
_cell_volume 1562.412080
_symmetry_space_group_name_H-M "C 2/M"
_symmetry_group_IT_number 12
_symmetry_cell_setting 'monoclinic'
loop_
_space_group_symop_operation_xyz
x,y,z
-x,y,-z
-x,-y,-z
x,-y,z
1/2+x,1/2+y,z
1/2-x,1/2+y,-z
1/2-x,1/2-y,-z
1/2+x,1/2-y,z
loop_
_atom_site_type_symbol
_atom_site_label
_atom_site_fract_x
_atom_site_fract_y
_atom_site_fract_z
Si Si1 0.093545 0.279112 0.616224
Si Si2 0.751610 0.277194 0.422533
Si Si3 0.132233 0.294111 0.740796
Si Si4 0.066920 0.000000 0.792813
Si Si5 0.533084 0.790301 0.852156
Si Si6 0.420516 0.719014 0.017152
O O1 0.090493 0.500000 0.616217
O O2 0.898029 0.225275 0.524902
O O3 0.174322 0.217729 0.703767
O O4 0.178083 0.222664 0.601310
O O5 0.729370 0.500000 0.411593
O O6 0.570484 0.196819 0.351755
O O7 0.196844 0.500000 0.777316
O O8 0.155335 0.159720 0.796919
O O9 0.964754 0.843692 0.780857
O O10 0.728455 0.716900 0.936825
O O11 0.529554 0.000000 0.835557
O O12 0.489222 0.773263 0.891787
O O13 0.415303 0.500000 0.013822
O O14 0.500000 0.783707 0.000000
#
# Coordination Sequence:
#
# PCOD9210832 Si02
#       6
#     8   8   8   4   8   8
#     4   8  17  33  60  86 114 146 193 248 308 348
#     4   9  16  35  60  86 113 148 190 252 305 349
#     4  11  22  38  59  82 114 158 197 242 290 358
#     4  12  24  42  58  80 124 164 198 230 298 340
#     4  10  21  39  64  91 122 158 193 239 283 340
#     4   9  18  37  68  98 126 150 188 242 293 330
#
# _framework density 28.161584000000001
#
# number of rings (size 3 to 8) (size 9 to 14) (size 15 to 20)
#    0.000    2.364    1.818    2.182    1.273    0.364 
#    3.273    2.727    0.000    0.000    0.000    0.000 
#    0.000    0.000    0.000    0.000    0.000    0.000 
#
# Total GULP energy -122917.066200 kJ/mol
# GULP energy per Si atom -5587.139373 kJ/mol
# Density = 2.809749 g / cm^3
# Si number density = 28.161584 Si / 1000 Ang^3
#
#
#
# Elastic Constant Matrix: (Units=GPa)
#
#
# Indices 1 2 3 4 5 6 
#
# 1 144.6555 22.4995 26.7087 0.0000 -41.7418 0.0000
# 2 22.4995 195.0023 13.7643 0.0000 -24.4976 0.0000
# 3 26.7087 13.7643 131.0521 0.0000 -15.9747 0.0000
# 4 0.0000 0.0000 0.0000 3.3835 0.0000 -14.7193
# 5 -41.7418 -24.4976 -15.9747 0.0000 59.7717 0.0000
# 6 0.0000 0.0000 0.0000 -14.7193 0.0000 11.6909
#
#
#
# Elastic Compliance Matrix: (Units=1/GPa)
#
#
# Indices 1 2 3 4 5 6 
#
# 1 0.008812 -0.000215 -0.001069 0.000000 0.005780 0.000000
# 2 -0.000215 0.005424 -0.000282 0.000000 0.001997 0.000000
# 3 -0.001069 -0.000282 0.008035 0.000000 0.001285 0.000000
# 4 0.000000 0.000000 0.000000 -0.066012 0.000000 -0.083112
# 5 0.005780 0.001997 0.001285 0.000000 0.021929 0.000000
# 6 0.000000 0.000000 0.000000 -0.083112 0.000000 -0.019105
#
#
# Mechanical properties :
#
#
# Convention : Reuss Voigt Hill
#
# Bulk Modulus (GPa) = 52.25291 66.29497 59.27394
# Shear Modulus (GPa) = -159.20147 42.15170 -58.52488
#
# Velocity S-wave (km/s) = -7.52690 3.87302 -4.56365
# Velocity P-wave (km/s) = 7.54612 6.60246 2.58375
#
# Compressibility (1/GPa) = 0.01913769
#
# Stress axis : x y z
#
# Youngs Moduli (GPa) = 113.48696 184.37230 124.46041
#
# Poissons Ratio (x) = 0.03967 0.13301
# Poissons Ratio (y) = 0.02442 0.03514
# Poissons Ratio (z) = 0.12128 0.05206
#
# Static dielectric constant tensor:
#      x y z
#    x 2.248420 0.000000 0.088960 
#    y 0.000000 2.036390 0.000000 
#    z 0.088960 0.000000 2.427670 
# 
# From -- ./inp_files/338297.got.cif
#   From: 2010.05.17/outbox.cif.g08.bks.cpg/sg12_170_cif.got.tgz:338297.got - 2010.06.03 13:09:07.
