data_PCOD9210939
_publ_section_title
;
Structure prediction by ZEFSAII (Michael W. Deem and Ramdas Pophale) SiO2 
 PCOD9210939
Probable space group: C 2/M
;
_chemical_formula_sum "Si O2"
_cell_formula_units_Z 44
_cell_length_a 14.287499
_cell_length_b 16.984938
_cell_length_c 7.591329
_cell_angle_alpha 90.000000
_cell_angle_beta 100.470508
_cell_angle_gamma 90.000000
_cell_volume 1811.529820
_symmetry_space_group_name_H-M "C 2/M"
_symmetry_group_IT_number 12
_symmetry_cell_setting 'monoclinic'
loop_
_space_group_symop_operation_xyz
x,y,z
-x,y,-z
-x,-y,-z
x,-y,z
1/2+x,1/2+y,z
1/2-x,1/2+y,-z
1/2-x,1/2-y,-z
1/2+x,1/2-y,z
loop_
_atom_site_type_symbol
_atom_site_label
_atom_site_fract_x
_atom_site_fract_y
_atom_site_fract_z
Si Si1 0.730931 0.405928 0.295978
Si Si2 0.611001 0.841143 0.087680
Si Si3 0.402563 0.154061 0.544868
Si Si4 0.392278 0.589601 0.394992
Si Si5 0.109273 0.819314 0.963547
Si Si6 0.373850 0.000000 0.768563
O O1 0.746716 0.500000 0.285149
O O2 0.675604 0.394521 0.463351
O O3 0.669886 0.372470 0.116754
O O4 0.842601 0.427339 0.890928
O O5 0.624041 0.800182 0.286005
O O6 0.500000 0.857855 0.000000
O O7 0.672136 0.859722 0.633492
O O8 0.641779 0.771275 0.973364
O O9 0.500000 0.184232 0.500000
O O10 0.412090 0.068878 0.644839
O O11 0.500000 0.591393 0.500000
O O12 0.369721 0.500000 0.329561
O O13 0.383089 0.646692 0.228650
O O14 0.000000 0.820659 0.000000
#
# Coordination Sequence:
#
# PCOD9210939 Si02
#       6
#     8   8   8   8   8   4
#     4  11  22  39  67  99 138 178 222 275 332 400
#     4   9  20  38  62  90 126 171 222 271 336 388
#     4  10  21  42  69  96 128 176 230 280 336 397
#     4  10  21  39  64  96 135 181 225 271 328 397
#     4  11  22  40  63  98 135 176 222 272 337 401
#     4   8  18  38  66  90 126 168 230 282 324 403
#
# _framework density 24.288865000000001
#
# number of rings (size 3 to 8) (size 9 to 14) (size 15 to 20)
#    1.091    0.909    2.727    1.091    0.000    1.455 
#    9.818    0.909    8.000    0.000    0.000    0.000 
#    0.000    0.000    0.000    0.000    0.000    0.182 
#
# Total GULP energy -122486.216462 kJ/mol
# GULP energy per Si atom -5567.555294 kJ/mol
# Density = 2.423358 g / cm^3
# Si number density = 24.288865 Si / 1000 Ang^3
#
#
#
# Elastic Constant Matrix: (Units=GPa)
#
#
# Indices 1 2 3 4 5 6 
#
# 1 103.1478 20.4330 32.1546 0.0000 15.0406 0.0000
# 2 20.4330 114.4241 90.1131 0.0000 -1.2878 0.0000
# 3 32.1546 90.1131 131.9189 0.0000 17.3324 0.0000
# 4 0.0000 0.0000 0.0000 71.7805 0.0000 -10.2770
# 5 15.0406 -1.2878 17.3324 0.0000 36.1174 0.0000
# 6 0.0000 0.0000 0.0000 -10.2770 0.0000 12.5183
#
#
#
# Elastic Compliance Matrix: (Units=1/GPa)
#
#
# Indices 1 2 3 4 5 6 
#
# 1 0.010905 -0.000608 -0.001754 0.000000 -0.003721 0.000000
# 2 -0.000608 0.020965 -0.015267 0.000000 0.008327 0.000000
# 3 -0.001754 -0.015267 0.019651 0.000000 -0.009244 0.000000
# 4 0.000000 0.000000 0.000000 0.015787 0.000000 0.012960
# 5 -0.003721 0.008327 -0.009244 0.000000 0.033970 0.000000
# 6 0.000000 0.000000 0.000000 0.012960 0.000000 0.090523
#
#
# Mechanical properties :
#
#
# Convention : Reuss Voigt Hill
#
# Bulk Modulus (GPa) = 61.48758 70.54358 66.01558
# Shear Modulus (GPa) = 21.50730 37.86926 29.68828
#
# Velocity S-wave (km/s) = 2.97893 3.95285 3.49993
# Velocity P-wave (km/s) = 6.09935 7.06683 6.60084
#
# Compressibility (1/GPa) = 0.01626345
#
# Stress axis : x y z
#
# Youngs Moduli (GPa) = 91.70476 47.69860 50.88747
#
# Poissons Ratio (x) = 0.02900 0.08924
# Poissons Ratio (y) = 0.05576 0.77689
# Poissons Ratio (z) = 0.16082 0.72821
#
# Static dielectric constant tensor:
#      x y z
#    x 2.224440 0.000000 0.110910 
#    y 0.000000 1.870300 0.000000 
#    z 0.110910 0.000000 2.101340 
# 
# From -- ./inp_files/16082.got.cif
#   From: 2010.05.17/outbox.cif.g08.bks.cpg/sg12_9_cif.got.tgz:16082.got - 2010.06.03 13:09:07.
