data_PCOD9210012
_publ_section_title
;
Structure prediction by ZEFSAII (Michael W. Deem and Ramdas Pophale) SiO2 
 PCOD9210012
Probable space group: C 2/M
;
_chemical_formula_sum "Si O2"
_cell_formula_units_Z 56
_cell_length_a 19.777580
_cell_length_b 8.885545
_cell_length_c 24.835265
_cell_angle_alpha 90.000000
_cell_angle_beta 136.855282
_cell_angle_gamma 90.000000
_cell_volume 2984.576424
_symmetry_space_group_name_H-M "C 2/M"
_symmetry_group_IT_number 12
_symmetry_cell_setting 'monoclinic'
loop_
_space_group_symop_operation_xyz
x,y,z
-x,y,-z
-x,-y,-z
x,-y,z
1/2+x,1/2+y,z
1/2-x,1/2+y,-z
1/2-x,1/2-y,-z
1/2+x,1/2-y,z
loop_
_atom_site_type_symbol
_atom_site_label
_atom_site_fract_x
_atom_site_fract_y
_atom_site_fract_z
Si Si1 0.458142 0.680089 0.689511
Si Si2 0.278731 0.682031 0.769252
Si Si3 0.984935 0.319915 0.928014
Si Si4 0.813639 0.180263 0.989139
Si Si5 0.334740 0.820156 0.192401
Si Si6 0.158033 0.180207 0.479297
Si Si7 0.244106 0.181358 0.367385
O O1 0.464038 0.500000 0.697112
O O2 0.562146 0.749636 0.765771
O O3 0.433815 0.718837 0.612828
O O4 0.363334 0.727065 0.670354
O O5 0.287609 0.500000 0.776434
O O6 0.383243 0.751756 0.847113
O O7 0.198259 0.728322 0.767068
O O8 0.251447 0.723825 0.692460
O O9 0.983994 0.500000 0.922208
O O10 0.077915 0.250615 0.950782
O O11 0.000000 0.282255 0.000000
O O12 0.754294 0.217193 0.899831
O O13 0.819853 0.000000 0.997818
O O14 0.750000 0.250000 0.000000
O O15 0.345990 0.000000 0.198717
O O16 0.250000 0.250000 0.500000
O O17 0.170810 0.247025 0.546035
O O18 0.166552 0.000000 0.485815
O O19 0.250112 0.000000 0.375631
#
# Coordination Sequence:
#
# PCOD9210012 Si02
#       7
#     8   8   8   8   8   8   8
#     4   9  19  34  54  81 111 143 181 225 278 329
#     4  10  21  39  59  81 112 150 190 231 279 335
#     4  11  23  39  60  86 113 148 192 233 281 340
#     4  11  24  41  60  84 115 150 191 238 286 336
#     4  10  22  38  56  80 111 147 187 229 278 333
#     4   9  17  32  54  81 111 144 182 225 274 330
#     4   9  19  35  57  84 109 141 185 230 276 332
#
# _framework density 18.763131000000001
#
# number of rings (size 3 to 8) (size 9 to 14) (size 15 to 20)
#    0.000    2.143    1.429    2.143    2.000    5.714 
#    0.000    0.714    0.000    4.286    0.000    0.000 
#    0.000    0.000    0.000    0.000    0.000    0.000 
#
# Total GULP energy -156251.610998 kJ/mol
# GULP energy per Si atom -5580.414678 kJ/mol
# Density = 1.872043 g / cm^3
# Si number density = 18.763131 Si / 1000 Ang^3
#
#
#
# Elastic Constant Matrix: (Units=GPa)
#
#
# Indices 1 2 3 4 5 6 
#
# 1 63.8034 6.2163 -9.2238 0.0000 -14.5913 0.0000
# 2 6.2163 9.9774 8.2685 0.0000 -9.2998 0.0000
# 3 -9.2238 8.2685 23.3895 0.0000 -16.4008 0.0000
# 4 0.0000 0.0000 0.0000 33.2777 0.0000 1.3871
# 5 -14.5913 -9.2998 -16.4008 0.0000 37.2646 0.0000
# 6 0.0000 0.0000 0.0000 1.3871 0.0000 22.9242
#
#
#
# Elastic Compliance Matrix: (Units=1/GPa)
#
#
# Indices 1 2 3 4 5 6 
#
# 1 0.027547 -0.027699 0.033804 0.000000 0.018751 0.000000
# 2 -0.027699 0.179867 -0.073242 0.000000 0.001807 0.000000
# 3 0.033804 -0.073242 0.113455 0.000000 0.044891 0.000000
# 4 0.000000 0.000000 0.000000 0.030126 0.000000 -0.001823
# 5 0.018751 0.001807 0.044891 0.000000 0.054385 0.000000
# 6 0.000000 0.000000 0.000000 -0.001823 0.000000 0.043732
#
#
# Mechanical properties :
#
#
# Convention : Reuss Voigt Hill
#
# Bulk Modulus (GPa) = 5.35926 11.96582 8.66254
# Shear Modulus (GPa) = 7.74492 24.82058 16.28275
#
# Velocity S-wave (km/s) = 2.03389 3.64103 2.94905
# Velocity P-wave (km/s) = 2.89449 4.90584 4.02774
#
# Compressibility (1/GPa) = 0.18659299
#
# Stress axis : x y z
#
# Youngs Moduli (GPa) = 36.30169 5.55968 8.81410
#
# Poissons Ratio (x) = 0.15400 -0.29795
# Poissons Ratio (y) = 1.00553 0.64556
# Poissons Ratio (z) = -1.22713 0.40720
#
# Static dielectric constant tensor:
#      x y z
#    x 1.641520 0.000000 -0.041300 
#    y 0.000000 1.629720 0.000000 
#    z -0.041300 0.000000 1.659560 
# 
# From -- ./inp_files/342500.got.cif
#   From: 2010.05.17/outbox.cif.g08.bks.cpg/sg12_172_cif.got.tgz:342500.got - 2010.06.03 13:09:07.
