data_PCOD9210947
_publ_section_title
;
Structure prediction by ZEFSAII (Michael W. Deem and Ramdas Pophale) SiO2 
 PCOD9210947
Probable space group: C 2/M
;
_chemical_formula_sum "Si O2"
_cell_formula_units_Z 46
_cell_length_a 11.612171
_cell_length_b 30.267130
_cell_length_c 8.165472
_cell_angle_alpha 90.000000
_cell_angle_beta 45.259063
_cell_angle_gamma 90.000000
_cell_volume 2038.476796
_symmetry_space_group_name_H-M "C 2/M"
_symmetry_group_IT_number 12
_symmetry_cell_setting 'monoclinic'
loop_
_space_group_symop_operation_xyz
x,y,z
-x,y,-z
-x,-y,-z
x,-y,z
1/2+x,1/2+y,z
1/2-x,1/2+y,-z
1/2-x,1/2-y,-z
1/2+x,1/2-y,z
loop_
_atom_site_type_symbol
_atom_site_label
_atom_site_fract_x
_atom_site_fract_y
_atom_site_fract_z
Si Si1 0.761167 0.193377 0.134719
Si Si2 0.500000 0.000000 0.000000
Si Si3 0.409925 0.823319 0.376879
Si Si4 0.968648 0.948886 0.223650
Si Si5 0.364906 0.085554 0.302941
Si Si6 0.151392 0.876879 0.232044
Si Si7 0.000000 0.732934 0.000000
O O1 0.739898 0.178921 0.347387
O O2 0.573451 0.199698 0.276873
O O3 0.821502 0.158422 0.939025
O O4 0.878798 0.234969 0.023594
O O5 0.454482 0.960040 0.176515
O O6 0.450807 0.875032 0.313997
O O7 0.388286 0.798004 0.227054
O O8 0.797187 0.927609 0.438288
O O9 0.100157 0.922315 0.195289
O O10 0.969493 0.000000 0.272526
O O11 0.000000 0.945588 0.000000
O O12 0.299576 0.109693 0.202360
O O13 0.000000 0.863243 0.500000
#
# Coordination Sequence:
#
# PCOD9210947 Si02
#       7
#     8   2   8   8   8   8   4
#     4  11  25  45  70 100 133 176 221 277 338 405
#     4  12  22  36  60  94 122 180 218 262 320 400
#     4  11  25  47  68  98 139 173 220 279 341 397
#     4  10  21  39  64  97 132 172 224 280 329 387
#     4  11  23  40  67  91 137 176 222 271 331 399
#     4  10  23  39  67  98 132 177 223 278 331 393
#     4  12  25  44  72 101 129 174 224 275 336 410
#
# _framework density 22.565868999999999
#
# number of rings (size 3 to 8) (size 9 to 14) (size 15 to 20)
#    0.000    1.217    0.870    4.696    7.304    1.043 
#    6.261    0.000    0.000    3.130    0.000    0.000 
#    0.000    0.000    0.000    0.000    0.000    0.000 
#
# Total GULP energy -128209.061219 kJ/mol
# GULP energy per Si atom -5574.307010 kJ/mol
# Density = 2.251451 g / cm^3
# Si number density = 22.565869 Si / 1000 Ang^3
#
#
#
# Elastic Constant Matrix: (Units=GPa)
#
#
# Indices 1 2 3 4 5 6 
#
# 1 44.2687 34.8286 8.1503 0.0000 3.2515 0.0000
# 2 34.8286 171.6717 82.6392 0.0000 17.1754 0.0000
# 3 8.1503 82.6392 138.2235 0.0000 28.5839 0.0000
# 4 0.0000 0.0000 0.0000 57.3554 0.0000 -16.0992
# 5 3.2515 17.1754 28.5839 0.0000 21.4394 0.0000
# 6 0.0000 0.0000 0.0000 -16.0992 0.0000 36.3701
#
#
#
# Elastic Compliance Matrix: (Units=1/GPa)
#
#
# Indices 1 2 3 4 5 6 
#
# 1 0.027552 -0.006749 0.002977 0.000000 -0.002741 0.000000
# 2 -0.006749 0.009832 -0.005610 0.000000 0.000626 0.000000
# 3 0.002977 -0.005610 0.013223 0.000000 -0.013586 0.000000
# 4 0.000000 0.000000 0.000000 0.019909 0.000000 0.008813
# 5 -0.002741 0.000626 -0.013586 0.000000 0.064671 0.000000
# 6 0.000000 0.000000 0.000000 0.008813 0.000000 0.031396
#
#
# Mechanical properties :
#
#
# Convention : Reuss Voigt Hill
#
# Bulk Modulus (GPa) = 31.40309 67.26669 49.33489
# Shear Modulus (GPa) = 25.51544 38.26937 31.89241
#
# Velocity S-wave (km/s) = 3.36625 4.12259 3.76347
# Velocity P-wave (km/s) = 5.39029 7.24809 6.38710
#
# Compressibility (1/GPa) = 0.03184400
#
# Stress axis : x y z
#
# Youngs Moduli (GPa) = 36.29499 101.70866 75.62803
#
# Poissons Ratio (x) = 0.68639 -0.22515
# Poissons Ratio (y) = 0.24494 0.42426
# Poissons Ratio (z) = -0.10805 0.57056
#
# Static dielectric constant tensor:
#      x y z
#    x 1.911440 0.000000 0.067110 
#    y 0.000000 1.785420 0.000000 
#    z 0.067110 0.000000 1.937560 
# 
# From -- ./inp_files/67378.got.cif
#   From: 2010.05.17/outbox.cif.g08.bks.cpg/sg12_34_cif.got.tgz:67378.got - 2010.06.03 13:09:07.
