data_PCOD9210523
_publ_section_title
;
Structure prediction by ZEFSAII (Michael W. Deem and Ramdas Pophale) SiO2 
 PCOD9210523
Probable space group: C 2/M
;
_chemical_formula_sum "Si O2"
_cell_formula_units_Z 48
_cell_length_a 28.982909
_cell_length_b 18.549533
_cell_length_c 9.692090
_cell_angle_alpha 90.000000
_cell_angle_beta 150.813895
_cell_angle_gamma 90.000000
_cell_volume 2540.965651
_symmetry_space_group_name_H-M "C 2/M"
_symmetry_group_IT_number 12
_symmetry_cell_setting 'monoclinic'
loop_
_space_group_symop_operation_xyz
x,y,z
-x,y,-z
-x,-y,-z
x,-y,z
1/2+x,1/2+y,z
1/2-x,1/2+y,-z
1/2-x,1/2-y,-z
1/2+x,1/2-y,z
loop_
_atom_site_type_symbol
_atom_site_label
_atom_site_fract_x
_atom_site_fract_y
_atom_site_fract_z
Si Si1 0.797415 0.336352 0.782417
Si Si2 0.316176 0.308261 0.250491
Si Si3 0.887232 0.918675 0.208339
Si Si4 0.582208 0.811586 0.330203
Si Si5 0.711977 0.671331 0.273101
Si Si6 0.490516 0.914317 0.312105
O O1 0.746477 0.345173 0.794969
O O2 0.724479 0.344074 0.466537
O O3 0.828915 0.252058 0.855382
O O4 0.885310 0.389026 0.996425
O O5 0.352131 0.365350 0.235196
O O6 0.399764 0.263859 0.544003
O O7 0.250000 0.250000 0.000000
O O8 0.000000 0.918720 0.500000
O O9 0.852850 0.000000 0.140734
O O10 0.848443 0.886763 0.964650
O O11 0.682227 0.827220 0.516212
O O12 0.558528 0.870278 0.386478
O O13 0.500000 0.809486 0.000000
O O14 0.500000 0.895763 0.500000
O O15 0.503687 0.000000 0.331503
#
# Coordination Sequence:
#
# PCOD9210523 Si02
#       6
#     8   8   8   8   8   8
#     4  10  21  39  62  93 125 164 209 251 314 366
#     4  11  22  40  66  96 123 164 212 260 314 365
#     4  11  26  44  65  92 124 169 215 259 313 368
#     4  11  22  40  64  98 125 166 210 254 316 377
#     4  10  22  41  64  91 126 164 212 259 305 376
#     4  11  25  38  57  95 134 167 204 251 318 381
#
# _framework density 18.890457000000001
#
# number of rings (size 3 to 8) (size 9 to 14) (size 15 to 20)
#    0.000    1.333    5.000    1.000    2.333    2.333 
#    0.000    0.000    0.000    2.500    0.000    0.000 
#    0.000    0.000    0.000    0.000    0.000    0.000 
#
# Total GULP energy -134100.890936 kJ/mol
# GULP energy per Si atom -5587.537122 kJ/mol
# Density = 1.884746 g / cm^3
# Si number density = 18.890457 Si / 1000 Ang^3
#
#
#
# Elastic Constant Matrix: (Units=GPa)
#
#
# Indices 1 2 3 4 5 6 
#
# 1 72.3531 26.0681 -0.6034 0.0000 -22.0551 0.0000
# 2 26.0681 85.0536 36.2104 0.0000 -9.1544 0.0000
# 3 -0.6034 36.2104 66.6469 0.0000 -14.1589 0.0000
# 4 0.0000 0.0000 0.0000 -10.7036 0.0000 31.2874
# 5 -22.0551 -9.1544 -14.1589 0.0000 26.1612 0.0000
# 6 0.0000 0.0000 0.0000 31.2874 0.0000 4.7693
#
#
#
# Elastic Compliance Matrix: (Units=1/GPa)
#
#
# Indices 1 2 3 4 5 6 
#
# 1 0.024083 -0.009220 0.010006 0.000000 0.022492 0.000000
# 2 -0.009220 0.018847 -0.011947 0.000000 -0.007644 0.000000
# 3 0.010006 -0.011947 0.025412 0.000000 0.018008 0.000000
# 4 0.000000 0.000000 0.000000 -0.004631 0.000000 0.030378
# 5 0.022492 -0.007644 0.018008 0.000000 0.064258 0.000000
# 6 0.000000 0.000000 0.000000 0.030378 0.000000 0.010392
#
#
# Mechanical properties :
#
#
# Convention : Reuss Voigt Hill
#
# Bulk Modulus (GPa) = 21.73055 38.60041 30.16548
# Shear Modulus (GPa) = 28.40537 14.87061 21.63799
#
# Velocity S-wave (km/s) = 3.88195 2.80876 3.38811
# Velocity P-wave (km/s) = 5.62327 5.56749 5.59545
#
# Compressibility (1/GPa) = 0.04601815
#
# Stress axis : x y z
#
# Youngs Moduli (GPa) = 41.52388 53.05951 39.35160
#
# Poissons Ratio (x) = 0.48921 -0.39374
# Poissons Ratio (y) = 0.38285 0.47014
# Poissons Ratio (z) = -0.41548 0.63391
#
# Static dielectric constant tensor:
#      x y z
#    x 1.657460 0.000000 -0.005480 
#    y 0.000000 1.647950 0.000000 
#    z -0.005480 0.000000 1.664520 
# 
# From -- ./inp_files/112942.got.cif
#   From: 2010.05.17/outbox.cif.g08.bks.cpg/sg12_57_cif.got.tgz:112942.got - 2010.06.03 13:09:07.
