data_PCOD9210390
_publ_section_title
;
Structure prediction by ZEFSAII (Michael W. Deem and Ramdas Pophale) SiO2 
 PCOD9210390
Probable space group: C 2/M
;
_chemical_formula_sum "Si O2"
_cell_formula_units_Z 40
_cell_length_a 29.468216
_cell_length_b 7.956463
_cell_length_c 9.181999
_cell_angle_alpha 90.000000
_cell_angle_beta 90.000000
_cell_angle_gamma 90.000000
_cell_volume 2152.836922
_symmetry_space_group_name_H-M "C 2/M"
_symmetry_group_IT_number 12
_symmetry_cell_setting 'monoclinic'
loop_
_space_group_symop_operation_xyz
x,y,z
-x,y,-z
-x,-y,-z
x,-y,z
1/2+x,1/2+y,z
1/2-x,1/2+y,-z
1/2-x,1/2-y,-z
1/2+x,1/2-y,z
loop_
_atom_site_type_symbol
_atom_site_label
_atom_site_fract_x
_atom_site_fract_y
_atom_site_fract_z
Si Si1 0.203788 0.201262 0.419243
Si Si2 0.548707 0.500000 0.574518
Si Si3 0.203788 0.798738 0.080756
Si Si4 0.387233 0.811008 0.424070
Si Si5 0.451293 0.500000 0.074518
Si Si6 0.612767 0.811008 0.924070
O O1 0.250000 0.250000 0.500000
O O2 0.206262 0.250763 0.250000
O O3 0.160380 0.282928 0.495896
O O4 0.198380 0.000000 0.427085
O O5 0.500000 0.500000 0.500000
O O6 0.577652 0.665321 0.533315
O O7 0.543613 0.500000 0.750000
O O8 0.198380 0.000000 0.072914
O O9 0.250000 0.750000 0.000000
O O10 0.160380 0.717071 0.004104
O O11 0.379675 0.795649 0.250000
O O12 0.404087 0.000000 0.453523
O O13 0.422348 0.665321 0.033316
O O14 0.500000 0.500000 0.000000
O O15 0.595913 0.000000 0.953521
#
# Coordination Sequence:
#
# PCOD9210390 Si02
#       6
#     8   4   8   8   4   8
#     4  11  23  37  56  85 120 158 199 242 292 351
#     4  10  22  40  62  88 120 156 196 248 299 350
#     4  11  23  37  56  85 120 158 199 242 292 351
#     4  10  21  39  62  87 117 155 198 243 295 351
#     4  10  22  40  62  88 120 156 196 248 299 350
#     4  10  21  39  62  87 117 155 198 243 295 351
#
# _framework density 18.580134000000001
#
# number of rings (size 3 to 8) (size 9 to 14) (size 15 to 20)
#    0.000    1.600    2.000    2.400    0.000   10.400 
#    0.000    0.000    0.000    0.000    0.000    0.000 
#    0.000    0.000    0.000    0.000    0.000    0.000 
#
# Total GULP energy -111772.660690 kJ/mol
# GULP energy per Si atom -5588.633035 kJ/mol
# Density = 1.853784 g / cm^3
# Si number density = 18.580134 Si / 1000 Ang^3
#
#
#
# Elastic Constant Matrix: (Units=GPa)
#
#
# Indices 1 2 3 4 5 6 
#
# 1 160.5172 85.5567 58.7777 0.0000 -0.0002 0.0000
# 2 85.5567 148.4277 58.9119 0.0000 -0.0001 0.0000
# 3 58.7777 58.9119 52.4508 0.0000 -0.0001 0.0000
# 4 0.0000 0.0000 0.0000 24.3054 0.0000 0.0000
# 5 -0.0002 -0.0001 -0.0001 0.0000 41.7670 0.0000
# 6 0.0000 0.0000 0.0000 0.0000 0.0000 26.8903
#
#
#
# Elastic Compliance Matrix: (Units=1/GPa)
#
#
# Indices 1 2 3 4 5 6 
#
# 1 0.011110 -0.002639 -0.009486 0.000000 0.000000 0.000000
# 2 -0.002639 0.012784 -0.011401 0.000000 0.000000 0.000000
# 3 -0.009486 -0.011401 0.042502 0.000000 0.000000 0.000000
# 4 0.000000 0.000000 0.000000 0.041143 0.000000 0.000000
# 5 0.000000 0.000000 0.000000 0.000000 0.023942 0.000000
# 6 0.000000 0.000000 0.000000 0.000000 0.000000 0.037188
#
#
# Mechanical properties :
#
#
# Convention : Reuss Voigt Hill
#
# Bulk Modulus (GPa) = 51.69909 85.32094 68.51001
# Shear Modulus (GPa) = 22.50541 29.13582 25.82062
#
# Velocity S-wave (km/s) = 3.48409 3.96424 3.73190
# Velocity P-wave (km/s) = 6.63857 8.18375 7.45132
#
# Compressibility (1/GPa) = 0.01934270
#
# Stress axis : x y z
#
# Youngs Moduli (GPa) = 90.00849 78.22534 23.52857
#
# Poissons Ratio (x) = 0.20643 0.22320
# Poissons Ratio (y) = 0.23752 0.26825
# Poissons Ratio (z) = 0.85384 0.89185
#
# Static dielectric constant tensor:
#      x y z
#    x 1.578350 0.000000 0.000000 
#    y 0.000000 1.668080 0.000000 
#    z 0.000000 0.000000 1.623010 
# 
# From -- ./inp_files/101126.got.cif
#   From: 2010.05.17/outbox.cif.g08.bks.cpg/sg12_51_cif.got.tgz:101126.got - 2010.06.03 13:09:07.
