data_PCOD9210160
_publ_section_title
;
Structure prediction by ZEFSAII (Michael W. Deem and Ramdas Pophale) SiO2 
 PCOD9210160
Probable space group: C 2/M
;
_chemical_formula_sum "Si O2"
_cell_formula_units_Z 64
_cell_length_a 29.432263
_cell_length_b 17.688712
_cell_length_c 9.448877
_cell_angle_alpha 90.000000
_cell_angle_beta 42.774464
_cell_angle_gamma 90.000000
_cell_volume 3340.741624
_symmetry_space_group_name_H-M "C 2/M"
_symmetry_group_IT_number 12
_symmetry_cell_setting 'monoclinic'
loop_
_space_group_symop_operation_xyz
x,y,z
-x,y,-z
-x,-y,-z
x,-y,z
1/2+x,1/2+y,z
1/2-x,1/2+y,-z
1/2-x,1/2-y,-z
1/2+x,1/2-y,z
loop_
_atom_site_type_symbol
_atom_site_label
_atom_site_fract_x
_atom_site_fract_y
_atom_site_fract_z
Si Si1 0.215812 0.328497 0.231234
Si Si2 0.689030 0.656078 0.242128
Si Si3 0.655552 0.340272 0.860769
Si Si4 0.095751 0.411930 0.651710
Si Si5 0.267914 0.412448 0.563817
Si Si6 0.627111 0.829203 0.861804
Si Si7 0.027262 0.588976 0.282979
Si Si8 0.577274 0.590403 0.294609
O O1 0.184678 0.245091 0.287603
O O2 0.278443 0.323955 0.195028
O O3 0.161496 0.386018 0.415802
O O4 0.247389 0.351956 0.008782
O O5 0.701463 0.609633 0.355373
O O6 0.624730 0.627691 0.304115
O O7 0.679464 0.393365 0.679305
O O8 0.629743 0.260806 0.860262
O O9 0.602337 0.378244 0.086799
O O10 0.100474 0.500000 0.682061
O O11 0.092551 0.361918 0.800025
O O12 0.032572 0.402997 0.693352
O O13 0.248683 0.500000 0.602888
O O14 0.202359 0.361406 0.689701
O O15 0.588393 0.861502 0.086646
O O16 0.046379 0.500000 0.244339
O O17 0.000000 0.610400 0.500000
O O18 0.500000 0.607899 0.500000
O O19 0.586397 0.500000 0.277325
#
# Coordination Sequence:
#
# PCOD9210160 Si02
#       8
#     8   8   8   8   8   8   8   8
#     4  10  21  39  60  89 126 161 206 254 308 367
#     4  10  22  38  62  91 125 159 199 262 313 364
#     4  11  23  41  64  92 127 160 205 255 310 372
#     4  11  23  39  62  88 124 171 213 251 302 366
#     4  12  23  37  62  95 126 161 205 257 311 366
#     4  12  23  39  62  89 125 167 207 252 309 368
#     4  10  24  42  60  88 127 167 212 258 299 360
#     4  10  23  45  69  91 121 163 208 255 313 377
#
# _framework density 19.157422
#
# number of rings (size 3 to 8) (size 9 to 14) (size 15 to 20)
#    0.000    1.250    2.500    3.375    1.750    5.000 
#    0.000    1.875    0.000    2.250    0.000    0.000 
#    0.000    0.000    0.000    0.000    0.000    0.000 
#
# Total GULP energy -178975.456352 kJ/mol
# GULP energy per Si atom -5592.983011 kJ/mol
# Density = 1.911382 g / cm^3
# Si number density = 19.157422 Si / 1000 Ang^3
#
#
#
# Elastic Constant Matrix: (Units=GPa)
#
#
# Indices 1 2 3 4 5 6 
#
# 1 46.0680 18.4122 25.9196 0.0000 14.5703 0.0000
# 2 18.4122 54.4353 21.9501 0.0000 -4.4947 0.0000
# 3 25.9196 21.9501 87.5860 0.0000 4.3787 0.0000
# 4 0.0000 0.0000 0.0000 63.0656 0.0000 12.3048
# 5 14.5703 -4.4947 4.3787 0.0000 34.4498 0.0000
# 6 0.0000 0.0000 0.0000 12.3048 0.0000 22.1261
#
#
#
# Elastic Compliance Matrix: (Units=1/GPa)
#
#
# Indices 1 2 3 4 5 6 
#
# 1 0.034342 -0.010073 -0.006891 0.000000 -0.014963 0.000000
# 2 -0.010073 0.023779 -0.003368 0.000000 0.007791 0.000000
# 3 -0.006891 -0.003368 0.014267 0.000000 0.000661 0.000000
# 4 0.000000 0.000000 0.000000 0.017786 0.000000 -0.009891
# 5 -0.014963 0.007791 0.000661 0.000000 0.036289 0.000000
# 6 0.000000 0.000000 0.000000 -0.009891 0.000000 0.050696
#
#
# Mechanical properties :
#
#
# Convention : Reuss Voigt Hill
#
# Bulk Modulus (GPa) = 31.51994 35.62810 33.57402
# Shear Modulus (GPa) = 21.89159 32.04880 26.97020
#
# Velocity S-wave (km/s) = 3.38408 4.09457 3.75616
# Velocity P-wave (km/s) = 5.63544 6.40249 6.03117
#
# Compressibility (1/GPa) = 0.03172595
#
# Stress axis : x y z
#
# Youngs Moduli (GPa) = 29.11849 42.05423 70.08957
#
# Poissons Ratio (x) = 0.42361 0.48296
# Poissons Ratio (y) = 0.29331 0.23605
# Poissons Ratio (z) = 0.20064 0.14163
#
# Static dielectric constant tensor:
#      x y z
#    x 1.649090 0.000000 0.010540 
#    y 0.000000 1.637490 0.000000 
#    z 0.010540 0.000000 1.667110 
# 
# From -- ./inp_files/112825.got.cif
#   From: 2010.05.17/outbox.cif.g08.bks.cpg/sg12_57_cif.got.tgz:112825.got - 2010.06.03 13:09:07.
