data_PCOD9210311
_publ_section_title
;
Structure prediction by ZEFSAII (Michael W. Deem and Ramdas Pophale) SiO2 
 PCOD9210311
Probable space group: C 2/M
;
_chemical_formula_sum "Si O2"
_cell_formula_units_Z 48
_cell_length_a 20.289931
_cell_length_b 15.860857
_cell_length_c 12.265683
_cell_angle_alpha 90.000000
_cell_angle_beta 140.681847
_cell_angle_gamma 90.000000
_cell_volume 2501.105187
_symmetry_space_group_name_H-M "C 2/M"
_symmetry_group_IT_number 12
_symmetry_cell_setting 'monoclinic'
loop_
_space_group_symop_operation_xyz
x,y,z
-x,y,-z
-x,-y,-z
x,-y,z
1/2+x,1/2+y,z
1/2-x,1/2+y,-z
1/2-x,1/2-y,-z
1/2+x,1/2-y,z
loop_
_atom_site_type_symbol
_atom_site_label
_atom_site_fract_x
_atom_site_fract_y
_atom_site_fract_z
Si Si1 0.792056 0.824722 0.411948
Si Si2 0.393268 0.169422 0.431290
Si Si3 0.288411 0.669905 0.980351
Si Si4 0.619887 0.500000 0.800732
Si Si5 0.245909 0.096798 0.406618
Si Si6 0.886354 0.000000 0.467381
Si Si7 0.110225 0.787410 0.092316
O O1 0.879029 0.759571 0.475503
O O2 0.767335 0.840376 0.507974
O O3 0.689454 0.787041 0.224517
O O4 0.825196 0.916073 0.416985
O O5 0.500000 0.161191 0.500000
O O6 0.304514 0.156840 0.225543
O O7 0.354998 0.108230 0.480574
O O8 0.386627 0.697740 0.032388
O O9 0.250000 0.750000 0.000000
O O10 0.320690 0.584463 0.083285
O O11 0.496867 0.500000 0.673204
O O12 0.609151 0.500000 0.657330
O O13 0.156801 0.128926 0.209812
O O14 0.232586 0.000000 0.420803
O O15 0.000000 0.768543 0.000000
#
# Coordination Sequence:
#
# PCOD9210311 Si02
#       7
#     8   8   8   4   8   4   8
#     4  10  21  41  61  92 120 162 205 257 300 375
#     4  10  23  39  65  88 129 166 211 252 311 380
#     4  10  23  40  61  92 128 164 208 262 311 377
#     4  11  24  40  61  93 126 161 211 262 325 365
#     4  10  21  39  61  91 123 157 207 257 304 368
#     4  11  24  38  66  90 122 160 211 264 312 382
#     4  10  23  38  62  87 126 157 201 251 311 372
#
# _framework density 19.191516
#
# number of rings (size 3 to 8) (size 9 to 14) (size 15 to 20)
#    0.000    2.167    0.833    4.000   11.667    2.000 
#    0.000    0.417    0.000    0.000    0.000    0.000 
#    0.000    0.000    0.000    0.000    0.000    0.000 
#
# Total GULP energy -133609.941443 kJ/mol
# GULP energy per Si atom -5567.080893 kJ/mol
# Density = 1.914784 g / cm^3
# Si number density = 19.191516 Si / 1000 Ang^3
#
#
#
# Elastic Constant Matrix: (Units=GPa)
#
#
# Indices 1 2 3 4 5 6 
#
# 1 103.4592 20.0599 32.0310 0.0000 -8.0739 0.0000
# 2 20.0599 149.6705 37.9204 0.0000 -10.7928 0.0000
# 3 32.0310 37.9204 56.4492 0.0000 -8.9631 0.0000
# 4 0.0000 0.0000 0.0000 7.6719 0.0000 -19.4584
# 5 -8.0739 -10.7928 -8.9631 0.0000 32.6254 0.0000
# 6 0.0000 0.0000 0.0000 -19.4584 0.0000 41.1136
#
#
#
# Elastic Compliance Matrix: (Units=1/GPa)
#
#
# Indices 1 2 3 4 5 6 
#
# 1 0.011769 0.000182 -0.006617 0.000000 0.001155 0.000000
# 2 0.000182 0.008102 -0.005347 0.000000 0.001257 0.000000
# 3 -0.006617 -0.005347 0.025639 0.000000 0.003637 0.000000
# 4 0.000000 0.000000 0.000000 -0.650439 0.000000 -0.307842
# 5 0.001155 0.001257 0.003637 0.000000 0.032352 0.000000
# 6 0.000000 0.000000 0.000000 -0.307842 0.000000 -0.121374
#
#
# Mechanical properties :
#
#
# Convention : Reuss Voigt Hill
#
# Bulk Modulus (GPa) = 45.56374 54.40014 49.98194
# Shear Modulus (GPa) = -7.54067 30.92001 11.68967
#
# Velocity S-wave (km/s) = -1.98436 4.01824 2.47069
# Velocity P-wave (km/s) = 4.30615 7.06653 5.85144
#
# Compressibility (1/GPa) = 0.02194727
#
# Stress axis : x y z
#
# Youngs Moduli (GPa) = 84.96805 123.42423 39.00272
#
# Poissons Ratio (x) = -0.02252 0.25809
# Poissons Ratio (y) = -0.01550 0.20854
# Poissons Ratio (z) = 0.56226 0.65992
#
# Static dielectric constant tensor:
#      x y z
#    x 1.769010 0.000000 -0.015150 
#    y 0.000000 1.682460 0.000000 
#    z -0.015150 0.000000 1.653930 
# 
# From -- ./inp_files/167673.got.cif
#   From: 2010.05.17/outbox.cif.g08.bks.cpg/sg12_84_cif.got.tgz:167673.got - 2010.06.03 13:09:07.
