data_PCOD9210616
_publ_section_title
;
Structure prediction by ZEFSAII (Michael W. Deem and Ramdas Pophale) SiO2 
 PCOD9210616
Probable space group: C 2/M
;
_chemical_formula_sum "Si O2"
_cell_formula_units_Z 48
_cell_length_a 9.293583
_cell_length_b 16.649351
_cell_length_c 14.828900
_cell_angle_alpha 90.000000
_cell_angle_beta 90.695735
_cell_angle_gamma 90.000000
_cell_volume 2294.338055
_symmetry_space_group_name_H-M "C 2/M"
_symmetry_group_IT_number 12
_symmetry_cell_setting 'monoclinic'
loop_
_space_group_symop_operation_xyz
x,y,z
-x,y,-z
-x,-y,-z
x,-y,z
1/2+x,1/2+y,z
1/2-x,1/2+y,-z
1/2-x,1/2-y,-z
1/2+x,1/2-y,z
loop_
_atom_site_type_symbol
_atom_site_label
_atom_site_fract_x
_atom_site_fract_y
_atom_site_fract_z
Si Si1 0.873189 0.408146 0.425907
Si Si2 0.895527 0.094504 0.283145
Si Si3 0.925717 0.659955 0.716872
Si Si4 0.425060 0.405435 0.087364
Si Si5 0.082357 0.594223 0.092522
Si Si6 0.085968 0.187381 0.412042
O O1 0.819333 0.500000 0.431245
O O2 0.744673 0.344575 0.436123
O O3 0.000000 0.399312 0.500000
O O4 0.952495 0.391947 0.332039
O O5 0.735122 0.126143 0.297836
O O6 0.955508 0.127634 0.187774
O O7 0.997690 0.115158 0.366068
O O8 0.882063 0.000000 0.271921
O O9 0.953369 0.651804 0.823792
O O10 0.921546 0.744111 0.664237
O O11 0.467877 0.500000 0.089751
O O12 0.253113 0.401158 0.076492
O O13 0.500000 0.368694 0.000000
O O14 0.051634 0.500000 0.116494
O O15 0.000000 0.613065 0.000000
O O16 0.000000 0.213480 0.500000
#
# Coordination Sequence:
#
# PCOD9210616 Si02
#       6
#     8   8   8   8   8   8
#     4  11  24  41  64  92 120 157 209 263 309 362
#     4  10  21  39  63  89 120 162 209 254 301 359
#     4  11  22  40  62  89 125 161 200 248 307 370
#     4   8  15  30  54  84 116 150 190 238 292 349
#     4   9  18  34  60  92 123 158 201 249 299 353
#     4  12  26  42  61  88 123 162 203 253 317 375
#
# _framework density 20.921068000000002
#
# number of rings (size 3 to 8) (size 9 to 14) (size 15 to 20)
#    0.000    1.833    0.000    5.500    0.000    6.000 
#    0.000    4.167    0.000    5.000    0.000    0.000 
#    0.000    0.000    0.000    0.000    0.000    0.000 
#
# Total GULP energy -134034.689268 kJ/mol
# GULP energy per Si atom -5584.778720 kJ/mol
# Density = 2.087345 g / cm^3
# Si number density = 20.921068 Si / 1000 Ang^3
#
#
#
# Elastic Constant Matrix: (Units=GPa)
#
#
# Indices 1 2 3 4 5 6 
#
# 1 46.8397 132.6940 79.2856 0.0000 17.9556 0.0000
# 2 132.6940 -514.0507 -56.7007 0.0000 -130.5450 0.0000
# 3 79.2856 -56.7007 109.0135 0.0000 -32.5774 0.0000
# 4 0.0000 0.0000 0.0000 32.5981 0.0000 -8.7528
# 5 17.9556 -130.5450 -32.5774 0.0000 15.2973 0.0000
# 6 0.0000 0.0000 0.0000 -8.7528 0.0000 97.5667
#
#
#
# Elastic Compliance Matrix: (Units=1/GPa)
#
#
# Indices 1 2 3 4 5 6 
#
# 1 0.022646 0.006499 -0.012267 0.000000 0.002756 0.000000
# 2 0.006499 0.001641 -0.005416 0.000000 -0.005162 0.000000
# 3 -0.012267 -0.005416 0.015865 0.000000 0.001967 0.000000
# 4 0.000000 0.000000 0.000000 0.031434 0.000000 0.002820
# 5 0.002756 -0.005162 0.001967 0.000000 0.022273 0.000000
# 6 0.000000 0.000000 0.000000 0.002820 0.000000 0.010502
#
#
# Mechanical properties :
#
#
# Convention : Reuss Voigt Hill
#
# Bulk Modulus (GPa) = 56.22868 -5.29331 25.46769
# Shear Modulus (GPa) = 37.69123 -5.13933 16.27595
#
# Velocity S-wave (km/s) = 4.24912 -1.56903 2.79224
# Velocity P-wave (km/s) = 7.14201 2.41208 4.75343
#
# Compressibility (1/GPa) = 0.01778452
#
# Stress axis : x y z
#
# Youngs Moduli (GPa) = 44.15829 609.56205 63.02992
#
# Poissons Ratio (x) = -3.96143 0.77316
# Poissons Ratio (y) = -0.28698 0.34136
# Poissons Ratio (z) = 0.54167 3.30134
#
# Static dielectric constant tensor:
#      x y z
#    x 1.706940 0.000000 -0.009390 
#    y 0.000000 1.759940 0.000000 
#    z -0.009390 0.000000 1.809700 
# 
# From -- ./inp_files/195953.got.cif
#   From: 2010.05.17/outbox.cif.g08.bks.cpg/sg12_98_cif.got.tgz:195953.got - 2010.06.03 13:09:07.
