data_PCOD9210787
_publ_section_title
;
Structure prediction by ZEFSAII (Michael W. Deem and Ramdas Pophale) SiO2 
 PCOD9210787
Probable space group: C 2/M
;
_chemical_formula_sum "Si O2"
_cell_formula_units_Z 64
_cell_length_a 18.776711
_cell_length_b 34.076553
_cell_length_c 11.956552
_cell_angle_alpha 90.000000
_cell_angle_beta 26.841224
_cell_angle_gamma 90.000000
_cell_volume 3454.281899
_symmetry_space_group_name_H-M "C 2/M"
_symmetry_group_IT_number 12
_symmetry_cell_setting 'monoclinic'
loop_
_space_group_symop_operation_xyz
x,y,z
-x,y,-z
-x,-y,-z
x,-y,z
1/2+x,1/2+y,z
1/2-x,1/2+y,-z
1/2-x,1/2-y,-z
1/2+x,1/2-y,z
loop_
_atom_site_type_symbol
_atom_site_label
_atom_site_fract_x
_atom_site_fract_y
_atom_site_fract_z
Si Si1 0.609550 0.730321 0.625600
Si Si2 0.393418 0.606935 0.870734
Si Si3 0.037858 0.299887 0.575626
Si Si4 0.629186 0.873058 0.082168
Si Si5 0.704953 0.347753 0.374069
Si Si6 0.886879 0.589212 0.261142
Si Si7 0.564822 0.453233 0.783564
Si Si8 0.884478 0.171199 0.068975
O O1 0.750000 0.750000 0.500000
O O2 0.515234 0.762742 0.687413
O O3 0.680997 0.696923 0.444136
O O4 0.488397 0.706315 0.872275
O O5 0.540452 0.628612 0.605012
O O6 0.453374 0.568416 0.849689
O O7 0.346553 0.638305 0.031304
O O8 0.252202 0.602185 0.982362
O O9 0.000000 0.290195 0.500000
O O10 0.938833 0.337862 0.748652
O O11 0.220169 0.311636 0.339152
O O12 0.494438 0.899556 0.215519
O O13 0.716007 0.852834 0.855925
O O14 0.811101 0.370720 0.316835
O O15 0.740563 0.562906 0.507879
O O16 0.000000 0.574021 0.000000
O O17 0.562873 0.500000 0.773809
O O18 0.500000 0.444252 0.000000
O O19 0.000000 0.153126 0.000000
#
# Coordination Sequence:
#
# PCOD9210787 Si02
#       8
#     8   8   8   8   8   8   8   8
#     4  11  23  38  58  78 112 156 201 260 301 356
#     4  10  21  39  64  86 118 155 195 242 292 362
#     4  12  26  38  54  85 118 148 200 254 312 349
#     4  11  22  37  61  86 117 153 201 249 295 350
#     4   9  21  40  60  83 112 159 207 245 294 352
#     4   9  20  39  64  92 119 157 201 243 291 357
#     4  10  22  40  66  96 124 156 195 239 294 362
#     4  11  23  40  58  82 110 156 205 242 297 360
#
# _framework density 18.527729000000001
#
# number of rings (size 3 to 8) (size 9 to 14) (size 15 to 20)
#    0.000    1.625    2.500    1.500    7.000    2.750 
#    0.000    0.625    0.000   11.250    0.000    0.000 
#    0.000    0.000    0.000    0.000    0.000    0.000 
#
# Total GULP energy -178688.391545 kJ/mol
# GULP energy per Si atom -5584.012236 kJ/mol
# Density = 1.848556 g / cm^3
# Si number density = 18.527729 Si / 1000 Ang^3
#
#
#
# Elastic Constant Matrix: (Units=GPa)
#
#
# Indices 1 2 3 4 5 6 
#
# 1 137.4741 43.8509 36.2511 0.0001 -25.2708 -0.0001
# 2 43.8509 89.7435 43.0563 0.0000 -5.6352 0.0000
# 3 36.2511 43.0563 66.0574 0.0001 -1.6549 -0.0001
# 4 0.0001 0.0000 0.0001 -6.7491 0.0000 -5.9060
# 5 -25.2708 -5.6352 -1.6549 0.0000 25.8490 0.0001
# 6 -0.0001 0.0000 -0.0001 -5.9060 0.0001 14.7856
#
#
#
# Elastic Compliance Matrix: (Units=1/GPa)
#
#
# Indices 1 2 3 4 5 6 
#
# 1 0.011060 -0.002893 -0.003935 0.000000 0.009930 0.000000
# 2 -0.002893 0.017184 -0.009605 0.000000 0.000303 0.000000
# 3 -0.003935 -0.009605 0.023448 0.000000 -0.004440 0.000000
# 4 0.000000 0.000000 0.000000 -0.109791 0.000000 -0.043856
# 5 0.009930 0.000303 -0.004440 0.000000 0.048176 0.000000
# 6 0.000000 0.000000 0.000000 -0.043856 0.000000 0.050116
#
#
# Mechanical properties :
#
#
# Convention : Reuss Voigt Hill
#
# Bulk Modulus (GPa) = 53.12198 59.95462 56.53830
# Shear Modulus (GPa) = 63.02597 18.11822 40.57209
#
# Velocity S-wave (km/s) = 5.83875 3.13053 4.68461
# Velocity P-wave (km/s) = 8.61327 6.74512 7.73579
#
# Compressibility (1/GPa) = 0.01882460
#
# Stress axis : x y z
#
# Youngs Moduli (GPa) = 90.41768 58.19483 42.64846
#
# Poissons Ratio (x) = 0.16833 0.16783
# Poissons Ratio (y) = 0.26154 0.40965
# Poissons Ratio (z) = 0.35582 0.55898
#
# Static dielectric constant tensor:
#      x y z
#    x 1.936840 0.000000 -0.084070 
#    y 0.000000 1.596970 0.000000 
#    z -0.084070 0.000000 1.702250 
# 
# From -- ./inp_files/161202.got.cif
#   From: 2010.05.17/outbox.cif.g08.bks.cpg/sg12_81_cif.got.tgz:161202.got - 2010.06.03 13:09:07.
