data_PCOD9210927
_publ_section_title
;
Structure prediction by ZEFSAII (Michael W. Deem and Ramdas Pophale) SiO2 
 PCOD9210927
Probable space group: C 2/M
;
_chemical_formula_sum "Si O2"
_cell_formula_units_Z 64
_cell_length_a 21.970494
_cell_length_b 24.103594
_cell_length_c 17.063789
_cell_angle_alpha 90.000000
_cell_angle_beta 160.157273
_cell_angle_gamma 90.000000
_cell_volume 3067.322450
_symmetry_space_group_name_H-M "C 2/M"
_symmetry_group_IT_number 12
_symmetry_cell_setting 'monoclinic'
loop_
_space_group_symop_operation_xyz
x,y,z
-x,y,-z
-x,-y,-z
x,-y,z
1/2+x,1/2+y,z
1/2-x,1/2+y,-z
1/2-x,1/2-y,-z
1/2+x,1/2-y,z
loop_
_atom_site_type_symbol
_atom_site_label
_atom_site_fract_x
_atom_site_fract_y
_atom_site_fract_z
Si Si1 0.901140 0.886993 0.578789
Si Si2 0.045638 0.342713 0.645560
Si Si3 0.770096 0.740764 0.888542
Si Si4 0.285547 0.935679 0.052477
Si Si5 0.197456 0.196785 0.235583
Si Si6 0.107800 0.761049 0.395958
Si Si7 0.451519 0.065563 0.777109
Si Si8 0.664078 0.855368 0.146918
O O1 0.949610 0.824950 0.665567
O O2 0.749671 0.909989 0.455565
O O3 0.806888 0.877989 0.380937
O O4 0.077595 0.923883 0.780921
O O5 0.113947 0.278492 0.738622
O O6 0.172248 0.389386 0.831407
O O7 0.000000 0.350591 0.500000
O O8 0.847593 0.347445 0.441649
O O9 0.805796 0.780916 0.857436
O O10 0.748193 0.683609 0.814133
O O11 0.928376 0.732105 0.142961
O O12 0.430179 0.925215 0.158149
O O13 0.305562 0.000000 0.100629
O O14 0.270050 0.245492 0.380399
O O15 0.000000 0.174115 0.000000
O O16 0.250000 0.750000 0.500000
O O17 0.439333 0.000000 0.773934
O O18 0.565466 0.095098 0.982796
O O19 0.500000 0.828117 0.000000
#
# Coordination Sequence:
#
# PCOD9210927 Si02
#       8
#     8   8   8   8   8   8   8   8
#     4  11  23  42  67  99 133 182 222 269 343 406
#     4  10  25  44  63  94 130 172 222 274 347 408
#     4  11  21  40  59  92 134 168 215 266 326 410
#     4  11  25  47  71  99 131 171 236 297 336 395
#     4  11  23  39  60  91 131 173 214 263 332 409
#     4  12  22  34  63  95 133 177 214 263 336 401
#     4  10  24  42  65  95 131 178 231 283 332 394
#     4  10  21  39  64  95 142 180 219 273 332 402
#
# _framework density 20.865103000000001
#
# number of rings (size 3 to 8) (size 9 to 14) (size 15 to 20)
#    0.000    1.250    3.750    2.250    3.500    5.000 
#    2.250    1.250    0.000    0.375    0.000    0.000 
#    0.000    0.000    0.000    0.000    0.000    0.000 
#
# Total GULP energy -178212.745681 kJ/mol
# GULP energy per Si atom -5569.148303 kJ/mol
# Density = 2.081761 g / cm^3
# Si number density = 20.865103 Si / 1000 Ang^3
#
#
#
# Elastic Constant Matrix: (Units=GPa)
#
#
# Indices 1 2 3 4 5 6 
#
# 1 56.9316 8.9525 36.0357 0.0000 -2.5159 0.0000
# 2 8.9525 66.9893 28.8068 0.0000 1.5556 0.0000
# 3 36.0357 28.8068 140.5326 0.0001 8.2395 0.0000
# 4 0.0000 0.0000 0.0001 21.8321 0.0001 6.5030
# 5 -2.5159 1.5556 8.2395 0.0001 29.0263 0.0000
# 6 0.0000 0.0000 0.0000 6.5030 0.0000 20.3604
#
#
#
# Elastic Compliance Matrix: (Units=1/GPa)
#
#
# Indices 1 2 3 4 5 6 
#
# 1 0.021321 -0.000539 -0.005559 0.000000 0.003455 0.000000
# 2 -0.000539 0.016385 -0.003220 0.000000 -0.000011 0.000000
# 3 -0.005559 -0.003220 0.009375 0.000000 -0.002971 0.000000
# 4 0.000000 0.000000 0.000000 0.050620 0.000000 -0.016168
# 5 0.003455 -0.000011 -0.002971 0.000000 0.035595 0.000000
# 6 0.000000 0.000000 0.000000 -0.016168 0.000000 0.054279
#
#
# Mechanical properties :
#
#
# Convention : Reuss Voigt Hill
#
# Bulk Modulus (GPa) = 35.15527 45.78260 40.46894
# Shear Modulus (GPa) = 23.18115 26.95434 25.06774
#
# Velocity S-wave (km/s) = 3.33678 3.59811 3.46991
# Velocity P-wave (km/s) = 5.63302 6.26512 5.95746
#
# Compressibility (1/GPa) = 0.02844524
#
# Stress axis : x y z
#
# Youngs Moduli (GPa) = 46.90158 61.03295 106.66118
#
# Poissons Ratio (x) = 0.03290 0.59296
# Poissons Ratio (y) = 0.02528 0.34342
# Poissons Ratio (z) = 0.26074 0.19651
#
# Static dielectric constant tensor:
#      x y z
#    x 1.916600 0.000000 0.089690 
#    y 0.000000 1.785320 0.000000 
#    z 0.089690 0.000000 1.754600 
# 
# From -- ./inp_files/290959.got.cif
#   From: 2010.05.17/outbox.cif.g08.bks.cpg/sg12_146_cif.got.tgz:290959.got - 2010.06.03 13:09:07.
