data_PCOD9210405
_publ_section_title
;
Structure prediction by ZEFSAII (Michael W. Deem and Ramdas Pophale) SiO2 
 PCOD9210405
Probable space group: C 2/M
;
_chemical_formula_sum "Si O2"
_cell_formula_units_Z 56
_cell_length_a 19.717882
_cell_length_b 13.631263
_cell_length_c 15.579725
_cell_angle_alpha 90.000000
_cell_angle_beta 138.598632
_cell_angle_gamma 90.000000
_cell_volume 2769.326900
_symmetry_space_group_name_H-M "C 2/M"
_symmetry_group_IT_number 12
_symmetry_cell_setting 'monoclinic'
loop_
_space_group_symop_operation_xyz
x,y,z
-x,y,-z
-x,-y,-z
x,-y,z
1/2+x,1/2+y,z
1/2-x,1/2+y,-z
1/2-x,1/2-y,-z
1/2+x,1/2-y,z
loop_
_atom_site_type_symbol
_atom_site_label
_atom_site_fract_x
_atom_site_fract_y
_atom_site_fract_z
Si Si1 0.459543 0.615777 0.868653
Si Si2 0.731008 0.276922 0.844970
Si Si3 0.388672 0.888950 0.366250
Si Si4 0.750115 0.388566 0.402639
Si Si5 0.588787 0.720307 0.854810
Si Si6 0.913969 0.383717 0.691777
Si Si7 0.383358 0.886350 0.864996
O O1 0.443689 0.500000 0.864876
O O2 0.352367 0.659168 0.732696
O O3 0.536573 0.639349 0.865354
O O4 0.500000 0.650238 0.000000
O O5 0.678407 0.177752 0.760024
O O6 0.638012 0.321251 0.813890
O O7 0.790183 0.330697 0.823571
O O8 0.820851 0.260583 0.998933
O O9 0.500000 0.849131 0.500000
O O10 0.325294 0.894802 0.393519
O O11 0.403038 0.000000 0.345805
O O12 0.722332 0.500000 0.404281
O O13 0.817969 0.347940 0.543974
O O14 0.509047 0.810356 0.765111
O O15 0.936265 0.500000 0.691778
O O16 0.882951 0.381756 0.761892
O O17 0.374782 0.000000 0.884326
O O18 0.500000 0.855609 0.000000
#
# Coordination Sequence:
#
# PCOD9210405 Si02
#       7
#     8   8   8   8   8   8   8
#     4  10  22  40  62  88 119 157 201 248 309 377
#     4  11  24  39  57  92 123 156 207 253 310 371
#     4  10  21  39  62  87 123 164 202 253 314 373
#     4   9  19  36  60  89 116 151 203 251 299 360
#     4  11  24  37  59  89 124 160 196 254 313 367
#     4  10  21  39  64  93 122 159 210 261 305 358
#     4  10  21  40  65  88 118 164 211 257 306 366
#
# _framework density 20.221520000000002
#
# number of rings (size 3 to 8) (size 9 to 14) (size 15 to 20)
#    0.000    1.857    1.429    1.714    4.000    4.571 
#    2.571    2.857    0.000    0.857    0.000    0.000 
#    0.000    0.000    0.000    0.000    0.000    0.000 
#
# Total GULP energy -156106.606887 kJ/mol
# GULP energy per Si atom -5575.235960 kJ/mol
# Density = 2.017549 g / cm^3
# Si number density = 20.221520 Si / 1000 Ang^3
#
#
#
# Elastic Constant Matrix: (Units=GPa)
#
#
# Indices 1 2 3 4 5 6 
#
# 1 121.0967 6.2547 46.9544 0.0000 4.7201 0.0000
# 2 6.2547 70.8278 35.4162 0.0000 10.2848 0.0000
# 3 46.9544 35.4162 164.2409 0.0000 8.3563 0.0000
# 4 0.0000 0.0000 0.0000 -3.4892 0.0000 24.1282
# 5 4.7201 10.2848 8.3563 0.0000 29.3257 0.0000
# 6 0.0000 0.0000 0.0000 24.1282 0.0000 8.0818
#
#
#
# Elastic Compliance Matrix: (Units=1/GPa)
#
#
# Indices 1 2 3 4 5 6 
#
# 1 0.009333 0.000700 -0.002771 0.000000 -0.000958 0.000000
# 2 0.000700 0.016527 -0.003514 0.000000 -0.004907 0.000000
# 3 -0.002771 -0.003514 0.007664 0.000000 -0.000505 0.000000
# 4 0.000000 0.000000 0.000000 -0.013241 0.000000 0.039530
# 5 -0.000958 -0.004907 -0.000505 0.000000 0.036119 0.000000
# 6 0.000000 0.000000 0.000000 0.039530 0.000000 0.005717
#
#
# Mechanical properties :
#
#
# Convention : Reuss Voigt Hill
#
# Bulk Modulus (GPa) = 44.73218 59.26844 52.00031
# Shear Modulus (GPa) = 61.92726 24.61966 43.27346
#
# Velocity S-wave (km/s) = 5.53994 3.49305 4.63100
# Velocity P-wave (km/s) = 7.94294 6.75587 7.37333
#
# Compressibility (1/GPa) = 0.02235527
#
# Stress axis : x y z
#
# Youngs Moduli (GPa) = 107.14319 60.50787 130.47679
#
# Poissons Ratio (x) = -0.04237 0.36149
# Poissons Ratio (y) = -0.07503 0.45853
# Poissons Ratio (z) = 0.29684 0.21264
#
# Static dielectric constant tensor:
#      x y z
#    x 1.777770 0.000000 0.004420 
#    y 0.000000 1.765590 0.000000 
#    z 0.004420 0.000000 1.733790 
# 
# From -- ./inp_files/233761.got.cif
#   From: 2010.05.17/outbox.cif.g08.bks.cpg/sg12_117_cif.got.tgz:233761.got - 2010.06.03 13:09:07.
