data_PCOD9210761
_publ_section_title
;
Structure prediction by ZEFSAII (Michael W. Deem and Ramdas Pophale) SiO2 
 PCOD9210761
Probable space group: C 2/M
;
_chemical_formula_sum "Si O2"
_cell_formula_units_Z 56
_cell_length_a 17.204112
_cell_length_b 15.008255
_cell_length_c 27.601802
_cell_angle_alpha 90.000000
_cell_angle_beta 20.875257
_cell_angle_gamma 90.000000
_cell_volume 2539.556093
_symmetry_space_group_name_H-M "C 2/M"
_symmetry_group_IT_number 12
_symmetry_cell_setting 'monoclinic'
loop_
_space_group_symop_operation_xyz
x,y,z
-x,y,-z
-x,-y,-z
x,-y,z
1/2+x,1/2+y,z
1/2-x,1/2+y,-z
1/2-x,1/2-y,-z
1/2+x,1/2-y,z
loop_
_atom_site_type_symbol
_atom_site_label
_atom_site_fract_x
_atom_site_fract_y
_atom_site_fract_z
Si Si1 0.139480 0.757296 0.616971
Si Si2 0.378618 0.601267 0.297441
Si Si3 0.773146 0.403945 0.722230
Si Si4 0.290413 0.710071 0.751279
Si Si5 0.416040 0.394770 0.494151
Si Si6 0.140309 0.903592 0.967658
Si Si7 0.721575 0.776205 0.960462
O O1 0.250000 0.750000 0.500000
O O2 0.204952 0.664914 0.604392
O O3 0.225031 0.835445 0.601907
O O4 0.897147 0.788705 0.742192
O O5 0.399669 0.500000 0.301889
O O6 0.248303 0.601133 0.322895
O O7 0.610561 0.646134 0.149579
O O8 0.879916 0.500000 0.672966
O O9 0.847789 0.309217 0.698283
O O10 0.533444 0.408339 0.887089
O O11 0.401867 0.639612 0.650229
O O12 0.030260 0.700095 0.902910
O O13 0.500000 0.377565 0.500000
O O14 0.377922 0.500000 0.511010
O O15 0.272192 0.814651 0.901554
O O16 0.255149 0.000000 0.898289
O O17 0.000000 0.894029 0.000000
O O18 0.750000 0.750000 0.000000
#
# Coordination Sequence:
#
# PCOD9210761 Si02
#       7
#     8   8   8   8   8   8   8
#     4  10  24  43  66  90 123 169 218 282 337 396
#     4  11  23  41  66  95 133 179 224 271 329 400
#     4   9  18  35  58  89 125 168 218 265 313 378
#     4  10  21  39  63  95 132 171 213 271 333 389
#     4  10  22  42  67  92 122 164 218 275 331 398
#     4   9  18  33  54  82 123 171 218 263 307 362
#     4  11  22  37  64  98 139 183 214 264 325 400
#
# _framework density 22.051098
#
# number of rings (size 3 to 8) (size 9 to 14) (size 15 to 20)
#    0.000    2.000    2.857    0.857    4.000    3.429 
#    0.000    3.571    0.000    7.714    0.000    0.000 
#    0.000    0.000    0.000    0.000    0.000    0.000 
#
# Total GULP energy -156292.786792 kJ/mol
# GULP energy per Si atom -5581.885243 kJ/mol
# Density = 2.200091 g / cm^3
# Si number density = 22.051098 Si / 1000 Ang^3
#
#
#
# Elastic Constant Matrix: (Units=GPa)
#
#
# Indices 1 2 3 4 5 6 
#
# 1 86.1003 29.9051 -0.7579 0.1501 15.7417 0.2356
# 2 29.9051 142.6226 -1.7550 0.2288 14.2398 0.3829
# 3 -0.7579 -1.7550 70.4594 -0.1878 4.3903 -0.2627
# 4 0.1501 0.2288 -0.1878 -62.3080 0.0438 -164.6048
# 5 15.7417 14.2398 4.3903 0.0438 37.0617 0.0739
# 6 0.2356 0.3829 -0.2627 -164.6048 0.0739 -250.3914
#
#
#
# Elastic Compliance Matrix: (Units=1/GPa)
#
#
# Indices 1 2 3 4 5 6 
#
# 1 0.013297 -0.002303 0.000385 0.000000 -0.004808 0.000007
# 2 -0.002303 0.007699 0.000293 0.000004 -0.002015 0.000006
# 3 0.000385 0.000293 0.014327 0.000005 -0.001973 -0.000018
# 4 0.000000 0.000004 0.000005 0.021786 0.000001 -0.014322
# 5 -0.004808 -0.002015 -0.001973 0.000001 0.030032 0.000003
# 6 0.000007 0.000006 -0.000018 -0.014322 0.000003 0.005421
#
#
# Mechanical properties :
#
#
# Convention : Reuss Voigt Hill
#
# Bulk Modulus (GPa) = 31.17975 39.32962 35.25468
# Shear Modulus (GPa) = 46.94675 -37.00819 4.96928
#
# Velocity S-wave (km/s) = 4.61911 -4.10114 1.50280
# Velocity P-wave (km/s) = 6.52830 2.13341 4.36276
#
# Compressibility (1/GPa) = 0.03207210
#
# Stress axis : x y z
#
# Youngs Moduli (GPa) = 75.20578 129.88401 69.79876
#
# Poissons Ratio (x) = 0.29916 -0.02689
# Poissons Ratio (y) = 0.17322 -0.02042
# Poissons Ratio (z) = -0.02898 -0.03800
#
# Static dielectric constant tensor:
#      x y z
#    x 1.723560 0.000030 0.129550 
#    y 0.000030 1.814220 -0.000180 
#    z 0.129550 -0.000180 1.452960 
# 
# From -- ./inp_files/340296.got.cif
#   From: 2010.05.17/outbox.cif.g08.bks.cpg/sg12_171_cif.got.tgz:340296.got - 2010.06.03 13:09:07.
