data_PCOD9210031
_publ_section_title
;
Structure prediction by ZEFSAII (Michael W. Deem and Ramdas Pophale) SiO2 
 PCOD9210031
Probable space group: C 2/M
;
_chemical_formula_sum "Si O2"
_cell_formula_units_Z 64
_cell_length_a 15.473846
_cell_length_b 8.126752
_cell_length_c 32.650475
_cell_angle_alpha 90.000000
_cell_angle_beta 47.903671
_cell_angle_gamma 90.000000
_cell_volume 3046.629805
_symmetry_space_group_name_H-M "C 2/M"
_symmetry_group_IT_number 12
_symmetry_cell_setting 'monoclinic'
loop_
_space_group_symop_operation_xyz
x,y,z
-x,y,-z
-x,-y,-z
x,-y,z
1/2+x,1/2+y,z
1/2-x,1/2+y,-z
1/2-x,1/2-y,-z
1/2+x,1/2-y,z
loop_
_atom_site_type_symbol
_atom_site_label
_atom_site_fract_x
_atom_site_fract_y
_atom_site_fract_z
Si Si1 0.432292 0.694137 0.707176
Si Si2 0.135955 0.196631 0.012084
Si Si3 0.039160 0.799899 0.210389
Si Si4 0.869739 0.800320 0.416576
Si Si5 0.411413 0.815358 0.131409
Si Si6 0.689273 0.687559 0.756581
Si Si7 0.265689 0.305656 0.106065
Si Si8 0.102256 0.698400 0.499114
O O1 0.453289 0.500000 0.705340
O O2 0.426153 0.760229 0.755379
O O3 0.537871 0.760141 0.646345
O O4 0.309100 0.718364 0.724334
O O5 0.026735 0.274440 0.069463
O O6 0.121915 0.000000 0.017236
O O7 0.250000 0.250000 0.000000
O O8 0.161668 0.244472 0.956996
O O9 0.127830 0.727324 0.148554
O O10 0.906005 0.750060 0.245051
O O11 0.044973 0.000000 0.205518
O O12 0.911417 0.745892 0.448643
O O13 0.736894 0.746521 0.448430
O O14 0.869124 0.000000 0.416951
O O15 0.380464 0.696444 0.178302
O O16 0.309883 0.797270 0.130386
O O17 0.415764 0.000000 0.146497
O O18 0.718839 0.500000 0.737255
O O19 0.286145 0.500000 0.106137
O O20 0.101387 0.500000 0.496750
O O21 0.000000 0.756634 0.500000
#
# Coordination Sequence:
#
# PCOD9210031 Si02
#       8
#     8   8   8   8   8   8   8   8
#     4  10  21  39  59  83 118 159 198 240 296 353
#     4  11  24  40  58  84 115 147 189 241 297 360
#     4  10  22  39  60  85 115 153 194 240 297 359
#     4   9  19  35  56  84 120 158 197 243 293 344
#     4  12  24  39  60  84 113 151 192 239 301 362
#     4  11  23  39  61  88 116 152 200 249 297 353
#     4  11  23  39  60  85 113 146 190 242 294 353
#     4   9  18  34  58  87 119 157 200 243 291 346
#
# _framework density 21.006820000000001
#
# number of rings (size 3 to 8) (size 9 to 14) (size 15 to 20)
#    0.000    1.625    1.250    3.375    0.000    8.250 
#    0.000    2.500    0.000    0.000    0.000    0.000 
#    0.000    0.000    0.000    0.000    0.000    0.000 
#
# Total GULP energy -178683.573473 kJ/mol
# GULP energy per Si atom -5583.861671 kJ/mol
# Density = 2.095901 g / cm^3
# Si number density = 21.006820 Si / 1000 Ang^3
#
#
#
# Elastic Constant Matrix: (Units=GPa)
#
#
# Indices 1 2 3 4 5 6 
#
# 1 104.9751 1.1760 28.5843 0.0008 -14.7292 -0.0004
# 2 1.1760 20.5709 1.0093 0.0012 -0.8604 -0.0012
# 3 28.5843 1.0093 112.5659 0.0007 -23.0694 -0.0004
# 4 0.0008 0.0012 0.0007 22.5673 0.0007 -1.2239
# 5 -14.7292 -0.8604 -23.0694 0.0007 17.2267 0.0001
# 6 -0.0004 -0.0012 -0.0004 -1.2239 0.0001 23.5874
#
#
#
# Elastic Compliance Matrix: (Units=1/GPa)
#
#
# Indices 1 2 3 4 5 6 
#
# 1 0.010940 -0.000243 -0.001187 -0.000001 0.007752 0.000000
# 2 -0.000243 0.048720 0.000112 -0.000002 0.002375 0.000002
# 3 -0.001187 0.000112 0.012373 -0.000001 0.015560 0.000000
# 4 -0.000001 -0.000002 -0.000001 0.044437 -0.000004 0.002306
# 5 0.007752 0.002375 0.015560 -0.000004 0.085634 0.000000
# 6 0.000000 0.000002 0.000000 0.002306 0.000000 0.042515
#
#
# Mechanical properties :
#
#
# Convention : Reuss Voigt Hill
#
# Bulk Modulus (GPa) = 14.41006 33.29458 23.85232
# Shear Modulus (GPa) = 18.49198 26.49909 22.49553
#
# Velocity S-wave (km/s) = 2.97018 3.55555 3.27596
# Velocity P-wave (km/s) = 4.31708 5.72186 5.06838
#
# Compressibility (1/GPa) = 0.06939596
#
# Stress axis : x y z
#
# Youngs Moduli (GPa) = 91.41019 20.52538 80.82092
#
# Poissons Ratio (x) = 0.00499 0.09594
# Poissons Ratio (y) = 0.02221 -0.00902
# Poissons Ratio (z) = 0.10852 -0.00229
#
# Static dielectric constant tensor:
#      x y z
#    x 1.785790 0.000000 -0.019340 
#    y 0.000000 1.740120 0.000000 
#    z -0.019340 0.000000 1.764060 
# 
# From -- ./inp_files/375424.got.cif
#   From: 2010.05.17/outbox.cif.g08.bks.cpg/sg12_188_cif.got.tgz:375424.got - 2010.06.03 13:09:07.
