data_PCOD9210371
_publ_section_title
;
Structure prediction by ZEFSAII (Michael W. Deem and Ramdas Pophale) SiO2 
 PCOD9210371
Probable space group: C 2/M
;
_chemical_formula_sum "Si O2"
_cell_formula_units_Z 64
_cell_length_a 9.783529
_cell_length_b 13.625682
_cell_length_c 29.376454
_cell_angle_alpha 90.000000
_cell_angle_beta 118.325240
_cell_angle_gamma 90.000000
_cell_volume 3447.214278
_symmetry_space_group_name_H-M "C 2/M"
_symmetry_group_IT_number 12
_symmetry_cell_setting 'monoclinic'
loop_
_space_group_symop_operation_xyz
x,y,z
-x,y,-z
-x,-y,-z
x,-y,z
1/2+x,1/2+y,z
1/2-x,1/2+y,-z
1/2-x,1/2-y,-z
1/2+x,1/2-y,z
loop_
_atom_site_type_symbol
_atom_site_label
_atom_site_fract_x
_atom_site_fract_y
_atom_site_fract_z
Si Si1 0.197374 0.265731 0.784073
Si Si2 0.949091 0.390388 0.696837
Si Si3 0.748550 0.882592 0.051346
Si Si4 0.362968 0.610839 0.298723
Si Si5 0.451335 0.745709 0.143885
Si Si6 0.085878 0.755636 0.390953
Si Si7 0.407144 0.118817 0.437945
Si Si8 0.446905 0.883315 0.062066
O O1 0.105863 0.353257 0.745135
O O2 0.132832 0.170510 0.747374
O O3 0.380830 0.274741 0.808790
O O4 0.161610 0.256573 0.831467
O O5 0.966924 0.500000 0.681503
O O6 0.815136 0.389931 0.713444
O O7 0.895779 0.318465 0.648490
O O8 0.895519 0.834467 0.098382
O O9 0.600314 0.851650 0.058620
O O10 0.760859 0.000000 0.055209
O O11 0.702352 0.856170 0.992307
O O12 0.419369 0.500000 0.302633
O O13 0.458223 0.666882 0.352801
O O14 0.451034 0.842628 0.113131
O O15 0.244862 0.820260 0.420981
O O16 0.011062 0.686229 0.419074
O O17 0.500000 0.116937 0.500000
O O18 0.385327 0.000000 0.421529
O O19 0.451299 0.000000 0.063586
#
# Coordination Sequence:
#
# PCOD9210371 Si02
#       8
#     8   8   8   8   8   8   8   8
#     4  11  24  36  55  85 116 147 186 239 294 361
#     4  10  21  39  62  86 117 157 202 255 306 354
#     4   9  19  36  57  81 106 139 188 232 275 348
#     4  10  21  39  63  86 115 158 206 251 297 360
#     4  12  21  37  56  82 113 145 183 229 292 350
#     4  11  21  42  65  95 125 168 221 260 306 374
#     4  11  24  41  64  98 139 176 212 264 323 371
#     4   9  19  36  58  80 105 145 187 225 281 351
#
# _framework density 18.565715000000001
#
# number of rings (size 3 to 8) (size 9 to 14) (size 15 to 20)
#    0.000    1.625    3.750    2.250    0.000    2.000 
#    0.000    1.250    0.000    4.500    0.000    0.000 
#    0.000    0.000    0.000    0.000    0.000    0.000 
#
# Total GULP energy -178262.912426 kJ/mol
# GULP energy per Si atom -5570.716013 kJ/mol
# Density = 1.852346 g / cm^3
# Si number density = 18.565715 Si / 1000 Ang^3
#
#
#
# Elastic Constant Matrix: (Units=GPa)
#
#
# Indices 1 2 3 4 5 6 
#
# 1 42.3740 22.5331 9.8393 0.0000 0.4436 0.0000
# 2 22.5331 103.0027 35.2005 0.0000 17.6489 0.0000
# 3 9.8393 35.2005 84.0901 0.0000 13.7898 0.0000
# 4 0.0000 0.0000 0.0000 26.0315 0.0000 3.0380
# 5 0.4436 17.6489 13.7898 0.0000 27.6481 0.0000
# 6 0.0000 0.0000 0.0000 3.0380 0.0000 26.0340
#
#
#
# Elastic Compliance Matrix: (Units=1/GPa)
#
#
# Indices 1 2 3 4 5 6 
#
# 1 0.027158 -0.006226 -0.001254 0.000000 0.004164 0.000000
# 2 -0.006226 0.013517 -0.003846 0.000000 -0.006611 0.000000
# 3 -0.001254 -0.003846 0.014422 0.000000 -0.004718 0.000000
# 4 0.000000 0.000000 0.000000 0.038945 0.000000 -0.004545
# 5 0.004164 -0.006611 -0.004718 0.000000 0.042675 0.000000
# 6 0.000000 0.000000 0.000000 -0.004545 0.000000 0.038942
#
#
# Mechanical properties :
#
#
# Convention : Reuss Voigt Hill
#
# Bulk Modulus (GPa) = 30.82110 40.51248 35.66679
# Shear Modulus (GPa) = 23.90889 26.73567 25.32228
#
# Velocity S-wave (km/s) = 3.59248 3.79892 3.69714
# Velocity P-wave (km/s) = 5.81765 6.41178 6.12193
#
# Compressibility (1/GPa) = 0.03244530
#
# Stress axis : x y z
#
# Youngs Moduli (GPa) = 36.82187 73.97821 69.33650
#
# Poissons Ratio (x) = 0.46058 0.08697
# Poissons Ratio (y) = 0.22925 0.26666
# Poissons Ratio (z) = 0.04619 0.28451
#
# Static dielectric constant tensor:
#      x y z
#    x 1.655080 0.000000 0.010480 
#    y 0.000000 1.668380 0.000000 
#    z 0.010480 0.000000 1.622520 
# 
# From -- ./inp_files/372384.got.cif
#   From: 2010.05.17/outbox.cif.g08.bks.cpg/sg12_187_cif.got.tgz:372384.got - 2010.06.03 13:09:07.
