data_PCOD9210436
_publ_section_title
;
Structure prediction by ZEFSAII (Michael W. Deem and Ramdas Pophale) SiO2 
 PCOD9210436
Probable space group: C 2/M
;
_chemical_formula_sum "Si O2"
_cell_formula_units_Z 40
_cell_length_a 23.130885
_cell_length_b 8.426972
_cell_length_c 10.127116
_cell_angle_alpha 90.000000
_cell_angle_beta 90.509534
_cell_angle_gamma 90.000000
_cell_volume 1973.933017
_symmetry_space_group_name_H-M "C 2/M"
_symmetry_group_IT_number 12
_symmetry_cell_setting 'monoclinic'
loop_
_space_group_symop_operation_xyz
x,y,z
-x,y,-z
-x,-y,-z
x,-y,z
1/2+x,1/2+y,z
1/2-x,1/2+y,-z
1/2-x,1/2-y,-z
1/2+x,1/2-y,z
loop_
_atom_site_type_symbol
_atom_site_label
_atom_site_fract_x
_atom_site_fract_y
_atom_site_fract_z
Si Si1 0.371033 0.192573 0.798348
Si Si2 0.746268 0.188503 0.349157
Si Si3 0.063326 0.810948 0.951444
Si Si4 0.132452 0.310728 0.707301
Si Si5 0.937990 0.693122 0.546109
O O1 0.309996 0.243758 0.733590
O O2 0.419171 0.240573 0.691213
O O3 0.370737 0.000000 0.810608
O O4 0.389581 0.266031 0.936756
O O5 0.750000 0.250000 0.500000
O O6 0.804763 0.234966 0.274604
O O7 0.741220 0.000000 0.358609
O O8 0.085623 0.735908 0.815924
O O9 0.060439 0.000000 0.935212
O O10 0.000000 0.754538 0.000000
O O11 0.138865 0.500000 0.706962
O O12 0.108938 0.259325 0.563508
O O13 0.939326 0.500000 0.545718
O O14 0.000000 0.751285 0.500000
#
# Coordination Sequence:
#
# PCOD9210436 Si02
#       5
#     8   8   8   8   8
#     4  10  21  39  62  89 120 162 209 250 301 364
#     4  11  22  39  63  92 128 162 203 257 308 363
#     4  11  25  43  61  89 128 164 202 253 312 369
#     4  11  22  39  64  91 121 163 208 253 308 364
#     4   9  17  32  57  88 117 149 200 255 298 352
#
# _framework density 20.264109999999999
#
# number of rings (size 3 to 8) (size 9 to 14) (size 15 to 20)
#    0.000    1.600    2.000    3.000    0.000    5.600 
#    0.000    0.000    0.000    4.200    0.000    0.000 
#    0.000    0.000    0.000    0.000    0.000    0.000 
#
# Total GULP energy -111747.550195 kJ/mol
# GULP energy per Si atom -5587.377510 kJ/mol
# Density = 2.021799 g / cm^3
# Si number density = 20.264110 Si / 1000 Ang^3
#
#
#
# Elastic Constant Matrix: (Units=GPa)
#
#
# Indices 1 2 3 4 5 6 
#
# 1 70.3355 0.7703 -25.4301 0.0000 -1.3359 0.0000
# 2 0.7703 18.4588 -3.3137 0.0000 5.5106 0.0000
# 3 -25.4301 -3.3137 50.3786 0.0000 0.3238 0.0000
# 4 0.0000 0.0000 0.0000 25.7404 0.0000 -3.7581
# 5 -1.3359 5.5106 0.3238 0.0000 33.8033 0.0000
# 6 0.0000 0.0000 0.0000 -3.7581 0.0000 25.1255
#
#
#
# Elastic Compliance Matrix: (Units=1/GPa)
#
#
# Indices 1 2 3 4 5 6 
#
# 1 0.017413 0.000714 0.008833 0.000000 0.000487 0.000000
# 2 0.000714 0.057714 0.004217 0.000000 -0.009421 0.000000
# 3 0.008833 0.004217 0.024590 0.000000 -0.000574 0.000000
# 4 0.000000 0.000000 0.000000 0.039717 0.000000 0.005941
# 5 0.000487 -0.009421 -0.000574 0.000000 0.031143 0.000000
# 6 0.000000 0.000000 0.000000 0.005941 0.000000 0.040689
#
#
# Mechanical properties :
#
#
# Convention : Reuss Voigt Hill
#
# Bulk Modulus (GPa) = 7.85886 9.24733 8.55309
# Shear Modulus (GPa) = 22.10896 28.07693 25.09295
#
# Velocity S-wave (km/s) = 3.30667 3.72634 3.52276
# Velocity P-wave (km/s) = 4.29714 4.80494 4.55812
#
# Compressibility (1/GPa) = 0.12724494
#
# Stress axis : x y z
#
# Youngs Moduli (GPa) = 57.42911 17.32671 40.66749
#
# Poissons Ratio (x) = -0.01237 -0.35923
# Poissons Ratio (y) = -0.04099 -0.17149
# Poissons Ratio (z) = -0.50730 -0.07307
#
# Static dielectric constant tensor:
#      x y z
#    x 1.741220 0.000000 0.005000 
#    y 0.000000 1.698870 0.000000 
#    z 0.005000 0.000000 1.682300 
# 
# From -- ./inp_files/92754.got.cif
#   From: 2010.05.17/outbox.cif.g08.bks.cpg/sg12_47_cif.got.tgz:92754.got - 2010.06.03 13:09:07.
