data_PCOD9210977
_publ_section_title
;
Structure prediction by ZEFSAII (Michael W. Deem and Ramdas Pophale) SiO2 
 PCOD9210977
Probable space group: C 2/M
;
_chemical_formula_sum "Si O2"
_cell_formula_units_Z 60
_cell_length_a 19.327488
_cell_length_b 26.589085
_cell_length_c 11.439346
_cell_angle_alpha 90.000000
_cell_angle_beta 150.696922
_cell_angle_gamma 90.000000
_cell_volume 2877.199430
_symmetry_space_group_name_H-M "C 2/M"
_symmetry_group_IT_number 12
_symmetry_cell_setting 'monoclinic'
loop_
_space_group_symop_operation_xyz
x,y,z
-x,y,-z
-x,-y,-z
x,-y,z
1/2+x,1/2+y,z
1/2-x,1/2+y,-z
1/2-x,1/2-y,-z
1/2+x,1/2-y,z
loop_
_atom_site_type_symbol
_atom_site_label
_atom_site_fract_x
_atom_site_fract_y
_atom_site_fract_z
Si Si1 0.493681 0.056982 0.743409
Si Si2 0.833295 0.694802 0.782160
Si Si3 0.218981 0.107142 0.773851
Si Si4 0.751370 0.374844 0.462206
Si Si5 0.863702 0.194057 0.884274
Si Si6 0.189746 0.867880 0.990171
Si Si7 0.000000 0.398984 0.500000
Si Si8 0.542627 0.559877 0.302030
O O1 0.396345 0.094310 0.675400
O O2 0.469977 0.068349 0.571505
O O3 0.456718 0.000000 0.717204
O O4 0.656978 0.068227 0.010491
O O5 0.792028 0.654068 0.817334
O O6 0.757157 0.673720 0.554699
O O7 0.797578 0.751119 0.769306
O O8 0.000000 0.694120 0.000000
O O9 0.116033 0.079737 0.530313
O O10 0.159799 0.128814 0.807966
O O11 0.729279 0.351441 0.303030
O O12 0.629655 0.412112 0.327627
O O13 0.882927 0.178333 0.047359
O O14 0.000000 0.192638 0.000000
O O15 0.358668 0.867928 0.258431
O O16 0.115698 0.918343 0.930775
O O17 0.548733 0.500000 0.302627
#
# Coordination Sequence:
#
# PCOD9210977 Si02
#       8
#     8   8   8   8   8   8   4   8
#     4  11  21  36  61  90 124 161 203 248 305 366
#     4  10  21  39  65  91 120 163 203 251 307 363
#     4  10  23  41  62  92 126 161 207 255 302 362
#     4  11  21  40  61  93 125 159 203 258 306 361
#     4  11  22  41  65  90 121 163 203 253 314 368
#     4  11  23  42  64  91 126 162 201 260 306 367
#     4  10  23  40  60  86 126 162 204 246 311 366
#     4  11  24  41  64  90 125 167 209 253 305 363
#
# _framework density 20.853611999999998
#
# number of rings (size 3 to 8) (size 9 to 14) (size 15 to 20)
#    0.000    1.333    4.000    1.800    0.000    4.267 
#    0.000    2.667    5.867    0.000    0.000    0.000 
#    0.000    0.000    0.000    0.000    0.000    0.000 
#
# Total GULP energy -167493.190055 kJ/mol
# GULP energy per Si atom -5583.106335 kJ/mol
# Density = 2.080615 g / cm^3
# Si number density = 20.853612 Si / 1000 Ang^3
#
#
#
# Elastic Constant Matrix: (Units=GPa)
#
#
# Indices 1 2 3 4 5 6 
#
# 1 53.3676 34.6946 -3.0217 0.0000 3.6132 0.0000
# 2 34.6946 128.5465 23.1506 0.0000 -10.2623 0.0000
# 3 -3.0217 23.1506 44.9506 0.0000 8.5128 0.0000
# 4 0.0000 0.0000 0.0000 19.2639 0.0000 0.3339
# 5 3.6132 -10.2623 8.5128 0.0000 24.5711 0.0000
# 6 0.0000 0.0000 0.0000 0.3339 0.0000 13.9109
#
#
#
# Elastic Compliance Matrix: (Units=1/GPa)
#
#
# Indices 1 2 3 4 5 6 
#
# 1 0.026123 -0.009477 0.008684 0.000000 -0.010808 0.000000
# 2 -0.009477 0.012760 -0.009077 0.000000 0.009868 0.000000
# 3 0.008684 -0.009077 0.030464 0.000000 -0.015623 0.000000
# 4 0.000000 0.000000 0.000000 0.051932 0.000000 -0.001246
# 5 -0.010808 0.009868 -0.015623 0.000000 0.051821 0.000000
# 6 0.000000 0.000000 0.000000 -0.001246 0.000000 0.071916
#
#
# Mechanical properties :
#
#
# Convention : Reuss Voigt Hill
#
# Bulk Modulus (GPa) = 20.15929 37.39021 28.77475
# Shear Modulus (GPa) = 17.77508 23.01860 20.39684
#
# Velocity S-wave (km/s) = 2.92271 3.32598 3.13085
# Velocity P-wave (km/s) = 4.59105 5.71999 5.18633
#
# Compressibility (1/GPa) = 0.04960491
#
# Stress axis : x y z
#
# Youngs Moduli (GPa) = 38.28094 78.37119 32.82552
#
# Poissons Ratio (x) = 0.74275 -0.28505
# Poissons Ratio (y) = 0.36280 0.29797
# Poissons Ratio (z) = -0.33243 0.71141
#
# Static dielectric constant tensor:
#      x y z
#    x 1.777590 0.000000 -0.013600 
#    y 0.000000 1.697070 0.000000 
#    z -0.013600 0.000000 1.798250 
# 
# From -- ./inp_files/170403.got.cif
#   From: 2010.05.17/outbox.cif.g08.bks.cpg/sg12_86_cif.got.tgz:170403.got - 2010.06.03 13:09:07.
