data_PCOD9210968
_publ_section_title
;
Structure prediction by ZEFSAII (Michael W. Deem and Ramdas Pophale) SiO2 
 PCOD9210968
Probable space group: C 2/M
;
_chemical_formula_sum "Si O2"
_cell_formula_units_Z 56
_cell_length_a 7.728828
_cell_length_b 23.001777
_cell_length_c 15.396112
_cell_angle_alpha 90.000000
_cell_angle_beta 111.495655
_cell_angle_gamma 90.000000
_cell_volume 2546.695183
_symmetry_space_group_name_H-M "C 2/M"
_symmetry_group_IT_number 12
_symmetry_cell_setting 'monoclinic'
loop_
_space_group_symop_operation_xyz
x,y,z
-x,y,-z
-x,-y,-z
x,-y,z
1/2+x,1/2+y,z
1/2-x,1/2+y,-z
1/2-x,1/2-y,-z
1/2+x,1/2-y,z
loop_
_atom_site_type_symbol
_atom_site_label
_atom_site_fract_x
_atom_site_fract_y
_atom_site_fract_z
Si Si1 0.565935 0.155683 0.100751
Si Si2 0.679427 0.684461 0.470866
Si Si3 0.786932 0.934527 0.262435
Si Si4 0.635248 0.065560 0.431361
Si Si5 0.359772 0.248695 0.160047
Si Si6 0.206512 0.815784 0.268728
Si Si7 0.279891 0.562752 0.698673
O O1 0.689550 0.114277 0.185016
O O2 0.398225 0.188169 0.119630
O O3 0.690055 0.212157 0.098978
O O4 0.500000 0.126323 0.000000
O O5 0.500000 0.678352 0.500000
O O6 0.750000 0.750000 0.500000
O O7 0.799494 0.627475 0.518634
O O8 0.671765 0.682195 0.364656
O O9 0.704532 0.930307 0.343916
O O10 0.013930 0.930305 0.305711
O O11 0.745763 0.000000 0.222524
O O12 0.590134 0.062901 0.607349
O O13 0.704959 0.000000 0.472063
O O14 0.355896 0.230269 0.261971
O O15 0.529930 0.292587 0.185396
O O16 0.248114 0.881064 0.248291
O O17 0.281587 0.500000 0.743381
#
# Coordination Sequence:
#
# PCOD9210968 Si02
#       7
#     8   8   8   8   8   8   8
#     4  11  22  40  67  99 129 163 212 272 331 397
#     4  12  28  41  63  97 136 172 225 283 330 373
#     4  10  21  41  69  97 130 173 218 267 331 399
#     4  10  24  45  67  93 131 180 229 274 325 391
#     4  10  23  39  65  90 129 174 212 256 332 402
#     4  11  22  40  61  89 123 172 217 263 319 384
#     4  10  21  39  65  90 119 168 218 262 319 385
#
# _framework density 21.989281999999999
#
# number of rings (size 3 to 8) (size 9 to 14) (size 15 to 20)
#    0.000    1.429    1.429    3.000    8.000    1.143 
#    0.000    1.429    0.000    0.000    0.000    6.000 
#    0.000    0.000    0.000    0.000    0.000    0.000 
#
# Total GULP energy -156021.353969 kJ/mol
# GULP energy per Si atom -5572.191213 kJ/mol
# Density = 2.193923 g / cm^3
# Si number density = 21.989282 Si / 1000 Ang^3
#
#
#
# Elastic Constant Matrix: (Units=GPa)
#
#
# Indices 1 2 3 4 5 6 
#
# 1 79.9993 42.9010 25.3092 0.0000 7.6115 0.0000
# 2 42.9010 157.2764 39.6360 0.0000 12.0075 0.0000
# 3 25.3092 39.6360 71.8994 0.0000 -2.4160 0.0000
# 4 0.0000 0.0000 0.0000 23.4769 0.0000 1.2962
# 5 7.6115 12.0075 -2.4160 0.0000 10.4702 0.0000
# 6 0.0000 0.0000 0.0000 1.2962 0.0000 35.7933
#
#
#
# Elastic Compliance Matrix: (Units=1/GPa)
#
#
# Indices 1 2 3 4 5 6 
#
# 1 0.016278 -0.002488 -0.004696 0.000000 -0.010063 0.000000
# 2 -0.002488 0.008834 -0.004307 0.000000 -0.009315 0.000000
# 3 -0.004696 -0.004307 0.018359 0.000000 0.012590 0.000000
# 4 0.000000 0.000000 0.000000 0.042680 0.000000 -0.001546
# 5 -0.010063 -0.009315 0.012590 0.000000 0.116414 0.000000
# 6 0.000000 0.000000 0.000000 -0.001546 0.000000 0.027994
#
#
# Mechanical properties :
#
#
# Convention : Reuss Voigt Hill
#
# Bulk Modulus (GPa) = 48.81102 58.31857 53.56480
# Shear Modulus (GPa) = 19.20343 27.37000 23.28672
#
# Velocity S-wave (km/s) = 2.95839 3.53185 3.25776
# Velocity P-wave (km/s) = 5.82368 6.57350 6.20992
#
# Compressibility (1/GPa) = 0.02048718
#
# Stress axis : x y z
#
# Youngs Moduli (GPa) = 61.43358 113.20461 54.47000
#
# Poissons Ratio (x) = 0.28169 0.25581
# Poissons Ratio (y) = 0.15286 0.23459
# Poissons Ratio (z) = 0.28851 0.48755
#
# Static dielectric constant tensor:
#      x y z
#    x 1.945650 0.000000 -0.037570 
#    y 0.000000 1.819040 0.000000 
#    z -0.037570 0.000000 1.847700 
# 
# From -- ./inp_files/198977.got.cif
#   From: 2010.05.17/outbox.cif.g08.bks.cpg/sg12_100_cif.got.tgz:198977.got - 2010.06.03 13:09:07.
