data_PCOD9210316
_publ_section_title
;
Structure prediction by ZEFSAII (Michael W. Deem and Ramdas Pophale) SiO2 
 PCOD9210316
Probable space group: C 2/M
;
_chemical_formula_sum "Si O2"
_cell_formula_units_Z 56
_cell_length_a 29.535276
_cell_length_b 8.822517
_cell_length_c 12.819269
_cell_angle_alpha 90.000000
_cell_angle_beta 58.190959
_cell_angle_gamma 90.000000
_cell_volume 2838.692799
_symmetry_space_group_name_H-M "C 2/M"
_symmetry_group_IT_number 12
_symmetry_cell_setting 'monoclinic'
loop_
_space_group_symop_operation_xyz
x,y,z
-x,y,-z
-x,-y,-z
x,-y,z
1/2+x,1/2+y,z
1/2-x,1/2+y,-z
1/2-x,1/2-y,-z
1/2+x,1/2-y,z
loop_
_atom_site_type_symbol
_atom_site_label
_atom_site_fract_x
_atom_site_fract_y
_atom_site_fract_z
Si Si1 0.633466 0.817774 0.517928
Si Si2 0.902771 0.180269 0.856071
Si Si3 0.937711 0.681345 0.595142
Si Si4 0.445957 0.819791 0.002616
Si Si5 0.287379 0.819174 0.043611
Si Si6 0.252755 0.681544 0.304200
Si Si7 0.635572 0.680245 0.735947
O O1 0.596592 0.774919 0.464805
O O2 0.694750 0.777930 0.417725
O O3 0.617858 0.740656 0.645166
O O4 0.630001 0.000000 0.534683
O O5 0.918473 0.234768 0.722037
O O6 0.898679 0.000000 0.865466
O O7 0.943929 0.239421 0.893247
O O8 0.846331 0.253598 0.955561
O O9 0.930515 0.500000 0.619330
O O10 0.000000 0.709980 0.500000
O O11 0.397679 0.759112 0.132075
O O12 0.440837 0.000000 0.994007
O O13 0.500000 0.788839 0.000000
O O14 0.265014 0.766632 0.182097
O O15 0.288475 0.000000 0.035118
O O16 0.250000 0.750000 0.000000
O O17 0.252824 0.500000 0.284087
O O18 0.301789 0.714281 0.322101
O O19 0.628299 0.500000 0.752120
#
# Coordination Sequence:
#
# PCOD9210316 Si02
#       7
#     8   8   8   8   8   8   8
#     4  10  22  40  63  90 126 171 217 262 313 379
#     4  12  25  43  67  97 132 167 212 268 325 384
#     4  10  23  43  66  92 125 171 221 267 316 378
#     4  11  25  44  68  95 126 169 218 264 320 390
#     4  12  24  39  64  94 129 172 214 264 320 382
#     4  10  21  39  61  91 128 167 211 262 319 383
#     4  11  23  39  63  95 131 166 209 264 321 381
#
# _framework density 19.727388999999999
#
# number of rings (size 3 to 8) (size 9 to 14) (size 15 to 20)
#    0.000    1.143    1.429    4.714    2.000    4.286 
#    0.000    0.000    0.000    0.000    0.000    0.000 
#    0.000    0.000    0.000    0.000    0.000    0.000 
#
# Total GULP energy -156669.500022 kJ/mol
# GULP energy per Si atom -5595.339286 kJ/mol
# Density = 1.968249 g / cm^3
# Si number density = 19.727389 Si / 1000 Ang^3
#
#
#
# Elastic Constant Matrix: (Units=GPa)
#
#
# Indices 1 2 3 4 5 6 
#
# 1 103.3293 38.5264 26.0421 0.0000 20.8261 0.0000
# 2 38.5264 50.3221 28.6850 0.0000 13.7333 0.0000
# 3 26.0421 28.6850 68.3048 0.0000 28.6167 0.0000
# 4 0.0000 0.0000 0.0000 38.0397 0.0000 3.9048
# 5 20.8261 13.7333 28.6167 0.0000 37.6280 0.0000
# 6 0.0000 0.0000 0.0000 3.9048 0.0000 18.6696
#
#
#
# Elastic Compliance Matrix: (Units=1/GPa)
#
#
# Indices 1 2 3 4 5 6 
#
# 1 0.014171 -0.009999 0.000812 0.000000 -0.004811 0.000000
# 2 -0.009999 0.033260 -0.010843 0.000000 0.001642 0.000000
# 3 0.000812 -0.010843 0.025558 0.000000 -0.015929 0.000000
# 4 0.000000 0.000000 0.000000 0.026865 0.000000 -0.005619
# 5 -0.004811 0.001642 -0.015929 0.000000 0.040754 0.000000
# 6 0.000000 0.000000 0.000000 -0.005619 0.000000 0.054738
#
#
# Mechanical properties :
#
#
# Convention : Reuss Voigt Hill
#
# Bulk Modulus (GPa) = 30.36875 45.38481 37.87678
# Shear Modulus (GPa) = 20.29356 27.44765 23.87060
#
# Velocity S-wave (km/s) = 3.21081 3.73412 3.48231
# Velocity P-wave (km/s) = 5.40124 6.45349 5.95067
#
# Compressibility (1/GPa) = 0.03292859
#
# Stress axis : x y z
#
# Youngs Moduli (GPa) = 70.56631 30.06592 39.12681
#
# Poissons Ratio (x) = 0.30063 -0.03177
# Poissons Ratio (y) = 0.70560 0.42426
# Poissons Ratio (z) = -0.05730 0.32601
#
# Static dielectric constant tensor:
#      x y z
#    x 1.701780 0.000000 0.000710 
#    y 0.000000 1.659090 0.000000 
#    z 0.000710 0.000000 1.652190 
# 
# From -- ./inp_files/181028.got.cif
#   From: 2010.05.17/outbox.cif.g08.bks.cpg/sg12_91_cif.got.tgz:181028.got - 2010.06.03 13:09:07.
