data_PCOD9210313
_publ_section_title
;
Structure prediction by ZEFSAII (Michael W. Deem and Ramdas Pophale) SiO2 
 PCOD9210313
Probable space group: C 2/M
;
_chemical_formula_sum "Si O2"
_cell_formula_units_Z 56
_cell_length_a 23.803353
_cell_length_b 13.221919
_cell_length_c 15.703406
_cell_angle_alpha 90.000000
_cell_angle_beta 28.002293
_cell_angle_gamma 90.000000
_cell_volume 2320.429971
_symmetry_space_group_name_H-M "C 2/M"
_symmetry_group_IT_number 12
_symmetry_cell_setting 'monoclinic'
loop_
_space_group_symop_operation_xyz
x,y,z
-x,y,-z
-x,-y,-z
x,-y,z
1/2+x,1/2+y,z
1/2-x,1/2+y,-z
1/2-x,1/2-y,-z
1/2+x,1/2-y,z
loop_
_atom_site_type_symbol
_atom_site_label
_atom_site_fract_x
_atom_site_fract_y
_atom_site_fract_z
Si Si1 0.960825 0.889494 0.914700
Si Si2 0.298612 0.303798 0.849499
Si Si3 0.730799 0.882866 0.763262
Si Si4 0.589133 0.110648 0.569256
Si Si5 0.683740 0.277207 0.678378
Si Si6 0.486495 0.339647 0.344528
Si Si7 0.677688 0.892328 0.266486
O O1 0.049186 0.811883 0.841220
O O2 0.005646 0.890234 0.757492
O O3 0.977846 0.000000 0.930315
O O4 0.818144 0.872203 0.101161
O O5 0.219907 0.350106 0.877969
O O6 0.400193 0.373677 0.752000
O O7 0.364398 0.207952 0.721003
O O8 0.250000 0.250000 0.000000
O O9 0.679860 0.809125 0.756972
O O10 0.870826 0.869219 0.552900
O O11 0.694475 0.000000 0.802035
O O12 0.726772 0.133479 0.411797
O O13 0.521310 0.218361 0.670647
O O14 0.600717 0.099016 0.453296
O O15 0.548564 0.000000 0.658587
O O16 0.750000 0.250000 0.500000
O O17 0.674408 0.000000 0.223408
#
# Coordination Sequence:
#
# PCOD9210313 Si02
#       7
#     8   8   8   8   8   8   8
#     4  11  22  39  66 100 130 166 221 273 325 385
#     4  12  24  43  66  93 134 174 215 271 324 391
#     4  11  25  44  68 100 132 170 222 274 332 393
#     4  10  21  39  61  91 126 167 215 261 323 388
#     4  11  21  39  65  95 131 170 210 273 329 386
#     4  11  22  38  67  98 131 173 213 272 328 385
#     4  10  22  41  63  91 127 168 214 269 323 379
#
# _framework density 24.133458000000001
#
# number of rings (size 3 to 8) (size 9 to 14) (size 15 to 20)
#    0.000    1.143    7.143    1.286    0.000    4.000 
#    0.000    3.571    0.000    1.714    0.000    0.000 
#    0.000    0.000    0.000    0.000    0.000    0.000 
#
# Total GULP energy -156145.528664 kJ/mol
# GULP energy per Si atom -5576.626024 kJ/mol
# Density = 2.407853 g / cm^3
# Si number density = 24.133458 Si / 1000 Ang^3
#
#
#
# Elastic Constant Matrix: (Units=GPa)
#
#
# Indices 1 2 3 4 5 6 
#
# 1 125.1122 42.8207 21.5438 0.0000 13.7252 0.0000
# 2 42.8207 141.7540 7.6543 0.0000 7.9557 0.0000
# 3 21.5438 7.6543 69.8091 0.0000 8.3326 0.0000
# 4 0.0000 0.0000 0.0000 6.5932 0.0000 33.2921
# 5 13.7252 7.9557 8.3326 0.0000 42.1883 0.0000
# 6 0.0000 0.0000 0.0000 33.2921 0.0000 -72.8168
#
#
#
# Elastic Compliance Matrix: (Units=1/GPa)
#
#
# Indices 1 2 3 4 5 6 
#
# 1 0.009541 -0.002633 -0.002401 0.000000 -0.002133 0.000000
# 2 -0.002633 0.007884 0.000024 0.000000 -0.000635 0.000000
# 3 -0.002401 0.000024 0.015332 0.000000 -0.002252 0.000000
# 4 0.000000 0.000000 0.000000 0.045841 0.000000 0.020959
# 5 -0.002133 -0.000635 -0.002252 0.000000 0.024962 0.000000
# 6 0.000000 0.000000 0.000000 0.020959 0.000000 -0.004151
#
#
# Mechanical properties :
#
#
# Convention : Reuss Voigt Hill
#
# Bulk Modulus (GPa) = 43.98115 53.41255 48.69685
# Shear Modulus (GPa) = 42.73166 12.83671 27.78419
#
# Velocity S-wave (km/s) = 4.21246 2.30881 3.39672
# Velocity P-wave (km/s) = 6.47483 5.41181 5.96704
#
# Compressibility (1/GPa) = 0.02273701
#
# Stress axis : x y z
#
# Youngs Moduli (GPa) = 104.80562 126.83677 65.22318
#
# Poissons Ratio (x) = 0.33394 0.15662
# Poissons Ratio (y) = 0.27594 -0.00156
# Poissons Ratio (z) = 0.25167 -0.00303
#
# Static dielectric constant tensor:
#      x y z
#    x 1.935990 0.000000 0.012970 
#    y 0.000000 1.840630 0.000000 
#    z 0.012970 0.000000 1.928300 
# 
# From -- ./inp_files/240866.got.cif
#   From: 2010.05.17/outbox.cif.g08.bks.cpg/sg12_121_cif.got.tgz:240866.got - 2010.06.03 13:09:07.
