data_PCOD9210554
_publ_section_title
;
Structure prediction by ZEFSAII (Michael W. Deem and Ramdas Pophale) SiO2 
 PCOD9210554
Probable space group: C 2/M
;
_chemical_formula_sum "Si O2"
_cell_formula_units_Z 64
_cell_length_a 9.041540
_cell_length_b 13.736596
_cell_length_c 29.324406
_cell_angle_alpha 90.000000
_cell_angle_beta 54.451594
_cell_angle_gamma 90.000000
_cell_volume 2963.294680
_symmetry_space_group_name_H-M "C 2/M"
_symmetry_group_IT_number 12
_symmetry_cell_setting 'monoclinic'
loop_
_space_group_symop_operation_xyz
x,y,z
-x,y,-z
-x,-y,-z
x,-y,z
1/2+x,1/2+y,z
1/2-x,1/2+y,-z
1/2-x,1/2-y,-z
1/2+x,1/2-y,z
loop_
_atom_site_type_symbol
_atom_site_label
_atom_site_fract_x
_atom_site_fract_y
_atom_site_fract_z
Si Si1 0.975013 0.384210 0.078638
Si Si2 0.413241 0.883625 0.371259
Si Si3 0.707882 0.616186 0.041296
Si Si4 0.618841 0.705388 0.853458
Si Si5 0.630822 0.881176 0.517127
Si Si6 0.016902 0.244753 0.776031
Si Si7 0.412637 0.296959 0.698485
Si Si8 0.489068 0.383301 0.589771
O O1 0.971199 0.500000 0.086777
O O2 0.833424 0.360888 0.063001
O O3 0.918509 0.320220 0.131515
O O4 0.174862 0.354835 0.024006
O O5 0.438065 0.858136 0.420034
O O6 0.547254 0.817445 0.317946
O O7 0.207175 0.854272 0.394613
O O8 0.433993 0.000000 0.361334
O O9 0.697898 0.500000 0.041082
O O10 0.507138 0.655670 0.086214
O O11 0.550796 0.681182 0.815089
O O12 0.833903 0.693674 0.816962
O O13 0.500000 0.847888 0.500000
O O14 0.837462 0.849130 0.470215
O O15 0.633450 0.000000 0.515261
O O16 0.196388 0.309357 0.736997
O O17 0.987832 0.183233 0.735182
O O18 0.501959 0.351789 0.640132
O O19 0.490948 0.500000 0.587424
#
# Coordination Sequence:
#
# PCOD9210554 Si02
#       8
#     8   8   8   8   8   8   8   8
#     4   9  18  34  59  91 121 150 188 232 285 351
#     4  10  21  39  63  86 115 152 188 233 296 352
#     4   9  18  34  59  91 121 150 188 232 285 351
#     4  11  19  40  59  83 114 161 189 236 290 338
#     4   9  19  34  57  92 122 144 184 236 285 355
#     4  10  24  38  59  81 116 150 202 246 282 326
#     4  11  22  43  57  83 115 152 191 254 286 334
#     4  10  21  39  63  86 115 152 188 233 296 352
#
# _framework density 21.597584000000001
#
# number of rings (size 3 to 8) (size 9 to 14) (size 15 to 20)
#    0.000    2.125    2.500    1.500    1.750    2.000 
#    0.000    8.125    0.000    1.500    0.000    0.000 
#    0.000    0.000    0.000    0.000    0.000    0.000 
#
# Total GULP energy -178709.129751 kJ/mol
# GULP energy per Si atom -5584.660305 kJ/mol
# Density = 2.154843 g / cm^3
# Si number density = 21.597584 Si / 1000 Ang^3
#
#
#
# Elastic Constant Matrix: (Units=GPa)
#
#
# Indices 1 2 3 4 5 6 
#
# 1 85.5711 12.7796 26.6412 0.0000 -0.9977 0.0000
# 2 12.7796 37.2406 19.9684 0.0000 -4.4737 0.0000
# 3 26.6412 19.9684 101.6978 0.0000 -11.2041 0.0000
# 4 0.0000 0.0000 0.0000 16.5907 0.0000 1.7923
# 5 -0.9977 -4.4737 -11.2041 0.0000 37.8336 0.0000
# 6 0.0000 0.0000 0.0000 1.7923 0.0000 13.1570
#
#
#
# Elastic Compliance Matrix: (Units=1/GPa)
#
#
# Indices 1 2 3 4 5 6 
#
# 1 0.013035 -0.003013 -0.002920 0.000000 -0.000877 0.000000
# 2 -0.003013 0.030836 -0.005037 0.000000 0.002075 0.000000
# 3 -0.002920 -0.005037 0.011901 0.000000 0.002852 0.000000
# 4 0.000000 0.000000 0.000000 0.061175 0.000000 -0.008334
# 5 -0.000877 0.002075 0.002852 0.000000 0.027498 0.000000
# 6 0.000000 0.000000 0.000000 -0.008334 0.000000 0.077141
#
#
# Mechanical properties :
#
#
# Convention : Reuss Voigt Hill
#
# Bulk Modulus (GPa) = 29.55655 38.14309 33.84982
# Shear Modulus (GPa) = 19.62297 24.52426 22.07361
#
# Velocity S-wave (km/s) = 3.01752 3.37339 3.20041
# Velocity P-wave (km/s) = 5.08482 5.73342 5.41884
#
# Compressibility (1/GPa) = 0.03383345
#
# Stress axis : x y z
#
# Youngs Moduli (GPa) = 76.71686 32.42916 84.02587
#
# Poissons Ratio (x) = 0.09771 0.24533
# Poissons Ratio (y) = 0.23114 0.42323
# Poissons Ratio (z) = 0.22399 0.16334
#
# Static dielectric constant tensor:
#      x y z
#    x 1.797760 0.000000 -0.006900 
#    y 0.000000 1.783430 0.000000 
#    z -0.006900 0.000000 1.775720 
# 
# From -- ./inp_files/372559.got.cif
#   From: 2010.05.17/outbox.cif.g08.bks.cpg/sg12_187_cif.got.tgz:372559.got - 2010.06.03 13:09:07.
