data_PCOD9210134
_publ_section_title
;
Structure prediction by ZEFSAII (Michael W. Deem and Ramdas Pophale) SiO2 
 PCOD9210134
Probable space group: C 2/M
;
_chemical_formula_sum "Si O2"
_cell_formula_units_Z 40
_cell_length_a 16.586370
_cell_length_b 17.415641
_cell_length_c 15.577187
_cell_angle_alpha 90.000000
_cell_angle_beta 27.375331
_cell_angle_gamma 90.000000
_cell_volume 2069.023062
_symmetry_space_group_name_H-M "C 2/M"
_symmetry_group_IT_number 12
_symmetry_cell_setting 'monoclinic'
loop_
_space_group_symop_operation_xyz
x,y,z
-x,y,-z
-x,-y,-z
x,-y,z
1/2+x,1/2+y,z
1/2-x,1/2+y,-z
1/2-x,1/2-y,-z
1/2+x,1/2-y,z
loop_
_atom_site_type_symbol
_atom_site_label
_atom_site_fract_x
_atom_site_fract_y
_atom_site_fract_z
Si Si1 0.583185 0.741671 0.014373
Si Si2 0.989974 0.760003 0.604278
Si Si3 0.538613 0.845917 0.714475
Si Si4 0.887995 0.915001 0.447961
Si Si5 0.156464 0.912915 0.035451
O O1 0.490266 0.789754 0.177126
O O2 0.500000 0.753897 0.000000
O O3 0.786015 0.767249 0.821238
O O4 0.586030 0.652151 0.037849
O O5 0.000000 0.725335 0.500000
O O6 0.074695 0.706596 0.596931
O O7 0.078497 0.843390 0.521603
O O8 0.699808 0.901120 0.582194
O O9 0.356045 0.889961 0.870094
O O10 0.895617 0.000000 0.479745
O O11 0.036195 0.909554 0.234140
O O12 0.150004 0.000000 0.008346
#
# Coordination Sequence:
#
# PCOD9210134 Si02
#       5
#     8   8   8   8   8
#     4  11  22  38  62  88 115 156 196 236 290 339
#     4  11  22  38  62  88 117 151 197 242 283 342
#     4  11  21  41  62  86 116 155 192 242 284 345
#     4  11  22  37  62  87 116 156 190 237 297 340
#     4  10  21  39  60  86 120 153 190 238 289 344
#
# _framework density 19.332795999999998
#
# number of rings (size 3 to 8) (size 9 to 14) (size 15 to 20)
#    0.000    1.200    4.000    3.600    2.800    0.800 
#    0.000    0.000    0.000    6.000    0.000    0.000 
#    0.000    0.000    0.000    0.000    0.000    0.000 
#
# Total GULP energy -111761.833175 kJ/mol
# GULP energy per Si atom -5588.091659 kJ/mol
# Density = 1.928879 g / cm^3
# Si number density = 19.332796 Si / 1000 Ang^3
#
#
#
# Elastic Constant Matrix: (Units=GPa)
#
#
# Indices 1 2 3 4 5 6 
#
# 1 62.4044 12.8450 -2.1238 -0.0002 17.3298 0.0011
# 2 12.8450 91.5648 12.7417 -0.0054 5.3767 0.0003
# 3 -2.1238 12.7417 60.0022 0.0063 -1.6009 -0.0039
# 4 -0.0002 -0.0054 0.0063 -18.6987 0.0016 -5.5341
# 5 17.3298 5.3767 -1.6009 0.0016 30.9416 0.0003
# 6 0.0011 0.0003 -0.0039 -5.5341 0.0003 5.5395
#
#
#
# Elastic Compliance Matrix: (Units=1/GPa)
#
#
# Indices 1 2 3 4 5 6 
#
# 1 0.019413 -0.002233 0.000883 0.000000 -0.010439 -0.000002
# 2 -0.002233 0.011646 -0.002576 -0.000003 -0.000906 -0.000005
# 3 0.000883 -0.002576 0.017267 0.000002 0.000847 0.000015
# 4 0.000000 -0.000003 0.000002 -0.041275 0.000003 -0.041235
# 5 -0.010439 -0.000906 0.000847 0.000003 0.038367 0.000003
# 6 -0.000002 -0.000005 0.000015 -0.041235 0.000003 0.139327
#
#
# Mechanical properties :
#
#
# Convention : Reuss Voigt Hill
#
# Bulk Modulus (GPa) = 24.70781 28.98858 26.84820
# Shear Modulus (GPa) = 24.26133 16.25705 20.25919
#
# Velocity S-wave (km/s) = 3.54634 2.90298 3.24067
# Velocity P-wave (km/s) = 5.43845 5.12479 5.28395
#
# Compressibility (1/GPa) = 0.04047302
#
# Stress axis : x y z
#
# Youngs Moduli (GPa) = 51.51125 85.86464 57.91401
#
# Poissons Ratio (x) = 0.19175 -0.05113
# Poissons Ratio (y) = 0.11503 0.14921
# Poissons Ratio (z) = -0.04548 0.22122
#
# Static dielectric constant tensor:
#      x y z
#    x 1.670230 0.000000 -0.006790 
#    y 0.000000 1.667580 0.000000 
#    z -0.006790 0.000000 1.682470 
# 
# From -- ./inp_files/60872.got.cif
#   From: 2010.05.17/outbox.cif.g08.bks.cpg/sg12_31_cif.got.tgz:60872.got - 2010.06.03 13:09:07.
