data_PCOD9210556
_publ_section_title
;
Structure prediction by ZEFSAII (Michael W. Deem and Ramdas Pophale) SiO2 
 PCOD9210556
Probable space group: C 2/M
;
_chemical_formula_sum "Si O2"
_cell_formula_units_Z 34
_cell_length_a 19.014430
_cell_length_b 9.668176
_cell_length_c 8.430857
_cell_angle_alpha 90.000000
_cell_angle_beta 90.826311
_cell_angle_gamma 90.000000
_cell_volume 1549.724203
_symmetry_space_group_name_H-M "C 2/M"
_symmetry_group_IT_number 12
_symmetry_cell_setting 'monoclinic'
loop_
_space_group_symop_operation_xyz
x,y,z
-x,y,-z
-x,-y,-z
x,-y,z
1/2+x,1/2+y,z
1/2-x,1/2+y,-z
1/2-x,1/2-y,-z
1/2+x,1/2-y,z
loop_
_atom_site_type_symbol
_atom_site_label
_atom_site_fract_x
_atom_site_fract_y
_atom_site_fract_z
Si Si1 0.331956 0.158459 0.346242
Si Si2 0.728107 0.836046 0.153589
Si Si3 0.087651 0.662521 0.329871
Si Si4 0.000000 0.000000 0.000000
Si Si5 0.958757 0.726377 0.140044
O O1 0.272342 0.267046 0.297909
O O2 0.374585 0.199874 0.504987
O O3 0.389082 0.160873 0.206357
O O4 0.305958 0.000000 0.365346
O O5 0.646222 0.819233 0.195680
O O6 0.741813 0.000000 0.137972
O O7 0.750000 0.750000 0.000000
O O8 0.069325 0.500000 0.341347
O O9 0.016704 0.739922 0.281742
O O10 0.051932 0.877644 0.932820
O O11 0.000000 0.648853 0.000000
#
# Coordination Sequence:
#
# PCOD9210556 Si02
#       5
#     8   8   8   2   8
#     4  11  23  40  63  92 123 157 202 254 304 359
#     4  11  24  41  64  88 123 163 204 249 301 361
#     4  10  22  41  61  89 120 159 204 250 302 359
#     4   8  24  40  56  92 132 152 204 246 308 356
#     4  10  21  39  63  86 122 159 200 249 298 356
#
# _framework density 21.939387
#
# number of rings (size 3 to 8) (size 9 to 14) (size 15 to 20)
#    0.706    0.941    0.000    4.235    1.647    5.647 
#    4.235    1.176    0.000    0.000    0.000    0.000 
#    0.000    0.000    0.000    0.000    0.000    0.000 
#
# Total GULP energy -94706.751635 kJ/mol
# GULP energy per Si atom -5570.985390 kJ/mol
# Density = 2.188945 g / cm^3
# Si number density = 21.939387 Si / 1000 Ang^3
#
#
#
# Elastic Constant Matrix: (Units=GPa)
#
#
# Indices 1 2 3 4 5 6 
#
# 1 71.3997 21.2708 -4.0540 0.0000 1.4572 0.0000
# 2 21.2708 114.6884 8.8167 0.0000 10.3007 0.0000
# 3 -4.0540 8.8167 63.0804 0.0000 2.5254 0.0000
# 4 0.0000 0.0000 0.0000 16.6868 0.0000 -9.2900
# 5 1.4572 10.3007 2.5254 0.0000 37.6960 0.0000
# 6 0.0000 0.0000 0.0000 -9.2900 0.0000 2.2456
#
#
#
# Elastic Compliance Matrix: (Units=1/GPa)
#
#
# Indices 1 2 3 4 5 6 
#
# 1 0.014940 -0.002886 0.001359 0.000000 0.000120 0.000000
# 2 -0.002886 0.009581 -0.001428 0.000000 -0.002411 0.000000
# 3 0.001359 -0.001428 0.016170 0.000000 -0.000746 0.000000
# 4 0.000000 0.000000 0.000000 -0.045986 0.000000 -0.190243
# 5 0.000120 -0.002411 -0.000746 0.000000 0.027232 0.000000
# 6 0.000000 0.000000 0.000000 -0.190243 0.000000 -0.341716
#
#
# Mechanical properties :
#
#
# Convention : Reuss Voigt Hill
#
# Bulk Modulus (GPa) = 28.75242 33.47060 31.11151
# Shear Modulus (GPa) = -16.54121 26.20135 4.83007
#
# Velocity S-wave (km/s) = -2.74879 3.45956 1.48537
# Velocity P-wave (km/s) = 1.74910 5.58991 4.14165
#
# Compressibility (1/GPa) = 0.03477968
#
# Stress axis : x y z
#
# Youngs Moduli (GPa) = 66.93369 104.37477 61.84463
#
# Poissons Ratio (x) = 0.30124 -0.08403
# Poissons Ratio (y) = 0.19318 0.08832
# Poissons Ratio (z) = -0.09095 0.14905
#
# Static dielectric constant tensor:
#      x y z
#    x 1.826880 0.000000 0.010650 
#    y 0.000000 1.676130 0.000000 
#    z 0.010650 0.000000 1.918830 
# 
# From -- ./inp_files/82051.got.cif
#   From: 2010.05.17/outbox.cif.g08.bks.cpg/sg12_42_cif.got.tgz:82051.got - 2010.06.03 13:09:07.
