data_PCOD9210884
_publ_section_title
;
Structure prediction by ZEFSAII (Michael W. Deem and Ramdas Pophale) SiO2 
 PCOD9210884
Probable space group: C 2/M
;
_chemical_formula_sum "Si O2"
_cell_formula_units_Z 48
_cell_length_a 9.824462
_cell_length_b 26.340298
_cell_length_c 17.134474
_cell_angle_alpha 90.000000
_cell_angle_beta 35.738274
_cell_angle_gamma 90.000000
_cell_volume 2589.853629
_symmetry_space_group_name_H-M "C 2/M"
_symmetry_group_IT_number 12
_symmetry_cell_setting 'monoclinic'
loop_
_space_group_symop_operation_xyz
x,y,z
-x,y,-z
-x,-y,-z
x,-y,z
1/2+x,1/2+y,z
1/2-x,1/2+y,-z
1/2-x,1/2-y,-z
1/2+x,1/2-y,z
loop_
_atom_site_type_symbol
_atom_site_label
_atom_site_fract_x
_atom_site_fract_y
_atom_site_fract_z
Si Si1 0.260451 0.058437 0.411194
Si Si2 0.419344 0.694277 0.783031
Si Si3 0.115187 0.559616 0.101864
Si Si4 0.000000 0.616902 0.000000
Si Si5 0.753175 0.706704 0.772746
Si Si6 0.500000 0.626643 0.000000
Si Si7 0.849605 0.645631 0.494416
O O1 0.438260 0.065423 0.256694
O O2 0.310002 0.098719 0.455450
O O3 0.000000 0.065491 0.500000
O O4 0.282242 0.000000 0.428588
O O5 0.226643 0.652739 0.894396
O O6 0.562309 0.711895 0.792969
O O7 0.295680 0.741629 0.799250
O O8 0.608859 0.669313 0.636868
O O9 0.165417 0.500000 0.068714
O O10 0.345047 0.591073 0.016896
O O11 0.005850 0.582643 0.074521
O O12 0.993909 0.687755 0.622106
O O13 0.663472 0.663029 0.872548
O O14 0.000000 0.629689 0.500000
#
# Coordination Sequence:
#
# PCOD9210884 Si02
#       7
#     8   8   8   4   8   4   8
#     4  10  21  39  64  93 123 164 211 255 311 371
#     4  11  25  40  63  92 125 167 209 257 313 371
#     4  11  24  42  66  94 127 167 208 259 314 372
#     4  12  24  42  62  96 128 164 206 260 312 374
#     4  11  24  41  63  91 125 163 213 258 312 372
#     4  12  22  42  66  92 126 164 210 262 308 376
#     4  10  22  42  62  90 126 163 207 260 312 366
#
# _framework density 18.533866
#
# number of rings (size 3 to 8) (size 9 to 14) (size 15 to 20)
#    0.000    1.167    3.333    2.500    2.333    3.000 
#    0.000    0.833    0.000    0.000    0.000    0.000 
#    0.000    0.000    0.000    0.000    0.000    0.000 
#
# Total GULP energy -134188.476597 kJ/mol
# GULP energy per Si atom -5591.186525 kJ/mol
# Density = 1.849168 g / cm^3
# Si number density = 18.533866 Si / 1000 Ang^3
#
#
#
# Elastic Constant Matrix: (Units=GPa)
#
#
# Indices 1 2 3 4 5 6 
#
# 1 89.7496 79.1443 19.1024 -0.0001 8.8502 -0.0001
# 2 79.1443 139.5655 50.9552 0.0000 16.3257 0.0000
# 3 19.1024 50.9552 74.5222 -0.0003 -13.1379 -0.0002
# 4 -0.0001 0.0000 -0.0003 12.3233 0.0002 -7.7775
# 5 8.8502 16.3257 -13.1379 0.0002 24.1207 0.0002
# 6 -0.0001 0.0000 -0.0002 -7.7775 0.0002 21.9934
#
#
#
# Elastic Compliance Matrix: (Units=1/GPa)
#
#
# Indices 1 2 3 4 5 6 
#
# 1 0.023665 -0.016301 0.006078 0.000000 0.005660 0.000000
# 2 -0.016301 0.024500 -0.015977 0.000000 -0.019304 0.000000
# 3 0.006078 -0.015977 0.026880 0.000000 0.023224 0.000000
# 4 0.000000 0.000000 0.000000 0.104460 -0.000001 0.036940
# 5 0.005660 -0.019304 0.023224 -0.000001 0.065096 -0.000001
# 6 0.000000 0.000000 0.000000 0.036940 -0.000001 0.058531
#
#
# Mechanical properties :
#
#
# Convention : Reuss Voigt Hill
#
# Bulk Modulus (GPa) = 44.16069 66.91568 55.53818
# Shear Modulus (GPa) = 13.77101 21.99651 17.88376
#
# Velocity S-wave (km/s) = 2.72879 3.44877 3.10969
# Velocity P-wave (km/s) = 5.81439 7.21399 6.55167
#
# Compressibility (1/GPa) = 0.02264457
#
# Stress axis : x y z
#
# Youngs Moduli (GPa) = 42.25608 40.81581 37.20289
#
# Poissons Ratio (x) = 0.66534 -0.22611
# Poissons Ratio (y) = 0.68882 0.59439
# Poissons Ratio (z) = -0.25682 0.65211
#
# Static dielectric constant tensor:
#      x y z
#    x 1.611380 0.000000 -0.003600 
#    y 0.000000 1.599000 0.000000 
#    z -0.003600 0.000000 1.631310 
# 
# From -- ./inp_files/200163.got.cif
#   From: 2010.05.17/outbox.cif.g08.bks.cpg/sg12_101_cif.got.tgz:200163.got - 2010.06.03 13:09:07.
