data_PCOD9210570
_publ_section_title
;
Structure prediction by ZEFSAII (Michael W. Deem and Ramdas Pophale) SiO2 
 PCOD9210570
Probable space group: C 2/M
;
_chemical_formula_sum "Si O2"
_cell_formula_units_Z 56
_cell_length_a 31.302868
_cell_length_b 16.803788
_cell_length_c 9.625339
_cell_angle_alpha 90.000000
_cell_angle_beta 146.210956
_cell_angle_gamma 90.000000
_cell_volume 2815.716449
_symmetry_space_group_name_H-M "C 2/M"
_symmetry_group_IT_number 12
_symmetry_cell_setting 'monoclinic'
loop_
_space_group_symop_operation_xyz
x,y,z
-x,y,-z
-x,-y,-z
x,-y,z
1/2+x,1/2+y,z
1/2-x,1/2+y,-z
1/2-x,1/2-y,-z
1/2+x,1/2-y,z
loop_
_atom_site_type_symbol
_atom_site_label
_atom_site_fract_x
_atom_site_fract_y
_atom_site_fract_z
Si Si1 0.089965 0.089831 0.277911
Si Si2 0.614830 0.261521 0.538548
Si Si3 0.513832 0.000000 0.702226
Si Si4 0.589119 0.694498 0.771833
Si Si5 0.449162 0.823257 0.110143
Si Si6 0.820591 0.094509 0.766824
Si Si7 0.582277 0.000000 0.304120
Si Si8 0.335656 0.839355 0.562358
O O1 0.102549 0.155083 0.428519
O O2 0.136443 0.108322 0.262672
O O3 0.111079 0.000000 0.379318
O O4 0.000000 0.090339 0.000000
O O5 0.630270 0.281800 0.740011
O O6 0.536236 0.208286 0.324772
O O7 0.673636 0.213826 0.599941
O O8 0.500000 0.000000 0.500000
O O9 0.552949 0.917072 0.856852
O O10 0.435988 0.000000 0.581975
O O11 0.500000 0.673366 0.500000
O O12 0.585213 0.772609 0.857336
O O13 0.628028 0.625636 0.966687
O O14 0.400197 0.805318 0.840495
O O15 0.742074 0.143773 0.565555
O O16 0.806140 0.000000 0.739342
O O17 0.629498 0.923166 0.390820
O O18 0.500000 0.000000 0.000000
#
# Coordination Sequence:
#
# PCOD9210570 Si02
#       8
#     8   8   4   8   8   8   4   8
#     4  10  21  39  63  88 114 155 212 267 310 364
#     4  11  21  37  64  93 126 164 214 253 303 379
#     4  12  22  36  64  98 132 166 212 256 304 358
#     4  10  23  41  61  91 124 162 212 261 313 377
#     4  11  22  38  63  96 127 168 213 254 304 370
#     4  11  25  43  64  92 124 162 209 264 325 372
#     4  12  20  38  64  98 124 176 212 247 300 365
#     4  12  22  38  64  93 131 162 208 261 307 373
#
# _framework density 19.888366000000001
#
# number of rings (size 3 to 8) (size 9 to 14) (size 15 to 20)
#    0.000    1.000    3.571    5.143    0.000    3.714 
#    0.000    0.000    0.000    0.000    0.000    0.000 
#    0.000    0.000    0.000    0.000    0.000    0.000 
#
# Total GULP energy -156477.468851 kJ/mol
# GULP energy per Si atom -5588.481030 kJ/mol
# Density = 1.984310 g / cm^3
# Si number density = 19.888366 Si / 1000 Ang^3
#
#
#
# Elastic Constant Matrix: (Units=GPa)
#
#
# Indices 1 2 3 4 5 6 
#
# 1 137.9551 37.9532 14.8941 0.0000 -13.9609 0.0000
# 2 37.9532 98.1267 -1.1880 0.0000 -8.5414 0.0000
# 3 14.8941 -1.1880 21.9196 0.0000 -9.7850 0.0000
# 4 0.0000 0.0000 0.0000 15.5310 0.0000 -18.9728
# 5 -13.9609 -8.5414 -9.7850 0.0000 29.4436 0.0000
# 6 0.0000 0.0000 0.0000 -18.9728 0.0000 265.4004
#
#
#
# Elastic Compliance Matrix: (Units=1/GPa)
#
#
# Indices 1 2 3 4 5 6 
#
# 1 0.008933 -0.003404 -0.005641 0.000000 0.001374 0.000000
# 2 -0.003404 0.011848 0.004425 0.000000 0.003294 0.000000
# 3 -0.005641 0.004425 0.057622 0.000000 0.017758 0.000000
# 4 0.000000 0.000000 0.000000 0.070548 0.000000 0.005043
# 5 0.001374 0.003294 0.017758 0.000000 0.041472 0.000000
# 6 0.000000 0.000000 0.000000 0.005043 0.000000 0.004128
#
#
# Mechanical properties :
#
#
# Convention : Reuss Voigt Hill
#
# Bulk Modulus (GPa) = 14.45864 40.14665 27.30265
# Shear Modulus (GPa) = 22.04144 75.83114 48.93629
#
# Velocity S-wave (km/s) = 3.33266 6.18152 4.96577
# Velocity P-wave (km/s) = 4.70048 8.43671 6.82908
#
# Compressibility (1/GPa) = 0.06916279
#
# Stress axis : x y z
#
# Youngs Moduli (GPa) = 111.94130 84.40433 17.35456
#
# Poissons Ratio (x) = 0.28731 0.09790
# Poissons Ratio (y) = 0.38104 -0.07680
# Poissons Ratio (z) = 0.63150 -0.37352
#
# Static dielectric constant tensor:
#      x y z
#    x 1.704100 0.000000 0.012240 
#    y 0.000000 1.712320 0.000000 
#    z 0.012240 0.000000 1.701770 
# 
# From -- ./inp_files/106070.got.cif
#   From: 2010.05.17/outbox.cif.g08.bks.cpg/sg12_54_cif.got.tgz:106070.got - 2010.06.03 13:09:07.
