data_PCOD9210278
_publ_section_title
;
Structure prediction by ZEFSAII (Michael W. Deem and Ramdas Pophale) SiO2 
 PCOD9210278
Probable space group: C 2/M
;
_chemical_formula_sum "Si O2"
_cell_formula_units_Z 64
_cell_length_a 31.323860
_cell_length_b 13.807396
_cell_length_c 22.543666
_cell_angle_alpha 90.000000
_cell_angle_beta 159.647503
_cell_angle_gamma 90.000000
_cell_volume 3391.054219
_symmetry_space_group_name_H-M "C 2/M"
_symmetry_group_IT_number 12
_symmetry_cell_setting 'monoclinic'
loop_
_space_group_symop_operation_xyz
x,y,z
-x,y,-z
-x,-y,-z
x,-y,z
1/2+x,1/2+y,z
1/2-x,1/2+y,-z
1/2-x,1/2-y,-z
1/2+x,1/2-y,z
loop_
_atom_site_type_symbol
_atom_site_label
_atom_site_fract_x
_atom_site_fract_y
_atom_site_fract_z
Si Si1 0.158845 0.386585 0.379279
Si Si2 0.048888 0.761449 0.928931
Si Si3 0.650249 0.110189 0.863024
Si Si4 0.156369 0.885224 0.490319
Si Si5 0.732621 0.254353 0.268436
Si Si6 0.347290 0.614116 0.728830
Si Si7 0.612352 0.697829 0.886481
Si Si8 0.944713 0.612074 0.492912
O O1 0.125193 0.500000 0.334116
O O2 0.256147 0.369078 0.452861
O O3 0.228831 0.367870 0.532272
O O4 0.043968 0.318146 0.218282
O O5 0.128245 0.801096 0.977819
O O6 0.964291 0.845627 0.846097
O O7 0.133695 0.720845 0.091468
O O8 0.622324 0.192943 0.874542
O O9 0.551252 0.119115 0.681193
O O10 0.645157 0.000000 0.879155
O O11 0.783495 0.134728 0.009664
O O12 0.212500 0.831000 0.620041
O O13 0.022154 0.843340 0.302299
O O14 0.149050 0.000000 0.490206
O O15 0.669440 0.327633 0.232625
O O16 0.838806 0.314092 0.373488
O O17 0.356854 0.500000 0.751329
O O18 0.900082 0.500000 0.435086
O O19 0.000000 0.632002 0.500000
#
# Coordination Sequence:
#
# PCOD9210278 Si02
#       8
#     8   8   8   8   8   8   8   8
#     4  10  22  40  63  89 122 163 208 252 295 354
#     4  12  24  38  60  90 127 161 201 251 303 365
#     4  10  22  39  63  93 120 154 205 260 308 360
#     4  11  22  40  64  88 121 166 209 248 301 363
#     4  12  24  39  59  89 125 162 202 249 306 364
#     4  11  23  39  60  88 122 159 201 250 305 366
#     4  11  22  40  65  91 121 161 204 258 307 361
#     4  10  21  39  61  88 122 159 198 246 311 374
#
# _framework density 18.873187999999999
#
# number of rings (size 3 to 8) (size 9 to 14) (size 15 to 20)
#    0.000    1.125    3.750    3.000    0.000    3.000 
#    0.000    1.250    0.000    0.375    0.000    0.000 
#    0.000    0.000    0.000    0.000    0.000    0.000 
#
# Total GULP energy -178986.339537 kJ/mol
# GULP energy per Si atom -5593.323111 kJ/mol
# Density = 1.883023 g / cm^3
# Si number density = 18.873188 Si / 1000 Ang^3
#
#
#
# Elastic Constant Matrix: (Units=GPa)
#
#
# Indices 1 2 3 4 5 6 
#
# 1 75.0030 10.4368 2.7066 0.0000 -3.6179 0.0000
# 2 10.4368 71.7850 -3.7523 0.0000 5.1820 0.0000
# 3 2.7066 -3.7523 51.0824 0.0000 -8.7652 0.0000
# 4 0.0000 0.0000 0.0000 2.8104 0.0000 -3.9480
# 5 -3.6179 5.1820 -8.7652 0.0000 27.3745 0.0000
# 6 0.0000 0.0000 0.0000 -3.9480 0.0000 22.1341
#
#
#
# Elastic Compliance Matrix: (Units=1/GPa)
#
#
# Indices 1 2 3 4 5 6 
#
# 1 0.013754 -0.002176 -0.000535 0.000000 0.002058 0.000000
# 2 -0.002176 0.014486 0.000698 0.000000 -0.002806 0.000000
# 3 -0.000535 0.000698 0.020762 0.000000 0.006445 0.000000
# 4 0.000000 0.000000 0.000000 0.474791 -0.000001 0.084688
# 5 0.002058 -0.002806 0.006445 -0.000001 0.039397 0.000000
# 6 0.000000 0.000000 0.000000 0.084688 0.000000 0.060285
#
#
# Mechanical properties :
#
#
# Convention : Reuss Voigt Hill
#
# Bulk Modulus (GPa) = 22.23498 24.07248 23.15373
# Shear Modulus (GPa) = 7.78217 23.02909 15.40563
#
# Velocity S-wave (km/s) = 2.03282 3.49693 2.86014
# Velocity P-wave (km/s) = 4.16133 5.39326 4.81684
#
# Compressibility (1/GPa) = 0.04497419
#
# Stress axis : x y z
#
# Youngs Moduli (GPa) = 72.70482 69.03233 48.16554
#
# Poissons Ratio (x) = 0.15023 0.02579
# Poissons Ratio (y) = 0.15823 -0.03361
# Poissons Ratio (z) = 0.03893 -0.04817
#
# Static dielectric constant tensor:
#      x y z
#    x 1.637950 0.000000 0.002850 
#    y 0.000000 1.637000 0.000000 
#    z 0.002850 0.000000 1.641510 
# 
# From -- ./inp_files/183841.got.cif
#   From: 2010.05.17/outbox.cif.g08.bks.cpg/sg12_92_cif.got.tgz:183841.got - 2010.06.03 13:09:07.
