data_PCOD9210748
_publ_section_title
;
Structure prediction by ZEFSAII (Michael W. Deem and Ramdas Pophale) SiO2 
 PCOD9210748
Probable space group: C 2/M
;
_chemical_formula_sum "Si O2"
_cell_formula_units_Z 60
_cell_length_a 11.336652
_cell_length_b 19.016388
_cell_length_c 19.448200
_cell_angle_alpha 90.000000
_cell_angle_beta 134.973102
_cell_angle_gamma 90.000000
_cell_volume 2966.067615
_symmetry_space_group_name_H-M "C 2/M"
_symmetry_group_IT_number 12
_symmetry_cell_setting 'monoclinic'
loop_
_space_group_symop_operation_xyz
x,y,z
-x,y,-z
-x,-y,-z
x,-y,z
1/2+x,1/2+y,z
1/2-x,1/2+y,-z
1/2-x,1/2-y,-z
1/2+x,1/2-y,z
loop_
_atom_site_type_symbol
_atom_site_label
_atom_site_fract_x
_atom_site_fract_y
_atom_site_fract_z
Si Si1 0.212217 0.423989 0.308106
Si Si2 0.837888 0.081317 0.981750
Si Si3 0.000000 0.764764 0.500000
Si Si4 0.882767 0.320579 0.322073
Si Si5 0.569795 0.192538 0.813705
Si Si6 0.751946 0.873857 0.467422
Si Si7 0.495644 0.653446 0.821888
Si Si8 0.007990 0.919702 0.320879
O O1 0.130079 0.500000 0.260715
O O2 0.277989 0.424323 0.413185
O O3 0.362962 0.415487 0.317759
O O4 0.093075 0.357063 0.253095
O O5 0.899048 0.108246 0.081071
O O6 0.776218 0.000000 0.958625
O O7 0.711008 0.139732 0.900077
O O8 0.000000 0.081735 0.000000
O O9 0.899169 0.724477 0.398555
O O10 0.859466 0.806835 0.485594
O O11 0.892694 0.285946 0.250170
O O12 0.702807 0.357127 0.248565
O O13 0.054186 0.364630 0.393814
O O14 0.538966 0.263518 0.843753
O O15 0.827193 0.897647 0.570258
O O16 0.530297 0.628126 0.759334
O O17 0.022569 0.000000 0.303342
#
# Coordination Sequence:
#
# PCOD9210748 Si02
#       8
#     8   8   4   8   8   8   8   8
#     4  10  21  39  63  94 128 173 222 264 311 376
#     4  11  24  47  71  96 126 163 210 266 330 397
#     4  12  20  36  57  94 135 172 214 264 320 368
#     4  11  23  38  58  96 132 173 213 261 321 374
#     4  11  24  42  70  96 128 166 215 268 322 389
#     4  11  21  36  61  89 130 178 224 259 306 373
#     4  12  25  42  67  96 133 163 215 268 330 382
#     4  11  23  41  62  93 135 178 217 264 320 377
#
# _framework density 20.228805000000001
#
# number of rings (size 3 to 8) (size 9 to 14) (size 15 to 20)
#    0.000    0.933    2.667    5.200    1.867    1.067 
#    0.000    3.333    0.000    2.400    0.000    0.000 
#    0.000    0.000    0.000    0.000    0.000    0.000 
#
# Total GULP energy -167464.903440 kJ/mol
# GULP energy per Si atom -5582.163448 kJ/mol
# Density = 2.018276 g / cm^3
# Si number density = 20.228805 Si / 1000 Ang^3
#
#
#
# Elastic Constant Matrix: (Units=GPa)
#
#
# Indices 1 2 3 4 5 6 
#
# 1 38.9986 35.9701 27.3891 0.0000 -12.0280 0.0000
# 2 35.9701 96.8350 47.6602 0.0000 -11.1270 0.0000
# 3 27.3891 47.6602 115.3438 0.0000 -6.7659 0.0000
# 4 0.0000 0.0000 0.0000 3.1907 0.0000 3.2343
# 5 -12.0280 -11.1270 -6.7659 0.0000 21.5287 0.0000
# 6 0.0000 0.0000 0.0000 3.2343 0.0000 -5.6380
#
#
#
# Elastic Compliance Matrix: (Units=1/GPa)
#
#
# Indices 1 2 3 4 5 6 
#
# 1 0.046209 -0.012854 -0.004622 0.000000 0.017721 0.000000
# 2 -0.012854 0.017115 -0.003996 0.000000 0.000409 0.000000
# 3 -0.004622 -0.003996 0.011355 0.000000 -0.001079 0.000000
# 4 0.000000 0.000000 0.000000 0.198175 0.000000 0.113684
# 5 0.017721 0.000409 -0.001079 0.000000 0.056222 0.000000
# 6 0.000000 0.000000 0.000000 0.113684 0.000000 -0.112152
#
#
# Mechanical properties :
#
#
# Convention : Reuss Voigt Hill
#
# Bulk Modulus (GPa) = 31.50967 52.57956 42.04461
# Shear Modulus (GPa) = 18.48797 13.16014 15.82405
#
# Velocity S-wave (km/s) = 3.02643 2.55338 2.79991
# Velocity P-wave (km/s) = 5.27473 5.89422 5.59306
#
# Compressibility (1/GPa) = 0.03173629
#
# Stress axis : x y z
#
# Youngs Moduli (GPa) = 21.64079 58.42816 88.06660
#
# Poissons Ratio (x) = 0.75101 0.40705
# Poissons Ratio (y) = 0.27816 0.35190
# Poissons Ratio (z) = 0.10002 0.23347
#
# Static dielectric constant tensor:
#      x y z
#    x 1.714690 0.000000 0.007850 
#    y 0.000000 1.768380 0.000000 
#    z 0.007850 0.000000 1.719950 
# 
# From -- ./inp_files/306383.got.cif
#   From: 2010.05.17/outbox.cif.g08.bks.cpg/sg12_154_cif.got.tgz:306383.got - 2010.06.03 13:09:07.
