data_PCOD9210094
_publ_section_title
;
Structure prediction by ZEFSAII (Michael W. Deem and Ramdas Pophale) SiO2 
 PCOD9210094
Probable space group: C 2/M
;
_chemical_formula_sum "Si O2"
_cell_formula_units_Z 56
_cell_length_a 29.887051
_cell_length_b 7.724918
_cell_length_c 11.544387
_cell_angle_alpha 90.000000
_cell_angle_beta 66.206868
_cell_angle_gamma 90.000000
_cell_volume 2438.780575
_symmetry_space_group_name_H-M "C 2/M"
_symmetry_group_IT_number 12
_symmetry_cell_setting 'monoclinic'
loop_
_space_group_symop_operation_xyz
x,y,z
-x,y,-z
-x,-y,-z
x,-y,z
1/2+x,1/2+y,z
1/2-x,1/2+y,-z
1/2-x,1/2-y,-z
1/2+x,1/2-y,z
loop_
_atom_site_type_symbol
_atom_site_label
_atom_site_fract_x
_atom_site_fract_y
_atom_site_fract_z
Si Si1 0.380376 0.800014 0.818349
Si Si2 0.519802 0.300970 0.357737
Si Si3 0.877748 0.299234 0.269048
Si Si4 0.219939 0.790440 0.192856
Si Si5 0.797966 0.794710 0.523240
Si Si6 0.171323 0.288575 0.912677
Si Si7 0.512960 0.301712 0.858711
O O1 0.421381 0.702750 0.703658
O O2 0.325913 0.786636 0.825344
O O3 0.395187 0.000000 0.805345
O O4 0.372219 0.732463 0.957201
O O5 0.500000 0.224342 0.500000
O O6 0.501599 0.500000 0.374172
O O7 0.505940 0.224657 0.244872
O O8 0.889593 0.500000 0.234153
O O9 0.846361 0.286116 0.417955
O O10 0.842104 0.237709 0.203161
O O11 0.928559 0.201141 0.214328
O O12 0.211887 0.744468 0.335174
O O13 0.274748 0.729119 0.105784
O O14 0.218362 0.000000 0.182494
O O15 0.750000 0.750000 0.500000
O O16 0.804666 0.000000 0.512896
O O17 0.173000 0.500000 0.914847
O O18 0.494167 0.500000 0.881302
O O19 0.500000 0.225300 0.000000
#
# Coordination Sequence:
#
# PCOD9210094 Si02
#       7
#     8   8   8   8   8   8   8
#     4  11  23  38  61  90 119 150 199 252 293 346
#     4  10  23  43  63  83 116 161 201 243 308 370
#     4  11  22  38  62  90 123 159 198 243 303 362
#     4  10  21  39  60  82 120 164 198 233 292 359
#     4  11  22  38  60  86 120 160 200 245 296 354
#     4   9  19  38  59  86 123 160 192 235 293 354
#     4  10  22  41  64  91 120 154 206 259 301 360
#
# _framework density 22.962297
#
# number of rings (size 3 to 8) (size 9 to 14) (size 15 to 20)
#    0.000    1.714    1.429    2.571    2.000    2.286 
#    0.000    2.857    0.000    0.000    0.000    0.000 
#    0.000    0.000    0.000    0.000    0.000    0.000 
#
# Total GULP energy -156402.672717 kJ/mol
# GULP energy per Si atom -5585.809740 kJ/mol
# Density = 2.291003 g / cm^3
# Si number density = 22.962297 Si / 1000 Ang^3
#
#
#
# Elastic Constant Matrix: (Units=GPa)
#
#
# Indices 1 2 3 4 5 6 
#
# 1 85.5728 4.8029 38.6947 0.0000 -8.8059 0.0000
# 2 4.8029 37.0948 17.3103 0.0000 2.3154 0.0000
# 3 38.6947 17.3103 158.3126 0.0000 -8.1689 0.0000
# 4 0.0000 0.0000 0.0000 11.4929 0.0000 -5.9355
# 5 -8.8059 2.3154 -8.1689 0.0000 43.5552 0.0000
# 6 0.0000 0.0000 0.0000 -5.9355 0.0000 24.4843
#
#
#
# Elastic Compliance Matrix: (Units=1/GPa)
#
#
# Indices 1 2 3 4 5 6 
#
# 1 0.013332 -0.000411 -0.003103 0.000000 0.002135 0.000000
# 2 -0.000411 0.028614 -0.003141 0.000000 -0.002193 0.000000
# 3 -0.003103 -0.003141 0.007467 0.000000 0.000940 0.000000
# 4 0.000000 0.000000 0.000000 0.099463 0.000000 0.024112
# 5 0.002135 -0.002193 0.000940 0.000000 0.023684 0.000000
# 6 0.000000 0.000000 0.000000 0.024112 0.000000 0.046688
#
#
# Mechanical properties :
#
#
# Convention : Reuss Voigt Hill
#
# Bulk Modulus (GPa) = 27.70001 44.73291 36.21646
# Shear Modulus (GPa) = 20.44204 30.58463 25.51334
#
# Velocity S-wave (km/s) = 2.98693 3.65355 3.33693
# Velocity P-wave (km/s) = 4.89746 6.10911 5.53653
#
# Compressibility (1/GPa) = 0.03610108
#
# Stress axis : x y z
#
# Youngs Moduli (GPa) = 75.00681 34.94787 133.91966
#
# Poissons Ratio (x) = 0.01437 0.41562
# Poissons Ratio (y) = 0.03085 0.42070
# Poissons Ratio (z) = 0.23278 0.10979
#
# Static dielectric constant tensor:
#      x y z
#    x 1.834480 0.000000 0.041800 
#    y 0.000000 1.828350 0.000000 
#    z 0.041800 0.000000 1.877600 
# 
# From -- ./inp_files/180651.got.cif
#   From: 2010.05.17/outbox.cif.g08.bks.cpg/sg12_91_cif.got.tgz:180651.got - 2010.06.03 13:09:07.
