data_PCOD9210971
_publ_section_title
;
Structure prediction by ZEFSAII (Michael W. Deem and Ramdas Pophale) SiO2 
 PCOD9210971
Probable space group: C 2/M
;
_chemical_formula_sum "Si O2"
_cell_formula_units_Z 48
_cell_length_a 17.691878
_cell_length_b 13.076902
_cell_length_c 11.220640
_cell_angle_alpha 90.000000
_cell_angle_beta 107.977489
_cell_angle_gamma 90.000000
_cell_volume 2469.210775
_symmetry_space_group_name_H-M "C 2/M"
_symmetry_group_IT_number 12
_symmetry_cell_setting 'monoclinic'
loop_
_space_group_symop_operation_xyz
x,y,z
-x,y,-z
-x,-y,-z
x,-y,z
1/2+x,1/2+y,z
1/2-x,1/2+y,-z
1/2-x,1/2-y,-z
1/2+x,1/2-y,z
loop_
_atom_site_type_symbol
_atom_site_label
_atom_site_fract_x
_atom_site_fract_y
_atom_site_fract_z
Si Si1 0.460472 0.386426 0.110565
Si Si2 0.554228 0.256945 0.339654
Si Si3 0.311698 0.730323 0.423393
Si Si4 0.326854 0.879907 0.763207
Si Si5 0.399882 0.881842 0.303150
Si Si6 0.662974 0.796929 0.968302
O O1 0.430772 0.500000 0.125470
O O2 0.521791 0.346100 0.239143
O O3 0.394027 0.300589 0.069709
O O4 0.500000 0.389882 0.000000
O O5 0.606554 0.302152 0.472897
O O6 0.612242 0.184146 0.289547
O O7 0.480055 0.186551 0.343835
O O8 0.250000 0.750000 0.500000
O O9 0.263183 0.655638 0.312637
O O10 0.337180 0.831638 0.363966
O O11 0.336014 0.000000 0.746090
O O12 0.344948 0.852112 0.908759
O O13 0.361697 0.869164 0.153275
O O14 0.416126 0.000000 0.337626
O O15 0.750000 0.750000 0.000000
#
# Coordination Sequence:
#
# PCOD9210971 Si02
#       6
#     8   8   8   8   8   8
#     4  10  21  39  65  90 121 164 205 251 310 364
#     4  10  22  41  64  93 130 159 209 262 304 367
#     4  10  23  41  59  88 127 163 204 255 302 366
#     4  11  22  40  63  91 126 168 206 253 317 368
#     4  11  23  40  67  95 121 164 209 256 314 369
#     4  11  22  41  61  92 131 159 205 264 306 370
#
# _framework density 19.439409999999999
#
# number of rings (size 3 to 8) (size 9 to 14) (size 15 to 20)
#    0.000    1.500    3.333    1.500    0.000    6.000 
#    0.000    5.000    0.000    3.000    0.000    0.000 
#    0.000    0.000    0.000    0.000    0.000    0.000 
#
# Total GULP energy -133985.004516 kJ/mol
# GULP energy per Si atom -5582.708522 kJ/mol
# Density = 1.939517 g / cm^3
# Si number density = 19.439410 Si / 1000 Ang^3
#
#
#
# Elastic Constant Matrix: (Units=GPa)
#
#
# Indices 1 2 3 4 5 6 
#
# 1 70.7948 6.4829 25.1588 0.0000 -0.3382 0.0000
# 2 6.4829 71.7801 24.0870 0.0000 -4.2101 0.0000
# 3 25.1588 24.0870 124.3337 0.0000 13.3341 0.0000
# 4 0.0000 0.0000 0.0000 4.3592 0.0000 2.2179
# 5 -0.3382 -4.2101 13.3341 0.0000 34.9255 0.0000
# 6 0.0000 0.0000 0.0000 2.2179 0.0000 12.3285
#
#
#
# Elastic Compliance Matrix: (Units=1/GPa)
#
#
# Indices 1 2 3 4 5 6 
#
# 1 0.015287 -0.000231 -0.003192 0.000000 0.001339 0.000000
# 2 -0.000231 0.015216 -0.003230 0.000000 0.003065 0.000000
# 3 -0.003192 -0.003230 0.009759 0.000000 -0.004146 0.000000
# 4 0.000000 0.000000 0.000000 0.252510 0.000000 -0.045426
# 5 0.001339 0.003065 -0.004146 0.000000 0.030598 0.000000
# 6 0.000000 0.000000 0.000000 -0.045426 0.000000 0.089285
#
#
# Mechanical properties :
#
#
# Convention : Reuss Voigt Hill
#
# Bulk Modulus (GPa) = 37.09677 42.04066 39.56871
# Shear Modulus (GPa) = 11.49567 24.40132 17.94850
#
# Velocity S-wave (km/s) = 2.43443 3.54679 3.04189
# Velocity P-wave (km/s) = 5.19871 6.20052 5.72158
#
# Compressibility (1/GPa) = 0.02695653
#
# Stress axis : x y z
#
# Youngs Moduli (GPa) = 65.41375 65.72094 102.46796
#
# Poissons Ratio (x) = 0.01518 0.32710
# Poissons Ratio (y) = 0.01511 0.33094
# Poissons Ratio (z) = 0.20881 0.21226
#
# Static dielectric constant tensor:
#      x y z
#    x 1.667520 0.000000 -0.001220 
#    y 0.000000 1.631880 0.000000 
#    z -0.001220 0.000000 1.713990 
# 
# From -- ./inp_files/154284.got.cif
#   From: 2010.05.17/outbox.cif.g08.bks.cpg/sg12_78_cif.got.tgz:154284.got - 2010.06.03 13:09:07.
