data_PCOD9210095
_publ_section_title
;
Structure prediction by ZEFSAII (Michael W. Deem and Ramdas Pophale) SiO2 
 PCOD9210095
Probable space group: C 2/M
;
_chemical_formula_sum "Si O2"
_cell_formula_units_Z 48
_cell_length_a 32.332433
_cell_length_b 8.726390
_cell_length_c 16.117472
_cell_angle_alpha 90.000000
_cell_angle_beta 143.383506
_cell_angle_gamma 90.000000
_cell_volume 2712.366130
_symmetry_space_group_name_H-M "C 2/M"
_symmetry_group_IT_number 12
_symmetry_cell_setting 'monoclinic'
loop_
_space_group_symop_operation_xyz
x,y,z
-x,y,-z
-x,-y,-z
x,-y,z
1/2+x,1/2+y,z
1/2-x,1/2+y,-z
1/2-x,1/2-y,-z
1/2+x,1/2-y,z
loop_
_atom_site_type_symbol
_atom_site_label
_atom_site_fract_x
_atom_site_fract_y
_atom_site_fract_z
Si Si1 0.596640 0.183252 0.097087
Si Si2 0.884169 0.682682 0.538231
Si Si3 0.073669 0.684160 0.579046
Si Si4 0.047976 0.817714 0.190032
Si Si5 0.718095 0.317393 0.864885
Si Si6 0.768269 0.183519 0.772990
O O1 0.589688 0.248658 0.179047
O O2 0.666030 0.241956 0.165271
O O3 0.594399 0.000000 0.095595
O O4 0.528890 0.246325 0.940302
O O5 0.891102 0.500000 0.564017
O O6 0.922042 0.719182 0.512129
O O7 0.915805 0.771831 0.666130
O O8 0.803036 0.716385 0.391567
O O9 0.083877 0.500000 0.603566
O O10 0.138051 0.766710 0.726249
O O11 0.000000 0.724260 0.500000
O O12 0.043500 0.000000 0.173791
O O13 0.723746 0.500000 0.873414
O O14 0.756794 0.248418 0.846779
O O15 0.750000 0.250000 0.000000
O O16 0.776066 0.000000 0.789496
#
# Coordination Sequence:
#
# PCOD9210095 Si02
#       6
#     8   8   8   8   8   8
#     4  11  22  38  59  82 111 145 184 228 278 332
#     4   9  19  36  57  81 111 145 182 228 279 330
#     4   9  19  37  59  82 111 146 185 230 278 328
#     4  11  22  37  57  81 112 147 186 230 274 324
#     4  11  22  37  57  82 114 149 187 229 275 326
#     4  10  21  39  60  83 112 144 183 229 277 329
#
# _framework density 17.696726999999999
#
# number of rings (size 3 to 8) (size 9 to 14) (size 15 to 20)
#    0.000    1.833    0.000    7.000    0.000    5.667 
#    0.000    5.000    0.000    0.000    0.000    0.000 
#    0.000    0.000    0.000    0.000    0.000    0.000 
#
# Total GULP energy -134084.442598 kJ/mol
# GULP energy per Si atom -5586.851775 kJ/mol
# Density = 1.765645 g / cm^3
# Si number density = 17.696727 Si / 1000 Ang^3
#
#
#
# Elastic Constant Matrix: (Units=GPa)
#
#
# Indices 1 2 3 4 5 6 
#
# 1 156.7842 87.5047 104.8277 0.0000 20.4375 0.0000
# 2 87.5047 143.8126 90.1254 0.0000 -1.9054 0.0000
# 3 104.8277 90.1254 132.5282 0.0000 -17.8108 0.0000
# 4 0.0000 0.0000 0.0000 32.1355 0.0000 0.6162
# 5 20.4375 -1.9054 -17.8108 0.0000 25.6157 0.0000
# 6 0.0000 0.0000 0.0000 0.6162 0.0000 30.0452
#
#
#
# Elastic Compliance Matrix: (Units=1/GPa)
#
#
# Indices 1 2 3 4 5 6 
#
# 1 0.044401 -0.000593 -0.043554 0.000000 -0.065752 0.000000
# 2 -0.000593 0.012822 -0.008890 0.000000 -0.004754 0.000000
# 3 -0.043554 -0.008890 0.058047 0.000000 0.074448 0.000000
# 4 0.000000 0.000000 0.000000 0.031130 0.000000 -0.000638
# 5 -0.065752 -0.004754 0.074448 0.000000 0.142910 0.000000
# 6 0.000000 0.000000 0.000000 -0.000638 0.000000 0.033296
#
#
# Mechanical properties :
#
#
# Convention : Reuss Voigt Hill
#
# Bulk Modulus (GPa) = 108.73180 110.89339 109.81260
# Shear Modulus (GPa) = 11.58093 27.60376 19.59234
#
# Velocity S-wave (km/s) = 2.56092 3.95374 3.33095
# Velocity P-wave (km/s) = 8.38568 9.14560 8.77387
#
# Compressibility (1/GPa) = 0.00919694
#
# Stress axis : x y z
#
# Youngs Moduli (GPa) = 22.52221 77.98877 17.22755
#
# Poissons Ratio (x) = 0.04624 0.75032
# Poissons Ratio (y) = 0.01335 0.15315
# Poissons Ratio (z) = 0.98092 0.69331
#
# Static dielectric constant tensor:
#      x y z
#    x 1.581140 0.000000 0.002230 
#    y 0.000000 1.590520 0.000000 
#    z 0.002230 0.000000 1.575130 
# 
# From -- ./inp_files/249358.got.cif
#   From: 2010.05.17/outbox.cif.g08.bks.cpg/sg12_125_cif.got.tgz:249358.got - 2010.06.03 13:09:07.
