data_PCOD9210369
_publ_section_title
;
Structure prediction by ZEFSAII (Michael W. Deem and Ramdas Pophale) SiO2 
 PCOD9210369
Probable space group: C 2/M
;
_chemical_formula_sum "Si O2"
_cell_formula_units_Z 28
_cell_length_a 12.456415
_cell_length_b 15.550988
_cell_length_c 13.495725
_cell_angle_alpha 90.000000
_cell_angle_beta 148.844066
_cell_angle_gamma 90.000000
_cell_volume 1352.532398
_symmetry_space_group_name_H-M "C 2/M"
_symmetry_group_IT_number 12
_symmetry_cell_setting 'monoclinic'
loop_
_space_group_symop_operation_xyz
x,y,z
-x,y,-z
-x,-y,-z
x,-y,z
1/2+x,1/2+y,z
1/2-x,1/2+y,-z
1/2-x,1/2-y,-z
1/2+x,1/2-y,z
loop_
_atom_site_type_symbol
_atom_site_label
_atom_site_fract_x
_atom_site_fract_y
_atom_site_fract_z
Si Si1 0.176982 0.600397 0.512253
Si Si2 0.284175 0.396234 0.379601
Si Si3 0.500000 0.810036 0.000000
Si Si4 0.221528 0.147343 0.191950
O O1 0.233843 0.500000 0.573028
O O2 0.268001 0.632093 0.480678
O O3 0.246184 0.652192 0.663981
O O4 0.926859 0.605495 0.311142
O O5 0.500000 0.368419 0.500000
O O6 0.280882 0.500000 0.378205
O O7 0.091559 0.364521 0.161805
O O8 0.318432 0.742112 0.884361
O O9 0.000000 0.102108 0.000000
#
# Coordination Sequence:
#
# PCOD9210369 Si02
#       4
#     8   8   4   8
#     4  10  21  39  62  86 116 153 195 236 282 346
#     4  10  23  42  61  82 115 158 197 236 280 339
#     4  10  23  38  59  88 120 148 192 238 289 350
#     4   9  21  37  57  93 115 147 185 239 300 332
#
# _framework density 20.701908
#
# number of rings (size 3 to 8) (size 9 to 14) (size 15 to 20)
#    0.857    1.429    0.000    2.143    4.000    6.857 
#    0.000    5.714    0.000    0.000    0.000    0.000 
#    0.000    0.000    0.000    0.000    0.000    0.000 
#
# Total GULP energy -78036.265465 kJ/mol
# GULP energy per Si atom -5574.018962 kJ/mol
# Density = 2.065479 g / cm^3
# Si number density = 20.701908 Si / 1000 Ang^3
#
#
#
# Elastic Constant Matrix: (Units=GPa)
#
#
# Indices 1 2 3 4 5 6 
#
# 1 146.1799 14.4564 60.9029 0.0012 -14.1066 -0.0002
# 2 14.4564 28.4743 19.9231 0.0013 -2.0057 0.0003
# 3 60.9029 19.9231 118.2413 0.0024 3.6935 0.0018
# 4 0.0012 0.0013 0.0024 77.2309 0.0014 19.8844
# 5 -14.1066 -2.0057 3.6935 0.0014 19.4349 -0.0002
# 6 -0.0002 0.0003 0.0018 19.8844 -0.0002 -3.7520
#
#
#
# Elastic Compliance Matrix: (Units=1/GPa)
#
#
# Indices 1 2 3 4 5 6 
#
# 1 0.009864 -0.000803 -0.005197 0.000000 0.008064 -0.000002
# 2 -0.000803 0.040453 -0.006553 0.000000 0.004837 -0.000001
# 3 -0.005197 -0.006553 0.012451 -0.000001 -0.006815 0.000002
# 4 0.000000 0.000000 -0.000001 0.005476 0.000000 0.029022
# 5 0.008064 0.004837 -0.006815 0.000000 0.059102 -0.000006
# 6 -0.000002 -0.000001 0.000002 0.029022 -0.000006 -0.112720
#
#
# Mechanical properties :
#
#
# Convention : Reuss Voigt Hill
#
# Bulk Modulus (GPa) = 26.55308 53.71780 40.13544
# Shear Modulus (GPa) = 95.62458 31.75697 63.69078
#
# Velocity S-wave (km/s) = 6.80378 3.92090 5.55270
# Velocity P-wave (km/s) = 8.63575 6.81927 7.78070
#
# Compressibility (1/GPa) = 0.03766042
#
# Stress axis : x y z
#
# Youngs Moduli (GPa) = 101.38033 24.71982 80.31305
#
# Poissons Ratio (x) = 0.01986 0.41740
# Poissons Ratio (y) = 0.08146 0.52633
# Poissons Ratio (z) = 0.52689 0.16200
#
# Static dielectric constant tensor:
#      x y z
#    x 1.718690 0.000000 0.018480 
#    y 0.000000 1.776790 0.000000 
#    z 0.018480 0.000000 1.717950 
# 
# From -- ./inp_files/131493.got.cif
#   From: 2010.05.17/outbox.cif.g08.bks.cpg/sg12_66_cif.got.tgz:131493.got - 2010.06.03 13:09:07.
