data_PCOD9210054
_publ_section_title
;
Structure prediction by ZEFSAII (Michael W. Deem and Ramdas Pophale) SiO2 
 PCOD9210054
Probable space group: C 2/M
;
_chemical_formula_sum "Si O2"
_cell_formula_units_Z 40
_cell_length_a 8.657794
_cell_length_b 29.643836
_cell_length_c 8.913440
_cell_angle_alpha 90.000000
_cell_angle_beta 69.145900
_cell_angle_gamma 90.000000
_cell_volume 2137.773233
_symmetry_space_group_name_H-M "C 2/M"
_symmetry_group_IT_number 12
_symmetry_cell_setting 'monoclinic'
loop_
_space_group_symop_operation_xyz
x,y,z
-x,y,-z
-x,-y,-z
x,-y,z
1/2+x,1/2+y,z
1/2-x,1/2+y,-z
1/2-x,1/2-y,-z
1/2+x,1/2-y,z
loop_
_atom_site_type_symbol
_atom_site_label
_atom_site_fract_x
_atom_site_fract_y
_atom_site_fract_z
Si Si1 0.374493 0.275067 0.685065
Si Si2 0.006862 0.304579 0.817581
Si Si3 0.625477 0.115304 0.327533
Si Si4 0.091499 0.050483 0.811074
Si Si5 0.962938 0.137246 0.337147
O O1 0.500000 0.268928 0.500000
O O2 0.811495 0.287471 0.295943
O O3 0.382944 0.231576 0.786861
O O4 0.438357 0.319318 0.753001
O O5 0.962157 0.353207 0.763812
O O6 0.000000 0.304912 0.000000
O O7 0.500000 0.101230 0.500000
O O8 0.726762 0.072428 0.231393
O O9 0.228919 0.143646 0.639210
O O10 0.998025 0.088425 0.745440
O O11 0.098338 0.000000 0.744520
O O12 0.000000 0.048612 0.000000
O O13 0.000000 0.135139 0.500000
#
# Coordination Sequence:
#
# PCOD9210054 Si02
#       5
#     8   8   8   8   8
#     4  11  22  39  59  85 122 165 202 243 295 354
#     4  12  25  37  60  89 125 160 204 246 298 350
#     4  10  21  39  59  86 123 156 198 243 299 353
#     4   9  21  39  64  89 120 155 195 247 305 353
#     4   9  20  36  63  87 117 155 203 243 290 352
#
# _framework density 18.71106
#
# number of rings (size 3 to 8) (size 9 to 14) (size 15 to 20)
#    1.200    0.600    0.000    5.400    2.800    1.600 
#    0.000    0.000    0.000    0.600    0.000    0.000 
#    0.000    0.000    0.000    0.000    0.000    0.000 
#
# Total GULP energy -111392.602793 kJ/mol
# GULP energy per Si atom -5569.630140 kJ/mol
# Density = 1.866847 g / cm^3
# Si number density = 18.711060 Si / 1000 Ang^3
#
#
#
# Elastic Constant Matrix: (Units=GPa)
#
#
# Indices 1 2 3 4 5 6 
#
# 1 57.6830 -6.2350 16.9271 0.0000 -6.0989 0.0000
# 2 -6.2350 104.9569 43.4791 0.0000 -0.3659 0.0000
# 3 16.9271 43.4791 78.2862 0.0000 10.1113 0.0000
# 4 0.0000 0.0000 0.0000 45.4410 0.0000 -5.3059
# 5 -6.0989 -0.3659 10.1113 0.0000 24.0373 0.0000
# 6 0.0000 0.0000 0.0000 -5.3059 0.0000 23.9216
#
#
#
# Elastic Compliance Matrix: (Units=1/GPa)
#
#
# Indices 1 2 3 4 5 6 
#
# 1 0.021278 0.004784 -0.008422 0.000000 0.009014 0.000000
# 2 0.004784 0.013696 -0.009332 0.000000 0.005348 0.000000
# 3 -0.008422 -0.009332 0.021225 0.000000 -0.011207 0.000000
# 4 0.000000 0.000000 0.000000 0.022592 0.000000 0.005011
# 5 0.009014 0.005348 -0.011207 0.000000 0.048685 0.000000
# 6 0.000000 0.000000 0.000000 0.005011 0.000000 0.042915
#
#
# Mechanical properties :
#
#
# Convention : Reuss Voigt Hill
#
# Bulk Modulus (GPa) = 33.04721 38.80763 35.92742
# Shear Modulus (GPa) = 24.22279 31.13029 27.67654
#
# Velocity S-wave (km/s) = 3.60192 4.08332 3.85015
# Velocity P-wave (km/s) = 5.91596 6.55872 6.24562
#
# Compressibility (1/GPa) = 0.03025974
#
# Stress axis : x y z
#
# Youngs Moduli (GPa) = 46.99715 73.01168 47.11398
#
# Poissons Ratio (x) = -0.34932 0.39680
# Poissons Ratio (y) = -0.22485 0.43967
# Poissons Ratio (z) = 0.39582 0.68135
#
# Static dielectric constant tensor:
#      x y z
#    x 1.679400 0.000000 -0.020050 
#    y 0.000000 1.659160 0.000000 
#    z -0.020050 0.000000 1.655740 
# 
# From -- ./inp_files/41420.got.cif
#   From: 2010.05.17/outbox.cif.g08.bks.cpg/sg12_21_cif.got.tgz:41420.got - 2010.06.03 13:09:07.
