data_PCOD9210781
_publ_section_title
;
Structure prediction by ZEFSAII (Michael W. Deem and Ramdas Pophale) SiO2 
 PCOD9210781
Probable space group: C 2/M
;
_chemical_formula_sum "Si O2"
_cell_formula_units_Z 48
_cell_length_a 11.255260
_cell_length_b 23.529035
_cell_length_c 8.923190
_cell_angle_alpha 90.000000
_cell_angle_beta 69.236820
_cell_angle_gamma 90.000000
_cell_volume 2209.613601
_symmetry_space_group_name_H-M "C 2/M"
_symmetry_group_IT_number 12
_symmetry_cell_setting 'monoclinic'
loop_
_space_group_symop_operation_xyz
x,y,z
-x,y,-z
-x,-y,-z
x,-y,z
1/2+x,1/2+y,z
1/2-x,1/2+y,-z
1/2-x,1/2-y,-z
1/2+x,1/2-y,z
loop_
_atom_site_type_symbol
_atom_site_label
_atom_site_fract_x
_atom_site_fract_y
_atom_site_fract_z
Si Si1 0.905619 0.566623 0.792869
Si Si2 0.728788 0.147061 0.371708
Si Si3 0.288354 0.563533 0.847809
Si Si4 0.138049 0.648746 0.732736
Si Si5 0.442522 0.438122 0.358340
Si Si6 0.851967 0.236492 0.089628
O O1 0.935839 0.500000 0.757750
O O2 0.856745 0.599145 0.668906
O O3 0.023663 0.603846 0.795770
O O4 0.794695 0.570585 0.966741
O O5 0.658173 0.167886 0.552551
O O6 0.851962 0.113716 0.372374
O O7 0.774392 0.194264 0.233999
O O8 0.259815 0.500000 0.799455
O O9 0.254396 0.612357 0.746242
O O10 0.438124 0.565363 0.806751
O O11 0.123203 0.703818 0.839518
O O12 0.500000 0.437839 0.500000
O O13 0.378840 0.500000 0.365375
O O14 0.750000 0.250000 0.000000
O O15 0.000000 0.214659 0.000000
#
# Coordination Sequence:
#
# PCOD9210781 Si02
#       6
#     8   8   8   8   8   8
#     4  11  25  43  69 106 146 186 230 287 350 418
#     4  12  26  42  70 102 136 182 229 288 349 417
#     4  10  21  39  66  98 136 178 224 274 336 408
#     4  12  24  45  69 100 138 180 232 284 344 417
#     4  10  21  39  64 100 138 175 220 279 344 412
#     4  12  29  50  74 101 139 187 240 299 355 423
#
# _framework density 21.723255000000002
#
# number of rings (size 3 to 8) (size 9 to 14) (size 15 to 20)
#    0.000    0.833    1.667    5.500    4.667    4.000 
#    0.000    4.167    0.000    0.000    0.000    0.000 
#    0.000    0.000    0.000    0.000    0.000    0.000 
#
# Total GULP energy -134117.216370 kJ/mol
# GULP energy per Si atom -5588.217349 kJ/mol
# Density = 2.167381 g / cm^3
# Si number density = 21.723255 Si / 1000 Ang^3
#
#
#
# Elastic Constant Matrix: (Units=GPa)
#
#
# Indices 1 2 3 4 5 6 
#
# 1 61.9880 20.4422 27.6714 0.0000 0.5547 0.0000
# 2 20.4422 106.1646 39.9375 0.0000 8.0940 0.0000
# 3 27.6714 39.9375 103.7178 0.0000 -0.6324 0.0000
# 4 0.0000 0.0000 0.0000 38.8832 0.0000 3.5051
# 5 0.5547 8.0940 -0.6324 0.0000 33.7419 0.0000
# 6 0.0000 0.0000 0.0000 3.5051 0.0000 30.4047
#
#
#
# Elastic Compliance Matrix: (Units=1/GPa)
#
#
# Indices 1 2 3 4 5 6 
#
# 1 0.018674 -0.002022 -0.004203 0.000000 0.000099 0.000000
# 2 -0.002022 0.011490 -0.003902 0.000000 -0.002796 0.000000
# 3 -0.004203 -0.003902 0.012273 0.000000 0.001235 0.000000
# 4 0.000000 0.000000 0.000000 0.025988 0.000000 -0.002996
# 5 0.000099 -0.002796 0.001235 0.000000 0.030329 0.000000
# 6 0.000000 0.000000 0.000000 -0.002996 0.000000 0.033235
#
#
# Mechanical properties :
#
#
# Convention : Reuss Voigt Hill
#
# Bulk Modulus (GPa) = 45.07962 49.77472 47.42717
# Shear Modulus (GPa) = 31.32104 32.86057 32.09081
#
# Velocity S-wave (km/s) = 3.80125 3.89355 3.84768
# Velocity P-wave (km/s) = 6.32952 6.57083 6.45131
#
# Compressibility (1/GPa) = 0.02218297
#
# Stress axis : x y z
#
# Youngs Moduli (GPa) = 53.54939 87.03479 81.48110
#
# Poissons Ratio (x) = 0.17601 0.34246
# Poissons Ratio (y) = 0.10829 0.31792
# Poissons Ratio (z) = 0.22506 0.33958
#
# Static dielectric constant tensor:
#      x y z
#    x 1.912950 0.000000 0.015610 
#    y 0.000000 1.765320 0.000000 
#    z 0.015610 0.000000 1.865060 
# 
# From -- ./inp_files/51303.got.cif
#   From: 2010.05.17/outbox.cif.g08.bks.cpg/sg12_26_cif.got.tgz:51303.got - 2010.06.03 13:09:07.
