data_PCOD9210061
_publ_section_title
;
Structure prediction by ZEFSAII (Michael W. Deem and Ramdas Pophale) SiO2 
 PCOD9210061
Probable space group: C 2/M
;
_chemical_formula_sum "Si O2"
_cell_formula_units_Z 58
_cell_length_a 29.689324
_cell_length_b 7.407739
_cell_length_c 27.783584
_cell_angle_alpha 90.000000
_cell_angle_beta 153.402215
_cell_angle_gamma 90.000000
_cell_volume 2735.804938
_symmetry_space_group_name_H-M "C 2/M"
_symmetry_group_IT_number 12
_symmetry_cell_setting 'monoclinic'
loop_
_space_group_symop_operation_xyz
x,y,z
-x,y,-z
-x,-y,-z
x,-y,z
1/2+x,1/2+y,z
1/2-x,1/2+y,-z
1/2-x,1/2-y,-z
1/2+x,1/2-y,z
loop_
_atom_site_type_symbol
_atom_site_label
_atom_site_fract_x
_atom_site_fract_y
_atom_site_fract_z
Si Si1 0.473017 0.797037 0.664825
Si Si2 0.562957 0.220170 0.477691
Si Si3 0.424116 0.786500 0.719096
Si Si4 0.029945 0.210156 0.079707
Si Si5 0.205596 0.215877 0.315451
Si Si6 0.801275 0.785892 0.100206
Si Si7 0.000000 0.000000 0.500000
Si Si8 0.396468 0.781447 0.039923
O O1 0.468097 0.723261 0.606280
O O2 0.419077 0.711982 0.660077
O O3 0.590290 0.801182 0.791378
O O4 0.431073 0.000000 0.619210
O O5 0.682410 0.262168 0.592748
O O6 0.510446 0.340324 0.467884
O O7 0.548327 0.000000 0.469519
O O8 0.329664 0.766154 0.664397
O O9 0.521686 0.716957 0.842112
O O10 0.441212 0.000000 0.729470
O O11 0.123360 0.289108 0.199029
O O12 0.936937 0.221422 0.027261
O O13 0.055405 0.000000 0.095319
O O14 0.000000 0.291024 0.000000
O O15 0.198648 0.000000 0.308155
O O16 0.816223 0.000000 0.119987
O O17 0.750000 0.750000 0.000000
O O18 0.716273 0.722865 0.056352
O O19 0.397882 0.000000 0.042821
#
# Coordination Sequence:
#
# PCOD9210061 Si02
#       8
#     8   8   8   8   8   8   2   8
#     4  10  21  39  59  87 126 164 205 260 313 373
#     4  10  24  46  68  93 126 161 210 267 321 379
#     4   9  17  32  57  85 120 158 194 239 306 375
#     4   9  18  34  55  81 111 146 194 246 298 362
#     4   9  19  37  59  87 120 156 197 250 317 377
#     4  11  21  34  55  83 121 164 206 246 301 369
#     4  12  26  48  76  90 118 168 218 268 330 372
#     4   9  18  33  49  76 114 152 192 240 296 355
#
# _framework density 21.200341999999999
#
# number of rings (size 3 to 8) (size 9 to 14) (size 15 to 20)
#    0.000    2.345    1.379    0.621    1.931    2.483 
#    2.483    0.000    0.000    0.000    0.000    0.000 
#    0.000    0.000    0.000    0.000    0.000    0.000 
#
# Total GULP energy -161515.039696 kJ/mol
# GULP energy per Si atom -5569.484127 kJ/mol
# Density = 2.115209 g / cm^3
# Si number density = 21.200342 Si / 1000 Ang^3
#
#
#
# Elastic Constant Matrix: (Units=GPa)
#
#
# Indices 1 2 3 4 5 6 
#
# 1 115.6264 16.7311 41.4509 0.0001 -55.9748 -0.0003
# 2 16.7311 93.4159 5.6040 -0.0004 -9.8420 0.0001
# 3 41.4509 5.6040 51.4173 -0.0001 -23.8065 0.0001
# 4 0.0001 -0.0004 -0.0001 16.7844 0.0000 -12.1779
# 5 -55.9748 -9.8420 -23.8065 0.0000 35.4926 0.0000
# 6 -0.0003 0.0001 0.0001 -12.1779 0.0000 44.5555
#
#
#
# Elastic Compliance Matrix: (Units=1/GPa)
#
#
# Indices 1 2 3 4 5 6 
#
# 1 0.037175 -0.000541 -0.004111 0.000000 0.055720 0.000000
# 2 -0.000541 0.011038 0.000370 0.000000 0.002456 0.000000
# 3 -0.004111 0.000370 0.028673 0.000000 0.012851 0.000000
# 4 0.000000 0.000000 0.000000 0.074317 0.000000 0.020312
# 5 0.055720 0.002456 0.012851 0.000000 0.125352 0.000000
# 6 0.000000 0.000000 0.000000 0.020312 0.000000 0.027996
#
#
# Mechanical properties :
#
#
# Convention : Reuss Voigt Hill
#
# Bulk Modulus (GPa) = 14.63664 43.11463 28.87564
# Shear Modulus (GPa) = 14.88590 32.47807 23.68199
#
# Velocity S-wave (km/s) = 2.65269 3.91827 3.34587
# Velocity P-wave (km/s) = 4.03749 6.39151 5.34569
#
# Compressibility (1/GPa) = 0.06832168
#
# Stress axis : x y z
#
# Youngs Moduli (GPa) = 26.89977 90.59401 34.87626
#
# Poissons Ratio (x) = 0.04901 0.14339
# Poissons Ratio (y) = 0.01455 -0.01291
# Poissons Ratio (z) = 0.11060 -0.03354
#
# Static dielectric constant tensor:
#      x y z
#    x 1.763550 0.000000 -0.009350 
#    y 0.000000 1.815670 0.000000 
#    z -0.009350 0.000000 1.788900 
# 
# From -- ./inp_files/351540.got.cif
#   From: 2010.05.17/outbox.cif.g08.bks.cpg/sg12_176_cif.got.tgz:351540.got - 2010.06.03 13:09:07.
