data_PCOD9210178
_publ_section_title
;
Structure prediction by ZEFSAII (Michael W. Deem and Ramdas Pophale) SiO2 
 PCOD9210178
Probable space group: C 2/M
;
_chemical_formula_sum "Si O2"
_cell_formula_units_Z 44
_cell_length_a 12.995216
_cell_length_b 13.141458
_cell_length_c 20.158162
_cell_angle_alpha 90.000000
_cell_angle_beta 147.031320
_cell_angle_gamma 90.000000
_cell_volume 1873.358799
_symmetry_space_group_name_H-M "C 2/M"
_symmetry_group_IT_number 12
_symmetry_cell_setting 'monoclinic'
loop_
_space_group_symop_operation_xyz
x,y,z
-x,y,-z
-x,-y,-z
x,-y,z
1/2+x,1/2+y,z
1/2-x,1/2+y,-z
1/2-x,1/2-y,-z
1/2+x,1/2-y,z
loop_
_atom_site_type_symbol
_atom_site_label
_atom_site_fract_x
_atom_site_fract_y
_atom_site_fract_z
Si Si1 0.812864 0.317288 0.377884
Si Si2 0.254271 0.000000 0.441974
Si Si3 0.000161 0.660030 0.784537
Si Si4 0.128106 0.000000 0.702043
Si Si5 0.215426 0.118671 0.181651
Si Si6 0.946097 0.336996 0.897589
Si Si7 0.223774 0.000000 0.576151
O O1 0.816155 0.403787 0.434523
O O2 0.604771 0.268059 0.271566
O O3 0.824362 0.361299 0.309810
O O4 0.000000 0.253059 0.500000
O O5 0.317289 0.000000 0.552306
O O6 0.026539 0.000000 0.323771
O O7 0.066322 0.639395 0.896052
O O8 0.820240 0.592305 0.666338
O O9 0.156497 0.640233 0.813825
O O10 0.253034 0.101813 0.775941
O O11 0.995465 0.000000 0.564651
O O12 0.072628 0.214784 0.106998
O O13 0.151090 0.000000 0.145441
O O14 0.000000 0.373880 0.000000
#
# Coordination Sequence:
#
# PCOD9210178 Si02
#       7
#     8   4   8   4   8   8   4
#     4  11  23  36  64  96 141 183 217 267 338 410
#     4  10  21  39  60  97 138 175 219 265 335 413
#     4  11  24  41  66 101 136 174 222 280 339 406
#     4  10  24  42  68 101 139 175 224 278 339 413
#     4  11  24  44  68 101 137 178 230 280 343 403
#     4  11  26  47  72  98 133 182 237 286 338 396
#     4  10  23  37  66  98 136 170 215 269 337 405
#
# _framework density 23.487223
#
# number of rings (size 3 to 8) (size 9 to 14) (size 15 to 20)
#    0.545    0.727    1.818    3.273    5.091    3.273 
#    0.000    0.000    0.000    0.000    0.000    0.000 
#    0.000    0.000    0.000    0.000    0.000    0.000 
#
# Total GULP energy -122648.103834 kJ/mol
# GULP energy per Si atom -5574.913811 kJ/mol
# Density = 2.343377 g / cm^3
# Si number density = 23.487223 Si / 1000 Ang^3
#
#
#
# Elastic Constant Matrix: (Units=GPa)
#
#
# Indices 1 2 3 4 5 6 
#
# 1 109.5334 25.1020 33.5142 0.0000 -42.9752 0.0000
# 2 25.1020 97.9935 19.5781 0.0001 -13.2511 0.0000
# 3 33.5142 19.5781 126.5643 0.0002 -58.7563 0.0000
# 4 0.0000 0.0001 0.0002 -45.7157 0.0001 37.9373
# 5 -42.9752 -13.2511 -58.7563 0.0001 48.3948 0.0000
# 6 0.0000 0.0000 0.0000 37.9373 0.0000 -8.3193
#
#
#
# Elastic Compliance Matrix: (Units=1/GPa)
#
#
# Indices 1 2 3 4 5 6 
#
# 1 0.015917 -0.002454 0.005533 0.000000 0.020180 0.000000
# 2 -0.002454 0.011000 -0.001524 0.000000 -0.001018 0.000000
# 3 0.005533 -0.001524 0.020073 0.000000 0.028867 0.000000
# 4 0.000000 0.000000 0.000000 0.007856 0.000000 0.035826
# 5 0.020180 -0.001018 0.028867 0.000000 0.073352 0.000000
# 6 0.000000 0.000000 0.000000 0.035826 0.000000 0.043172
#
#
# Mechanical properties :
#
#
# Convention : Reuss Voigt Hill
#
# Bulk Modulus (GPa) = 19.95995 54.49778 37.22886
# Shear Modulus (GPa) = 27.03287 15.93176 21.48232
#
# Velocity S-wave (km/s) = 3.39626 2.60728 3.02758
# Velocity P-wave (km/s) = 4.88837 5.68484 5.30158
#
# Compressibility (1/GPa) = 0.05010034
#
# Stress axis : x y z
#
# Youngs Moduli (GPa) = 62.82727 90.90701 49.81863
#
# Poissons Ratio (x) = 0.22307 -0.27567
# Poissons Ratio (y) = 0.15417 0.07594
# Poissons Ratio (z) = -0.34765 0.13857
#
# Static dielectric constant tensor:
#      x y z
#    x 1.943070 0.000000 0.034690 
#    y 0.000000 2.076180 0.000000 
#    z 0.034690 0.000000 1.928790 
# 
# From -- ./inp_files/263081.got.cif
#   From: 2010.05.17/outbox.cif.g08.bks.cpg/sg12_132_cif.got.tgz:263081.got - 2010.06.03 13:09:07.
