data_PCOD9210922
_publ_section_title
;
Structure prediction by ZEFSAII (Michael W. Deem and Ramdas Pophale) SiO2 
 PCOD9210922
Probable space group: C 2/M
;
_chemical_formula_sum "Si O2"
_cell_formula_units_Z 64
_cell_length_a 21.303652
_cell_length_b 27.501945
_cell_length_c 15.303449
_cell_angle_alpha 90.000000
_cell_angle_beta 160.391706
_cell_angle_gamma 90.000000
_cell_volume 3008.937239
_symmetry_space_group_name_H-M "C 2/M"
_symmetry_group_IT_number 12
_symmetry_cell_setting 'monoclinic'
loop_
_space_group_symop_operation_xyz
x,y,z
-x,y,-z
-x,-y,-z
x,-y,z
1/2+x,1/2+y,z
1/2-x,1/2+y,-z
1/2-x,1/2-y,-z
1/2+x,1/2-y,z
loop_
_atom_site_type_symbol
_atom_site_label
_atom_site_fract_x
_atom_site_fract_y
_atom_site_fract_z
Si Si1 0.467138 0.581263 0.733269
Si Si2 0.660864 0.814928 0.158626
Si Si3 0.828425 0.645876 0.013356
Si Si4 0.063634 0.226264 0.213532
Si Si5 0.086010 0.946648 0.709833
Si Si6 0.690126 0.943329 0.694523
Si Si7 0.247533 0.125897 0.394290
Si Si8 0.454982 0.687857 0.238532
O O1 0.445119 0.556672 0.608671
O O2 0.308852 0.589681 0.599638
O O3 0.517990 0.635197 0.769239
O O4 0.640952 0.558928 0.014095
O O5 0.848336 0.802484 0.456004
O O6 0.500000 0.844017 0.000000
O O7 0.712494 0.844856 0.141170
O O8 0.550409 0.766659 0.986936
O O9 0.045761 0.645954 0.317790
O O10 0.742050 0.594135 0.926234
O O11 0.715550 0.685565 0.920023
O O12 0.250000 0.250000 0.500000
O O13 0.118616 0.175155 0.237621
O O14 0.929913 0.219471 0.121282
O O15 0.000000 0.940092 0.500000
O O16 0.171620 0.000000 0.824793
O O17 0.500000 0.930753 0.500000
O O18 0.743177 0.905359 0.684741
O O19 0.672353 0.000000 0.640463
#
# Coordination Sequence:
#
# PCOD9210922 Si02
#       8
#     8   8   8   8   8   8   8   8
#     4  10  21  41  65  95 134 177 223 277 340 422
#     4  12  22  39  66  89 126 175 225 281 343 417
#     4  11  22  40  65  93 131 171 225 282 343 414
#     4  11  22  44  63  94 132 180 229 288 350 417
#     4  10  21  39  64  95 131 173 224 286 352 416
#     4  11  24  43  70 104 141 185 234 289 363 432
#     4  11  24  42  67  98 136 185 231 290 344 423
#     4  10  22  40  63  94 125 168 222 274 346 406
#
# _framework density 21.269967999999999
#
# number of rings (size 3 to 8) (size 9 to 14) (size 15 to 20)
#    0.000    1.250    2.500    4.875    0.000    5.500 
#    0.000    0.000    0.000    1.875    0.000    0.000 
#    0.000    0.000    0.000    0.000    0.000    0.000 
#
# Total GULP energy -178364.459553 kJ/mol
# GULP energy per Si atom -5573.889361 kJ/mol
# Density = 2.122156 g / cm^3
# Si number density = 21.269968 Si / 1000 Ang^3
#
#
#
# Elastic Constant Matrix: (Units=GPa)
#
#
# Indices 1 2 3 4 5 6 
#
# 1 174.5287 43.8117 40.6020 0.0000 5.5085 0.0001
# 2 43.8117 94.3192 12.8616 0.0000 3.1342 0.0000
# 3 40.6020 12.8616 60.9840 0.0000 19.2398 0.0000
# 4 0.0000 0.0000 0.0000 29.6252 0.0000 -3.7999
# 5 5.5085 3.1342 19.2398 0.0000 31.8854 0.0000
# 6 0.0001 0.0000 0.0000 -3.7999 0.0000 30.4225
#
#
#
# Elastic Compliance Matrix: (Units=1/GPa)
#
#
# Indices 1 2 3 4 5 6 
#
# 1 0.007572 -0.002893 -0.005074 0.000000 0.002038 0.000000
# 2 -0.002893 0.012026 -0.000488 0.000000 -0.000388 0.000000
# 3 -0.005074 -0.000488 0.024193 0.000000 -0.013673 0.000000
# 4 0.000000 0.000000 0.000000 0.034305 0.000000 0.004285
# 5 0.002038 -0.000388 -0.013673 0.000000 0.039299 0.000000
# 6 0.000000 0.000000 0.000000 0.004285 0.000000 0.033406
#
#
# Mechanical properties :
#
#
# Convention : Reuss Voigt Hill
#
# Bulk Modulus (GPa) = 37.20163 58.26475 47.73319
# Shear Modulus (GPa) = 28.30144 33.89039 31.09592
#
# Velocity S-wave (km/s) = 3.65167 3.99600 3.82771
# Velocity P-wave (km/s) = 5.94204 6.98163 6.48271
#
# Compressibility (1/GPa) = 0.02688055
#
# Stress axis : x y z
#
# Youngs Moduli (GPa) = 132.06408 83.15649 41.33481
#
# Poissons Ratio (x) = 0.24058 0.20974
# Poissons Ratio (y) = 0.38207 0.02016
# Poissons Ratio (z) = 0.67012 0.04055
#
# Static dielectric constant tensor:
#      x y z
#    x 1.863770 0.000000 -0.003110 
#    y 0.000000 1.799660 0.000000 
#    z -0.003110 0.000000 1.744170 
# 
# From -- ./inp_files/236031.got.cif
#   From: 2010.05.17/outbox.cif.g08.bks.cpg/sg12_119_cif.got.tgz:236031.got - 2010.06.03 13:09:07.
