data_PCOD9210528
_publ_section_title
;
Structure prediction by ZEFSAII (Michael W. Deem and Ramdas Pophale) SiO2 
 PCOD9210528
Probable space group: C 2/M
;
_chemical_formula_sum "Si O2"
_cell_formula_units_Z 64
_cell_length_a 9.583478
_cell_length_b 28.639511
_cell_length_c 14.374505
_cell_angle_alpha 90.000000
_cell_angle_beta 131.734368
_cell_angle_gamma 90.000000
_cell_volume 2944.147749
_symmetry_space_group_name_H-M "C 2/M"
_symmetry_group_IT_number 12
_symmetry_cell_setting 'monoclinic'
loop_
_space_group_symop_operation_xyz
x,y,z
-x,y,-z
-x,-y,-z
x,-y,z
1/2+x,1/2+y,z
1/2-x,1/2+y,-z
1/2-x,1/2-y,-z
1/2+x,1/2-y,z
loop_
_atom_site_type_symbol
_atom_site_label
_atom_site_fract_x
_atom_site_fract_y
_atom_site_fract_z
Si Si1 0.863749 0.843976 0.851867
Si Si2 0.957476 0.135465 0.243040
Si Si3 0.811872 0.050699 0.856114
Si Si4 0.211332 0.447221 0.129172
Si Si5 0.517500 0.792271 0.337986
Si Si6 0.605578 0.052263 0.291656
Si Si7 0.153047 0.383927 0.492284
Si Si8 0.862198 0.800479 0.360607
O O1 0.811980 0.898486 0.809386
O O2 0.676209 0.814956 0.782832
O O3 0.970574 0.829976 0.805412
O O4 0.000000 0.841396 0.000000
O O5 0.838576 0.093579 0.146017
O O6 0.838745 0.163582 0.266179
O O7 0.139640 0.115001 0.374925
O O8 0.617916 0.052263 0.827654
O O9 0.804221 0.000000 0.801538
O O10 0.000000 0.049666 0.000000
O O11 0.276278 0.500000 0.136988
O O12 0.208411 0.440353 0.239760
O O13 0.000000 0.443372 0.000000
O O14 0.602760 0.830250 0.446902
O O15 0.668951 0.787201 0.323868
O O16 0.469517 0.744494 0.368136
O O17 0.642450 0.088184 0.390660
O O18 0.653387 0.000000 0.346024
O O19 0.000000 0.400986 0.500000
O O20 0.000000 0.821619 0.500000
#
# Coordination Sequence:
#
# PCOD9210528 Si02
#       8
#     8   8   8   8   8   8   8   8
#     4  11  25  44  68  98 138 181 226 284 342 400
#     4  12  26  42  69 106 132 178 230 275 343 407
#     4   9  18  33  61  93 127 173 227 271 322 389
#     4  10  25  45  68  97 138 187 237 283 327 398
#     4  12  24  45  70 101 137 174 225 283 344 408
#     4  10  21  39  62  93 135 181 222 274 341 393
#     4  12  23  41  66  99 141 174 221 285 343 410
#     4  12  26  43  73 103 134 175 223 279 341 416
#
# _framework density 21.738039000000001
#
# number of rings (size 3 to 8) (size 9 to 14) (size 15 to 20)
#    0.000    1.000    3.750    2.250    3.500    1.250 
#    0.000    4.375    0.000    0.000    0.000    0.000 
#    0.000    0.000    0.000    0.000    0.000    0.000 
#
# Total GULP energy -178892.226527 kJ/mol
# GULP energy per Si atom -5590.382079 kJ/mol
# Density = 2.168856 g / cm^3
# Si number density = 21.738039 Si / 1000 Ang^3
#
#
#
# Elastic Constant Matrix: (Units=GPa)
#
#
# Indices 1 2 3 4 5 6 
#
# 1 125.0598 10.6629 13.5243 0.0000 0.8507 0.0000
# 2 10.6629 67.1257 7.4634 0.0000 -2.1251 0.0000
# 3 13.5243 7.4634 67.9343 0.0000 4.5459 0.0000
# 4 0.0000 0.0000 0.0000 20.7129 0.0000 -14.9842
# 5 0.8507 -2.1251 4.5459 0.0000 28.7342 0.0000
# 6 0.0000 0.0000 0.0000 -14.9842 0.0000 -30.5686
#
#
#
# Elastic Compliance Matrix: (Units=1/GPa)
#
#
# Indices 1 2 3 4 5 6 
#
# 1 0.008258 -0.001147 -0.001512 0.000000 -0.000090 0.000000
# 2 -0.001147 0.015296 -0.001547 0.000000 0.001410 0.000000
# 3 -0.001512 -0.001547 0.015358 0.000000 -0.002499 0.000000
# 4 0.000000 0.000000 0.000000 0.035641 0.000000 -0.017470
# 5 -0.000090 0.001410 -0.002499 0.000000 0.035304 0.000000
# 6 0.000000 0.000000 0.000000 -0.017470 0.000000 -0.024150
#
#
# Mechanical properties :
#
#
# Convention : Reuss Voigt Hill
#
# Bulk Modulus (GPa) = 32.78445 35.93566 34.36005
# Shear Modulus (GPa) = 47.94550 19.00699 33.47624
#
# Velocity S-wave (km/s) = 4.70148 2.96018 3.92852
# Velocity P-wave (km/s) = 6.67729 5.31513 6.03477
#
# Compressibility (1/GPa) = 0.03050227
#
# Stress axis : x y z
#
# Youngs Moduli (GPa) = 121.09382 65.37594 65.11150
#
# Poissons Ratio (x) = 0.07496 0.09845
# Poissons Ratio (y) = 0.13884 0.10070
# Poissons Ratio (z) = 0.18310 0.10111
#
# Static dielectric constant tensor:
#      x y z
#    x 1.833250 0.000000 -0.010050 
#    y 0.000000 1.809700 0.000000 
#    z -0.010050 0.000000 1.760870 
# 
# From -- ./inp_files/201241.got.cif
#   From: 2010.05.17/outbox.cif.g08.bks.cpg/sg12_101_cif.got.tgz:201241.got - 2010.06.03 13:09:07.
