data_PCOD9210810
_publ_section_title
;
Structure prediction by ZEFSAII (Michael W. Deem and Ramdas Pophale) SiO2 
 PCOD9210810
Probable space group: C 2/M
;
_chemical_formula_sum "Si O2"
_cell_formula_units_Z 48
_cell_length_a 19.152395
_cell_length_b 8.579348
_cell_length_c 15.158611
_cell_angle_alpha 90.000000
_cell_angle_beta 81.341857
_cell_angle_gamma 90.000000
_cell_volume 2462.403394
_symmetry_space_group_name_H-M "C 2/M"
_symmetry_group_IT_number 12
_symmetry_cell_setting 'monoclinic'
loop_
_space_group_symop_operation_xyz
x,y,z
-x,y,-z
-x,-y,-z
x,-y,z
1/2+x,1/2+y,z
1/2-x,1/2+y,-z
1/2-x,1/2-y,-z
1/2+x,1/2-y,z
loop_
_atom_site_type_symbol
_atom_site_label
_atom_site_fract_x
_atom_site_fract_y
_atom_site_fract_z
Si Si1 0.797073 0.681987 0.069246
Si Si2 0.966468 0.309844 0.412839
Si Si3 0.071245 0.821926 0.042422
Si Si4 0.235339 0.684575 0.256962
Si Si5 0.074826 0.311167 0.237866
Si Si6 0.304781 0.814504 0.418462
O O1 0.783457 0.500000 0.085949
O O2 0.777522 0.774999 0.160502
O O3 0.750000 0.750000 0.000000
O O4 0.875595 0.711771 0.020449
O O5 0.966154 0.500000 0.413515
O O6 0.885384 0.257053 0.416983
O O7 0.000000 0.259975 0.500000
O O8 0.016318 0.264050 0.321270
O O9 0.062630 0.763161 0.144244
O O10 0.099241 0.000000 0.039492
O O11 0.000000 0.823052 0.000000
O O12 0.235858 0.500000 0.273694
O O13 0.153436 0.731017 0.257300
O O14 0.273559 0.768928 0.329934
O O15 0.073058 0.500000 0.229275
O O16 0.250000 0.750000 0.500000
O O17 0.307184 0.000000 0.426658
#
# Coordination Sequence:
#
# PCOD9210810 Si02
#       6
#     8   8   8   8   8   8
#     4  12  24  41  65  93 126 168 215 261 313 376
#     4   9  19  38  63  90 119 156 204 253 306 371
#     4  11  25  42  61  90 128 168 210 263 318 370
#     4  11  23  40  64  93 126 164 207 259 314 374
#     4  10  21  39  64  90 118 163 212 256 310 373
#     4  11  23  40  64  94 125 161 205 259 315 377
#
# _framework density 19.493151000000001
#
# number of rings (size 3 to 8) (size 9 to 14) (size 15 to 20)
#    0.000    1.333    1.667    4.000    2.333    4.667 
#    0.000    0.833    0.000    3.500    0.000    0.000 
#    0.000    0.000    0.000    0.000    0.000    0.000 
#
# Total GULP energy -134136.747846 kJ/mol
# GULP energy per Si atom -5589.031160 kJ/mol
# Density = 1.944878 g / cm^3
# Si number density = 19.493151 Si / 1000 Ang^3
#
#
#
# Elastic Constant Matrix: (Units=GPa)
#
#
# Indices 1 2 3 4 5 6 
#
# 1 140.6430 21.6161 82.4775 0.0000 0.5466 0.0000
# 2 21.6161 30.5045 -0.1642 0.0000 5.0144 0.0000
# 3 82.4775 -0.1642 145.1255 0.0000 -2.4361 0.0000
# 4 0.0000 0.0000 0.0000 36.9417 0.0000 1.6126
# 5 0.5466 5.0144 -2.4361 0.0000 36.9739 0.0000
# 6 0.0000 0.0000 0.0000 1.6126 0.0000 26.1999
#
#
#
# Elastic Compliance Matrix: (Units=1/GPa)
#
#
# Indices 1 2 3 4 5 6 
#
# 1 0.012780 -0.009191 -0.007264 0.000000 0.000579 0.000000
# 2 -0.009191 0.040139 0.005185 0.000000 -0.004966 0.000000
# 3 -0.007264 0.005185 0.011027 0.000000 0.000131 0.000000
# 4 0.000000 0.000000 0.000000 0.027143 0.000000 -0.001671
# 5 0.000579 -0.004966 0.000131 0.000000 0.027720 0.000000
# 6 0.000000 0.000000 0.000000 -0.001671 0.000000 0.038271
#
#
# Mechanical properties :
#
#
# Convention : Reuss Voigt Hill
#
# Bulk Modulus (GPa) = 24.15019 58.23685 41.19352
# Shear Modulus (GPa) = 25.85039 34.17934 30.01486
#
# Velocity S-wave (km/s) = 3.64555 4.19191 3.92824
# Velocity P-wave (km/s) = 5.48963 7.30547 6.46165
#
# Compressibility (1/GPa) = 0.04140754
#
# Stress axis : x y z
#
# Youngs Moduli (GPa) = 78.24522 24.91342 90.68729
#
# Poissons Ratio (x) = 0.22897 0.65875
# Poissons Ratio (y) = 0.71913 -0.47024
# Poissons Ratio (z) = 0.56837 -0.12918
#
# Static dielectric constant tensor:
#      x y z
#    x 1.696690 0.000000 0.139620 
#    y 0.000000 1.667700 0.000000 
#    z 0.139620 0.000000 2.236050 
# 
# From -- ./inp_files/221697.got.cif
#   From: 2010.05.17/outbox.cif.g08.bks.cpg/sg12_111_cif.got.tgz:221697.got - 2010.06.03 13:09:07.
