data_PCOD9210190
_publ_section_title
;
Structure prediction by ZEFSAII (Michael W. Deem and Ramdas Pophale) SiO2 
 PCOD9210190
Probable space group: C 2/M
;
_chemical_formula_sum "Si O2"
_cell_formula_units_Z 40
_cell_length_a 14.478630
_cell_length_b 30.629726
_cell_length_c 8.628480
_cell_angle_alpha 90.000000
_cell_angle_beta 29.272274
_cell_angle_gamma 90.000000
_cell_volume 1871.020555
_symmetry_space_group_name_H-M "C 2/M"
_symmetry_group_IT_number 12
_symmetry_cell_setting 'monoclinic'
loop_
_space_group_symop_operation_xyz
x,y,z
-x,y,-z
-x,-y,-z
x,-y,z
1/2+x,1/2+y,z
1/2-x,1/2+y,-z
1/2-x,1/2-y,-z
1/2+x,1/2-y,z
loop_
_atom_site_type_symbol
_atom_site_label
_atom_site_fract_x
_atom_site_fract_y
_atom_site_fract_z
Si Si1 0.294460 0.500000 0.737211
Si Si2 0.697694 0.730003 0.304759
Si Si3 0.361205 0.840926 0.842564
Si Si4 0.453257 0.315440 0.904521
Si Si5 0.209420 0.000000 0.628157
Si Si6 0.995027 0.573776 0.820406
O O1 0.500000 0.500000 0.500000
O O2 0.294629 0.500000 0.551749
O O3 0.181157 0.542367 0.955060
O O4 0.500000 0.735012 0.500000
O O5 0.634270 0.705799 0.554622
O O6 0.827619 0.697927 0.012657
O O7 0.813015 0.774749 0.149032
O O8 0.500000 0.829879 0.500000
O O9 0.454068 0.881615 0.793038
O O10 0.156913 0.845954 0.056897
O O11 0.500000 0.337124 0.000000
O O12 0.326703 0.955702 0.494684
O O13 0.000000 0.000000 0.000000
O O14 0.000000 0.580489 0.000000
#
# Coordination Sequence:
#
# PCOD9210190 Si02
#       6
#     4   8   8   8   4   8
#     4   9  19  37  64  90 120 158 195 238 297 372
#     4  10  21  39  61  83 115 160 209 259 304 359
#     4  11  23  39  57  85 124 160 198 251 307 361
#     4  11  22  38  61  88 117 159 210 255 304 364
#     4   9  19  41  68  94 117 152 205 252 302 374
#     4   9  21  41  63  88 122 162 200 247 307 366
#
# _framework density 21.378706000000001
#
# number of rings (size 3 to 8) (size 9 to 14) (size 15 to 20)
#    0.000    2.000    0.000    6.000    0.000    6.400 
#    0.000   11.000    0.000    0.000    0.000    2.100 
#    0.000    0.000    0.000    0.000    0.000    0.000 
#
# Total GULP energy -111740.553676 kJ/mol
# GULP energy per Si atom -5587.027684 kJ/mol
# Density = 2.133005 g / cm^3
# Si number density = 21.378706 Si / 1000 Ang^3
#
#
#
# Elastic Constant Matrix: (Units=GPa)
#
#
# Indices 1 2 3 4 5 6 
#
# 1 77.8769 43.9935 15.2759 0.0000 -5.2864 0.0000
# 2 43.9935 108.2851 44.5987 0.0000 -9.9490 0.0000
# 3 15.2759 44.5987 133.8517 0.0000 -0.4488 0.0000
# 4 0.0000 0.0000 0.0000 -5.0841 0.0000 10.1518
# 5 -5.2864 -9.9490 -0.4488 0.0000 31.3057 0.0000
# 6 0.0000 0.0000 0.0000 10.1518 0.0000 17.9151
#
#
#
# Elastic Compliance Matrix: (Units=1/GPa)
#
#
# Indices 1 2 3 4 5 6 
#
# 1 0.016697 -0.006886 0.000391 0.000000 0.000637 0.000000
# 2 -0.006886 0.013907 -0.003837 0.000000 0.003202 0.000000
# 3 0.000391 -0.003837 0.008701 0.000000 -0.001029 0.000000
# 4 0.000000 0.000000 0.000000 -0.092278 0.000000 0.052291
# 5 0.000637 0.003202 -0.001029 0.000000 0.033053 0.000000
# 6 0.000000 0.000000 0.000000 0.052291 0.000000 0.026188
#
#
# Mechanical properties :
#
#
# Convention : Reuss Voigt Hill
#
# Bulk Modulus (GPa) = 53.64481 58.63887 56.14184
# Shear Modulus (GPa) = 150.84163 23.23704 87.03933
#
# Velocity S-wave (km/s) = 8.40893 3.30043 6.38760
# Velocity P-wave (km/s) = 10.92828 6.48166 8.98441
#
# Compressibility (1/GPa) = 0.01864113
#
# Stress axis : x y z
#
# Youngs Moduli (GPa) = 59.88940 71.90537 114.92404
#
# Poissons Ratio (x) = 0.49516 -0.04494
# Poissons Ratio (y) = 0.41242 0.44098
# Poissons Ratio (z) = -0.02342 0.27591
#
# Static dielectric constant tensor:
#      x y z
#    x 1.817910 0.000000 -0.012740 
#    y 0.000000 1.872220 0.000000 
#    z -0.012740 0.000000 1.780310 
# 
# From -- ./inp_files/68505.got.cif
#   From: 2010.05.17/outbox.cif.g08.bks.cpg/sg12_35_cif.got.tgz:68505.got - 2010.06.03 13:09:07.
