data_PCOD9210392
_publ_section_title
;
Structure prediction by ZEFSAII (Michael W. Deem and Ramdas Pophale) SiO2 
 PCOD9210392
Probable space group: C 2/M
;
_chemical_formula_sum "Si O2"
_cell_formula_units_Z 64
_cell_length_a 15.103261
_cell_length_b 8.572101
_cell_length_c 29.520748
_cell_angle_alpha 90.000000
_cell_angle_beta 131.380733
_cell_angle_gamma 90.000000
_cell_volume 2867.739168
_symmetry_space_group_name_H-M "C 2/M"
_symmetry_group_IT_number 12
_symmetry_cell_setting 'monoclinic'
loop_
_space_group_symop_operation_xyz
x,y,z
-x,y,-z
-x,-y,-z
x,-y,z
1/2+x,1/2+y,z
1/2-x,1/2+y,-z
1/2-x,1/2-y,-z
1/2+x,1/2-y,z
loop_
_atom_site_type_symbol
_atom_site_label
_atom_site_fract_x
_atom_site_fract_y
_atom_site_fract_z
Si Si1 0.525444 0.811689 0.147273
Si Si2 0.879599 0.683054 0.230774
Si Si3 0.746676 0.183751 0.549186
Si Si4 0.493935 0.813164 0.636388
Si Si5 0.345101 0.816755 0.895324
Si Si6 0.259308 0.815179 0.053443
Si Si7 0.884847 0.814536 0.734089
Si Si8 0.360224 0.189614 0.397766
O O1 0.553579 0.763835 0.105220
O O2 0.391379 0.770591 0.114348
O O3 0.611143 0.728925 0.211635
O O4 0.539221 0.000000 0.155017
O O5 0.853562 0.500000 0.214723
O O6 0.903281 0.710536 0.292058
O O7 0.775203 0.780770 0.173120
O O8 0.004700 0.724516 0.250232
O O9 0.750000 0.250000 0.500000
O O10 0.653941 0.244839 0.555297
O O11 0.877483 0.222008 0.611703
O O12 0.727944 0.000000 0.539340
O O13 0.535509 0.761129 0.600519
O O14 0.469066 0.000000 0.627240
O O15 0.332830 0.741449 0.940301
O O16 0.358336 0.000000 0.906721
O O17 0.254578 0.000000 0.049431
O O18 0.250000 0.750000 0.000000
O O19 0.761846 0.771077 0.669083
O O20 0.901029 0.000000 0.733874
O O21 0.367877 0.000000 0.401871
#
# Coordination Sequence:
#
# PCOD9210392 Si02
#       8
#     8   8   8   8   8   8   8   8
#     4  10  23  41  61  89 125 159 195 245 305 354
#     4  11  21  35  59  91 126 157 192 242 300 357
#     4  11  23  41  61  84 116 153 200 249 297 351
#     4  10  21  39  62  87 117 156 196 238 294 353
#     4  11  23  40  63  91 122 160 201 244 299 360
#     4  11  24  43  64  87 120 160 204 255 304 354
#     4  11  20  35  62  91 121 159 201 239 291 361
#     4   9  20  38  60  86 118 155 194 238 292 354
#
# _framework density 22.317231
#
# number of rings (size 3 to 8) (size 9 to 14) (size 15 to 20)
#    0.000    1.500    2.500    2.625    0.000    4.000 
#    0.000    7.500    0.000    0.000    0.000    0.000 
#    0.000    0.000    0.000    0.000    0.000    0.000 
#
# Total GULP energy -178910.544031 kJ/mol
# GULP energy per Si atom -5590.954501 kJ/mol
# Density = 2.226644 g / cm^3
# Si number density = 22.317231 Si / 1000 Ang^3
#
#
#
# Elastic Constant Matrix: (Units=GPa)
#
#
# Indices 1 2 3 4 5 6 
#
# 1 125.6259 14.5762 6.4001 0.0000 -34.5736 0.0000
# 2 14.5762 16.6185 10.1737 0.0000 -13.7847 0.0000
# 3 6.4001 10.1737 54.8509 0.0000 -30.5136 0.0000
# 4 0.0000 0.0000 0.0000 29.4443 0.0000 -7.2580
# 5 -34.5736 -13.7847 -30.5136 0.0000 40.9420 0.0000
# 6 0.0000 0.0000 0.0000 -7.2580 0.0000 24.8426
#
#
#
# Elastic Compliance Matrix: (Units=1/GPa)
#
#
# Indices 1 2 3 4 5 6 
#
# 1 0.011897 -0.002856 0.007167 0.000000 0.014426 0.000000
# 2 -0.002856 0.084179 -0.001461 0.000000 0.024841 0.000000
# 3 0.007167 -0.001461 0.035462 0.000000 0.031989 0.000000
# 4 0.000000 0.000000 0.000000 0.036598 0.000000 0.010692
# 5 0.014426 0.024841 0.031989 0.000000 0.068812 0.000000
# 6 0.000000 0.000000 0.000000 0.010692 0.000000 0.043377
#
#
# Mechanical properties :
#
#
# Convention : Reuss Voigt Hill
#
# Bulk Modulus (GPa) = 7.28670 28.82172 18.05421
# Shear Modulus (GPa) = 15.60696 30.10881 22.85788
#
# Velocity S-wave (km/s) = 2.64734 3.67703 3.20382
# Velocity P-wave (km/s) = 3.55200 5.56507 4.66834
#
# Compressibility (1/GPa) = 0.13723629
#
# Stress axis : x y z
#
# Youngs Moduli (GPa) = 84.05819 11.87948 28.19953
#
# Poissons Ratio (x) = 0.03393 -0.20210
# Poissons Ratio (y) = 0.24008 0.04120
# Poissons Ratio (z) = -0.60242 0.01735
#
# Static dielectric constant tensor:
#      x y z
#    x 1.949270 0.000000 -0.094870 
#    y 0.000000 1.749310 0.000000 
#    z -0.094870 0.000000 1.912360 
# 
# From -- ./inp_files/338869.got.cif
#   From: 2010.05.17/outbox.cif.g08.bks.cpg/sg12_170_cif.got.tgz:338869.got - 2010.06.03 13:09:07.
