data_PCOD9210400
_publ_section_title
;
Structure prediction by ZEFSAII (Michael W. Deem and Ramdas Pophale) SiO2 
 PCOD9210400
Probable space group: C 2/M
;
_chemical_formula_sum "Si O2"
_cell_formula_units_Z 46
_cell_length_a 8.359001
_cell_length_b 30.522019
_cell_length_c 14.562841
_cell_angle_alpha 90.000000
_cell_angle_beta 36.596430
_cell_angle_gamma 90.000000
_cell_volume 2215.069696
_symmetry_space_group_name_H-M "C 2/M"
_symmetry_group_IT_number 12
_symmetry_cell_setting 'monoclinic'
loop_
_space_group_symop_operation_xyz
x,y,z
-x,y,-z
-x,-y,-z
x,-y,z
1/2+x,1/2+y,z
1/2-x,1/2+y,-z
1/2-x,1/2-y,-z
1/2+x,1/2-y,z
loop_
_atom_site_type_symbol
_atom_site_label
_atom_site_fract_x
_atom_site_fract_y
_atom_site_fract_z
Si Si1 0.000000 0.000000 0.500000
Si Si2 0.886272 0.683829 0.747157
Si Si3 0.681504 0.270376 0.670591
Si Si4 0.797466 0.068631 0.746299
Si Si5 0.579148 0.341034 0.569175
Si Si6 0.500000 0.618500 0.000000
Si Si7 0.829612 0.050212 0.943357
O O1 0.075510 0.037964 0.388976
O O2 0.679306 0.705825 0.770188
O O3 0.036957 0.723813 0.727980
O O4 0.097765 0.655906 0.588860
O O5 0.750369 0.651040 0.880341
O O6 0.547037 0.300948 0.654537
O O7 0.000000 0.265983 0.500000
O O8 0.862553 0.053132 0.819281
O O9 0.915709 0.117143 0.678530
O O10 0.474767 0.063772 0.889741
O O11 0.500000 0.333488 0.500000
O O12 0.487668 0.585942 0.091590
O O13 0.875890 0.000000 0.951126
#
# Coordination Sequence:
#
# PCOD9210400 Si02
#       7
#     2   8   8   8   8   4   8
#     4  12  20  38  68 106 120 158 218 272 298 346
#     4  11  23  40  59  88 122 161 210 255 308 374
#     4  10  21  39  62  87 121 161 202 258 317 366
#     4  11  22  39  70  96 126 160 216 260 304 363
#     4  11  20  35  63  94 122 158 206 261 306 366
#     4  12  27  40  62  88 126 172 206 253 322 374
#     4  11  23  45  62  89 130 173 203 253 317 380
#
# _framework density 20.766839999999998
#
# number of rings (size 3 to 8) (size 9 to 14) (size 15 to 20)
#    0.000    1.043    2.609    6.522    0.000    0.696 
#    0.000    1.739    0.000    2.087    0.000    0.000 
#    0.000    0.000    0.000    0.000    0.000    0.000 
#
# Total GULP energy -128201.494108 kJ/mol
# GULP energy per Si atom -5573.978005 kJ/mol
# Density = 2.071957 g / cm^3
# Si number density = 20.766840 Si / 1000 Ang^3
#
#
#
# Elastic Constant Matrix: (Units=GPa)
#
#
# Indices 1 2 3 4 5 6 
#
# 1 88.3259 51.9837 19.6172 0.0000 17.2603 0.0000
# 2 51.9837 180.5149 62.6799 0.0000 -1.6819 0.0000
# 3 19.6172 62.6799 73.7447 0.0000 13.4650 0.0000
# 4 0.0000 0.0000 0.0000 8.4612 0.0000 5.5840
# 5 17.2603 -1.6819 13.4650 0.0000 19.4509 0.0000
# 6 0.0000 0.0000 0.0000 5.5840 0.0000 24.4409
#
#
#
# Elastic Compliance Matrix: (Units=1/GPa)
#
#
# Indices 1 2 3 4 5 6 
#
# 1 0.018476 -0.007239 0.004974 0.000000 -0.020465 0.000000
# 2 -0.007239 0.011376 -0.010412 0.000000 0.014614 0.000000
# 3 0.004974 -0.010412 0.025248 0.000000 -0.022792 0.000000
# 4 0.000000 0.000000 0.000000 0.139171 0.000000 -0.031796
# 5 -0.020465 0.014614 -0.022792 0.000000 0.086613 0.000000
# 6 0.000000 0.000000 0.000000 -0.031796 0.000000 0.048179
#
#
# Mechanical properties :
#
#
# Convention : Reuss Voigt Hill
#
# Bulk Modulus (GPa) = 33.61578 67.90522 50.76050
# Shear Modulus (GPa) = 13.72376 24.35759 19.04067
#
# Velocity S-wave (km/s) = 2.57349 3.42849 3.03129
# Velocity P-wave (km/s) = 5.00528 6.96007 6.06199
#
# Compressibility (1/GPa) = 0.02974793
#
# Stress axis : x y z
#
# Youngs Moduli (GPa) = 54.12348 87.90742 39.60671
#
# Poissons Ratio (x) = 0.63632 -0.19701
# Poissons Ratio (y) = 0.39177 0.41237
# Poissons Ratio (z) = -0.26921 0.91526
#
# Static dielectric constant tensor:
#      x y z
#    x 1.803260 0.000000 -0.022800 
#    y 0.000000 1.734560 0.000000 
#    z -0.022800 0.000000 1.743470 
# 
# From -- ./inp_files/200173.got.cif
#   From: 2010.05.17/outbox.cif.g08.bks.cpg/sg12_101_cif.got.tgz:200173.got - 2010.06.03 13:09:07.
