data_PCOD9210805
_publ_section_title
;
Structure prediction by ZEFSAII (Michael W. Deem and Ramdas Pophale) SiO2 
 PCOD9210805
Probable space group: C 2/M
;
_chemical_formula_sum "Si O2"
_cell_formula_units_Z 48
_cell_length_a 9.828716
_cell_length_b 17.586345
_cell_length_c 14.995090
_cell_angle_alpha 90.000000
_cell_angle_beta 100.708817
_cell_angle_gamma 90.000000
_cell_volume 2546.778847
_symmetry_space_group_name_H-M "C 2/M"
_symmetry_group_IT_number 12
_symmetry_cell_setting 'monoclinic'
loop_
_space_group_symop_operation_xyz
x,y,z
-x,y,-z
-x,-y,-z
x,-y,z
1/2+x,1/2+y,z
1/2-x,1/2+y,-z
1/2-x,1/2-y,-z
1/2+x,1/2-y,z
loop_
_atom_site_type_symbol
_atom_site_label
_atom_site_fract_x
_atom_site_fract_y
_atom_site_fract_z
Si Si1 0.493246 0.678453 0.897195
Si Si2 0.456386 0.179762 0.760606
Si Si3 0.399125 0.253073 0.561925
Si Si4 0.742532 0.088282 0.787422
Si Si5 0.200901 0.912422 0.810901
Si Si6 0.558235 0.584426 0.355824
O O1 0.481333 0.748311 0.827652
O O2 0.357194 0.626749 0.864884
O O3 0.628617 0.630823 0.884334
O O4 0.500000 0.703268 0.000000
O O5 0.411710 0.210536 0.657913
O O6 0.598996 0.133209 0.770695
O O7 0.334506 0.129873 0.788990
O O8 0.500000 0.218864 0.500000
O O9 0.250000 0.250000 0.500000
O O10 0.436989 0.341277 0.583704
O O11 0.814732 0.091052 0.698755
O O12 0.722245 0.000000 0.808120
O O13 0.081157 0.911980 0.720457
O O14 0.231057 0.000000 0.836555
O O15 0.565140 0.500000 0.398490
#
# Coordination Sequence:
#
# PCOD9210805 Si02
#       6
#     8   8   8   8   8   8
#     4  11  24  41  67  93 122 166 211 254 313 382
#     4  12  23  40  63  94 133 161 205 268 313 369
#     4  12  24  37  62  93 125 168 215 258 311 368
#     4  10  21  39  64  89 125 166 203 254 319 371
#     4  10  21  39  65  91 124 166 206 251 310 370
#     4   9  19  39  61  85 121 166 208 254 307 369
#
# _framework density 18.847337
#
# number of rings (size 3 to 8) (size 9 to 14) (size 15 to 20)
#    0.000    1.333    3.333    5.000    0.000    4.333 
#    0.000    1.667    0.000    7.500    0.000    0.000 
#    0.000    0.000    0.000    0.000    0.000    0.000 
#
# Total GULP energy -134074.115508 kJ/mol
# GULP energy per Si atom -5586.421480 kJ/mol
# Density = 1.880444 g / cm^3
# Si number density = 18.847337 Si / 1000 Ang^3
#
#
#
# Elastic Constant Matrix: (Units=GPa)
#
#
# Indices 1 2 3 4 5 6 
#
# 1 128.1479 41.8984 40.4248 0.0000 -18.1377 0.0000
# 2 41.8984 110.6269 33.3871 0.0000 -11.5396 0.0000
# 3 40.4248 33.3871 106.0864 0.0000 -10.9057 0.0000
# 4 0.0000 0.0000 0.0000 4.5845 0.0000 7.0056
# 5 -18.1377 -11.5396 -10.9057 0.0000 15.6784 0.0000
# 6 0.0000 0.0000 0.0000 7.0056 0.0000 151.8085
#
#
#
# Elastic Compliance Matrix: (Units=1/GPa)
#
#
# Indices 1 2 3 4 5 6 
#
# 1 0.010579 -0.002367 -0.002377 0.000000 0.008843 0.000000
# 2 -0.002367 0.010989 -0.002161 0.000000 0.003847 0.000000
# 3 -0.002377 -0.002161 0.011380 0.000000 0.003575 0.000000
# 4 0.000000 0.000000 0.000000 0.234677 0.000000 -0.010830
# 5 0.008843 0.003847 0.003575 0.000000 0.079330 0.000000
# 6 0.000000 0.000000 0.000000 -0.010830 0.000000 0.007087
#
#
# Mechanical properties :
#
#
# Convention : Reuss Voigt Hill
#
# Bulk Modulus (GPa) = 52.25315 64.03130 58.14222
# Shear Modulus (GPa) = 13.36074 49.69100 31.52587
#
# Velocity S-wave (km/s) = 2.66539 5.14026 4.09430
# Velocity P-wave (km/s) = 6.10385 8.32328 7.29843
#
# Compressibility (1/GPa) = 0.01913760
#
# Stress axis : x y z
#
# Youngs Moduli (GPa) = 94.52906 90.99764 87.87517
#
# Poissons Ratio (x) = 0.21537 0.20890
# Poissons Ratio (y) = 0.22373 0.18991
# Poissons Ratio (z) = 0.22472 0.19666
#
# Static dielectric constant tensor:
#      x y z
#    x 1.631720 0.000000 -0.021590 
#    y 0.000000 1.655420 0.000000 
#    z -0.021590 0.000000 1.643220 
# 
# From -- ./inp_files/195910.got.cif
#   From: 2010.05.17/outbox.cif.g08.bks.cpg/sg12_98_cif.got.tgz:195910.got - 2010.06.03 13:09:07.
