data_PCOD9210704
_publ_section_title
;
Structure prediction by ZEFSAII (Michael W. Deem and Ramdas Pophale) SiO2 
 PCOD9210704
Probable space group: C 2/M
;
_chemical_formula_sum "Si O2"
_cell_formula_units_Z 64
_cell_length_a 19.056787
_cell_length_b 15.547672
_cell_length_c 14.461161
_cell_angle_alpha 90.000000
_cell_angle_beta 132.479763
_cell_angle_gamma 90.000000
_cell_volume 3160.018354
_symmetry_space_group_name_H-M "C 2/M"
_symmetry_group_IT_number 12
_symmetry_cell_setting 'monoclinic'
loop_
_space_group_symop_operation_xyz
x,y,z
-x,y,-z
-x,-y,-z
x,-y,z
1/2+x,1/2+y,z
1/2-x,1/2+y,-z
1/2-x,1/2-y,-z
1/2+x,1/2-y,z
loop_
_atom_site_type_symbol
_atom_site_label
_atom_site_fract_x
_atom_site_fract_y
_atom_site_fract_z
Si Si1 0.479280 0.899968 0.591245
Si Si2 0.774736 0.686106 0.436720
Si Si3 0.090919 0.094138 0.297363
Si Si4 0.197368 0.735934 0.176005
Si Si5 0.870806 0.264738 0.204941
Si Si6 0.025751 0.903677 0.629675
Si Si7 0.084196 0.405290 0.149606
Si Si8 0.031663 0.753902 0.896445
O O1 0.500000 0.900066 0.500000
O O2 0.382717 0.847035 0.527696
O O3 0.567048 0.846930 0.710841
O O4 0.472931 0.000000 0.615796
O O5 0.750000 0.750000 0.500000
O O6 0.702268 0.607383 0.384531
O O7 0.741867 0.727630 0.310129
O O8 0.064333 0.102503 0.381883
O O9 0.032028 0.165437 0.189540
O O10 0.060686 0.000000 0.239271
O O11 0.267814 0.766157 0.158478
O O12 0.176271 0.635333 0.180668
O O13 0.092440 0.763223 0.045103
O O14 0.911475 0.176506 0.284949
O O15 0.888813 0.257947 0.112202
O O16 0.000000 0.895694 0.500000
O O17 0.067019 0.000000 0.681016
O O18 0.101930 0.500000 0.206138
O O19 0.039102 0.329076 0.171430
O O20 0.000000 0.414786 0.000000
#
# Coordination Sequence:
#
# PCOD9210704 Si02
#       8
#     8   8   8   8   8   8   8   8
#     4  11  24  43  64  90 127 171 217 259 308 370
#     4  12  24  41  63  93 123 163 205 263 315 371
#     4  10  21  39  63  92 125 163 206 257 315 374
#     4  11  23  39  63  90 128 163 212 255 311 374
#     4  11  22  39  64  89 124 170 207 259 312 369
#     4   9  19  35  59  88 120 159 204 257 313 371
#     4   9  19  38  64  92 126 164 205 260 319 374
#     4  10  21  41  63  93 127 164 207 258 312 379
#
# _framework density 20.253046999999999
#
# number of rings (size 3 to 8) (size 9 to 14) (size 15 to 20)
#    0.000    1.625    2.500    2.625    1.750    1.000 
#    0.000    3.125    0.000    3.000    0.000    0.000 
#    0.000    0.000    0.000    0.000    0.000    0.000 
#
# Total GULP energy -178385.558732 kJ/mol
# GULP energy per Si atom -5574.548710 kJ/mol
# Density = 2.020695 g / cm^3
# Si number density = 20.253047 Si / 1000 Ang^3
#
#
#
# Elastic Constant Matrix: (Units=GPa)
#
#
# Indices 1 2 3 4 5 6 
#
# 1 111.2747 52.1775 37.8258 0.0000 22.7805 0.0000
# 2 52.1775 141.9480 50.8061 0.0000 1.0394 0.0000
# 3 37.8258 50.8061 71.3192 0.0000 2.8755 0.0000
# 4 0.0000 0.0000 0.0000 11.7866 0.0000 -13.7185
# 5 22.7805 1.0394 2.8755 0.0000 35.5100 0.0000
# 6 0.0000 0.0000 0.0000 -13.7185 0.0000 17.9743
#
#
#
# Elastic Compliance Matrix: (Units=1/GPa)
#
#
# Indices 1 2 3 4 5 6 
#
# 1 0.013863 -0.003388 -0.004600 0.000000 -0.008422 0.000000
# 2 -0.003388 0.010286 -0.005625 0.000000 0.002328 0.000000
# 3 -0.004600 -0.005625 0.020409 0.000000 0.001463 0.000000
# 4 0.000000 0.000000 0.000000 0.759721 0.000000 0.579841
# 5 -0.008422 0.002328 0.001463 0.000000 0.033377 0.000000
# 6 0.000000 0.000000 0.000000 0.579841 0.000000 0.498187
#
#
# Mechanical properties :
#
#
# Convention : Reuss Voigt Hill
#
# Bulk Modulus (GPa) = 57.69047 67.35119 62.52083
# Shear Modulus (GPa) = 3.65271 25.30302 14.47787
#
# Velocity S-wave (km/s) = 1.34442 3.53844 2.67657
# Velocity P-wave (km/s) = 5.56387 7.07256 6.36309
#
# Compressibility (1/GPa) = 0.01733389
#
# Stress axis : x y z
#
# Youngs Moduli (GPa) = 72.13417 97.21652 48.99811
#
# Poissons Ratio (x) = 0.32935 0.22537
# Poissons Ratio (y) = 0.24438 0.27560
# Poissons Ratio (z) = 0.33179 0.54682
#
# Static dielectric constant tensor:
#      x y z
#    x 1.787400 0.000000 -0.019570 
#    y 0.000000 1.738280 0.000000 
#    z -0.019570 0.000000 1.710350 
# 
# From -- ./inp_files/225771.got.cif
#   From: 2010.05.17/outbox.cif.g08.bks.cpg/sg12_113_cif.got.tgz:225771.got - 2010.06.03 13:09:07.
