data_PCOD9210625
_publ_section_title
;
Structure prediction by ZEFSAII (Michael W. Deem and Ramdas Pophale) SiO2 
 PCOD9210625
Probable space group: C 2/M
;
_chemical_formula_sum "Si O2"
_cell_formula_units_Z 56
_cell_length_a 19.652597
_cell_length_b 15.307989
_cell_length_c 8.429073
_cell_angle_alpha 90.000000
_cell_angle_beta 59.195927
_cell_angle_gamma 90.000000
_cell_volume 2178.072781
_symmetry_space_group_name_H-M "C 2/M"
_symmetry_group_IT_number 12
_symmetry_cell_setting 'monoclinic'
loop_
_space_group_symop_operation_xyz
x,y,z
-x,y,-z
-x,-y,-z
x,-y,z
1/2+x,1/2+y,z
1/2-x,1/2+y,-z
1/2-x,1/2-y,-z
1/2+x,1/2-y,z
loop_
_atom_site_type_symbol
_atom_site_label
_atom_site_fract_x
_atom_site_fract_y
_atom_site_fract_z
Si Si1 0.895489 0.399174 0.974419
Si Si2 0.618459 0.398189 0.902420
Si Si3 0.247994 0.606967 0.043179
Si Si4 0.318389 0.106238 0.390993
Si Si5 0.828334 0.102769 0.623266
Si Si6 0.979221 0.846301 0.278159
Si Si7 0.033754 0.348915 0.623813
O O1 0.872783 0.500000 0.016036
O O2 0.841019 0.365227 0.893904
O O3 0.866050 0.362407 0.175903
O O4 0.986737 0.395976 0.821406
O O5 0.623388 0.500000 0.844242
O O6 0.702999 0.364337 0.861703
O O7 0.558360 0.393998 0.125115
O O8 0.575355 0.346027 0.815407
O O9 0.250835 0.500000 0.053662
O O10 0.296809 0.636992 0.828530
O O11 0.372184 0.143291 0.468011
O O12 0.320444 0.000000 0.409086
O O13 0.920287 0.114327 0.478418
O O14 0.771189 0.132877 0.546507
O O15 0.812964 0.000000 0.650342
O O16 0.995192 0.749629 0.317719
O O17 0.000000 0.384677 0.500000
#
# Coordination Sequence:
#
# PCOD9210625 Si02
#       7
#     8   8   8   8   8   8   8
#     4   9  19  40  67  90 115 152 198 245 294 349
#     4  10  21  39  63  90 114 150 204 246 288 348
#     4   8  17  35  64  95 113 140 195 251 293 342
#     4   9  20  40  67  90 112 152 202 246 294 350
#     4   9  18  37  63  90 117 150 194 244 296 346
#     4  11  24  37  56  82 125 160 191 237 294 350
#     4  12  27  39  54  85 126 160 200 237 291 354
#
# _framework density 25.710801
#
# number of rings (size 3 to 8) (size 9 to 14) (size 15 to 20)
#    0.000    2.286    0.000    4.286    6.000    4.000 
#    0.000    5.714    0.000    0.000    0.000    0.000 
#    0.000    0.000    0.000    0.000    0.000    0.000 
#
# Total GULP energy -156457.099521 kJ/mol
# GULP energy per Si atom -5587.753554 kJ/mol
# Density = 2.565228 g / cm^3
# Si number density = 25.710801 Si / 1000 Ang^3
#
#
#
# Elastic Constant Matrix: (Units=GPa)
#
#
# Indices 1 2 3 4 5 6 
#
# 1 138.4625 -9.7159 11.8850 0.0000 9.6578 0.0000
# 2 -9.7159 35.0817 -4.9441 0.0000 4.0050 0.0000
# 3 11.8850 -4.9441 55.8681 0.0000 -5.0281 0.0000
# 4 0.0000 0.0000 0.0000 -8.7990 0.0000 19.5107
# 5 9.6578 4.0050 -5.0281 0.0000 48.5325 0.0000
# 6 0.0000 0.0000 0.0000 19.5107 0.0000 11.4536
#
#
#
# Elastic Compliance Matrix: (Units=1/GPa)
#
#
# Indices 1 2 3 4 5 6 
#
# 1 0.007637 0.002101 -0.001606 0.000000 -0.001860 0.000000
# 2 0.002101 0.029664 0.001938 0.000000 -0.002665 0.000000
# 3 -0.001606 0.001938 0.018600 0.000000 0.002087 0.000000
# 4 0.000000 0.000000 0.000000 -0.023790 0.000000 0.040525
# 5 -0.001860 -0.002665 0.002087 0.000000 0.021411 0.000000
# 6 0.000000 0.000000 0.000000 0.040525 0.000000 0.018276
#
#
# Mechanical properties :
#
#
# Convention : Reuss Voigt Hill
#
# Bulk Modulus (GPa) = 16.45596 24.87361 20.66479
# Shear Modulus (GPa) = 57.34706 25.71656 41.53181
#
# Velocity S-wave (km/s) = 4.72790 3.16606 4.02350
# Velocity P-wave (km/s) = 6.01817 4.80215 5.44422
#
# Compressibility (1/GPa) = 0.06076824
#
# Stress axis : x y z
#
# Youngs Moduli (GPa) = 130.93863 33.71063 53.76260
#
# Poissons Ratio (x) = -0.07083 0.08635
# Poissons Ratio (y) = -0.27511 -0.10421
# Poissons Ratio (z) = 0.21030 -0.06534
#
# Static dielectric constant tensor:
#      x y z
#    x 2.051900 0.000000 0.024430 
#    y 0.000000 1.975220 0.000000 
#    z 0.024430 0.000000 2.083400 
# 
# From -- ./inp_files/87249.got.cif
#   From: 2010.05.17/outbox.cif.g08.bks.cpg/sg12_44_cif.got.tgz:87249.got - 2010.06.03 13:09:07.
