data_PCOD9210746
_publ_section_title
;
Structure prediction by ZEFSAII (Michael W. Deem and Ramdas Pophale) SiO2 
 PCOD9210746
Probable space group: C 2/M
;
_chemical_formula_sum "Si O2"
_cell_formula_units_Z 42
_cell_length_a 19.765658
_cell_length_b 7.905630
_cell_length_c 16.342927
_cell_angle_alpha 90.000000
_cell_angle_beta 132.295441
_cell_angle_gamma 90.000000
_cell_volume 1888.966277
_symmetry_space_group_name_H-M "C 2/M"
_symmetry_group_IT_number 12
_symmetry_cell_setting 'monoclinic'
loop_
_space_group_symop_operation_xyz
x,y,z
-x,y,-z
-x,-y,-z
x,-y,z
1/2+x,1/2+y,z
1/2-x,1/2+y,-z
1/2-x,1/2-y,-z
1/2+x,1/2-y,z
loop_
_atom_site_type_symbol
_atom_site_label
_atom_site_fract_x
_atom_site_fract_y
_atom_site_fract_z
Si Si1 0.409699 0.797589 0.169531
Si Si2 0.802360 0.806243 0.239554
Si Si3 0.303682 0.198650 0.417413
Si Si4 0.880089 0.295249 0.654241
Si Si5 0.500000 0.000000 0.000000
Si Si6 0.881699 0.187685 0.976490
O O1 0.375093 0.742709 0.230084
O O2 0.516067 0.747801 0.244106
O O3 0.402696 0.000000 0.159299
O O4 0.356443 0.713389 0.051381
O O5 0.834695 0.782166 0.358732
O O6 0.710929 0.698726 0.151181
O O7 0.775632 0.000000 0.205635
O O8 0.195500 0.228318 0.344483
O O9 0.351036 0.262256 0.539434
O O10 0.322048 0.000000 0.426502
O O11 0.874260 0.500000 0.652195
O O12 0.556239 0.152048 0.996877
O O13 0.922239 0.000000 0.000170
#
# Coordination Sequence:
#
# PCOD9210746 Si02
#       6
#     8   8   8   8   2   8
#     4  11  23  43  66  94 131 175 221 271 330 397
#     4  12  25  43  64  93 131 175 221 272 330 394
#     4  10  21  39  63  94 126 168 217 269 333 393
#     4   9  21  40  64  91 128 168 211 271 333 390
#     4  12  26  48  68 106 132 172 224 272 324 396
#     4  12  26  45  69 101 137 174 216 270 332 390
#
# _framework density 22.234382
#
# number of rings (size 3 to 8) (size 9 to 14) (size 15 to 20)
#    0.000    1.143    1.905    3.714    2.667    3.048 
#    0.000    3.810    0.000    0.000    0.000    0.000 
#    0.000    0.000    0.000    0.000    0.000    0.000 
#
# Total GULP energy -117200.157950 kJ/mol
# GULP energy per Si atom -5580.959902 kJ/mol
# Density = 2.218378 g / cm^3
# Si number density = 22.234382 Si / 1000 Ang^3
#
#
#
# Elastic Constant Matrix: (Units=GPa)
#
#
# Indices 1 2 3 4 5 6 
#
# 1 129.0903 44.7094 75.1117 0.0000 -104.4318 0.0000
# 2 44.7094 136.4362 25.1423 0.0000 -28.5728 0.0000
# 3 75.1117 25.1423 107.2897 0.0000 -85.1148 0.0000
# 4 0.0000 0.0000 0.0000 20.5132 0.0000 1.1741
# 5 -104.4318 -28.5728 -85.1148 0.0000 114.3201 0.0000
# 6 0.0000 0.0000 0.0000 1.1741 0.0000 15.3478
#
#
#
# Elastic Compliance Matrix: (Units=1/GPa)
#
#
# Indices 1 2 3 4 5 6 
#
# 1 0.032489 -0.004747 0.002372 0.000000 0.030258 0.000000
# 2 -0.004747 0.008448 -0.001030 0.000000 -0.002991 0.000000
# 3 0.002372 -0.001030 0.023002 0.000000 0.019035 0.000000
# 4 0.000000 0.000000 0.000000 0.048963 0.000000 -0.003746
# 5 0.030258 -0.002991 0.019035 0.000000 0.049813 0.000000
# 6 0.000000 0.000000 0.000000 -0.003746 0.000000 0.065443
#
#
# Mechanical properties :
#
#
# Convention : Reuss Voigt Hill
#
# Bulk Modulus (GPa) = 17.50388 73.63810 45.57099
# Shear Modulus (GPa) = 19.68420 45.22640 32.45530
#
# Velocity S-wave (km/s) = 2.97863 4.51496 3.82473
# Velocity P-wave (km/s) = 4.44063 7.76986 6.32811
#
# Compressibility (1/GPa) = 0.05713019
#
# Stress axis : x y z
#
# Youngs Moduli (GPa) = 30.77998 118.36812 43.47355
#
# Poissons Ratio (x) = 0.56186 -0.10311
# Poissons Ratio (y) = 0.14610 0.04476
# Poissons Ratio (z) = -0.07300 0.12188
#
# Static dielectric constant tensor:
#      x y z
#    x 1.793990 0.000000 0.003720 
#    y 0.000000 1.786540 0.000000 
#    z 0.003720 0.000000 1.821440 
# 
# From -- ./inp_files/221836.got.cif
#   From: 2010.05.17/outbox.cif.g08.bks.cpg/sg12_111_cif.got.tgz:221836.got - 2010.06.03 13:09:07.
