data_PCOD9210610
_publ_section_title
;
Structure prediction by ZEFSAII (Michael W. Deem and Ramdas Pophale) SiO2 
 PCOD9210610
Probable space group: C 2/M
;
_chemical_formula_sum "Si O2"
_cell_formula_units_Z 40
_cell_length_a 14.231684
_cell_length_b 16.328968
_cell_length_c 19.376514
_cell_angle_alpha 90.000000
_cell_angle_beta 156.101387
_cell_angle_gamma 90.000000
_cell_volume 1824.205564
_symmetry_space_group_name_H-M "C 2/M"
_symmetry_group_IT_number 12
_symmetry_cell_setting 'monoclinic'
loop_
_space_group_symop_operation_xyz
x,y,z
-x,y,-z
-x,-y,-z
x,-y,z
1/2+x,1/2+y,z
1/2-x,1/2+y,-z
1/2-x,1/2-y,-z
1/2+x,1/2-y,z
loop_
_atom_site_type_symbol
_atom_site_label
_atom_site_fract_x
_atom_site_fract_y
_atom_site_fract_z
Si Si1 0.496945 0.092615 0.771516
Si Si2 0.778777 0.823277 0.300956
Si Si3 0.466074 0.666365 0.057926
Si Si4 0.742392 0.093383 0.635934
Si Si5 0.931876 0.096270 0.620868
O O1 0.366828 0.107965 0.756190
O O2 0.303171 0.099822 0.582005
O O3 0.590348 0.000000 0.831260
O O4 0.695545 0.159530 0.893495
O O5 0.605536 0.747744 0.173297
O O6 0.000000 0.807001 0.500000
O O7 0.878322 0.854020 0.294839
O O8 0.587246 0.597414 0.185582
O O9 0.500000 0.652785 0.000000
O O10 0.500000 0.129020 0.500000
O O11 0.867046 0.130845 0.652731
O O12 0.690658 0.000000 0.579742
O O13 0.001854 0.000000 0.672682
#
# Coordination Sequence:
#
# PCOD9210610 Si02
#       5
#     8   8   8   8   8
#     4  10  21  39  64  91 119 153 197 249 299 349
#     4  10  22  40  62  89 122 159 197 240 295 358
#     4  12  25  39  56  85 123 162 198 243 298 353
#     4  10  21  39  63  89 119 158 203 247 293 352
#     4   9  19  39  67  93 116 150 199 250 297 349
#
# _framework density 21.927351999999999
#
# number of rings (size 3 to 8) (size 9 to 14) (size 15 to 20)
#    0.000    1.800    0.000    3.600    0.000    8.800 
#    0.000    5.000    0.000    4.800    0.000    0.000 
#    0.000    0.000    0.000    0.000    0.000    0.000 
#
# Total GULP energy -111715.632531 kJ/mol
# GULP energy per Si atom -5585.781627 kJ/mol
# Density = 2.187744 g / cm^3
# Si number density = 21.927352 Si / 1000 Ang^3
#
#
#
# Elastic Constant Matrix: (Units=GPa)
#
#
# Indices 1 2 3 4 5 6 
#
# 1 164.5503 32.5628 34.7236 0.0003 -2.5318 -0.0071
# 2 32.5628 75.1665 29.3165 0.0281 14.2337 0.0009
# 3 34.7236 29.3165 58.6070 0.0231 12.9979 -0.0082
# 4 0.0003 0.0281 0.0231 23.3804 -0.0073 6.1921
# 5 -2.5318 14.2337 12.9979 -0.0073 28.7521 -0.0077
# 6 -0.0071 0.0009 -0.0082 6.1921 -0.0077 10.7837
#
#
#
# Elastic Compliance Matrix: (Units=1/GPa)
#
#
# Indices 1 2 3 4 5 6 
#
# 1 0.007451 -0.002337 -0.004054 0.000008 0.003646 0.000000
# 2 -0.002337 0.017918 -0.006185 -0.000017 -0.006280 -0.000003
# 3 -0.004054 -0.006185 0.024406 -0.000026 -0.008328 0.000025
# 4 0.000008 -0.000017 -0.000026 0.050442 0.000026 -0.028964
# 5 0.003646 -0.006280 -0.008328 0.000026 0.041975 0.000012
# 6 0.000000 -0.000003 0.000025 -0.028964 0.000012 0.109364
#
#
# Mechanical properties :
#
#
# Convention : Reuss Voigt Hill
#
# Bulk Modulus (GPa) = 40.61500 54.61440 47.61470
# Shear Modulus (GPa) = 17.54898 26.03130 21.79014
#
# Velocity S-wave (km/s) = 2.83207 3.44926 3.15579
# Velocity P-wave (km/s) = 5.40896 6.38938 5.91951
#
# Compressibility (1/GPa) = 0.02462144
#
# Stress axis : x y z
#
# Youngs Moduli (GPa) = 134.20491 55.81007 40.97352
#
# Poissons Ratio (x) = 0.13043 0.16612
# Poissons Ratio (y) = 0.31365 0.25344
# Poissons Ratio (z) = 0.54410 0.34521
#
# Static dielectric constant tensor:
#      x y z
#    x 1.778480 0.000010 0.019410 
#    y 0.000010 1.820250 -0.000020 
#    z 0.019410 -0.000020 1.802640 
# 
# From -- ./inp_files/60830.got.cif
#   From: 2010.05.17/outbox.cif.g08.bks.cpg/sg12_31_cif.got.tgz:60830.got - 2010.06.03 13:09:07.
