data_PCOD9210808
_publ_section_title
;
Structure prediction by ZEFSAII (Michael W. Deem and Ramdas Pophale) SiO2 
 PCOD9210808
Probable space group: C 2/M
;
_chemical_formula_sum "Si O2"
_cell_formula_units_Z 24
_cell_length_a 13.491985
_cell_length_b 18.846479
_cell_length_c 4.712309
_cell_angle_alpha 90.000000
_cell_angle_beta 47.274436
_cell_angle_gamma 90.000000
_cell_volume 880.233352
_symmetry_space_group_name_H-M "C 2/M"
_symmetry_group_IT_number 12
_symmetry_cell_setting 'monoclinic'
loop_
_space_group_symop_operation_xyz
x,y,z
-x,y,-z
-x,-y,-z
x,-y,z
1/2+x,1/2+y,z
1/2-x,1/2+y,-z
1/2-x,1/2-y,-z
1/2+x,1/2-y,z
loop_
_atom_site_type_symbol
_atom_site_label
_atom_site_fract_x
_atom_site_fract_y
_atom_site_fract_z
Si Si1 0.903109 0.120960 0.460388
Si Si2 0.627619 0.227942 0.542277
Si Si3 0.849565 0.423548 0.419110
O O1 0.878299 0.200983 0.631701
O O2 0.765789 0.088336 0.597821
O O3 0.000000 0.083049 0.500000
O O4 0.000000 0.128300 0.000000
O O5 0.750000 0.250000 0.500000
O O6 0.649079 0.147809 0.393015
O O7 0.500000 0.222652 0.000000
O O8 0.822519 0.500000 0.612274
O O9 0.000000 0.427296 0.000000
#
# Coordination Sequence:
#
# PCOD9210808 Si02
#       3
#     8   8   8
#     4  10  21  39  64  90 117 154 201 250 295 346
#     4   8  15  31  53  81 112 148 191 237 286 341
#     4   9  18  36  60  88 123 160 197 242 299 359
#
# _framework density 27.265498999999998
#
# number of rings (size 3 to 8) (size 9 to 14) (size 15 to 20)
#    0.000    3.000    0.000    0.000    0.000    1.333 
#    0.000   61.667    0.000    9.000    0.000    0.000 
#    0.000    0.000    0.000    0.000    0.000    0.000 
#
# Total GULP energy -66970.029503 kJ/mol
# GULP energy per Si atom -5580.835792 kJ/mol
# Density = 2.720344 g / cm^3
# Si number density = 27.265499 Si / 1000 Ang^3
#
#
#
# Elastic Constant Matrix: (Units=GPa)
#
#
# Indices 1 2 3 4 5 6 
#
# 1 152.1970 3.6476 55.1011 0.0000 -58.4660 0.0000
# 2 3.6476 217.1277 62.8886 0.0000 -14.6869 0.0000
# 3 55.1011 62.8886 118.3548 0.0000 -17.6485 0.0000
# 4 0.0000 0.0000 0.0000 22.5549 0.0000 -61.8770
# 5 -58.4660 -14.6869 -17.6485 0.0000 58.0049 0.0000
# 6 0.0000 0.0000 0.0000 -61.8770 0.0000 364.9260
#
#
#
# Elastic Compliance Matrix: (Units=1/GPa)
#
#
# Indices 1 2 3 4 5 6 
#
# 1 0.013178 0.002190 -0.005484 0.000000 0.012169 0.000000
# 2 0.002190 0.005822 -0.003734 0.000000 0.002546 0.000000
# 3 -0.005484 -0.003734 0.012593 0.000000 -0.002642 0.000000
# 4 0.000000 0.000000 0.000000 0.082898 0.000000 0.014056
# 5 0.012169 0.002546 -0.002642 0.000000 0.029346 0.000000
# 6 0.000000 0.000000 0.000000 0.014056 0.000000 0.005124
#
#
# Mechanical properties :
#
#
# Convention : Reuss Voigt Hill
#
# Bulk Modulus (GPa) = 57.02234 81.21712 69.11973
# Shear Modulus (GPa) = 29.60985 113.49995 71.55490
#
# Velocity S-wave (km/s) = 3.29900 6.45895 5.12842
# Velocity P-wave (km/s) = 5.95570 9.24534 7.77646
#
# Compressibility (1/GPa) = 0.01753699
#
# Stress axis : x y z
#
# Youngs Moduli (GPa) = 75.88352 171.74841 79.41210
#
# Poissons Ratio (x) = -0.37617 0.43553
# Poissons Ratio (y) = -0.16620 0.29651
# Poissons Ratio (z) = 0.41618 0.64129
#
# Static dielectric constant tensor:
#      x y z
#    x 2.132220 0.000000 -0.033960 
#    y 0.000000 2.208180 0.000000 
#    z -0.033960 0.000000 2.101070 
# 
# From -- ./inp_files/5158.got.cif
#   From: 2010.05.17/outbox.cif.g08.bks.cpg/sg12_3_cif.got.tgz:5158.got - 2010.06.03 13:09:07.
