data_PCOD9210202
_publ_section_title
;
Structure prediction by ZEFSAII (Michael W. Deem and Ramdas Pophale) SiO2 
 PCOD9210202
Probable space group: C 2/M
;
_chemical_formula_sum "Si O2"
_cell_formula_units_Z 64
_cell_length_a 9.905773
_cell_length_b 15.374031
_cell_length_c 31.748734
_cell_angle_alpha 90.000000
_cell_angle_beta 133.561478
_cell_angle_gamma 90.000000
_cell_volume 3503.660805
_symmetry_space_group_name_H-M "C 2/M"
_symmetry_group_IT_number 12
_symmetry_cell_setting 'monoclinic'
loop_
_space_group_symop_operation_xyz
x,y,z
-x,y,-z
-x,-y,-z
x,-y,z
1/2+x,1/2+y,z
1/2-x,1/2+y,-z
1/2-x,1/2-y,-z
1/2+x,1/2-y,z
loop_
_atom_site_type_symbol
_atom_site_label
_atom_site_fract_x
_atom_site_fract_y
_atom_site_fract_z
Si Si1 0.401469 0.735414 0.167574
Si Si2 0.794642 0.835527 0.645889
Si Si3 0.864740 0.894887 0.012100
Si Si4 0.927799 0.097569 0.362816
Si Si5 0.292061 0.403042 0.737736
Si Si6 0.465767 0.728653 0.540506
Si Si7 0.979184 0.724233 0.088707
Si Si8 0.026163 0.665912 0.273976
O O1 0.552586 0.663270 0.212559
O O2 0.454396 0.772098 0.133530
O O3 0.418874 0.805126 0.208991
O O4 0.190195 0.701874 0.121611
O O5 0.748674 0.882160 0.679763
O O6 0.607754 0.807437 0.581416
O O7 0.912214 0.750059 0.685291
O O8 0.927676 0.888581 0.643791
O O9 0.665981 0.848932 0.958834
O O10 0.853325 0.000000 0.020599
O O11 0.942144 0.822693 0.062363
O O12 0.000000 0.889907 0.000000
O O13 0.719940 0.121368 0.303424
O O14 0.980757 0.158967 0.412798
O O15 0.931515 0.000000 0.378685
O O16 0.363918 0.500000 0.756966
O O17 0.107469 0.390433 0.725640
O O18 0.500000 0.700059 0.500000
O O19 0.250000 0.750000 0.500000
#
# Coordination Sequence:
#
# PCOD9210202 Si02
#       8
#     8   8   8   8   8   8   8   8
#     4  11  22  39  63  89 120 161 201 242 302 355
#     4  10  21  39  62  82 117 159 194 233 296 365
#     4  10  22  41  65  91 122 166 208 245 303 365
#     4  11  23  39  59  88 120 151 192 246 298 347
#     4  11  23  38  59  90 122 153 196 248 297 355
#     4  11  22  40  64  85 110 155 203 240 288 359
#     4  11  22  41  64  91 125 161 201 258 299 350
#     4  10  21  39  61  84 117 161 198 231 291 368
#
# _framework density 18.266608000000002
#
# number of rings (size 3 to 8) (size 9 to 14) (size 15 to 20)
#    0.000    1.375    3.750    3.000    3.500    1.250 
#    0.000    3.750    0.000    0.000    0.000    0.000 
#    0.000    0.000    0.000    0.000    0.000    0.000 
#
# Total GULP energy -178516.993791 kJ/mol
# GULP energy per Si atom -5578.656056 kJ/mol
# Density = 1.822503 g / cm^3
# Si number density = 18.266608 Si / 1000 Ang^3
#
#
#
# Elastic Constant Matrix: (Units=GPa)
#
#
# Indices 1 2 3 4 5 6 
#
# 1 56.0738 13.7491 13.6884 0.0000 7.9056 0.0000
# 2 13.7491 64.8693 8.4794 0.0000 4.7231 0.0000
# 3 13.6884 8.4794 67.1864 0.0000 5.4685 0.0000
# 4 0.0000 0.0000 0.0000 34.0665 0.0000 -67.5530
# 5 7.9056 4.7231 5.4685 0.0000 38.4573 0.0000
# 6 0.0000 0.0000 0.0000 -67.5530 0.0000 163.3420
#
#
#
# Elastic Compliance Matrix: (Units=1/GPa)
#
#
# Indices 1 2 3 4 5 6 
#
# 1 0.019978 -0.003563 -0.003361 0.000000 -0.003191 0.000000
# 2 -0.003563 0.016415 -0.001256 0.000000 -0.001105 0.000000
# 3 -0.003361 -0.001256 0.015842 0.000000 -0.001408 0.000000
# 4 0.000000 0.000000 0.000000 0.163165 0.000000 0.067480
# 5 -0.003191 -0.001105 -0.001408 0.000000 0.026995 0.000000
# 6 0.000000 0.000000 0.000000 0.067480 0.000000 0.034030
#
#
# Mechanical properties :
#
#
# Convention : Reuss Voigt Hill
#
# Bulk Modulus (GPa) = 27.87382 28.88480 28.37931
# Shear Modulus (GPa) = 16.40733 57.32067 36.86400
#
# Velocity S-wave (km/s) = 3.00027 5.60787 4.49721
# Velocity P-wave (km/s) = 5.22444 7.60119 6.52200
#
# Compressibility (1/GPa) = 0.03587596
#
# Stress axis : x y z
#
# Youngs Moduli (GPa) = 50.05627 60.91863 63.12431
#
# Poissons Ratio (x) = 0.21703 0.21215
# Poissons Ratio (y) = 0.17833 0.07928
# Poissons Ratio (z) = 0.16823 0.07651
#
# Static dielectric constant tensor:
#      x y z
#    x 1.625150 0.000000 0.019930 
#    y 0.000000 1.617040 0.000000 
#    z 0.019930 0.000000 1.637050 
# 
# From -- ./inp_files/372599.got.cif
#   From: 2010.05.17/outbox.cif.g08.bks.cpg/sg12_187_cif.got.tgz:372599.got - 2010.06.03 13:09:07.
