data_PCOD9210525
_publ_section_title
;
Structure prediction by ZEFSAII (Michael W. Deem and Ramdas Pophale) SiO2 
 PCOD9210525
Probable space group: C 2/M
;
_chemical_formula_sum "Si O2"
_cell_formula_units_Z 60
_cell_length_a 5.041932
_cell_length_b 29.728004
_cell_length_c 18.287367
_cell_angle_alpha 90.000000
_cell_angle_beta 101.544240
_cell_angle_gamma 90.000000
_cell_volume 2685.581045
_symmetry_space_group_name_H-M "C 2/M"
_symmetry_group_IT_number 12
_symmetry_cell_setting 'monoclinic'
loop_
_space_group_symop_operation_xyz
x,y,z
-x,y,-z
-x,-y,-z
x,-y,z
1/2+x,1/2+y,z
1/2-x,1/2+y,-z
1/2-x,1/2-y,-z
1/2+x,1/2-y,z
loop_
_atom_site_type_symbol
_atom_site_label
_atom_site_fract_x
_atom_site_fract_y
_atom_site_fract_z
Si Si1 0.000000 0.109564 0.500000
Si Si2 0.503834 0.549907 0.243109
Si Si3 0.507101 0.897381 0.795747
Si Si4 0.735970 0.781065 0.682138
Si Si5 0.801727 0.551637 0.403086
Si Si6 0.733049 0.854481 0.953599
Si Si7 0.888923 0.635864 0.639775
Si Si8 0.226288 0.222012 0.146911
O O1 0.792892 0.075797 0.528624
O O2 0.863489 0.139361 0.428834
O O3 0.581192 0.500000 0.222611
O O4 0.707090 0.586150 0.220492
O O5 0.548346 0.550701 0.332986
O O6 0.198653 0.561506 0.207613
O O7 0.572304 0.876781 0.877303
O O8 0.357359 0.866043 0.726117
O O9 0.015146 0.759552 0.669769
O O10 0.604290 0.824428 0.636605
O O11 0.776517 0.794936 0.769643
O O12 0.894571 0.500000 0.415514
O O13 0.000193 0.586406 0.374435
O O14 0.868763 0.812048 0.919618
O O15 0.500000 0.844927 0.000000
O O16 0.000000 0.879630 0.000000
O O17 0.528369 0.235614 0.140996
#
# Coordination Sequence:
#
# PCOD9210525 Si02
#       8
#     4   8   8   8   8   8   8   8
#     4  12  23  40  64 100 140 176 222 272 341 408
#     4  10  21  39  67  97 125 171 223 268 320 391
#     4  11  22  42  65  92 132 173 216 269 322 398
#     4  10  23  42  70  96 129 176 235 282 329 386
#     4  10  23  40  64 100 142 177 214 274 347 415
#     4  12  25  40  63  97 132 169 210 265 331 396
#     4  11  24  42  67  95 134 182 227 276 333 403
#     4  10  21  39  62  93 128 167 208 261 326 395
#
# _framework density 22.341531
#
# number of rings (size 3 to 8) (size 9 to 14) (size 15 to 20)
#    0.000    1.333    2.667    2.600    1.867    3.733 
#    0.000    0.667    0.000    8.000    0.000    0.000 
#    0.000    0.000    0.000    0.000    0.000    0.000 
#
# Total GULP energy -167524.003592 kJ/mol
# GULP energy per Si atom -5584.133453 kJ/mol
# Density = 2.229068 g / cm^3
# Si number density = 22.341531 Si / 1000 Ang^3
#
#
#
# Elastic Constant Matrix: (Units=GPa)
#
#
# Indices 1 2 3 4 5 6 
#
# 1 76.2224 0.1683 20.2091 0.0000 1.6034 0.0000
# 2 0.1683 44.3018 33.4360 0.0000 6.1629 0.0000
# 3 20.2091 33.4360 118.6220 0.0000 20.4587 0.0000
# 4 0.0000 0.0000 0.0000 22.2028 0.0000 6.0402
# 5 1.6034 6.1629 20.4587 0.0000 33.7830 0.0000
# 6 0.0000 0.0000 0.0000 6.0402 0.0000 27.9845
#
#
#
# Elastic Compliance Matrix: (Units=1/GPa)
#
#
# Indices 1 2 3 4 5 6 
#
# 1 0.013929 0.002198 -0.003137 0.000000 0.000838 0.000000
# 2 0.002198 0.029023 -0.008513 0.000000 -0.000243 0.000000
# 3 -0.003137 -0.008513 0.012362 0.000000 -0.005784 0.000000
# 4 0.000000 0.000000 0.000000 0.047849 0.000000 -0.010328
# 5 0.000838 -0.000243 -0.005784 0.000000 0.033108 0.000000
# 6 0.000000 0.000000 0.000000 -0.010328 0.000000 0.037963
#
#
# Mechanical properties :
#
#
# Convention : Reuss Voigt Hill
#
# Bulk Modulus (GPa) = 27.46539 38.53032 32.99785
# Shear Modulus (GPa) = 24.35756 29.14958 26.75357
#
# Velocity S-wave (km/s) = 3.30546 3.61602 3.46422
# Velocity P-wave (km/s) = 5.18538 5.89216 5.55003
#
# Compressibility (1/GPa) = 0.03640946
#
# Stress axis : x y z
#
# Youngs Moduli (GPa) = 71.79390 34.45523 80.89408
#
# Poissons Ratio (x) = -0.07574 0.25377
# Poissons Ratio (y) = -0.15782 0.68867
# Poissons Ratio (z) = 0.22522 0.29333
#
# Static dielectric constant tensor:
#      x y z
#    x 1.842070 0.000000 0.041380 
#    y 0.000000 1.840200 0.000000 
#    z 0.041380 0.000000 1.885110 
# 
# From -- ./inp_files/254032.got.cif
#   From: 2010.05.17/outbox.cif.g08.bks.cpg/sg12_128_cif.got.tgz:254032.got - 2010.06.03 13:09:07.
