data_PCOD9210010
_publ_section_title
;
Structure prediction by ZEFSAII (Michael W. Deem and Ramdas Pophale) SiO2 
 PCOD9210010
Probable space group: C 2/M
;
_chemical_formula_sum "Si O2"
_cell_formula_units_Z 56
_cell_length_a 15.148198
_cell_length_b 7.575738
_cell_length_c 30.981480
_cell_angle_alpha 90.000000
_cell_angle_beta 50.190229
_cell_angle_gamma 90.000000
_cell_volume 2731.164646
_symmetry_space_group_name_H-M "C 2/M"
_symmetry_group_IT_number 12
_symmetry_cell_setting 'monoclinic'
loop_
_space_group_symop_operation_xyz
x,y,z
-x,y,-z
-x,-y,-z
x,-y,z
1/2+x,1/2+y,z
1/2-x,1/2+y,-z
1/2-x,1/2-y,-z
1/2+x,1/2-y,z
loop_
_atom_site_type_symbol
_atom_site_label
_atom_site_fract_x
_atom_site_fract_y
_atom_site_fract_z
Si Si1 0.692520 0.500000 0.933164
Si Si2 0.537365 0.784409 0.757902
Si Si3 0.881526 0.296498 0.556993
Si Si4 0.523457 0.209666 0.316048
Si Si5 0.417190 0.202078 0.883242
Si Si6 0.199886 0.790013 0.327312
Si Si7 0.016328 0.000000 0.068065
Si Si8 0.321308 0.193416 0.435748
O O1 0.782480 0.664746 0.912227
O O2 0.612555 0.500000 0.914388
O O3 0.603781 0.500000 0.000432
O O4 0.480977 0.722307 0.731041
O O5 0.478887 0.729117 0.820566
O O6 0.669467 0.729886 0.712179
O O7 0.532702 0.000000 0.760587
O O8 0.868713 0.500000 0.546989
O O9 0.875042 0.287521 0.610283
O O10 0.773585 0.193233 0.572123
O O11 0.000000 0.228853 0.500000
O O12 0.644877 0.238413 0.299566
O O13 0.429024 0.287690 0.379214
O O14 0.497910 0.000000 0.321104
O O15 0.451165 0.331384 0.911733
O O16 0.457767 0.000000 0.880338
O O17 0.197783 0.000000 0.333135
O O18 0.250000 0.250000 0.500000
O O19 0.363742 0.000000 0.434698
#
# Coordination Sequence:
#
# PCOD9210010 Si02
#       8
#     4   8   8   8   8   8   4   8
#     4   9  22  40  67 103 143 181 226 284 326 383
#     4   9  19  41  61  81 123 161 200 251 307 366
#     4  11  23  38  55  78 108 141 186 241 301 372
#     4  10  21  39  59  80 114 153 188 241 308 363
#     4   9  21  41  64  95 139 182 219 282 335 376
#     4  11  22  38  59  85 111 149 195 244 299 364
#     4  11  20  42  67 105 139 179 242 267 320 416
#     4  11  22  37  56  78 107 143 183 238 302 366
#
# _framework density 20.504075
#
# number of rings (size 3 to 8) (size 9 to 14) (size 15 to 20)
#    0.429    1.429    1.429    2.571    0.000    6.857 
#    5.143    0.714    0.000    0.000    0.000    0.000 
#    0.000    0.000    0.000    0.000    0.000    0.000 
#
# Total GULP energy -156044.668711 kJ/mol
# GULP energy per Si atom -5573.023883 kJ/mol
# Density = 2.045741 g / cm^3
# Si number density = 20.504075 Si / 1000 Ang^3
#
#
#
# Elastic Constant Matrix: (Units=GPa)
#
#
# Indices 1 2 3 4 5 6 
#
# 1 143.7823 14.2082 50.6599 -0.0037 26.8603 -0.0010
# 2 14.2082 70.2120 22.4200 -0.0554 11.6268 -0.0134
# 3 50.6599 22.4200 104.8026 -0.0152 19.6405 -0.0033
# 4 -0.0037 -0.0554 -0.0152 -731.4048 -0.0067 -171.9473
# 5 26.8603 11.6268 19.6405 -0.0067 24.8793 -0.0014
# 6 -0.0010 -0.0134 -0.0033 -171.9473 -0.0014 -23.9998
#
#
#
# Elastic Compliance Matrix: (Units=1/GPa)
#
#
# Indices 1 2 3 4 5 6 
#
# 1 0.009528 0.000411 -0.003204 0.000000 -0.007950 0.000000
# 2 0.000411 0.015938 -0.002499 -0.000001 -0.005919 0.000000
# 3 -0.003204 -0.002499 0.012626 0.000000 -0.005340 0.000000
# 4 0.000000 -0.000001 0.000000 0.001998 0.000000 -0.014314
# 5 -0.007950 -0.005919 -0.005340 0.000000 0.055759 -0.000001
# 6 0.000000 0.000000 0.000000 -0.014314 -0.000001 0.060888
#
#
# Mechanical properties :
#
#
# Convention : Reuss Voigt Hill
#
# Bulk Modulus (GPa) = 36.35225 54.81924 45.58575
# Shear Modulus (GPa) = 28.33030 -130.67115 -51.17043
#
# Velocity S-wave (km/s) = 3.72114 -7.99173 -5.00104
# Velocity P-wave (km/s) = 6.01916 7.63958 3.32662
#
# Compressibility (1/GPa) = 0.02750861
#
# Stress axis : x y z
#
# Youngs Moduli (GPa) = 104.94994 62.74499 79.20219
#
# Poissons Ratio (x) = -0.02581 0.25376
# Poissons Ratio (y) = -0.04318 0.19792
# Poissons Ratio (z) = 0.33626 0.15680
#
# Static dielectric constant tensor:
#      x y z
#    x 1.735610 0.000000 0.000960 
#    y 0.000000 1.778250 0.000000 
#    z 0.000960 0.000000 1.745000 
# 
# From -- ./inp_files/374965.got.cif
#   From: 2010.05.17/outbox.cif.g08.bks.cpg/sg12_188_cif.got.tgz:374965.got - 2010.06.03 13:09:07.
