data_PCOD9210994
_publ_section_title
;
Structure prediction by ZEFSAII (Michael W. Deem and Ramdas Pophale) SiO2 
 PCOD9210994
Probable space group: C 2/M
;
_chemical_formula_sum "Si O2"
_cell_formula_units_Z 40
_cell_length_a 17.893127
_cell_length_b 23.051255
_cell_length_c 9.639374
_cell_angle_alpha 90.000000
_cell_angle_beta 156.395344
_cell_angle_gamma 90.000000
_cell_volume 1592.022512
_symmetry_space_group_name_H-M "C 2/M"
_symmetry_group_IT_number 12
_symmetry_cell_setting 'monoclinic'
loop_
_space_group_symop_operation_xyz
x,y,z
-x,y,-z
-x,-y,-z
x,-y,z
1/2+x,1/2+y,z
1/2-x,1/2+y,-z
1/2-x,1/2-y,-z
1/2+x,1/2-y,z
loop_
_atom_site_type_symbol
_atom_site_label
_atom_site_fract_x
_atom_site_fract_y
_atom_site_fract_z
Si Si1 0.278595 0.937444 0.587848
Si Si2 0.283453 0.185374 0.609754
Si Si3 0.988734 0.232984 0.645762
Si Si4 0.037690 0.066411 0.721921
Si Si5 0.167218 0.342671 0.680730
O O1 0.231878 0.874435 0.440801
O O2 0.152745 0.936351 0.512363
O O3 0.238504 0.000000 0.448526
O O4 0.500000 0.937927 0.000000
O O5 0.250000 0.250000 0.500000
O O6 0.159427 0.189478 0.537793
O O7 0.500000 0.180735 0.000000
O O8 0.953350 0.300582 0.627726
O O9 0.000000 0.229285 0.500000
O O10 0.185552 0.208746 0.032622
O O11 0.000000 0.088567 0.500000
O O12 0.104517 0.000000 0.820118
O O13 0.193339 0.102809 0.070602
O O14 0.000000 0.359245 0.500000
#
# Coordination Sequence:
#
# PCOD9210994 Si02
#       5
#     8   8   8   8   8
#     4   9  19  38  62  85 117 160 204 247 305 374
#     4  11  23  38  61  92 126 158 201 262 315 371
#     4  11  22  39  60  88 124 165 206 251 315 378
#     4  10  21  39  65  93 122 160 210 260 309 370
#     4  11  22  36  58  89 124 164 204 257 309 372
#
# _framework density 25.125271999999999
#
# number of rings (size 3 to 8) (size 9 to 14) (size 15 to 20)
#    0.000    1.600    2.000    4.200    0.000    0.400 
#    7.200    0.000    0.000    1.800    0.000    0.000 
#    0.000    0.000    0.000    0.000    0.000    0.000 
#
# Total GULP energy -111356.297096 kJ/mol
# GULP energy per Si atom -5567.814855 kJ/mol
# Density = 2.506809 g / cm^3
# Si number density = 25.125272 Si / 1000 Ang^3
#
#
#
# Elastic Constant Matrix: (Units=GPa)
#
#
# Indices 1 2 3 4 5 6 
#
# 1 81.4118 32.1950 58.8204 0.0000 15.5814 0.0000
# 2 32.1950 253.7067 22.6721 0.0000 -3.0251 0.0000
# 3 58.8204 22.6721 132.8916 0.0000 43.3061 0.0000
# 4 0.0000 0.0000 0.0000 36.8245 0.0000 0.9459
# 5 15.5814 -3.0251 43.3061 0.0000 48.8661 0.0000
# 6 0.0000 0.0000 0.0000 0.9459 0.0000 27.8091
#
#
#
# Elastic Compliance Matrix: (Units=1/GPa)
#
#
# Indices 1 2 3 4 5 6 
#
# 1 0.018795 -0.001606 -0.008520 0.000000 0.001458 0.000000
# 2 -0.001606 0.004190 -0.000359 0.000000 0.001090 0.000000
# 3 -0.008520 -0.000359 0.014735 0.000000 -0.010364 0.000000
# 4 0.000000 0.000000 0.000000 0.027180 0.000000 -0.000925
# 5 0.001458 0.001090 -0.010364 0.000000 0.029251 0.000000
# 6 0.000000 0.000000 0.000000 -0.000925 0.000000 0.035991
#
#
# Mechanical properties :
#
#
# Convention : Reuss Voigt Hill
#
# Bulk Modulus (GPa) = 59.70517 77.26500 68.48509
# Shear Modulus (GPa) = 31.90880 46.32146 39.11513
#
# Velocity S-wave (km/s) = 3.56756 4.29840 3.94992
# Velocity P-wave (km/s) = 6.38628 7.44672 6.93679
#
# Compressibility (1/GPa) = 0.01674897
#
# Stress axis : x y z
#
# Youngs Moduli (GPa) = 53.20464 238.63607 67.86681
#
# Poissons Ratio (x) = 0.38332 0.57825
# Poissons Ratio (y) = 0.08546 0.02437
# Poissons Ratio (z) = 0.45333 0.08569
#
# Static dielectric constant tensor:
#      x y z
#    x 2.207270 0.000000 -0.031340 
#    y 0.000000 2.239800 0.000000 
#    z -0.031340 0.000000 2.041260 
# 
# From -- ./inp_files/170360.got.cif
#   From: 2010.05.17/outbox.cif.g08.bks.cpg/sg12_86_cif.got.tgz:170360.got - 2010.06.03 13:09:07.
