data_PCOD9210650
_publ_section_title
;
Structure prediction by ZEFSAII (Michael W. Deem and Ramdas Pophale) SiO2 
 PCOD9210650
Probable space group: C 2/M
;
_chemical_formula_sum "Si O2"
_cell_formula_units_Z 48
_cell_length_a 26.441964
_cell_length_b 22.096144
_cell_length_c 12.044452
_cell_angle_alpha 90.000000
_cell_angle_beta 162.630935
_cell_angle_gamma 90.000000
_cell_volume 2100.771105
_symmetry_space_group_name_H-M "C 2/M"
_symmetry_group_IT_number 12
_symmetry_cell_setting 'monoclinic'
loop_
_space_group_symop_operation_xyz
x,y,z
-x,y,-z
-x,-y,-z
x,-y,z
1/2+x,1/2+y,z
1/2-x,1/2+y,-z
1/2-x,1/2-y,-z
1/2+x,1/2-y,z
loop_
_atom_site_type_symbol
_atom_site_label
_atom_site_fract_x
_atom_site_fract_y
_atom_site_fract_z
Si Si1 0.300969 0.187377 0.054858
Si Si2 0.186741 0.434719 0.830321
Si Si3 0.199729 0.688455 0.202396
Si Si4 0.273829 0.432994 0.754333
Si Si5 0.611849 0.432987 0.347198
Si Si6 0.374644 0.810161 0.633316
O O1 0.500000 0.182973 0.500000
O O2 0.223680 0.125599 0.940279
O O3 0.250000 0.250000 0.000000
O O4 0.254183 0.189801 0.828668
O O5 0.264670 0.500000 0.022360
O O6 0.195246 0.430374 0.713613
O O7 0.000000 0.436126 0.500000
O O8 0.269263 0.625642 0.398213
O O9 0.266243 0.749144 0.401325
O O10 0.997978 0.690623 0.786123
O O11 0.225544 0.500000 0.607752
O O12 0.217937 0.374177 0.568407
O O13 0.477869 0.430717 0.168662
O O14 0.695349 0.500000 0.525011
O O15 0.500000 0.430407 0.000000
O O16 0.500000 0.809002 0.000000
#
# Coordination Sequence:
#
# PCOD9210650 Si02
#       6
#     8   8   8   8   8   8
#     4  11  23  39  59  85 116 153 197 246 299 354
#     4   9  18  35  58  84 115 150 192 242 294 350
#     4  12  24  40  63  89 123 162 205 254 307 364
#     4  10  21  39  63  90 123 162 203 250 304 362
#     4  10  22  42  65  91 125 162 203 252 305 363
#     4  12  24  39  61  90 124 161 205 252 304 366
#
# _framework density 22.848754
#
# number of rings (size 3 to 8) (size 9 to 14) (size 15 to 20)
#    0.000    1.333    0.000    7.000    0.000    3.000 
#    0.000    0.000    0.000    3.500    0.000    0.000 
#    0.000    0.000    0.000    0.000    0.000    0.000 
#
# Total GULP energy -133963.517470 kJ/mol
# GULP energy per Si atom -5581.813228 kJ/mol
# Density = 2.279675 g / cm^3
# Si number density = 22.848754 Si / 1000 Ang^3
#
#
#
# Elastic Constant Matrix: (Units=GPa)
#
#
# Indices 1 2 3 4 5 6 
#
# 1 91.3558 32.4116 -0.1678 0.0000 -3.7158 0.0000
# 2 32.4116 258.5216 43.8495 0.0000 -5.3093 0.0000
# 3 -0.1678 43.8495 26.4807 0.0000 3.3342 0.0000
# 4 0.0000 0.0000 0.0000 35.8735 0.0000 -6.4460
# 5 -3.7158 -5.3093 3.3342 0.0000 35.4092 0.0000
# 6 0.0000 0.0000 0.0000 -6.4460 0.0000 13.4755
#
#
#
# Elastic Compliance Matrix: (Units=1/GPa)
#
#
# Indices 1 2 3 4 5 6 
#
# 1 0.011694 -0.002021 0.003343 0.000000 0.000609 0.000000
# 2 -0.002021 0.005827 -0.009862 0.000000 0.001590 0.000000
# 3 0.003343 -0.009862 0.054908 0.000000 -0.006298 0.000000
# 4 0.000000 0.000000 0.000000 0.030497 0.000000 0.014588
# 5 0.000609 0.001590 -0.006298 0.000000 0.029137 0.000000
# 6 0.000000 0.000000 0.000000 0.014588 0.000000 0.081187
#
#
# Mechanical properties :
#
#
# Convention : Reuss Voigt Hill
#
# Bulk Modulus (GPa) = 18.06665 58.72719 38.39692
# Shear Modulus (GPa) = 20.09827 36.96928 28.53377
#
# Velocity S-wave (km/s) = 2.96906 4.02680 3.53769
# Velocity P-wave (km/s) = 4.43599 6.88321 5.79036
#
# Compressibility (1/GPa) = 0.05535060
#
# Stress axis : x y z
#
# Youngs Moduli (GPa) = 85.51349 171.61880 18.21240
#
# Poissons Ratio (x) = 0.34679 -0.06089
# Poissons Ratio (y) = 0.17280 0.17961
# Poissons Ratio (z) = -0.28591 1.69246
#
# Static dielectric constant tensor:
#      x y z
#    x 1.937730 0.000000 0.045380 
#    y 0.000000 1.891320 0.000000 
#    z 0.045380 0.000000 1.848250 
# 
# From -- ./inp_files/184774.got.cif
#   From: 2010.05.17/outbox.cif.g08.bks.cpg/sg12_93_cif.got.tgz:184774.got - 2010.06.03 13:09:07.
