data_PCOD9210983
_publ_section_title
;
Structure prediction by ZEFSAII (Michael W. Deem and Ramdas Pophale) SiO2 
 PCOD9210983
Probable space group: C 2/M
;
_chemical_formula_sum "Si O2"
_cell_formula_units_Z 48
_cell_length_a 14.335327
_cell_length_b 15.479726
_cell_length_c 11.825294
_cell_angle_alpha 90.000000
_cell_angle_beta 61.300123
_cell_angle_gamma 90.000000
_cell_volume 2301.734879
_symmetry_space_group_name_H-M "C 2/M"
_symmetry_group_IT_number 12
_symmetry_cell_setting 'monoclinic'
loop_
_space_group_symop_operation_xyz
x,y,z
-x,y,-z
-x,-y,-z
x,-y,z
1/2+x,1/2+y,z
1/2-x,1/2+y,-z
1/2-x,1/2-y,-z
1/2+x,1/2-y,z
loop_
_atom_site_type_symbol
_atom_site_label
_atom_site_fract_x
_atom_site_fract_y
_atom_site_fract_z
Si Si1 0.105950 0.135404 0.509655
Si Si2 0.671897 0.273718 0.149761
Si Si3 0.619428 0.824416 0.414198
Si Si4 0.206920 0.402677 0.759233
Si Si5 0.044323 0.254957 0.852990
Si Si6 0.336620 0.593979 0.280202
O O1 0.123204 0.239193 0.491911
O O2 0.206733 0.095051 0.390056
O O3 0.099789 0.102318 0.639651
O O4 0.000000 0.117572 0.500000
O O5 0.647274 0.210427 0.271396
O O6 0.728249 0.356397 0.175817
O O7 0.554881 0.276743 0.163142
O O8 0.750000 0.250000 0.000000
O O9 0.500000 0.858652 0.500000
O O10 0.714096 0.889542 0.384148
O O11 0.171385 0.500000 0.807169
O O12 0.113384 0.337460 0.775097
O O13 0.122883 0.173363 0.818205
O O14 0.000000 0.280236 0.000000
O O15 0.351014 0.500000 0.219970
#
# Coordination Sequence:
#
# PCOD9210983 Si02
#       6
#     8   8   8   8   8   8
#     4  10  21  40  66  95 130 168 215 271 334 397
#     4  11  22  44  67  93 132 178 215 272 337 403
#     4  10  21  39  65  91 128 176 216 264 334 392
#     4  11  24  43  70 103 133 172 227 279 334 402
#     4  12  24  44  70  92 134 172 226 280 339 395
#     4  12  24  39  64  97 132 173 220 269 331 405
#
# _framework density 20.853835
#
# number of rings (size 3 to 8) (size 9 to 14) (size 15 to 20)
#    0.000    1.000    5.000    4.000    2.333    4.333 
#    0.000    3.333    0.000    0.000    0.000    0.000 
#    0.000    0.000    0.000    0.000    0.000    0.000 
#
# Total GULP energy -133939.267681 kJ/mol
# GULP energy per Si atom -5580.802820 kJ/mol
# Density = 2.080637 g / cm^3
# Si number density = 20.853835 Si / 1000 Ang^3
#
#
#
# Elastic Constant Matrix: (Units=GPa)
#
#
# Indices 1 2 3 4 5 6 
#
# 1 105.4173 30.0888 10.3877 0.0000 -28.1594 0.0000
# 2 30.0888 96.2595 21.9103 0.0000 -20.9935 0.0000
# 3 10.3877 21.9103 79.7653 0.0000 -21.0920 0.0000
# 4 0.0000 0.0000 0.0000 0.8791 0.0000 8.0262
# 5 -28.1594 -20.9935 -21.0920 0.0000 36.3679 0.0000
# 6 0.0000 0.0000 0.0000 8.0262 0.0000 -2.1114
#
#
#
# Elastic Compliance Matrix: (Units=1/GPa)
#
#
# Indices 1 2 3 4 5 6 
#
# 1 0.012425 -0.002206 0.001412 0.000000 0.009166 0.000000
# 2 -0.002206 0.012478 -0.001993 0.000000 0.004339 0.000000
# 3 0.001412 -0.001993 0.015219 0.000000 0.008769 0.000000
# 4 0.000000 0.000000 0.000000 0.031857 0.000000 0.121103
# 5 0.009166 0.004339 0.008769 0.000000 0.042184 0.000000
# 6 0.000000 0.000000 0.000000 0.121103 0.000000 -0.013264
#
#
# Mechanical properties :
#
#
# Convention : Reuss Voigt Hill
#
# Bulk Modulus (GPa) = 28.94571 45.13509 37.04040
# Shear Modulus (GPa) = 42.37608 21.63080 32.00344
#
# Velocity S-wave (km/s) = 4.51272 3.22414 3.92172
# Velocity P-wave (km/s) = 6.40806 5.96244 6.18926
#
# Compressibility (1/GPa) = 0.03454744
#
# Stress axis : x y z
#
# Youngs Moduli (GPa) = 80.48210 80.14038 65.70675
#
# Poissons Ratio (x) = 0.17680 -0.09275
# Poissons Ratio (y) = 0.17756 0.13095
# Poissons Ratio (z) = -0.11361 0.15971
#
# Static dielectric constant tensor:
#      x y z
#    x 1.801720 0.000000 0.005890 
#    y 0.000000 1.779240 0.000000 
#    z 0.005890 0.000000 1.751210 
# 
# From -- ./inp_files/143512.got.cif
#   From: 2010.05.17/outbox.cif.g08.bks.cpg/sg12_72_cif.got.tgz:143512.got - 2010.06.03 13:09:07.
