data_PCOD9210121
_publ_section_title
;
Structure prediction by ZEFSAII (Michael W. Deem and Ramdas Pophale) SiO2 
 PCOD9210121
Probable space group: C 2/M
;
_chemical_formula_sum "Si O2"
_cell_formula_units_Z 58
_cell_length_a 22.056649
_cell_length_b 9.989689
_cell_length_c 20.848853
_cell_angle_alpha 90.000000
_cell_angle_beta 138.869710
_cell_angle_gamma 90.000000
_cell_volume 3021.691075
_symmetry_space_group_name_H-M "C 2/M"
_symmetry_group_IT_number 12
_symmetry_cell_setting 'monoclinic'
loop_
_space_group_symop_operation_xyz
x,y,z
-x,y,-z
-x,-y,-z
x,-y,z
1/2+x,1/2+y,z
1/2-x,1/2+y,-z
1/2-x,1/2-y,-z
1/2+x,1/2-y,z
loop_
_atom_site_type_symbol
_atom_site_label
_atom_site_fract_x
_atom_site_fract_y
_atom_site_fract_z
Si Si1 0.684477 0.340015 0.991712
Si Si2 0.496860 0.656118 0.654094
Si Si3 0.527565 0.653475 0.219173
Si Si4 0.669583 0.291473 0.125872
Si Si5 0.134459 0.152168 0.571470
Si Si6 0.650725 0.851881 0.236786
Si Si7 0.378088 0.152216 0.322922
Si Si8 0.000000 0.000000 0.000000
O O1 0.710203 0.500000 0.017211
O O2 0.580898 0.337015 0.881831
O O3 0.750000 0.250000 0.000000
O O4 0.681043 0.273868 0.059236
O O5 0.529228 0.500000 0.679843
O O6 0.459806 0.684223 0.695704
O O7 0.417913 0.667984 0.537241
O O8 0.575878 0.760091 0.696781
O O9 0.555232 0.500000 0.228708
O O10 0.585408 0.745772 0.218435
O O11 0.655186 0.170169 0.163796
O O12 0.767897 0.351145 0.226297
O O13 0.581565 0.385779 0.063894
O O14 0.244823 0.163106 0.654056
O O15 0.103879 0.262375 0.598423
O O16 0.115019 0.000000 0.580005
O O17 0.617492 0.000000 0.225353
O O18 0.413028 0.000000 0.352889
#
# Coordination Sequence:
#
# PCOD9210121 Si02
#       8
#     8   8   8   8   8   8   8   2
#     4  11  23  40  60  89 120 157 200 248 308 367
#     4  10  21  39  60  84 120 166 204 242 306 377
#     4  10  23  39  60  86 116 160 208 251 305 372
#     4  11  23  38  64  88 119 162 202 246 308 365
#     4   9  20  38  59  84 119 162 200 245 307 370
#     4  10  23  40  61  90 123 153 204 262 307 357
#     4  11  21  35  56  92 121 148 201 253 306 359
#     4  12  20  40  66  88 114 164 210 246 286 380
#
# _framework density 19.194548999999999
#
# number of rings (size 3 to 8) (size 9 to 14) (size 15 to 20)
#    0.000    1.655    1.379    2.483    2.897    5.517 
#    0.000    2.414    0.000    0.000    0.000    0.000 
#    0.000    0.000    0.000    0.000    0.000    0.000 
#
# Total GULP energy -161620.671082 kJ/mol
# GULP energy per Si atom -5573.126589 kJ/mol
# Density = 1.915086 g / cm^3
# Si number density = 19.194549 Si / 1000 Ang^3
#
#
#
# Elastic Constant Matrix: (Units=GPa)
#
#
# Indices 1 2 3 4 5 6 
#
# 1 114.8245 81.5156 46.2561 0.0000 -8.3931 0.0000
# 2 81.5156 109.9195 28.4889 0.0000 -7.5915 0.0000
# 3 46.2561 28.4889 84.2428 0.0000 -7.0086 0.0000
# 4 0.0000 0.0000 0.0000 13.5646 0.0000 6.4387
# 5 -8.3931 -7.5915 -7.0086 0.0000 35.0110 0.0000
# 6 0.0000 0.0000 0.0000 6.4387 0.0000 -9.5091
#
#
#
# Elastic Compliance Matrix: (Units=1/GPa)
#
#
# Indices 1 2 3 4 5 6 
#
# 1 0.021682 -0.014205 -0.007043 0.000000 0.000708 0.000000
# 2 -0.014205 0.019358 0.001342 0.000000 0.001061 0.000000
# 3 -0.007043 0.001342 0.015424 0.000000 0.001690 0.000000
# 4 0.000000 0.000000 0.000000 0.055790 0.000000 0.037776
# 5 0.000708 0.001061 0.001690 0.000000 0.029300 0.000000
# 6 0.000000 0.000000 0.000000 0.037776 0.000000 -0.079584
#
#
# Mechanical properties :
#
#
# Convention : Reuss Voigt Hill
#
# Bulk Modulus (GPa) = 60.05260 69.05644 64.55452
# Shear Modulus (GPa) = 46.58377 17.99504 32.28940
#
# Velocity S-wave (km/s) = 4.93173 3.06520 4.10593
# Velocity P-wave (km/s) = 7.98646 6.97011 7.49553
#
# Compressibility (1/GPa) = 0.01665207
#
# Stress axis : x y z
#
# Youngs Moduli (GPa) = 46.12082 51.65951 64.83304
#
# Poissons Ratio (x) = 0.73383 0.45659
# Poissons Ratio (y) = 0.65515 -0.08699
# Poissons Ratio (z) = 0.32481 -0.06932
#
# Static dielectric constant tensor:
#      x y z
#    x 1.651910 0.000000 -0.015650 
#    y 0.000000 1.664570 0.000000 
#    z -0.015650 0.000000 1.688070 
# 
# From -- ./inp_files/324652.got.cif
#   From: 2010.05.17/outbox.cif.g08.bks.cpg/sg12_163_cif.got.tgz:324652.got - 2010.06.03 13:09:07.
