data_PCOD9210901
_publ_section_title
;
Structure prediction by ZEFSAII (Michael W. Deem and Ramdas Pophale) SiO2 
 PCOD9210901
Probable space group: C 2/M
;
_chemical_formula_sum "Si O2"
_cell_formula_units_Z 40
_cell_length_a 23.815646
_cell_length_b 8.897747
_cell_length_c 17.191592
_cell_angle_alpha 90.000000
_cell_angle_beta 149.867565
_cell_angle_gamma 90.000000
_cell_volume 1828.784754
_symmetry_space_group_name_H-M "C 2/M"
_symmetry_group_IT_number 12
_symmetry_cell_setting 'monoclinic'
loop_
_space_group_symop_operation_xyz
x,y,z
-x,y,-z
-x,-y,-z
x,-y,z
1/2+x,1/2+y,z
1/2-x,1/2+y,-z
1/2-x,1/2-y,-z
1/2+x,1/2-y,z
loop_
_atom_site_type_symbol
_atom_site_label
_atom_site_fract_x
_atom_site_fract_y
_atom_site_fract_z
Si Si1 0.840817 0.819396 0.165853
Si Si2 0.949016 0.169616 0.679437
Si Si3 0.249423 0.828893 0.774455
Si Si4 0.240613 0.823097 0.370284
Si Si5 0.001121 0.233146 0.913358
O O1 0.810364 0.780643 0.217635
O O2 0.961455 0.776309 0.276798
O O3 0.834685 0.000000 0.153210
O O4 0.750000 0.750000 0.000000
O O5 0.841212 0.274557 0.545790
O O6 0.006648 0.162931 0.833541
O O7 0.913073 0.000000 0.617286
O O8 0.222477 0.714460 0.673240
O O9 0.215098 0.000000 0.714660
O O10 0.384877 0.827950 0.947754
O O11 0.129452 0.720147 0.246412
O O12 0.211480 0.000000 0.345476
O O13 0.000000 0.161134 0.000000
#
# Coordination Sequence:
#
# PCOD9210901 Si02
#       5
#     8   8   8   8   8
#     4  10  21  39  64  94 122 159 204 251 305 365
#     4  11  23  40  64  90 124 164 203 252 310 366
#     4  10  22  41  65  93 125 162 206 252 305 369
#     4  11  25  41  61  91 127 164 207 256 306 363
#     4  10  22  39  64  91 122 159 206 251 305 362
#
# _framework density 21.872449
#
# number of rings (size 3 to 8) (size 9 to 14) (size 15 to 20)
#    0.000    1.600    2.000    1.800    0.000   14.800 
#    0.000    4.000    0.000    0.000    0.000    0.000 
#    0.000    0.000    0.000    0.000    0.000    0.000 
#
# Total GULP energy -111354.540920 kJ/mol
# GULP energy per Si atom -5567.727046 kJ/mol
# Density = 2.182267 g / cm^3
# Si number density = 21.872449 Si / 1000 Ang^3
#
#
#
# Elastic Constant Matrix: (Units=GPa)
#
#
# Indices 1 2 3 4 5 6 
#
# 1 165.3992 13.2217 40.3739 0.0000 1.2951 0.0000
# 2 13.2217 20.3898 21.0962 0.0000 -2.2750 0.0000
# 3 40.3739 21.0962 102.1800 0.0000 -10.3858 0.0000
# 4 0.0000 0.0000 0.0000 22.6173 0.0000 -14.3970
# 5 1.2951 -2.2750 -10.3858 0.0000 33.7942 0.0000
# 6 0.0000 0.0000 0.0000 -14.3970 0.0000 61.8089
#
#
#
# Elastic Compliance Matrix: (Units=1/GPa)
#
#
# Indices 1 2 3 4 5 6 
#
# 1 0.006800 -0.002081 -0.002372 0.000000 -0.001130 0.000000
# 2 -0.002081 0.063006 -0.012125 0.000000 0.000595 0.000000
# 3 -0.002372 -0.012125 0.013578 0.000000 0.003447 0.000000
# 4 0.000000 0.000000 0.000000 0.051911 0.000000 0.012091
# 5 -0.001130 0.000595 0.003447 0.000000 0.030734 0.000000
# 6 0.000000 0.000000 0.000000 0.012091 0.000000 0.018995
#
#
# Mechanical properties :
#
#
# Convention : Reuss Voigt Hill
#
# Bulk Modulus (GPa) = 19.91000 48.59473 34.25236
# Shear Modulus (GPa) = 21.28355 37.86255 29.57305
#
# Velocity S-wave (km/s) = 3.12280 4.16512 3.68104
# Velocity P-wave (km/s) = 4.70373 6.73769 5.81040
#
# Compressibility (1/GPa) = 0.05022603
#
# Stress axis : x y z
#
# Youngs Moduli (GPa) = 147.05404 15.87157 73.65000
#
# Poissons Ratio (x) = 0.03304 0.17470
# Poissons Ratio (y) = 0.30608 0.89303
# Poissons Ratio (z) = 0.34882 0.19245
#
# Static dielectric constant tensor:
#      x y z
#    x 1.874330 0.000000 -0.011070 
#    y 0.000000 1.797130 0.000000 
#    z -0.011070 0.000000 1.786350 
# 
# From -- ./inp_files/288649.got.cif
#   From: 2010.05.17/outbox.cif.g08.bks.cpg/sg12_145_cif.got.tgz:288649.got - 2010.06.03 13:09:07.
