data_PCOD9210837
_publ_section_title
;
Structure prediction by ZEFSAII (Michael W. Deem and Ramdas Pophale) SiO2 
 PCOD9210837
Probable space group: C 2/M
;
_chemical_formula_sum "Si O2"
_cell_formula_units_Z 48
_cell_length_a 30.502431
_cell_length_b 8.200997
_cell_length_c 19.363785
_cell_angle_alpha 90.000000
_cell_angle_beta 29.611748
_cell_angle_gamma 90.000000
_cell_volume 2393.447539
_symmetry_space_group_name_H-M "C 2/M"
_symmetry_group_IT_number 12
_symmetry_cell_setting 'monoclinic'
loop_
_space_group_symop_operation_xyz
x,y,z
-x,y,-z
-x,-y,-z
x,-y,z
1/2+x,1/2+y,z
1/2-x,1/2+y,-z
1/2-x,1/2-y,-z
1/2+x,1/2-y,z
loop_
_atom_site_type_symbol
_atom_site_label
_atom_site_fract_x
_atom_site_fract_y
_atom_site_fract_z
Si Si1 0.026842 0.688752 0.890580
Si Si2 0.545393 0.304583 0.157365
Si Si3 0.219559 0.192039 0.616312
Si Si4 0.901466 0.803106 0.614274
Si Si5 0.259410 0.695322 0.066500
Si Si6 0.114336 0.801787 0.523668
O O1 0.998484 0.500000 0.928914
O O2 0.132121 0.704484 0.748829
O O3 0.988603 0.764018 0.872801
O O4 0.000000 0.767869 0.000000
O O5 0.548200 0.500000 0.159771
O O6 0.472586 0.248009 0.313649
O O7 0.645105 0.243271 0.035577
O O8 0.250000 0.250000 0.500000
O O9 0.298609 0.229506 0.560294
O O10 0.198267 0.000000 0.645269
O O11 0.823268 0.749215 0.772804
O O12 0.887352 0.753906 0.554114
O O13 0.000000 0.745553 0.500000
O O14 0.902434 0.000000 0.615078
O O15 0.261323 0.500000 0.065042
O O16 0.250000 0.750000 0.000000
O O17 0.118015 0.000000 0.522494
#
# Coordination Sequence:
#
# PCOD9210837 Si02
#       6
#     8   8   8   8   8   8
#     4  11  25  42  62  91 126 165 211 259 312 371
#     4  10  22  41  64  90 123 166 210 255 311 372
#     4  12  24  40  63  91 125 166 213 258 310 367
#     4  10  22  42  67  94 126 165 206 253 312 372
#     4  11  24  42  65  95 128 165 209 255 311 371
#     4  10  21  39  64  91 123 164 208 257 312 370
#
# _framework density 20.054753999999999
#
# number of rings (size 3 to 8) (size 9 to 14) (size 15 to 20)
#    0.000    1.333    1.667    3.500    2.333    6.333 
#    0.000    1.667    0.000    0.000    0.000    0.000 
#    0.000    0.000    0.000    0.000    0.000    0.000 
#
# Total GULP energy -134071.486579 kJ/mol
# GULP energy per Si atom -5586.311941 kJ/mol
# Density = 2.000911 g / cm^3
# Si number density = 20.054754 Si / 1000 Ang^3
#
#
#
# Elastic Constant Matrix: (Units=GPa)
#
#
# Indices 1 2 3 4 5 6 
#
# 1 184.9862 15.3825 99.8363 0.0016 4.0219 -0.0009
# 2 15.3825 18.7032 -7.1833 0.0041 3.7710 -0.0046
# 3 99.8363 -7.1833 164.8403 0.0091 11.4887 -0.0024
# 4 0.0016 0.0041 0.0091 25.3065 -0.0022 1.1529
# 5 4.0219 3.7710 11.4887 -0.0022 42.5704 -0.0009
# 6 -0.0009 -0.0046 -0.0024 1.1529 -0.0009 32.0645
#
#
#
# Elastic Compliance Matrix: (Units=1/GPa)
#
#
# Indices 1 2 3 4 5 6 
#
# 1 0.009808 -0.010944 -0.006543 0.000004 0.001809 -0.000002
# 2 -0.010944 0.067912 0.010125 -0.000015 -0.007714 0.000011
# 3 -0.006543 0.010125 0.010691 -0.000005 -0.003164 0.000002
# 4 0.000004 -0.000015 -0.000005 0.039580 0.000004 -0.001423
# 5 0.001809 -0.007714 -0.003164 0.000004 0.024857 -0.000001
# 6 -0.000002 0.000011 0.000002 -0.001423 -0.000001 0.031238
#
#
# Mechanical properties :
#
#
# Convention : Reuss Voigt Hill
#
# Bulk Modulus (GPa) = 13.57085 64.95563 39.26324
# Shear Modulus (GPa) = 22.38411 37.35455 29.86933
#
# Velocity S-wave (km/s) = 3.34451 4.32050 3.86345
# Velocity P-wave (km/s) = 4.65788 7.57287 6.28666
#
# Compressibility (1/GPa) = 0.07368737
#
# Stress axis : x y z
#
# Youngs Moduli (GPa) = 101.95908 14.72493 93.53543
#
# Poissons Ratio (x) = 0.16115 0.61202
# Poissons Ratio (y) = 1.11586 -0.94709
# Poissons Ratio (z) = 0.66713 -0.14910
#
# Static dielectric constant tensor:
#      x y z
#    x 1.683670 0.000000 0.010910 
#    y 0.000000 1.716430 0.000000 
#    z 0.010910 0.000000 1.691290 
# 
# From -- ./inp_files/295357.got.cif
#   From: 2010.05.17/outbox.cif.g08.bks.cpg/sg12_148_cif.got.tgz:295357.got - 2010.06.03 13:09:07.
