data_PCOD9210965
_publ_section_title
;
Structure prediction by ZEFSAII (Michael W. Deem and Ramdas Pophale) SiO2 
 PCOD9210965
Probable space group: C 2/M
;
_chemical_formula_sum "Si O2"
_cell_formula_units_Z 58
_cell_length_a 7.952902
_cell_length_b 19.234257
_cell_length_c 18.820984
_cell_angle_alpha 90.000000
_cell_angle_beta 67.955046
_cell_angle_gamma 90.000000
_cell_volume 2668.525799
_symmetry_space_group_name_H-M "C 2/M"
_symmetry_group_IT_number 12
_symmetry_cell_setting 'monoclinic'
loop_
_space_group_symop_operation_xyz
x,y,z
-x,y,-z
-x,-y,-z
x,-y,z
1/2+x,1/2+y,z
1/2-x,1/2+y,-z
1/2-x,1/2-y,-z
1/2+x,1/2-y,z
loop_
_atom_site_type_symbol
_atom_site_label
_atom_site_fract_x
_atom_site_fract_y
_atom_site_fract_z
Si Si1 0.700021 0.298814 0.691199
Si Si2 0.202720 0.922479 0.404583
Si Si3 0.282480 0.175688 0.891162
Si Si4 0.000000 0.500000 0.500000
Si Si5 0.458607 0.151551 0.269685
Si Si6 0.070316 0.169568 0.150485
Si Si7 0.292425 0.616853 0.445922
Si Si8 0.714163 0.922313 0.976080
O O1 0.677178 0.217116 0.708232
O O2 0.874462 0.327698 0.705173
O O3 0.518367 0.329567 0.757462
O O4 0.712681 0.319484 0.607318
O O5 0.346169 0.910769 0.320365
O O6 0.236268 0.870488 0.465163
O O7 0.997031 0.914077 0.411794
O O8 0.231404 0.000000 0.431622
O O9 0.451621 0.142427 0.821373
O O10 0.327233 0.257962 0.882982
O O11 0.253212 0.136503 0.969468
O O12 0.102312 0.166756 0.873954
O O13 0.859268 0.561214 0.551336
O O14 0.194641 0.105248 0.110357
O O15 0.779141 0.000000 0.985228
O O16 0.500000 0.925073 0.000000
#
# Coordination Sequence:
#
# PCOD9210965 Si02
#       8
#     8   8   8   2   8   8   8   8
#     4  10  22  40  62  92 118 158 203 251 309 352
#     4  11  22  41  59  88 121 161 203 242 305 364
#     4  10  21  39  65  89 120 161 201 247 304 359
#     4  12  20  38  60  84 116 150 202 240 292 354
#     4  10  22  40  63  90 124 155 200 255 300 365
#     4  10  21  40  63  90 120 158 204 250 298 366
#     4  11  22  38  62  85 117 159 200 250 294 360
#     4  11  24  40  59  88 124 162 203 251 301 358
#
# _framework density 21.734846999999998
#
# number of rings (size 3 to 8) (size 9 to 14) (size 15 to 20)
#    0.000    1.517    1.379    3.724    0.000    5.517 
#    1.241    4.138    0.000    0.000    0.000    0.000 
#    0.000    0.000    0.000    0.000    0.000    0.000 
#
# Total GULP energy -161790.836515 kJ/mol
# GULP energy per Si atom -5578.994363 kJ/mol
# Density = 2.168538 g / cm^3
# Si number density = 21.734847 Si / 1000 Ang^3
#
#
#
# Elastic Constant Matrix: (Units=GPa)
#
#
# Indices 1 2 3 4 5 6 
#
# 1 53.5058 15.8727 20.4071 0.0000 -14.1210 0.0000
# 2 15.8727 33.6844 21.6328 0.0000 -19.5819 0.0000
# 3 20.4071 21.6328 66.9256 0.0000 -10.9111 0.0000
# 4 0.0000 0.0000 0.0000 36.6544 0.0000 -6.8566
# 5 -14.1210 -19.5819 -10.9111 0.0000 28.9645 0.0000
# 6 0.0000 0.0000 0.0000 -6.8566 0.0000 17.3125
#
#
#
# Elastic Compliance Matrix: (Units=1/GPa)
#
#
# Indices 1 2 3 4 5 6 
#
# 1 0.023525 -0.003967 -0.004750 0.000000 0.006998 0.000000
# 2 -0.003967 0.058774 -0.012386 0.000000 0.033135 0.000000
# 3 -0.004750 -0.012386 0.019872 0.000000 -0.003204 0.000000
# 4 0.000000 0.000000 0.000000 0.029465 0.000000 0.011670
# 5 0.006998 0.033135 -0.003204 0.000000 0.059131 0.000000
# 6 0.000000 0.000000 0.000000 0.011670 0.000000 0.062383
#
#
# Mechanical properties :
#
#
# Convention : Reuss Voigt Hill
#
# Bulk Modulus (GPa) = 16.67658 29.99345 23.33502
# Shear Modulus (GPa) = 15.85572 22.99981 19.42777
#
# Velocity S-wave (km/s) = 2.70387 3.25653 2.99298
# Velocity P-wave (km/s) = 4.17580 5.28863 4.76481
#
# Compressibility (1/GPa) = 0.05996432
#
# Stress axis : x y z
#
# Youngs Moduli (GPa) = 42.50824 17.01444 50.32280
#
# Poissons Ratio (x) = 0.06749 0.23904
# Poissons Ratio (y) = 0.16861 0.62331
# Poissons Ratio (z) = 0.20192 0.21074
#
# Static dielectric constant tensor:
#      x y z
#    x 1.870050 0.000000 0.029100 
#    y 0.000000 1.792500 0.000000 
#    z 0.029100 0.000000 1.810810 
# 
# From -- ./inp_files/258494.got.cif
#   From: 2010.05.17/outbox.cif.g08.bks.cpg/sg12_130_cif.got.tgz:258494.got - 2010.06.03 13:09:07.
