data_PCOD9210877
_publ_section_title
;
Structure prediction by ZEFSAII (Michael W. Deem and Ramdas Pophale) SiO2 
 PCOD9210877
Probable space group: C 2/M
;
_chemical_formula_sum "Si O2"
_cell_formula_units_Z 48
_cell_length_a 16.852844
_cell_length_b 12.101304
_cell_length_c 26.048704
_cell_angle_alpha 90.000000
_cell_angle_beta 28.496155
_cell_angle_gamma 90.000000
_cell_volume 2534.549119
_symmetry_space_group_name_H-M "C 2/M"
_symmetry_group_IT_number 12
_symmetry_cell_setting 'monoclinic'
loop_
_space_group_symop_operation_xyz
x,y,z
-x,y,-z
-x,-y,-z
x,-y,z
1/2+x,1/2+y,z
1/2-x,1/2+y,-z
1/2-x,1/2-y,-z
1/2+x,1/2-y,z
loop_
_atom_site_type_symbol
_atom_site_label
_atom_site_fract_x
_atom_site_fract_y
_atom_site_fract_z
Si Si1 0.447331 0.230024 0.886446
Si Si2 0.583755 0.872642 0.502483
Si Si3 0.042209 0.190465 0.719293
Si Si4 0.482563 0.128457 0.671578
Si Si5 0.011388 0.500000 0.905198
Si Si6 0.085512 0.872102 0.900153
Si Si7 0.721931 0.500000 0.156039
O O1 0.506752 0.263365 0.796125
O O2 0.528416 0.309902 0.882311
O O3 0.494611 0.107560 0.878788
O O4 0.250000 0.250000 0.000000
O O5 0.500000 0.819567 0.500000
O O6 0.780628 0.869644 0.383214
O O7 0.531170 0.826974 0.587634
O O8 0.523444 0.000000 0.538944
O O9 0.055267 0.293361 0.673471
O O10 0.896156 0.107213 0.784192
O O11 0.283638 0.131470 0.791433
O O12 0.536336 0.000000 0.645477
O O13 0.175961 0.500000 0.848193
O O14 0.857872 0.500000 0.032980
O O15 0.032344 0.000000 0.926549
O O16 0.000000 0.823774 0.000000
#
# Coordination Sequence:
#
# PCOD9210877 Si02
#       7
#     8   8   8   8   4   8   4
#     4  12  25  37  62  89 125 164 208 255 309 372
#     4  10  21  39  64  93 120 153 204 262 310 358
#     4  12  23  40  65  92 123 163 212 253 312 372
#     4  10  22  40  62  90 122 163 200 253 308 366
#     4  11  26  44  58  89 133 169 208 254 315 376
#     4  10  22  39  61  90 125 159 202 255 310 371
#     4  11  24  42  65  89 123 171 209 258 310 373
#
# _framework density 18.938279999999999
#
# number of rings (size 3 to 8) (size 9 to 14) (size 15 to 20)
#    0.000    1.167    2.500    3.500    5.833    1.333 
#    0.000    0.000    0.000    0.500    0.000    0.000 
#    0.000    0.000    0.000    0.000    0.000    0.000 
#
# Total GULP energy -134076.451035 kJ/mol
# GULP energy per Si atom -5586.518793 kJ/mol
# Density = 1.889518 g / cm^3
# Si number density = 18.938280 Si / 1000 Ang^3
#
#
#
# Elastic Constant Matrix: (Units=GPa)
#
#
# Indices 1 2 3 4 5 6 
#
# 1 140.3090 57.1677 36.9518 -0.0001 23.3915 0.0000
# 2 57.1677 85.1275 7.3554 -0.0007 3.9138 0.0001
# 3 36.9518 7.3554 81.4490 -0.0020 16.6987 0.0001
# 4 -0.0001 -0.0007 -0.0020 13.1333 -0.0003 9.5317
# 5 23.3915 3.9138 16.6987 -0.0003 44.7921 0.0002
# 6 0.0000 0.0001 0.0001 9.5317 0.0002 24.1456
#
#
#
# Elastic Compliance Matrix: (Units=1/GPa)
#
#
# Indices 1 2 3 4 5 6 
#
# 1 0.011863 -0.007444 -0.003869 -0.000001 -0.004102 0.000001
# 2 -0.007444 0.016530 0.001498 0.000002 0.001884 -0.000001
# 3 -0.003869 0.001498 0.014628 0.000003 -0.003564 -0.000001
# 4 -0.000001 0.000002 0.000003 0.106717 0.000000 -0.042127
# 5 -0.004102 0.001884 -0.003564 0.000000 0.025632 0.000000
# 6 0.000001 -0.000001 -0.000001 -0.042127 0.000000 0.058046
#
#
# Mechanical properties :
#
#
# Convention : Reuss Voigt Hill
#
# Bulk Modulus (GPa) = 42.74951 56.64838 49.69894
# Shear Modulus (GPa) = 19.16878 30.10824 24.63851
#
# Velocity S-wave (km/s) = 3.18492 3.99157 3.61084
# Velocity P-wave (km/s) = 6.01224 7.15685 6.60937
#
# Compressibility (1/GPa) = 0.02339208
#
# Stress axis : x y z
#
# Youngs Moduli (GPa) = 84.29776 60.49689 68.36127
#
# Poissons Ratio (x) = 0.45031 0.26446
# Poissons Ratio (y) = 0.62748 -0.10240
# Poissons Ratio (z) = 0.32611 -0.09062
#
# Static dielectric constant tensor:
#      x y z
#    x 1.637570 0.000000 0.035890 
#    y 0.000000 1.655900 0.000000 
#    z 0.035890 0.000000 1.591010 
# 
# From -- ./inp_files/360997.got.cif
#   From: 2010.05.17/outbox.cif.g08.bks.cpg/sg12_181_cif.got.tgz:360997.got - 2010.06.03 13:09:07.
