data_PCOD9210042
_publ_section_title
;
Structure prediction by ZEFSAII (Michael W. Deem and Ramdas Pophale) SiO2 
 PCOD9210042
Probable space group: C 2/M
;
_chemical_formula_sum "Si O2"
_cell_formula_units_Z 50
_cell_length_a 11.139227
_cell_length_b 22.446576
_cell_length_c 10.377945
_cell_angle_alpha 90.000000
_cell_angle_beta 121.426712
_cell_angle_gamma 90.000000
_cell_volume 2214.227495
_symmetry_space_group_name_H-M "C 2/M"
_symmetry_group_IT_number 12
_symmetry_cell_setting 'monoclinic'
loop_
_space_group_symop_operation_xyz
x,y,z
-x,y,-z
-x,-y,-z
x,-y,z
1/2+x,1/2+y,z
1/2-x,1/2+y,-z
1/2-x,1/2-y,-z
1/2+x,1/2-y,z
loop_
_atom_site_type_symbol
_atom_site_label
_atom_site_fract_x
_atom_site_fract_y
_atom_site_fract_z
Si Si1 0.000000 0.500000 0.500000
Si Si2 0.425226 0.731382 0.827664
Si Si3 0.880445 0.597261 0.276949
Si Si4 0.919863 0.087476 0.825638
Si Si5 0.901043 0.736207 0.330347
Si Si6 0.655850 0.929222 0.035265
Si Si7 0.590428 0.567840 0.665467
O O1 0.998180 0.552721 0.612074
O O2 0.419228 0.659387 0.827809
O O3 0.262731 0.753147 0.738489
O O4 0.524002 0.746618 0.761773
O O5 0.500000 0.752857 0.000000
O O6 0.742019 0.568938 0.265209
O O7 0.903131 0.664280 0.332823
O O8 0.841040 0.598842 0.104018
O O9 0.996289 0.066620 0.740703
O O10 0.000000 0.067825 0.000000
O O11 0.000000 0.758962 0.500000
O O12 0.765922 0.903953 0.200803
O O13 0.687837 0.000000 0.036499
O O14 0.500000 0.923497 0.000000
O O15 0.500000 0.595947 0.500000
O O16 0.624649 0.500000 0.641970
#
# Coordination Sequence:
#
# PCOD9210042 Si02
#       7
#     2   8   8   8   8   8   8
#     4  12  24  40  60 100 132 168 218 270 314 378
#     4  10  23  43  69  96 134 170 217 274 331 396
#     4  11  23  40  65  93 128 172 219 260 323 387
#     4  10  21  40  67  93 125 167 218 269 320 387
#     4  11  23  44  67 100 130 171 219 275 328 390
#     4  10  21  39  59  84 127 170 209 264 326 387
#     4  10  22  39  60  92 126 166 219 269 323 388
#
# _framework density 22.581237000000002
#
# number of rings (size 3 to 8) (size 9 to 14) (size 15 to 20)
#    0.000    1.600    3.200    0.960    1.120    2.880 
#    5.760    0.000    0.000    0.000    0.000    0.000 
#    0.000    0.000    0.000    0.000    0.000    0.000 
#
# Total GULP energy -139444.797339 kJ/mol
# GULP energy per Si atom -5577.791894 kJ/mol
# Density = 2.252984 g / cm^3
# Si number density = 22.581237 Si / 1000 Ang^3
#
#
#
# Elastic Constant Matrix: (Units=GPa)
#
#
# Indices 1 2 3 4 5 6 
#
# 1 104.1335 0.1819 39.2979 0.0000 4.1524 0.0000
# 2 0.1819 57.1338 -2.1888 0.0000 3.7904 0.0000
# 3 39.2979 -2.1888 173.7843 0.0000 11.7656 0.0000
# 4 0.0000 0.0000 0.0000 8.3445 0.0000 16.5384
# 5 4.1524 3.7904 11.7656 0.0000 31.3462 0.0000
# 6 0.0000 0.0000 0.0000 16.5384 0.0000 111.3523
#
#
#
# Elastic Compliance Matrix: (Units=1/GPa)
#
#
# Indices 1 2 3 4 5 6 
#
# 1 0.010508 -0.000090 -0.002343 0.000000 -0.000502 0.000000
# 2 -0.000090 0.017669 0.000397 0.000000 -0.002274 0.000000
# 3 -0.002343 0.000397 0.006435 0.000000 -0.002153 0.000000
# 4 0.000000 0.000000 0.000000 0.169834 0.000000 -0.025224
# 5 -0.000502 -0.002274 -0.002153 0.000000 0.033051 0.000000
# 6 0.000000 0.000000 0.000000 -0.025224 0.000000 0.012727
#
#
# Mechanical properties :
#
#
# Convention : Reuss Voigt Hill
#
# Bulk Modulus (GPa) = 32.74532 45.51485 39.13009
# Shear Modulus (GPa) = 18.90534 50.05929 34.48231
#
# Velocity S-wave (km/s) = 2.89660 4.71346 3.91197
# Velocity P-wave (km/s) = 5.07146 7.05847 6.14580
#
# Compressibility (1/GPa) = 0.03053872
#
# Stress axis : x y z
#
# Youngs Moduli (GPa) = 95.17005 56.59595 155.40282
#
# Poissons Ratio (x) = 0.00509 0.36415
# Poissons Ratio (y) = 0.00856 -0.06167
# Poissons Ratio (z) = 0.22301 -0.02246
#
# Static dielectric constant tensor:
#      x y z
#    x 1.917670 0.000000 0.052200 
#    y 0.000000 1.828940 0.000000 
#    z 0.052200 0.000000 1.888780 
# 
# From -- ./inp_files/53349.got.cif
#   From: 2010.05.17/outbox.cif.g08.bks.cpg/sg12_27_cif.got.tgz:53349.got - 2010.06.03 13:09:07.
