data_PCOD9210856
_publ_section_title
;
Structure prediction by ZEFSAII (Michael W. Deem and Ramdas Pophale) SiO2 
 PCOD9210856
Probable space group: C 2/M
;
_chemical_formula_sum "Si O2"
_cell_formula_units_Z 32
_cell_length_a 14.321471
_cell_length_b 15.602021
_cell_length_c 13.945833
_cell_angle_alpha 90.000000
_cell_angle_beta 28.378648
_cell_angle_gamma 90.000000
_cell_volume 1481.076319
_symmetry_space_group_name_H-M "C 2/M"
_symmetry_group_IT_number 12
_symmetry_cell_setting 'monoclinic'
loop_
_space_group_symop_operation_xyz
x,y,z
-x,y,-z
-x,-y,-z
x,-y,z
1/2+x,1/2+y,z
1/2-x,1/2+y,-z
1/2-x,1/2-y,-z
1/2+x,1/2-y,z
loop_
_atom_site_type_symbol
_atom_site_label
_atom_site_fract_x
_atom_site_fract_y
_atom_site_fract_z
Si Si1 0.052329 0.409985 0.342397
Si Si2 0.160533 0.163177 0.623021
Si Si3 0.123466 0.100419 0.290084
Si Si4 0.165647 0.239883 0.968548
O O1 0.144713 0.500000 0.225994
O O2 0.193136 0.330275 0.203831
O O3 0.000000 0.414960 0.500000
O O4 0.846552 0.395736 0.475316
O O5 0.250000 0.250000 0.500000
O O6 0.018469 0.119721 0.672883
O O7 0.044545 0.195723 0.822861
O O8 0.299222 0.169657 0.116439
O O9 0.000000 0.116413 0.500000
O O10 0.182778 0.000000 0.236229
O O11 0.250000 0.250000 0.000000
#
# Coordination Sequence:
#
# PCOD9210856 Si02
#       4
#     8   8   8   8
#     4  11  24  42  64  92 127 163 203 254 307 365
#     4  11  22  41  63  92 122 165 205 249 310 359
#     4  10  21  40  65  93 126 162 204 255 306 365
#     4  10  21  39  64  92 121 164 204 250 307 362
#
# _framework density 21.605909
#
# number of rings (size 3 to 8) (size 9 to 14) (size 15 to 20)
#    0.000    1.500    5.000    1.500    0.000    6.000 
#    0.000    2.500    0.000    3.000    0.000    0.000 
#    0.000    0.000    0.000    0.000    0.000    0.000 
#
# Total GULP energy -89306.619448 kJ/mol
# GULP energy per Si atom -5581.663716 kJ/mol
# Density = 2.155673 g / cm^3
# Si number density = 21.605909 Si / 1000 Ang^3
#
#
#
# Elastic Constant Matrix: (Units=GPa)
#
#
# Indices 1 2 3 4 5 6 
#
# 1 61.3247 20.1154 7.7273 -0.0060 2.3339 0.0013
# 2 20.1154 174.9575 59.5994 -0.0142 20.8684 0.0132
# 3 7.7273 59.5994 101.2827 -0.0277 17.4112 0.0162
# 4 -0.0060 -0.0142 -0.0277 59.4702 0.0140 21.7688
# 5 2.3339 20.8684 17.4112 0.0140 27.0501 -0.0031
# 6 0.0013 0.0132 0.0162 21.7688 -0.0031 20.3759
#
#
#
# Elastic Compliance Matrix: (Units=1/GPa)
#
#
# Indices 1 2 3 4 5 6 
#
# 1 0.016949 -0.001896 -0.000200 0.000002 0.000129 -0.000001
# 2 -0.001896 0.007609 -0.003769 0.000002 -0.003281 -0.000005
# 3 -0.000200 -0.003769 0.013047 0.000016 -0.005473 -0.000026
# 4 0.000002 0.000002 0.000016 0.027614 -0.000030 -0.029502
# 5 0.000129 -0.003281 -0.005473 -0.000030 0.043011 0.000045
# 6 -0.000001 -0.000005 -0.000026 -0.029502 0.000045 0.080596
#
#
# Mechanical properties :
#
#
# Convention : Reuss Voigt Hill
#
# Bulk Modulus (GPa) = 38.64564 56.93879 47.79222
# Shear Modulus (GPa) = 23.90280 38.05410 30.97845
#
# Velocity S-wave (km/s) = 3.32973 4.20132 3.79066
# Velocity P-wave (km/s) = 5.71911 7.06720 6.42859
#
# Compressibility (1/GPa) = 0.02587614
#
# Stress axis : x y z
#
# Youngs Moduli (GPa) = 59.00117 131.42688 76.64485
#
# Poissons Ratio (x) = 0.24919 0.01529
# Poissons Ratio (y) = 0.11187 0.28886
# Poissons Ratio (z) = 0.01177 0.49532
#
# Static dielectric constant tensor:
#      x y z
#    x 1.853040 0.000010 -0.022500 
#    y 0.000010 1.824350 -0.000010 
#    z -0.022500 -0.000010 1.779490 
# 
# From -- ./inp_files/14494.got.cif
#   From: 2010.05.17/outbox.cif.g08.bks.cpg/sg12_8_cif.got.tgz:14494.got - 2010.06.03 13:09:07.
