data_PCOD9210269
_publ_section_title
;
Structure prediction by ZEFSAII (Michael W. Deem and Ramdas Pophale) SiO2 
 PCOD9210269
Probable space group: C 2/M
;
_chemical_formula_sum "Si O2"
_cell_formula_units_Z 64
_cell_length_a 9.168892
_cell_length_b 17.982157
_cell_length_c 21.016331
_cell_angle_alpha 90.000000
_cell_angle_beta 83.058818
_cell_angle_gamma 90.000000
_cell_volume 3439.701542
_symmetry_space_group_name_H-M "C 2/M"
_symmetry_group_IT_number 12
_symmetry_cell_setting 'monoclinic'
loop_
_space_group_symop_operation_xyz
x,y,z
-x,y,-z
-x,-y,-z
x,-y,z
1/2+x,1/2+y,z
1/2-x,1/2+y,-z
1/2-x,1/2-y,-z
1/2+x,1/2-y,z
loop_
_atom_site_type_symbol
_atom_site_label
_atom_site_fract_x
_atom_site_fract_y
_atom_site_fract_z
Si Si1 0.761946 0.411924 0.176005
Si Si2 0.030208 0.582160 0.072778
Si Si3 0.340655 0.811054 0.536801
Si Si4 0.019503 0.806242 0.148141
Si Si5 0.664319 0.213782 0.739298
Si Si6 0.740836 0.710464 0.931088
Si Si7 0.548244 0.273778 0.346641
Si Si8 0.069757 0.087927 0.567147
O O1 0.757283 0.500000 0.184832
O O2 0.598937 0.381570 0.167560
O O3 0.834032 0.368672 0.231688
O O4 0.878786 0.393033 0.113815
O O5 0.062983 0.500000 0.096177
O O6 0.168287 0.634571 0.073116
O O7 0.000000 0.578990 0.000000
O O8 0.500000 0.829481 0.500000
O O9 0.250000 0.750000 0.500000
O O10 0.380030 0.771741 0.600431
O O11 0.235737 0.881639 0.551987
O O12 0.163226 0.758419 0.123458
O O13 0.914462 0.768979 0.206627
O O14 0.920078 0.804865 0.089305
O O15 0.587455 0.229029 0.675995
O O16 0.835250 0.225963 0.716622
O O17 0.750000 0.750000 0.000000
O O18 0.504827 0.354651 0.378188
O O19 0.000000 0.097639 0.500000
O O20 0.059711 0.000000 0.584153
#
# Coordination Sequence:
#
# PCOD9210269 Si02
#       8
#     8   8   8   8   8   8   8   8
#     4  11  24  43  64  90 128 171 215 271 334 387
#     4  10  21  39  61  87 125 167 206 263 336 396
#     4  12  20  39  69  99 128 169 216 260 315 383
#     4  12  22  40  61  90 128 163 217 268 321 382
#     4  12  23  40  64  91 122 172 219 266 308 384
#     4  12  22  36  64  95 122 161 217 273 325 392
#     4  12  22  39  68  92 122 174 220 259 310 386
#     4  11  24  42  65 100 138 169 209 272 332 373
#
# _framework density 18.606265
#
# number of rings (size 3 to 8) (size 9 to 14) (size 15 to 20)
#    0.000    0.500    7.500    1.875    0.000    1.250 
#    0.000    0.625    0.000    3.750    0.000    0.000 
#    0.000    0.000    0.000    0.000    0.000    0.000 
#
# Total GULP energy -178408.344865 kJ/mol
# GULP energy per Si atom -5575.260777 kJ/mol
# Density = 1.856392 g / cm^3
# Si number density = 18.606265 Si / 1000 Ang^3
#
#
#
# Elastic Constant Matrix: (Units=GPa)
#
#
# Indices 1 2 3 4 5 6 
#
# 1 129.2655 65.1305 41.9356 0.0000 1.5940 0.0000
# 2 65.1305 108.1017 42.3746 0.0000 13.3476 0.0000
# 3 41.9356 42.3746 86.8022 0.0000 3.1569 0.0000
# 4 0.0000 0.0000 0.0000 17.8339 0.0000 11.8038
# 5 1.5940 13.3476 3.1569 0.0000 45.6718 0.0000
# 6 0.0000 0.0000 0.0000 11.8038 0.0000 23.9459
#
#
#
# Elastic Compliance Matrix: (Units=1/GPa)
#
#
# Indices 1 2 3 4 5 6 
#
# 1 0.011712 -0.006198 -0.002690 0.000000 0.001589 0.000000
# 2 -0.006198 0.015135 -0.004252 0.000000 -0.003913 0.000000
# 3 -0.002690 -0.004252 0.014885 0.000000 0.000308 0.000000
# 4 0.000000 0.000000 0.000000 0.083226 0.000000 -0.041025
# 5 0.001589 -0.003913 0.000308 0.000000 0.022962 0.000000
# 6 0.000000 0.000000 0.000000 -0.041025 0.000000 0.061984
#
#
# Mechanical properties :
#
#
# Convention : Reuss Voigt Hill
#
# Bulk Modulus (GPa) = 64.72001 69.22787 66.97394
# Shear Modulus (GPa) = 20.71822 29.13890 24.92856
#
# Velocity S-wave (km/s) = 3.34055 3.96167 3.66429
# Velocity P-wave (km/s) = 7.05255 7.62980 7.34685
#
# Compressibility (1/GPa) = 0.01545117
#
# Stress axis : x y z
#
# Youngs Moduli (GPa) = 85.38184 66.07408 67.18377
#
# Poissons Ratio (x) = 0.40953 0.18075
# Poissons Ratio (y) = 0.52920 0.28564
# Poissons Ratio (z) = 0.22971 0.28092
#
# Static dielectric constant tensor:
#      x y z
#    x 1.836550 0.000000 -0.053760 
#    y 0.000000 1.676400 0.000000 
#    z -0.053760 0.000000 1.738300 
# 
# From -- ./inp_files/300777.got.cif
#   From: 2010.05.17/outbox.cif.g08.bks.cpg/sg12_151_cif.got.tgz:300777.got - 2010.06.03 13:09:07.
