data_PCOD9210606
_publ_section_title
;
Structure prediction by ZEFSAII (Michael W. Deem and Ramdas Pophale) SiO2 
 PCOD9210606
Probable space group: C 2/M
;
_chemical_formula_sum "Si O2"
_cell_formula_units_Z 64
_cell_length_a 19.812511
_cell_length_b 8.625442
_cell_length_c 18.821731
_cell_angle_alpha 90.000000
_cell_angle_beta 89.535534
_cell_angle_gamma 90.000000
_cell_volume 3216.371255
_symmetry_space_group_name_H-M "C 2/M"
_symmetry_group_IT_number 12
_symmetry_cell_setting 'monoclinic'
loop_
_space_group_symop_operation_xyz
x,y,z
-x,y,-z
-x,-y,-z
x,-y,z
1/2+x,1/2+y,z
1/2-x,1/2+y,-z
1/2-x,1/2-y,-z
1/2+x,1/2-y,z
loop_
_atom_site_type_symbol
_atom_site_label
_atom_site_fract_x
_atom_site_fract_y
_atom_site_fract_z
Si Si1 0.239365 0.684446 0.829524
Si Si2 0.547995 0.310722 0.434095
Si Si3 0.298825 0.316214 0.319325
Si Si4 0.449421 0.313275 0.311783
Si Si5 0.203532 0.814968 0.437417
Si Si6 0.118115 0.817109 0.108961
Si Si7 0.863314 0.686212 0.046173
Si Si8 0.977442 0.316760 0.156268
O O1 0.229463 0.500000 0.816353
O O2 0.210891 0.777616 0.763385
O O3 0.317923 0.714813 0.841610
O O4 0.200045 0.720734 0.902618
O O5 0.500000 0.264602 0.500000
O O6 0.549621 0.500000 0.433694
O O7 0.509676 0.259968 0.362658
O O8 0.625664 0.258649 0.439824
O O9 0.293745 0.500000 0.331763
O O10 0.374890 0.264646 0.339038
O O11 0.241264 0.232310 0.364817
O O12 0.449469 0.500000 0.312814
O O13 0.459349 0.259948 0.231191
O O14 0.250000 0.750000 0.500000
O O15 0.201675 0.000000 0.443737
O O16 0.053114 0.723661 0.134041
O O17 0.103403 0.000000 0.112628
O O18 0.136969 0.771228 0.028577
O O19 0.865671 0.500000 0.033840
O O20 0.928077 0.732640 0.092802
O O21 0.968053 0.500000 0.164437
#
# Coordination Sequence:
#
# PCOD9210606 Si02
#       8
#     8   8   8   8   8   8   8   8
#     4  10  22  41  61  85 120 162 203 248 306 367
#     4   9  19  38  64  91 121 158 199 242 291 348
#     4  11  23  39  63  92 123 159 203 254 302 359
#     4  10  21  39  63  89 118 158 207 251 296 357
#     4  11  23  40  65  94 127 163 201 247 298 358
#     4  11  24  38  59  87 119 156 203 256 304 364
#     4  10  21  40  62  84 115 157 203 251 311 368
#     4  11  23  39  60  86 120 160 199 250 312 364
#
# _framework density 19.898201
#
# number of rings (size 3 to 8) (size 9 to 14) (size 15 to 20)
#    0.000    1.625    1.250    3.000    1.750    6.500 
#    0.000    0.625    0.000    2.625    0.000    0.000 
#    0.000    0.000    0.000    0.000    0.000    0.000 
#
# Total GULP energy -178840.469616 kJ/mol
# GULP energy per Si atom -5588.764676 kJ/mol
# Density = 1.985291 g / cm^3
# Si number density = 19.898201 Si / 1000 Ang^3
#
#
#
# Elastic Constant Matrix: (Units=GPa)
#
#
# Indices 1 2 3 4 5 6 
#
# 1 122.5538 18.5268 31.1846 0.0000 6.0040 0.0000
# 2 18.5268 8.0787 9.8735 0.0000 8.1622 0.0000
# 3 31.1846 9.8735 67.3469 0.0000 6.8090 0.0000
# 4 0.0000 0.0000 0.0000 32.3771 0.0000 -1.2735
# 5 6.0040 8.1622 6.8090 0.0000 33.3955 0.0000
# 6 0.0000 0.0000 0.0000 -1.2735 0.0000 24.1611
#
#
#
# Elastic Compliance Matrix: (Units=1/GPa)
#
#
# Indices 1 2 3 4 5 6 
#
# 1 0.013744 -0.036193 -0.001738 0.000000 0.006729 0.000000
# 2 -0.036193 0.292861 -0.020010 0.000000 -0.060992 0.000000
# 3 -0.001738 -0.020010 0.018441 0.000000 0.001443 0.000000
# 4 0.000000 0.000000 0.000000 0.030950 0.000000 0.001631
# 5 0.006729 -0.060992 0.001443 0.000000 0.043347 0.000000
# 6 0.000000 0.000000 0.000000 0.001631 0.000000 0.041475
#
#
# Mechanical properties :
#
#
# Convention : Reuss Voigt Hill
#
# Bulk Modulus (GPa) = 4.78095 35.23882 20.00988
# Shear Modulus (GPa) = 7.98184 27.21302 17.59743
#
# Velocity S-wave (km/s) = 2.00501 3.70214 2.97707
# Velocity P-wave (km/s) = 2.78711 6.00187 4.67923
#
# Compressibility (1/GPa) = 0.20916358
#
# Stress axis : x y z
#
# Youngs Moduli (GPa) = 72.76056 3.41459 54.22696
#
# Poissons Ratio (x) = 0.12358 0.09426
# Poissons Ratio (y) = 2.63343 1.08508
# Poissons Ratio (z) = 0.12647 0.06833
#
# Static dielectric constant tensor:
#      x y z
#    x 1.704990 0.000000 0.005760 
#    y 0.000000 1.680350 0.000000 
#    z 0.005760 0.000000 1.677220 
# 
# From -- ./inp_files/281428.got.cif
#   From: 2010.05.17/outbox.cif.g08.bks.cpg/sg12_141_cif.got.tgz:281428.got - 2010.06.03 13:09:07.
