data_PCOD9210347
_publ_section_title
;
Structure prediction by ZEFSAII (Michael W. Deem and Ramdas Pophale) SiO2 
 PCOD9210347
Probable space group: C 2/M
;
_chemical_formula_sum "Si O2"
_cell_formula_units_Z 56
_cell_length_a 19.157646
_cell_length_b 8.746753
_cell_length_c 29.972625
_cell_angle_alpha 90.000000
_cell_angle_beta 142.654584
_cell_angle_gamma 90.000000
_cell_volume 3046.699461
_symmetry_space_group_name_H-M "C 2/M"
_symmetry_group_IT_number 12
_symmetry_cell_setting 'monoclinic'
loop_
_space_group_symop_operation_xyz
x,y,z
-x,y,-z
-x,-y,-z
x,-y,z
1/2+x,1/2+y,z
1/2-x,1/2+y,-z
1/2-x,1/2-y,-z
1/2+x,1/2-y,z
loop_
_atom_site_type_symbol
_atom_site_label
_atom_site_fract_x
_atom_site_fract_y
_atom_site_fract_z
Si Si1 0.806068 0.815594 0.709533
Si Si2 0.455972 0.317398 0.699756
Si Si3 0.989574 0.682288 0.130415
Si Si4 0.582520 0.682985 0.000588
Si Si5 0.458370 0.186424 0.430010
Si Si6 0.835161 0.816759 0.129907
Si Si7 0.377745 0.182803 0.567474
O O1 0.858515 0.780465 0.687257
O O2 0.673616 0.768179 0.645404
O O3 0.889149 0.738266 0.787710
O O4 0.814229 0.000000 0.718988
O O5 0.451308 0.500000 0.689733
O O6 0.577077 0.280654 0.785103
O O7 0.434365 0.232698 0.642783
O O8 0.983890 0.500000 0.127268
O O9 0.892886 0.748144 0.114801
O O10 0.967325 0.747417 0.070191
O O11 0.589120 0.500000 0.999631
O O12 0.709467 0.749419 0.072809
O O13 0.500000 0.720604 0.000000
O O14 0.500000 0.237077 0.500000
O O15 0.544158 0.236156 0.434471
O O16 0.459260 0.000000 0.430841
O O17 0.830496 0.000000 0.123087
O O18 0.250000 0.250000 0.500000
O O19 0.370522 0.000000 0.561584
#
# Coordination Sequence:
#
# PCOD9210347 Si02
#       7
#     8   8   8   8   8   8   8
#     4   9  18  36  60  82 107 142 186 230 272 324
#     4   9  19  36  58  82 109 141 176 221 274 327
#     4  11  22  37  59  85 115 149 187 230 278 335
#     4  11  24  40  58  82 114 150 189 234 282 333
#     4   9  18  34  56  79 104 140 185 226 267 320
#     4  10  21  39  62  85 112 148 189 230 277 335
#     4  11  22  35  55  81 109 143 182 226 274 326
#
# _framework density 18.380547
#
# number of rings (size 3 to 8) (size 9 to 14) (size 15 to 20)
#    0.000    2.000    0.000    4.714    0.000    7.429 
#    0.000    5.714    0.000    3.000    0.000    0.000 
#    0.000    0.000    0.000    0.000    0.000    0.000 
#
# Total GULP energy -156432.056997 kJ/mol
# GULP energy per Si atom -5586.859178 kJ/mol
# Density = 1.833871 g / cm^3
# Si number density = 18.380547 Si / 1000 Ang^3
#
#
#
# Elastic Constant Matrix: (Units=GPa)
#
#
# Indices 1 2 3 4 5 6 
#
# 1 174.3205 68.0111 137.6941 0.0000 8.1684 0.0001
# 2 68.0111 62.1843 66.3913 0.0000 -3.3233 0.0001
# 3 137.6941 66.3913 149.2313 0.0000 3.6764 0.0000
# 4 0.0000 0.0000 0.0000 28.0842 0.0000 -1.3191
# 5 8.1684 -3.3233 3.6764 0.0000 35.7490 0.0000
# 6 0.0001 0.0001 0.0000 -1.3191 0.0000 27.5278
#
#
#
# Elastic Compliance Matrix: (Units=1/GPa)
#
#
# Indices 1 2 3 4 5 6 
#
# 1 0.022266 -0.005168 -0.018155 0.000000 -0.003701 0.000000
# 2 -0.005168 0.032490 -0.009815 0.000000 0.005210 0.000000
# 3 -0.018155 -0.009815 0.027809 0.000000 0.000376 0.000000
# 4 0.000000 0.000000 0.000000 0.035688 0.000000 0.001710
# 5 -0.003701 0.005210 0.000376 0.000000 0.029264 0.000000
# 6 0.000000 0.000000 0.000000 0.001710 0.000000 0.036409
#
#
# Mechanical properties :
#
#
# Convention : Reuss Voigt Hill
#
# Bulk Modulus (GPa) = 61.38071 103.32545 82.35308
# Shear Modulus (GPa) = 19.55938 25.84818 22.70378
#
# Velocity S-wave (km/s) = 3.26565 3.75411 3.51836
# Velocity P-wave (km/s) = 6.90552 8.66762 7.83626
#
# Compressibility (1/GPa) = 0.01629176
#
# Stress axis : x y z
#
# Youngs Moduli (GPa) = 44.91069 30.77836 35.95899
#
# Poissons Ratio (x) = 0.15905 0.65283
# Poissons Ratio (y) = 0.23208 0.35293
# Poissons Ratio (z) = 0.81534 0.30208
#
# Static dielectric constant tensor:
#      x y z
#    x 1.610110 0.000000 0.005930 
#    y 0.000000 1.619210 0.000000 
#    z 0.005930 0.000000 1.611720 
# 
# From -- ./inp_files/363204.got.cif
#   From: 2010.05.17/outbox.cif.g08.bks.cpg/sg12_182_cif.got.tgz:363204.got - 2010.06.03 13:09:07.
