data_PCOD9210881
_publ_section_title
;
Structure prediction by ZEFSAII (Michael W. Deem and Ramdas Pophale) SiO2 
 PCOD9210881
Probable space group: C 2/M
;
_chemical_formula_sum "Si O2"
_cell_formula_units_Z 56
_cell_length_a 19.396473
_cell_length_b 8.522017
_cell_length_c 19.863282
_cell_angle_alpha 90.000000
_cell_angle_beta 66.333087
_cell_angle_gamma 90.000000
_cell_volume 3007.195401
_symmetry_space_group_name_H-M "C 2/M"
_symmetry_group_IT_number 12
_symmetry_cell_setting 'monoclinic'
loop_
_space_group_symop_operation_xyz
x,y,z
-x,y,-z
-x,-y,-z
x,-y,z
1/2+x,1/2+y,z
1/2-x,1/2+y,-z
1/2-x,1/2-y,-z
1/2+x,1/2-y,z
loop_
_atom_site_type_symbol
_atom_site_label
_atom_site_fract_x
_atom_site_fract_y
_atom_site_fract_z
Si Si1 0.070773 0.685313 0.928164
Si Si2 0.730264 0.814939 0.935216
Si Si3 0.340974 0.820605 0.787774
Si Si4 0.949349 0.312172 0.582654
Si Si5 0.507963 0.312186 0.286608
Si Si6 0.292046 0.319793 0.671639
Si Si7 0.874500 0.812627 0.239380
O O1 0.056682 0.500000 0.921961
O O2 0.143979 0.701036 0.946744
O O3 0.093333 0.754295 0.845773
O O4 0.000000 0.748085 0.000000
O O5 0.779349 0.707851 0.867210
O O6 0.749986 0.000000 0.921249
O O7 0.750000 0.750000 0.000000
O O8 0.423981 0.774565 0.778526
O O9 0.320382 0.700223 0.737024
O O10 0.339651 0.000000 0.763296
O O11 0.953115 0.500000 0.586472
O O12 0.982273 0.242296 0.639669
O O13 0.861724 0.264165 0.606652
O O14 0.000000 0.260139 0.500000
O O15 0.516930 0.500000 0.280253
O O16 0.431770 0.271098 0.277338
O O17 0.288628 0.500000 0.652377
O O18 0.208179 0.250262 0.708201
O O19 0.869364 0.000000 0.236612
#
# Coordination Sequence:
#
# PCOD9210881 Si02
#       7
#     8   8   8   8   8   8   8
#     4  10  23  41  59  82 114 155 201 246 299 354
#     4  11  23  38  56  81 113 149 193 246 299 351
#     4  11  21  36  58  82 111 150 194 243 292 344
#     4  10  21  39  64  93 123 155 193 238 289 348
#     4  10  22  38  59  89 120 153 196 241 289 348
#     4  11  21  36  61  88 116 154 195 236 287 347
#     4  11  23  39  60  87 119 156 199 245 294 350
#
# _framework density 18.622001999999998
#
# number of rings (size 3 to 8) (size 9 to 14) (size 15 to 20)
#    0.000    1.429    1.429    6.000    2.000    4.286 
#    0.000    0.714    0.000    0.000    0.000    0.000 
#    0.000    0.000    0.000    0.000    0.000    0.000 
#
# Total GULP energy -156141.100914 kJ/mol
# GULP energy per Si atom -5576.467890 kJ/mol
# Density = 1.857962 g / cm^3
# Si number density = 18.622002 Si / 1000 Ang^3
#
#
#
# Elastic Constant Matrix: (Units=GPa)
#
#
# Indices 1 2 3 4 5 6 
#
# 1 131.5994 39.2016 46.1137 0.0001 -16.5753 0.0001
# 2 39.2016 62.5137 17.6353 0.0002 -3.0050 0.0003
# 3 46.1137 17.6353 90.6595 0.0000 -25.4587 0.0001
# 4 0.0001 0.0002 0.0000 27.3796 0.0001 -4.1235
# 5 -16.5753 -3.0050 -25.4587 0.0001 29.5955 0.0001
# 6 0.0001 0.0003 0.0001 -4.1235 0.0001 20.1164
#
#
#
# Elastic Compliance Matrix: (Units=1/GPa)
#
#
# Indices 1 2 3 4 5 6 
#
# 1 0.010903 -0.005653 -0.003814 0.000000 0.002252 0.000000
# 2 -0.005653 0.019905 -0.001738 0.000000 -0.002640 0.000000
# 3 -0.003814 -0.001738 0.016691 0.000000 0.012045 0.000000
# 4 0.000000 0.000000 0.000000 0.037687 0.000000 0.007725
# 5 0.002252 -0.002640 0.012045 0.000000 0.045144 0.000000
# 6 0.000000 0.000000 0.000000 0.007725 0.000000 0.051294
#
#
# Mechanical properties :
#
#
# Convention : Reuss Voigt Hill
#
# Bulk Modulus (GPa) = 39.85800 54.51931 47.18866
# Shear Modulus (GPa) = 23.54104 27.53975 25.54040
#
# Velocity S-wave (km/s) = 3.55935 3.84980 3.70742
# Velocity P-wave (km/s) = 6.19210 7.00726 6.61225
#
# Compressibility (1/GPa) = 0.02508907
#
# Stress axis : x y z
#
# Youngs Moduli (GPa) = 91.72069 50.23944 59.91345
#
# Poissons Ratio (x) = 0.28399 0.22849
# Poissons Ratio (y) = 0.51848 0.10413
# Poissons Ratio (z) = 0.34980 0.08731
#
# Static dielectric constant tensor:
#      x y z
#    x 1.656480 0.000000 -0.026290 
#    y 0.000000 1.642350 0.000000 
#    z -0.026290 0.000000 1.664990 
# 
# From -- ./inp_files/275159.got.cif
#   From: 2010.05.17/outbox.cif.g08.bks.cpg/sg12_138_cif.got.tgz:275159.got - 2010.06.03 13:09:07.
