data_PCOD9210706
_publ_section_title
;
Structure prediction by ZEFSAII (Michael W. Deem and Ramdas Pophale) SiO2 
 PCOD9210706
Probable space group: C 2/M
;
_chemical_formula_sum "Si O2"
_cell_formula_units_Z 56
_cell_length_a 25.905573
_cell_length_b 8.608635
_cell_length_c 13.745781
_cell_angle_alpha 90.000000
_cell_angle_beta 112.130289
_cell_angle_gamma 90.000000
_cell_volume 2839.634641
_symmetry_space_group_name_H-M "C 2/M"
_symmetry_group_IT_number 12
_symmetry_cell_setting 'monoclinic'
loop_
_space_group_symop_operation_xyz
x,y,z
-x,y,-z
-x,-y,-z
x,-y,z
1/2+x,1/2+y,z
1/2-x,1/2+y,-z
1/2-x,1/2-y,-z
1/2+x,1/2-y,z
loop_
_atom_site_type_symbol
_atom_site_label
_atom_site_fract_x
_atom_site_fract_y
_atom_site_fract_z
Si Si1 0.050515 0.187343 0.108111
Si Si2 0.234358 0.187639 0.883325
Si Si3 0.995758 0.812664 0.714530
Si Si4 0.810117 0.185044 0.571575
Si Si5 0.386854 0.687456 0.275383
Si Si6 0.169312 0.685666 0.199676
Si Si7 0.592070 0.815302 0.494615
O O1 0.033331 0.235663 0.205411
O O2 0.108307 0.265872 0.119576
O O3 0.057835 0.000000 0.112851
O O4 0.000000 0.224564 0.000000
O O5 0.173136 0.241736 0.805656
O O6 0.281723 0.232888 0.839247
O O7 0.233389 0.000000 0.886068
O O8 0.250000 0.250000 0.000000
O O9 0.962924 0.745390 0.599225
O O10 0.060678 0.768368 0.754770
O O11 0.992280 0.000000 0.707607
O O12 0.750000 0.250000 0.500000
O O13 0.822405 0.231992 0.691005
O O14 0.856536 0.259063 0.535132
O O15 0.811737 0.000000 0.561869
O O16 0.385015 0.500000 0.277908
O O17 0.399695 0.747731 0.392249
O O18 0.172054 0.500000 0.215254
O O19 0.590631 0.000000 0.498184
#
# Coordination Sequence:
#
# PCOD9210706 Si02
#       7
#     8   8   8   8   8   8   8
#     4  10  22  39  64  95 124 164 215 259 310 380
#     4  10  24  43  65  92 123 161 207 255 307 368
#     4  10  21  39  63  92 125 166 212 258 314 373
#     4  12  24  40  64  93 126 165 207 256 311 374
#     4  10  22  41  64  89 124 169 213 260 312 372
#     4  11  23  41  63  94 129 164 207 257 313 373
#     4  12  24  39  61  93 129 165 207 256 314 378
#
# _framework density 19.720848
#
# number of rings (size 3 to 8) (size 9 to 14) (size 15 to 20)
#    0.000    1.286    1.429    4.286    2.000    5.429 
#    0.000    0.000    0.000    0.000    0.000    0.000 
#    0.000    0.000    0.000    0.000    0.000    0.000 
#
# Total GULP energy -156609.559854 kJ/mol
# GULP energy per Si atom -5593.198566 kJ/mol
# Density = 1.967596 g / cm^3
# Si number density = 19.720848 Si / 1000 Ang^3
#
#
#
# Elastic Constant Matrix: (Units=GPa)
#
#
# Indices 1 2 3 4 5 6 
#
# 1 156.5458 22.5108 34.5591 0.0000 18.1265 0.0000
# 2 22.5108 8.4198 5.6976 0.0000 4.9040 0.0000
# 3 34.5591 5.6976 74.6247 0.0000 19.0428 0.0000
# 4 0.0000 0.0000 0.0000 29.6456 0.0000 2.0113
# 5 18.1265 4.9040 19.0428 0.0000 36.4426 0.0000
# 6 0.0000 0.0000 0.0000 2.0113 0.0000 28.8284
#
#
#
# Elastic Compliance Matrix: (Units=1/GPa)
#
#
# Indices 1 2 3 4 5 6 
#
# 1 0.010981 -0.027215 -0.002940 0.000000 -0.000263 0.000000
# 2 -0.027215 0.198893 0.000916 0.000000 -0.013706 0.000000
# 3 -0.002940 0.000916 0.016558 0.000000 -0.007313 0.000000
# 4 0.000000 0.000000 0.000000 0.033892 0.000000 -0.002365
# 5 -0.000263 -0.013706 -0.007313 0.000000 0.033237 0.000000
# 6 0.000000 0.000000 0.000000 -0.002365 0.000000 0.034853
#
#
# Mechanical properties :
#
#
# Convention : Reuss Voigt Hill
#
# Bulk Modulus (GPa) = 5.95406 40.56948 23.26177
# Shear Modulus (GPa) = 11.28978 30.77152 21.03065
#
# Velocity S-wave (km/s) = 2.39525 3.95442 3.26915
# Velocity P-wave (km/s) = 3.26732 6.43944 5.10597
#
# Compressibility (1/GPa) = 0.16795257
#
# Stress axis : x y z
#
# Youngs Moduli (GPa) = 91.06676 5.02783 60.39261
#
# Poissons Ratio (x) = 0.13683 0.17757
# Poissons Ratio (y) = 2.47841 -0.05530
# Poissons Ratio (z) = 0.26776 -0.00460
#
# Static dielectric constant tensor:
#      x y z
#    x 1.695510 0.000000 0.008080 
#    y 0.000000 1.670990 0.000000 
#    z 0.008080 0.000000 1.656020 
# 
# From -- ./inp_files/181112.got.cif
#   From: 2010.05.17/outbox.cif.g08.bks.cpg/sg12_91_cif.got.tgz:181112.got - 2010.06.03 13:09:07.
