data_PCOD9210268
_publ_section_title
;
Structure prediction by ZEFSAII (Michael W. Deem and Ramdas Pophale) SiO2 
 PCOD9210268
Probable space group: C 2/M
;
_chemical_formula_sum "Si O2"
_cell_formula_units_Z 64
_cell_length_a 18.044554
_cell_length_b 14.426064
_cell_length_c 16.872390
_cell_angle_alpha 90.000000
_cell_angle_beta 49.654970
_cell_angle_gamma 90.000000
_cell_volume 3347.469528
_symmetry_space_group_name_H-M "C 2/M"
_symmetry_group_IT_number 12
_symmetry_cell_setting 'monoclinic'
loop_
_space_group_symop_operation_xyz
x,y,z
-x,y,-z
-x,-y,-z
x,-y,z
1/2+x,1/2+y,z
1/2-x,1/2+y,-z
1/2-x,1/2-y,-z
1/2+x,1/2-y,z
loop_
_atom_site_type_symbol
_atom_site_label
_atom_site_fract_x
_atom_site_fract_y
_atom_site_fract_z
Si Si1 0.084183 0.244122 0.747268
Si Si2 0.561435 0.108786 0.627347
Si Si3 0.288143 0.301386 0.052277
Si Si4 0.396307 0.167279 0.094620
Si Si5 0.736848 0.892768 0.382163
Si Si6 0.683937 0.399815 0.251110
Si Si7 0.863258 0.307079 0.701706
Si Si8 0.412795 0.599831 0.853762
O O1 0.080007 0.333917 0.694444
O O2 0.091223 0.275215 0.833308
O O3 0.175150 0.177996 0.664869
O O4 0.987917 0.183557 0.800388
O O5 0.656190 0.114973 0.506461
O O6 0.470630 0.156638 0.645634
O O7 0.540414 0.000000 0.656172
O O8 0.363725 0.236752 0.047123
O O9 0.201941 0.319959 0.173815
O O10 0.250000 0.250000 0.000000
O O11 0.344483 0.388480 0.977411
O O12 0.300797 0.105268 0.173019
O O13 0.500000 0.123761 0.000000
O O14 0.685372 0.863629 0.335692
O O15 0.769123 0.000000 0.355723
O O16 0.651434 0.500000 0.306613
O O17 0.643024 0.303272 0.314220
O O18 0.650618 0.396987 0.182390
O O19 0.463218 0.500000 0.820934
#
# Coordination Sequence:
#
# PCOD9210268 Si02
#       8
#     8   8   8   8   8   8   8   8
#     4  12  22  42  63  91 130 167 199 256 320 382
#     4  11  25  43  67  94 121 161 214 265 321 385
#     4  11  19  38  59  86 125 167 211 247 294 371
#     4  11  22  36  62  91 128 168 207 252 307 364
#     4  11  24  43  66  95 123 158 212 271 326 373
#     4  10  21  39  61  87 124 170 214 249 294 366
#     4  11  21  41  67  90 126 166 208 266 320 362
#     4  11  22  37  62  91 124 170 211 249 300 373
#
# _framework density 19.118919000000002
#
# number of rings (size 3 to 8) (size 9 to 14) (size 15 to 20)
#    0.000    1.000    7.500    1.500    0.000    2.750 
#    0.000    1.875    0.000    2.250    0.000    0.000 
#    0.000    0.000    0.000    0.000    0.000    0.000 
#
# Total GULP energy -178622.439533 kJ/mol
# GULP energy per Si atom -5581.951235 kJ/mol
# Density = 1.907540 g / cm^3
# Si number density = 19.118919 Si / 1000 Ang^3
#
#
#
# Elastic Constant Matrix: (Units=GPa)
#
#
# Indices 1 2 3 4 5 6 
#
# 1 99.7458 44.3431 21.2744 0.0000 -8.3667 0.0000
# 2 44.3431 137.2993 38.0569 0.0000 -7.9488 0.0000
# 3 21.2744 38.0569 55.1638 0.0000 -3.9553 0.0000
# 4 0.0000 0.0000 0.0000 22.6687 0.0000 -0.3598
# 5 -8.3667 -7.9488 -3.9553 0.0000 30.9700 0.0000
# 6 0.0000 0.0000 0.0000 -0.3598 0.0000 15.4976
#
#
#
# Elastic Compliance Matrix: (Units=1/GPa)
#
#
# Indices 1 2 3 4 5 6 
#
# 1 0.012101 -0.003131 -0.002351 0.000000 0.002165 0.000000
# 2 -0.003131 0.009888 -0.005544 0.000000 0.000984 0.000000
# 3 -0.002351 -0.005544 0.022922 0.000000 0.000869 0.000000
# 4 0.000000 0.000000 0.000000 0.044130 0.000000 0.001024
# 5 0.002165 0.000984 0.000869 0.000000 0.033238 0.000000
# 6 0.000000 0.000000 0.000000 0.001024 0.000000 0.064550
#
#
# Mechanical properties :
#
#
# Convention : Reuss Voigt Hill
#
# Bulk Modulus (GPa) = 43.74820 55.50639 49.62729
# Shear Modulus (GPa) = 23.09480 26.39625 24.74552
#
# Velocity S-wave (km/s) = 3.47934 3.71972 3.60153
# Velocity P-wave (km/s) = 6.25083 6.89519 6.58090
#
# Compressibility (1/GPa) = 0.02285809
#
# Stress axis : x y z
#
# Youngs Moduli (GPa) = 82.64108 101.13137 43.62709
#
# Poissons Ratio (x) = 0.31664 0.10259
# Poissons Ratio (y) = 0.25874 0.24185
# Poissons Ratio (z) = 0.19432 0.56064
#
# Static dielectric constant tensor:
#      x y z
#    x 1.651660 0.000000 -0.021080 
#    y 0.000000 1.679990 0.000000 
#    z -0.021080 0.000000 1.649110 
# 
# From -- ./inp_files/225674.got.cif
#   From: 2010.05.17/outbox.cif.g08.bks.cpg/sg12_113_cif.got.tgz:225674.got - 2010.06.03 13:09:07.
