data_PCOD9210941
_publ_section_title
;
Structure prediction by ZEFSAII (Michael W. Deem and Ramdas Pophale) SiO2 
 PCOD9210941
Probable space group: C 2/M
;
_chemical_formula_sum "Si O2"
_cell_formula_units_Z 40
_cell_length_a 10.219810
_cell_length_b 22.164915
_cell_length_c 7.925102
_cell_angle_alpha 90.000000
_cell_angle_beta 116.799205
_cell_angle_gamma 90.000000
_cell_volume 1602.384660
_symmetry_space_group_name_H-M "C 2/M"
_symmetry_group_IT_number 12
_symmetry_cell_setting 'monoclinic'
loop_
_space_group_symop_operation_xyz
x,y,z
-x,y,-z
-x,-y,-z
x,-y,z
1/2+x,1/2+y,z
1/2-x,1/2+y,-z
1/2-x,1/2-y,-z
1/2+x,1/2-y,z
loop_
_atom_site_type_symbol
_atom_site_label
_atom_site_fract_x
_atom_site_fract_y
_atom_site_fract_z
Si Si1 0.709603 0.332431 0.609270
Si Si2 0.269400 0.566401 0.789564
Si Si3 0.582725 0.729205 0.199282
Si Si4 0.439044 0.432474 0.242938
Si Si5 0.523421 0.165357 0.693958
O O1 0.373879 0.307489 0.606569
O O2 0.625428 0.379615 0.677900
O O3 0.772722 0.271675 0.739141
O O4 0.865493 0.363067 0.648232
O O5 0.200804 0.500000 0.729478
O O6 0.390210 0.572824 0.712110
O O7 0.150993 0.618476 0.742049
O O8 0.354681 0.567511 0.016318
O O9 0.460966 0.780833 0.166218
O O10 0.500000 0.694016 0.000000
O O11 0.414605 0.500000 0.300383
O O12 0.500000 0.195744 0.500000
#
# Coordination Sequence:
#
# PCOD9210941 Si02
#       5
#     8   8   8   8   8
#     4   9  20  38  68 101 140 186 243 292 358 429
#     4   9  19  36  65 103 148 189 225 291 368 427
#     4   9  19  40  70  98 139 187 234 301 361 423
#     4   9  18  37  66 106 145 183 238 292 354 434
#     4  10  21  39  64  96 145 179 235 292 350 427
#
# _framework density 24.962796000000001
#
# number of rings (size 3 to 8) (size 9 to 14) (size 15 to 20)
#    1.200    1.600    0.000    2.400    0.000    1.200 
#    0.000    9.000    4.400    3.000    0.000    0.000 
#    0.000    0.400    0.000    0.000    0.000    0.000 
#
# Total GULP energy -111617.518421 kJ/mol
# GULP energy per Si atom -5580.875921 kJ/mol
# Density = 2.490598 g / cm^3
# Si number density = 24.962796 Si / 1000 Ang^3
#
#
#
# Elastic Constant Matrix: (Units=GPa)
#
#
# Indices 1 2 3 4 5 6 
#
# 1 157.7867 70.6855 33.0254 0.0000 -6.8958 0.0000
# 2 70.6855 169.6531 45.7163 0.0000 -4.0992 0.0000
# 3 33.0254 45.7163 144.4986 0.0000 7.6838 0.0000
# 4 0.0000 0.0000 0.0000 39.4998 0.0000 -11.5782
# 5 -6.8958 -4.0992 7.6838 0.0000 36.4334 0.0000
# 6 0.0000 0.0000 0.0000 -11.5782 0.0000 82.2366
#
#
#
# Elastic Compliance Matrix: (Units=1/GPa)
#
#
# Indices 1 2 3 4 5 6 
#
# 1 0.007948 -0.003028 -0.000931 0.000000 0.001360 0.000000
# 2 -0.003028 0.007647 -0.001762 0.000000 0.000659 0.000000
# 3 -0.000931 -0.001762 0.007798 0.000000 -0.002019 0.000000
# 4 0.000000 0.000000 0.000000 0.026406 0.000000 0.003718
# 5 0.001360 0.000659 -0.002019 0.000000 0.028205 0.000000
# 6 0.000000 0.000000 0.000000 0.003718 0.000000 0.012683
#
#
# Mechanical properties :
#
#
# Convention : Reuss Voigt Hill
#
# Bulk Modulus (GPa) = 83.67519 85.64366 84.65943
# Shear Modulus (GPa) = 47.11914 53.13471 50.12693
#
# Velocity S-wave (km/s) = 4.34934 4.61863 4.48601
# Velocity P-wave (km/s) = 7.66910 7.92624 7.79873
#
# Compressibility (1/GPa) = 0.01195097
#
# Stress axis : x y z
#
# Youngs Moduli (GPa) = 125.81085 130.77407 128.23529
#
# Poissons Ratio (x) = 0.39598 0.11938
# Poissons Ratio (y) = 0.38095 0.22598
# Poissons Ratio (z) = 0.11713 0.23046
#
# Static dielectric constant tensor:
#      x y z
#    x 2.030580 0.000000 -0.013480 
#    y 0.000000 2.008390 0.000000 
#    z -0.013480 0.000000 2.024920 
# 
# From -- ./inp_files/39417.got.cif
#   From: 2010.05.17/outbox.cif.g08.bks.cpg/sg12_20_cif.got.tgz:39417.got - 2010.06.03 13:09:07.
