data_PCOD9210330
_publ_section_title
;
Structure prediction by ZEFSAII (Michael W. Deem and Ramdas Pophale) SiO2 
 PCOD9210330
Probable space group: C 2/M
;
_chemical_formula_sum "Si O2"
_cell_formula_units_Z 40
_cell_length_a 9.968515
_cell_length_b 10.014993
_cell_length_c 21.482950
_cell_angle_alpha 90.000000
_cell_angle_beta 108.445210
_cell_angle_gamma 90.000000
_cell_volume 2034.559313
_symmetry_space_group_name_H-M "C 2/M"
_symmetry_group_IT_number 12
_symmetry_cell_setting 'monoclinic'
loop_
_space_group_symop_operation_xyz
x,y,z
-x,y,-z
-x,-y,-z
x,-y,z
1/2+x,1/2+y,z
1/2-x,1/2+y,-z
1/2-x,1/2-y,-z
1/2+x,1/2-y,z
loop_
_atom_site_type_symbol
_atom_site_label
_atom_site_fract_x
_atom_site_fract_y
_atom_site_fract_z
Si Si1 0.215433 0.725880 0.133965
Si Si2 0.331386 0.000000 0.971267
Si Si3 0.994781 0.156410 0.573529
Si Si4 0.006768 0.653841 0.213535
Si Si5 0.858958 0.000000 0.938544
Si Si6 0.319322 0.158148 0.635668
O O1 0.218142 0.628624 0.075004
O O2 0.114363 0.665962 0.171815
O O3 0.372144 0.752759 0.182680
O O4 0.151703 0.867275 0.103537
O O5 0.500000 0.000000 0.000000
O O6 0.269372 0.000000 0.031105
O O7 0.153315 0.185138 0.621119
O O8 0.000000 0.175308 0.500000
O O9 0.883430 0.251904 0.590507
O O10 0.962053 0.000000 0.580634
O O11 0.957166 0.500000 0.210135
O O12 0.091736 0.685325 0.288896
O O13 0.000000 0.000000 0.000000
O O14 0.331521 0.000000 0.622523
#
# Coordination Sequence:
#
# PCOD9210330 Si02
#       6
#     8   4   8   8   4   8
#     4  12  23  43  66  88 125 162 199 256 309 364
#     4  12  24  42  66  92 122 160 199 250 315 370
#     4  10  21  39  61  93 129 163 206 254 303 359
#     4  11  23  43  62  91 125 160 207 255 304 365
#     4  12  24  40  60  96 120 150 209 250 297 376
#     4  10  22  39  62  89 124 165 207 254 302 359
#
# _framework density 19.660278000000002
#
# number of rings (size 3 to 8) (size 9 to 14) (size 15 to 20)
#    0.000    1.000    2.000    5.400    0.000    1.200 
#    3.600    0.000    0.000    0.000    0.000    0.000 
#    0.000    0.000    0.000    0.000    0.000    0.000 
#
# Total GULP energy -111904.879125 kJ/mol
# GULP energy per Si atom -5595.243956 kJ/mol
# Density = 1.961553 g / cm^3
# Si number density = 19.660278 Si / 1000 Ang^3
#
#
#
# Elastic Constant Matrix: (Units=GPa)
#
#
# Indices 1 2 3 4 5 6 
#
# 1 56.0423 -8.9895 -12.1502 0.0000 9.8003 0.0000
# 2 -8.9895 64.1872 5.5743 0.0000 0.8412 0.0000
# 3 -12.1502 5.5743 40.9023 0.0000 9.4226 0.0000
# 4 0.0000 0.0000 0.0000 34.2598 0.0000 -3.8900
# 5 9.8003 0.8412 9.4226 0.0000 41.6948 0.0000
# 6 0.0000 0.0000 0.0000 -3.8900 0.0000 11.2151
#
#
#
# Elastic Compliance Matrix: (Units=1/GPa)
#
#
# Indices 1 2 3 4 5 6 
#
# 1 0.021008 0.002382 0.007452 0.000000 -0.006670 0.000000
# 2 0.002382 0.016037 -0.001344 0.000000 -0.000580 0.000000
# 3 0.007452 -0.001344 0.028739 0.000000 -0.008219 0.000000
# 4 0.000000 0.000000 0.000000 0.030385 0.000000 0.010539
# 5 -0.006670 -0.000580 -0.008219 0.000000 0.027421 0.000000
# 6 0.000000 0.000000 0.000000 0.010539 0.000000 0.092821
#
#
# Mechanical properties :
#
#
# Convention : Reuss Voigt Hill
#
# Bulk Modulus (GPa) = 12.08237 14.44455 13.26346
# Shear Modulus (GPa) = 22.02455 29.21375 25.61915
#
# Velocity S-wave (km/s) = 3.35065 3.85895 3.61375
# Velocity P-wave (km/s) = 4.59653 5.21713 4.91663
#
# Compressibility (1/GPa) = 0.08276519
#
# Stress axis : x y z
#
# Youngs Moduli (GPa) = 47.60102 62.35411 34.79599
#
# Poissons Ratio (x) = -0.14855 -0.25931
# Poissons Ratio (y) = -0.11340 0.04678
# Poissons Ratio (z) = -0.35474 0.08383
#
# Static dielectric constant tensor:
#      x y z
#    x 1.629400 0.000000 0.030990 
#    y 0.000000 1.671210 0.000000 
#    z 0.030990 0.000000 1.671700 
# 
# From -- ./inp_files/331819.got.cif
#   From: 2010.05.17/outbox.cif.g08.bks.cpg/sg12_166_cif.got.tgz:331819.got - 2010.06.03 13:09:07.
