data_PCOD9210970
_publ_section_title
;
Structure prediction by ZEFSAII (Michael W. Deem and Ramdas Pophale) SiO2 
 PCOD9210970
Probable space group: C 2/M
;
_chemical_formula_sum "Si O2"
_cell_formula_units_Z 44
_cell_length_a 17.563026
_cell_length_b 12.584852
_cell_length_c 29.444468
_cell_angle_alpha 90.000000
_cell_angle_beta 20.209114
_cell_angle_gamma 90.000000
_cell_volume 2248.190963
_symmetry_space_group_name_H-M "C 2/M"
_symmetry_group_IT_number 12
_symmetry_cell_setting 'monoclinic'
loop_
_space_group_symop_operation_xyz
x,y,z
-x,y,-z
-x,-y,-z
x,-y,z
1/2+x,1/2+y,z
1/2-x,1/2+y,-z
1/2-x,1/2-y,-z
1/2+x,1/2-y,z
loop_
_atom_site_type_symbol
_atom_site_label
_atom_site_fract_x
_atom_site_fract_y
_atom_site_fract_z
Si Si1 0.787270 0.784598 0.092390
Si Si2 0.488849 0.881397 0.908963
Si Si3 0.572221 0.121432 0.558129
Si Si4 0.500000 0.776271 0.500000
Si Si5 0.566100 0.685263 0.301873
Si Si6 0.091590 0.620881 0.748657
O O1 0.656490 0.713895 0.201893
O O2 0.612182 0.867213 0.171444
O O3 0.000000 0.828612 0.000000
O O4 0.871947 0.707148 0.004966
O O5 0.745041 0.882492 0.780090
O O6 0.493597 0.855130 0.853241
O O7 0.394677 0.000000 0.968646
O O8 0.537937 0.156400 0.524848
O O9 0.455069 0.207362 0.656219
O O10 0.828885 0.132258 0.428713
O O11 0.498958 0.000000 0.605577
O O12 0.286222 0.701749 0.627289
O O13 0.175657 0.500000 0.701960
#
# Coordination Sequence:
#
# PCOD9210970 Si02
#       6
#     8   8   8   4   8   8
#     4  10  22  40  64  88 125 160 203 256 300 368
#     4  10  21  39  65  90 120 164 207 253 303 359
#     4  11  23  39  63  92 125 165 202 255 314 359
#     4  12  22  44  64  90 126 160 212 256 300 374
#     4  10  21  40  60  92 128 155 204 257 297 378
#     4  11  23  41  64  91 124 164 207 254 310 363
#
# _framework density 19.571290999999999
#
# number of rings (size 3 to 8) (size 9 to 14) (size 15 to 20)
#    0.000    1.455    3.636    1.636    0.000    5.091 
#    0.000    2.727    0.000    0.000    0.000    0.000 
#    0.000    0.000    0.000    0.000    0.000    0.000 
#
# Total GULP energy -122819.208068 kJ/mol
# GULP energy per Si atom -5582.691276 kJ/mol
# Density = 1.952675 g / cm^3
# Si number density = 19.571291 Si / 1000 Ang^3
#
#
#
# Elastic Constant Matrix: (Units=GPa)
#
#
# Indices 1 2 3 4 5 6 
#
# 1 81.0511 28.4433 7.0077 0.0004 -10.7459 0.0076
# 2 28.4433 95.1572 21.5147 -0.0113 6.5601 -0.0045
# 3 7.0077 21.5147 45.1448 -0.0480 1.8247 -0.0315
# 4 0.0004 -0.0113 -0.0480 12.1817 -0.0049 -9.5575
# 5 -10.7459 6.5601 1.8247 -0.0049 6.1195 -0.0010
# 6 0.0076 -0.0045 -0.0315 -9.5575 -0.0010 -15.1807
#
#
#
# Elastic Compliance Matrix: (Units=1/GPa)
#
#
# Indices 1 2 3 4 5 6 
#
# 1 0.022720 -0.010135 -0.000758 0.000012 0.050987 0.000005
# 2 -0.010135 0.017092 -0.005175 -0.000011 -0.034577 0.000010
# 3 -0.000758 -0.005175 0.024864 0.000035 -0.003197 -0.000072
# 4 0.000012 -0.000011 0.000035 0.054949 0.000060 -0.034595
# 5 0.050987 -0.034577 -0.003197 0.000060 0.290967 -0.000014
# 6 0.000005 0.000010 -0.000072 -0.034595 -0.000014 -0.044093
#
#
# Mechanical properties :
#
#
# Convention : Reuss Voigt Hill
#
# Bulk Modulus (GPa) = 30.73016 37.25382 33.99199
# Shear Modulus (GPa) = 12.21059 11.58325 11.89692
#
# Velocity S-wave (km/s) = 2.50052 2.43543 2.46819
# Velocity P-wave (km/s) = 4.90637 5.19468 5.05258
#
# Compressibility (1/GPa) = 0.03254132
#
# Stress axis : x y z
#
# Youngs Moduli (GPa) = 44.01414 58.50675 40.21898
#
# Poissons Ratio (x) = 0.59296 0.03047
# Poissons Ratio (y) = 0.44608 0.20813
# Poissons Ratio (z) = 0.03334 0.30276
#
# Static dielectric constant tensor:
#      x y z
#    x 1.696090 0.000000 -0.020570 
#    y 0.000000 1.657350 0.000010 
#    z -0.020570 0.000010 1.667360 
# 
# From -- ./inp_files/223508.got.cif
#   From: 2010.05.17/outbox.cif.g08.bks.cpg/sg12_112_cif.got.tgz:223508.got - 2010.06.03 13:09:07.
