data_PCOD9210443
_publ_section_title
;
Structure prediction by ZEFSAII (Michael W. Deem and Ramdas Pophale) SiO2 
 PCOD9210443
Probable space group: C 2/M
;
_chemical_formula_sum "Si O2"
_cell_formula_units_Z 48
_cell_length_a 28.079151
_cell_length_b 8.615766
_cell_length_c 17.351981
_cell_angle_alpha 90.000000
_cell_angle_beta 143.928404
_cell_angle_gamma 90.000000
_cell_volume 2471.676238
_symmetry_space_group_name_H-M "C 2/M"
_symmetry_group_IT_number 12
_symmetry_cell_setting 'monoclinic'
loop_
_space_group_symop_operation_xyz
x,y,z
-x,y,-z
-x,-y,-z
x,-y,z
1/2+x,1/2+y,z
1/2-x,1/2+y,-z
1/2-x,1/2-y,-z
1/2+x,1/2-y,z
loop_
_atom_site_type_symbol
_atom_site_label
_atom_site_fract_x
_atom_site_fract_y
_atom_site_fract_z
Si Si1 0.312335 0.684046 0.206853
Si Si2 0.635551 0.685804 0.986482
Si Si3 0.445859 0.814423 0.265328
Si Si4 0.238994 0.187046 0.400160
Si Si5 0.591067 0.310715 0.101801
Si Si6 0.872491 0.312492 0.448411
O O1 0.303387 0.500000 0.190389
O O2 0.225263 0.761870 0.080058
O O3 0.378063 0.740838 0.231349
O O4 0.343200 0.734492 0.331576
O O5 0.630435 0.500000 0.976293
O O6 0.619162 0.735638 0.053056
O O7 0.571860 0.758158 0.844136
O O8 0.535441 0.771177 0.410962
O O9 0.439122 0.000000 0.260406
O O10 0.250000 0.250000 0.500000
O O11 0.156199 0.240221 0.250501
O O12 0.312796 0.230377 0.440143
O O13 0.237209 0.000000 0.401347
O O14 0.591205 0.500000 0.102897
O O15 0.500000 0.258899 0.000000
O O16 0.867651 0.500000 0.431888
#
# Coordination Sequence:
#
# PCOD9210443 Si02
#       6
#     8   8   8   8   8   8
#     4  12  24  40  63  90 121 156 205 254 301 357
#     4  11  22  40  64  88 123 162 202 246 300 359
#     4  11  24  40  61  89 123 160 203 248 301 359
#     4  10  21  39  62  89 122 156 196 242 298 358
#     4   9  19  37  62  89 118 155 197 244 296 352
#     4  10  22  42  63  86 123 166 200 244 304 361
#
# _framework density 19.420019
#
# number of rings (size 3 to 8) (size 9 to 14) (size 15 to 20)
#    0.000    1.500    1.667    3.500    2.333    4.000 
#    0.000    0.000    0.000    2.500    0.000    0.000 
#    0.000    0.000    0.000    0.000    0.000    0.000 
#
# Total GULP energy -134198.076802 kJ/mol
# GULP energy per Si atom -5591.586533 kJ/mol
# Density = 1.937582 g / cm^3
# Si number density = 19.420019 Si / 1000 Ang^3
#
#
#
# Elastic Constant Matrix: (Units=GPa)
#
#
# Indices 1 2 3 4 5 6 
#
# 1 65.4168 -29.4454 -28.5997 0.0000 -6.9842 0.0000
# 2 -29.4454 -47.3473 -64.8730 0.0000 -14.4753 0.0000
# 3 -28.5997 -64.8730 -15.1178 0.0000 -19.5289 0.0000
# 4 0.0000 0.0000 0.0000 27.8612 0.0000 -15.0276
# 5 -6.9842 -14.4753 -19.5289 0.0000 39.2564 0.0000
# 6 0.0000 0.0000 0.0000 -15.0276 0.0000 14.7116
#
#
#
# Elastic Compliance Matrix: (Units=1/GPa)
#
#
# Indices 1 2 3 4 5 6 
#
# 1 0.012229 -0.004772 -0.001945 0.000000 -0.000551 0.000000
# 2 -0.004772 0.008252 -0.017787 0.000000 -0.006654 0.000000
# 3 -0.001945 -0.017787 0.013866 0.000000 -0.000007 0.000000
# 4 0.000000 0.000000 0.000000 0.079931 0.000000 0.081648
# 5 -0.000551 -0.006654 -0.000007 0.000000 0.022918 0.000000
# 6 0.000000 0.000000 0.000000 0.081648 0.000000 0.151376
#
#
# Mechanical properties :
#
#
# Convention : Reuss Voigt Hill
#
# Bulk Modulus (GPa) = -68.21279 -26.98718 -47.59999
# Shear Modulus (GPa) = 15.02889 24.75716 19.89303
#
# Velocity S-wave (km/s) = 2.78490 3.57435 3.20403
# Velocity P-wave (km/s) = 4.98602 1.76291 3.29792
#
# Compressibility (1/GPa) = -0.01466001
#
# Stress axis : x y z
#
# Youngs Moduli (GPa) = 81.77025 121.18295 72.12061
#
# Poissons Ratio (x) = 0.57831 0.14026
# Poissons Ratio (y) = 0.39022 1.28277
# Poissons Ratio (z) = 0.15903 2.15542
#
# Static dielectric constant tensor:
#      x y z
#    x 1.653800 0.000000 0.003730 
#    y 0.000000 1.664250 0.000000 
#    z 0.003730 0.000000 1.657440 
# 
# From -- ./inp_files/244883.got.cif
#   From: 2010.05.17/outbox.cif.g08.bks.cpg/sg12_123_cif.got.tgz:244883.got - 2010.06.03 13:09:07.
