data_PCOD9210050
_publ_section_title
;
Structure prediction by ZEFSAII (Michael W. Deem and Ramdas Pophale) SiO2 
 PCOD9210050
Probable space group: C 2/M
;
_chemical_formula_sum "Si O2"
_cell_formula_units_Z 60
_cell_length_a 12.256911
_cell_length_b 16.317766
_cell_length_c 14.650551
_cell_angle_alpha 90.000000
_cell_angle_beta 63.399061
_cell_angle_gamma 90.000000
_cell_volume 2620.019759
_symmetry_space_group_name_H-M "C 2/M"
_symmetry_group_IT_number 12
_symmetry_cell_setting 'monoclinic'
loop_
_space_group_symop_operation_xyz
x,y,z
-x,y,-z
-x,-y,-z
x,-y,z
1/2+x,1/2+y,z
1/2-x,1/2+y,-z
1/2-x,1/2-y,-z
1/2+x,1/2-y,z
loop_
_atom_site_type_symbol
_atom_site_label
_atom_site_fract_x
_atom_site_fract_y
_atom_site_fract_z
Si Si1 0.690650 0.407302 0.994682
Si Si2 0.159199 0.591765 0.769920
Si Si3 0.054927 0.149148 0.862869
Si Si4 0.128525 0.211113 0.288316
Si Si5 0.000000 0.708548 0.500000
Si Si6 0.328326 0.906628 0.451986
Si Si7 0.400581 0.402476 0.340608
Si Si8 0.077321 0.312720 0.124600
O O1 0.736592 0.500000 0.975881
O O2 0.630718 0.383461 0.919509
O O3 0.799665 0.343701 0.969833
O O4 0.571221 0.401819 0.102915
O O5 0.189054 0.500000 0.792671
O O6 0.244304 0.664577 0.774453
O O7 0.179972 0.594355 0.653309
O O8 0.017683 0.612861 0.836660
O O9 0.135166 0.137706 0.742841
O O10 0.998001 0.239194 0.893792
O O11 0.100733 0.245272 0.400081
O O12 0.108300 0.277367 0.214590
O O13 0.025386 0.141424 0.318530
O O14 0.928430 0.654044 0.453434
O O15 0.199739 0.884964 0.545737
O O16 0.358107 0.000000 0.469265
O O17 0.411544 0.500000 0.327091
#
# Coordination Sequence:
#
# PCOD9210050 Si02
#       8
#     8   8   8   8   4   8   8   8
#     4  11  22  40  64  93 119 158 199 247 304 360
#     4  11  23  42  60  87 126 163 200 245 294 355
#     4  10  22  39  63  91 122 152 200 253 300 350
#     4  11  24  36  61  87 117 160 203 249 292 349
#     4  12  23  38  57  88 124 158 206 244 299 346
#     4  10  23  38  59  85 123 162 199 245 300 351
#     4  10  21  39  59  86 116 157 201 247 300 355
#     4  11  23  40  61  92 122 160 198 247 302 356
#
# _framework density 22.900592
#
# number of rings (size 3 to 8) (size 9 to 14) (size 15 to 20)
#    0.000    1.333    1.333    4.600    5.600    1.067 
#    0.000    2.667    0.000    0.000    0.000   14.000 
#    0.000    0.000    0.000    0.000    0.000    0.000 
#
# Total GULP energy -167769.403854 kJ/mol
# GULP energy per Si atom -5592.313462 kJ/mol
# Density = 2.284847 g / cm^3
# Si number density = 22.900592 Si / 1000 Ang^3
#
#
#
# Elastic Constant Matrix: (Units=GPa)
#
#
# Indices 1 2 3 4 5 6 
#
# 1 41.6727 20.8803 0.7166 0.0000 -16.7122 0.0000
# 2 20.8803 89.2277 1.9032 0.0000 -10.1374 0.0000
# 3 0.7166 1.9032 54.0346 0.0000 -7.1392 0.0000
# 4 0.0000 0.0000 0.0000 -40.5409 0.0000 -0.3055
# 5 -16.7122 -10.1374 -7.1392 0.0000 35.1488 0.0000
# 6 0.0000 0.0000 0.0000 -0.3055 0.0000 33.9933
#
#
#
# Elastic Compliance Matrix: (Units=1/GPa)
#
#
# Indices 1 2 3 4 5 6 
#
# 1 0.032675 -0.006078 0.001646 0.000000 0.014117 0.000000
# 2 -0.006078 0.012717 -0.000272 0.000000 0.000723 0.000000
# 3 0.001646 -0.000272 0.019100 0.000000 0.004584 0.000000
# 4 0.000000 0.000000 0.000000 -0.024665 0.000000 -0.000222
# 5 0.014117 0.000723 0.004584 0.000000 0.036303 0.000000
# 6 0.000000 0.000000 0.000000 -0.000222 0.000000 0.029416
#
#
# Mechanical properties :
#
#
# Convention : Reuss Voigt Hill
#
# Bulk Modulus (GPa) = 18.15351 25.77058 21.96204
# Shear Modulus (GPa) = 37.50533 16.48255 26.99394
#
# Velocity S-wave (km/s) = 4.05130 2.68571 3.43701
# Velocity P-wave (km/s) = 5.46153 4.57111 5.03604
#
# Compressibility (1/GPa) = 0.05508576
#
# Stress axis : x y z
#
# Youngs Moduli (GPa) = 30.60444 78.63224 52.35600
#
# Poissons Ratio (x) = 0.47789 -0.08618
# Poissons Ratio (y) = 0.18600 0.01423
# Poissons Ratio (z) = -0.05037 0.02137
#
# Static dielectric constant tensor:
#      x y z
#    x 1.837170 0.000000 0.009650 
#    y 0.000000 1.866610 0.000000 
#    z 0.009650 0.000000 1.873620 
# 
# From -- ./inp_files/264253.got.cif
#   From: 2010.05.17/outbox.cif.g08.bks.cpg/sg12_133_cif.got.tgz:264253.got - 2010.06.03 13:09:07.
