data_PCOD9210297
_publ_section_title
;
Structure prediction by ZEFSAII (Michael W. Deem and Ramdas Pophale) SiO2 
 PCOD9210297
Probable space group: C 2/M
;
_chemical_formula_sum "Si O2"
_cell_formula_units_Z 64
_cell_length_a 28.300804
_cell_length_b 8.724216
_cell_length_c 16.993196
_cell_angle_alpha 90.000000
_cell_angle_beta 126.661862
_cell_angle_gamma 90.000000
_cell_volume 3365.645994
_symmetry_space_group_name_H-M "C 2/M"
_symmetry_group_IT_number 12
_symmetry_cell_setting 'monoclinic'
loop_
_space_group_symop_operation_xyz
x,y,z
-x,y,-z
-x,-y,-z
x,-y,z
1/2+x,1/2+y,z
1/2-x,1/2+y,-z
1/2-x,1/2-y,-z
1/2+x,1/2-y,z
loop_
_atom_site_type_symbol
_atom_site_label
_atom_site_fract_x
_atom_site_fract_y
_atom_site_fract_z
Si Si1 0.232715 0.815226 0.323161
Si Si2 0.642275 0.684692 0.790399
Si Si3 0.432043 0.815055 0.427231
Si Si4 0.883058 0.184135 0.056425
Si Si5 0.499513 0.816159 0.091306
Si Si6 0.112345 0.183401 0.292520
Si Si7 0.270082 0.183804 0.854995
Si Si8 0.860159 0.684699 0.511999
O O1 0.173737 0.772847 0.311290
O O2 0.233399 0.738400 0.238509
O O3 0.291963 0.773228 0.429084
O O4 0.233374 0.000000 0.313489
O O5 0.639999 0.500000 0.784924
O O6 0.600188 0.750053 0.681250
O O7 0.623420 0.733074 0.858967
O O8 0.709487 0.730640 0.837955
O O9 0.500000 0.766407 0.500000
O O10 0.396845 0.769914 0.470993
O O11 0.430470 0.000000 0.421258
O O12 0.941934 0.249886 0.076284
O O13 0.884728 0.000000 0.055327
O O14 0.826362 0.242613 0.952605
O O15 0.557769 0.756014 0.192274
O O16 0.498015 0.000000 0.093541
O O17 0.500000 0.770012 0.000000
O O18 0.115288 0.239775 0.385011
O O19 0.107198 0.000000 0.285086
O O20 0.275008 0.000000 0.862780
O O21 0.863674 0.500000 0.523229
#
# Coordination Sequence:
#
# PCOD9210297 Si02
#       8
#     8   8   8   8   8   8   8   8
#     4  10  21  39  62  89 122 163 205 251 306 360
#     4  10  23  41  61  91 124 159 202 250 302 358
#     4  10  22  39  62  91 123 162 203 246 303 363
#     4  11  24  41  63  91 124 160 202 250 303 361
#     4  11  25  45  66  90 121 159 203 250 304 361
#     4  11  24  39  61  91 123 160 203 252 307 362
#     4  11  22  38  62  92 124 160 203 249 303 360
#     4  10  21  39  61  89 125 161 204 252 301 360
#
# _framework density 19.015664999999998
#
# number of rings (size 3 to 8) (size 9 to 14) (size 15 to 20)
#    0.000    1.500    1.250    3.000    1.750    6.750 
#    0.000    0.000    0.000    0.000    0.000    0.000 
#    0.000    0.000    0.000    0.000    0.000    0.000 
#
# Total GULP energy -178945.628555 kJ/mol
# GULP energy per Si atom -5592.050892 kJ/mol
# Density = 1.897238 g / cm^3
# Si number density = 19.015665 Si / 1000 Ang^3
#
#
#
# Elastic Constant Matrix: (Units=GPa)
#
#
# Indices 1 2 3 4 5 6 
#
# 1 97.6125 26.6355 94.3928 0.0000 17.0543 0.0000
# 2 26.6355 25.8696 45.8946 0.0000 2.1536 0.0000
# 3 94.3928 45.8946 188.0913 0.0000 4.0190 0.0000
# 4 0.0000 0.0000 0.0000 -17.5740 0.0000 -15.5681
# 5 17.0543 2.1536 4.0190 0.0000 40.5416 0.0000
# 6 0.0000 0.0000 0.0000 -15.5681 0.0000 17.9092
#
#
#
# Elastic Compliance Matrix: (Units=1/GPa)
#
#
# Indices 1 2 3 4 5 6 
#
# 1 0.022744 -0.004922 -0.010036 0.000000 -0.008311 0.000000
# 2 -0.004922 0.069384 -0.014456 0.000000 -0.000182 0.000000
# 3 -0.010036 -0.014456 0.013803 0.000000 0.003621 0.000000
# 4 0.000000 0.000000 0.000000 -0.032147 0.000000 -0.027945
# 5 -0.008311 -0.000182 0.003621 0.000000 0.027813 0.000000
# 6 0.000000 0.000000 0.000000 -0.027945 0.000000 0.031545
#
#
# Mechanical properties :
#
#
# Convention : Reuss Voigt Hill
#
# Bulk Modulus (GPa) = 21.22944 71.71326 46.47135
# Shear Modulus (GPa) = 24.07655 17.81873 20.94764
#
# Velocity S-wave (km/s) = 3.56215 3.06446 3.32264
# Velocity P-wave (km/s) = 5.30160 7.09336 6.26190
#
# Compressibility (1/GPa) = 0.04710440
#
# Stress axis : x y z
#
# Youngs Moduli (GPa) = 43.96706 14.41250 72.44919
#
# Poissons Ratio (x) = 0.07094 0.72707
# Poissons Ratio (y) = 0.21640 1.04732
# Poissons Ratio (z) = 0.44123 0.20835
#
# Static dielectric constant tensor:
#      x y z
#    x 1.645680 0.000000 -0.000510 
#    y 0.000000 1.643000 0.000000 
#    z -0.000510 0.000000 1.611490 
# 
# From -- ./inp_files/249968.got.cif
#   From: 2010.05.17/outbox.cif.g08.bks.cpg/sg12_125_cif.got.tgz:249968.got - 2010.06.03 13:09:07.
