data_PCOD9210701
_publ_section_title
;
Structure prediction by ZEFSAII (Michael W. Deem and Ramdas Pophale) SiO2 
 PCOD9210701
Probable space group: C 2/M
;
_chemical_formula_sum "Si O2"
_cell_formula_units_Z 40
_cell_length_a 19.838293
_cell_length_b 8.969462
_cell_length_c 11.481105
_cell_angle_alpha 90.000000
_cell_angle_beta 88.790263
_cell_angle_gamma 90.000000
_cell_volume 2042.478871
_symmetry_space_group_name_H-M "C 2/M"
_symmetry_group_IT_number 12
_symmetry_cell_setting 'monoclinic'
loop_
_space_group_symop_operation_xyz
x,y,z
-x,y,-z
-x,-y,-z
x,-y,z
1/2+x,1/2+y,z
1/2-x,1/2+y,-z
1/2-x,1/2-y,-z
1/2+x,1/2-y,z
loop_
_atom_site_type_symbol
_atom_site_label
_atom_site_fract_x
_atom_site_fract_y
_atom_site_fract_z
Si Si1 0.675584 0.679971 0.001963
Si Si2 0.979503 0.321968 0.369613
Si Si3 0.359345 0.326321 0.250240
Si Si4 0.604012 0.678561 0.246164
Si Si5 0.220791 0.326167 0.386273
O O1 0.682721 0.500000 0.999645
O O2 0.633813 0.720584 0.118678
O O3 0.750000 0.750000 0.000000
O O4 0.637741 0.723298 0.884081
O O5 0.983566 0.500000 0.364043
O O6 0.905798 0.267491 0.334661
O O7 0.000000 0.275299 0.500000
O O8 0.032301 0.249312 0.278383
O O9 0.379943 0.500000 0.257893
O O10 0.281379 0.317856 0.290756
O O11 0.600220 0.500000 0.252701
O O12 0.656513 0.740741 0.339209
O O13 0.204533 0.500000 0.407398
O O14 0.250000 0.250000 0.500000
#
# Coordination Sequence:
#
# PCOD9210701 Si02
#       5
#     8   8   8   8   8
#     4  10  21  39  63  92 124 159 201 251 304 363
#     4  11  25  43  62  87 122 163 207 255 306 363
#     4  10  22  40  62  88 121 161 201 248 306 363
#     4  11  23  39  63  91 122 161 202 250 308 365
#     4  11  22  37  60  89 122 159 204 254 303 360
#
# _framework density 19.584046000000001
#
# number of rings (size 3 to 8) (size 9 to 14) (size 15 to 20)
#    0.000    1.400    2.000    3.000    0.000    8.800 
#    0.000    4.000    0.000    0.000    0.000    0.000 
#    0.000    0.000    0.000    0.000    0.000    0.000 
#
# Total GULP energy -111818.020010 kJ/mol
# GULP energy per Si atom -5590.901001 kJ/mol
# Density = 1.953947 g / cm^3
# Si number density = 19.584046 Si / 1000 Ang^3
#
#
#
# Elastic Constant Matrix: (Units=GPa)
#
#
# Indices 1 2 3 4 5 6 
#
# 1 47.4632 12.4494 -15.2185 0.0000 1.2884 0.0000
# 2 12.4494 46.4754 15.1243 0.0000 -2.3429 0.0000
# 3 -15.2185 15.1243 69.4857 0.0000 2.9842 0.0000
# 4 0.0000 0.0000 0.0000 24.9217 0.0000 -0.1089
# 5 1.2884 -2.3429 2.9842 0.0000 33.6396 0.0000
# 6 0.0000 0.0000 0.0000 -0.1089 0.0000 37.4702
#
#
#
# Elastic Compliance Matrix: (Units=1/GPa)
#
#
# Indices 1 2 3 4 5 6 
#
# 1 0.026246 -0.009746 0.007972 0.000000 -0.002391 0.000000
# 2 -0.009746 0.026920 -0.008121 0.000000 0.002969 0.000000
# 3 0.007972 -0.008121 0.018011 0.000000 -0.002469 0.000000
# 4 0.000000 0.000000 0.000000 0.040126 0.000000 0.000117
# 5 -0.002391 0.002969 -0.002469 0.000000 0.030244 0.000000
# 6 0.000000 0.000000 0.000000 0.000117 0.000000 0.026688
#
#
# Mechanical properties :
#
#
# Convention : Reuss Voigt Hill
#
# Bulk Modulus (GPa) = 19.45972 20.90385 20.18178
# Shear Modulus (GPa) = 24.37188 29.27757 26.82472
#
# Velocity S-wave (km/s) = 3.53154 3.87068 3.70499
# Velocity P-wave (km/s) = 5.15627 5.53835 5.35072
#
# Compressibility (1/GPa) = 0.05138821
#
# Stress axis : x y z
#
# Youngs Moduli (GPa) = 38.10068 37.14734 55.52094
#
# Poissons Ratio (x) = 0.36202 -0.44263
# Poissons Ratio (y) = 0.37131 0.45090
# Poissons Ratio (z) = -0.30375 0.30168
#
# Static dielectric constant tensor:
#      x y z
#    x 1.664090 0.000000 -0.017320 
#    y 0.000000 1.656530 0.000000 
#    z -0.017320 0.000000 1.701380 
# 
# From -- ./inp_files/151628.got.cif
#   From: 2010.05.17/outbox.cif.g08.bks.cpg/sg12_76_cif.got.tgz:151628.got - 2010.06.03 13:09:07.
