data_PCOD9210293
_publ_section_title
;
Structure prediction by ZEFSAII (Michael W. Deem and Ramdas Pophale) SiO2 
 PCOD9210293
Probable space group: C 2/M
;
_chemical_formula_sum "Si O2"
_cell_formula_units_Z 48
_cell_length_a 16.321482
_cell_length_b 8.651968
_cell_length_c 17.207202
_cell_angle_alpha 90.000000
_cell_angle_beta 89.319317
_cell_angle_gamma 90.000000
_cell_volume 2429.708111
_symmetry_space_group_name_H-M "C 2/M"
_symmetry_group_IT_number 12
_symmetry_cell_setting 'monoclinic'
loop_
_space_group_symop_operation_xyz
x,y,z
-x,y,-z
-x,-y,-z
x,-y,z
1/2+x,1/2+y,z
1/2-x,1/2+y,-z
1/2-x,1/2-y,-z
1/2+x,1/2-y,z
loop_
_atom_site_type_symbol
_atom_site_label
_atom_site_fract_x
_atom_site_fract_y
_atom_site_fract_z
Si Si1 0.830143 0.686665 0.823702
Si Si2 0.592146 0.815408 0.337821
Si Si3 0.504444 0.188260 0.089388
Si Si4 0.841255 0.184950 0.502570
Si Si5 0.585998 0.685364 0.664111
Si Si6 0.842053 0.685294 0.185540
O O1 0.824630 0.500000 0.828332
O O2 0.848581 0.729455 0.733719
O O3 0.910233 0.736450 0.871528
O O4 0.743790 0.758687 0.848967
O O5 0.616459 0.743978 0.419758
O O6 0.501429 0.760419 0.317248
O O7 0.593759 0.000000 0.344015
O O8 0.422610 0.236358 0.136461
O O9 0.504612 0.000000 0.091018
O O10 0.500000 0.237690 0.000000
O O11 0.750000 0.250000 0.500000
O O12 0.887458 0.232020 0.423051
O O13 0.839195 0.000000 0.504071
O O14 0.580455 0.500000 0.666816
O O15 0.648425 0.743440 0.728660
O O16 0.842821 0.500000 0.190285
#
# Coordination Sequence:
#
# PCOD9210293 Si02
#       6
#     8   8   8   8   8   8
#     4  10  21  39  61  89 123 160 199 244 301 359
#     4  11  22  38  60  86 117 157 203 248 299 358
#     4   9  19  39  64  88 121 161 197 242 302 364
#     4  11  24  39  55  82 117 157 203 251 300 355
#     4  11  23  39  59  84 118 158 200 248 302 353
#     4  11  22  38  62  93 121 157 206 248 295 360
#
# _framework density 19.755459999999999
#
# number of rings (size 3 to 8) (size 9 to 14) (size 15 to 20)
#    0.000    1.500    1.667    3.500    0.000   10.667 
#    0.000    0.000    0.000    3.500    0.000    0.000 
#    0.000    0.000    0.000    0.000    0.000    0.000 
#
# Total GULP energy -134138.963729 kJ/mol
# GULP energy per Si atom -5589.123489 kJ/mol
# Density = 1.971050 g / cm^3
# Si number density = 19.755460 Si / 1000 Ang^3
#
#
#
# Elastic Constant Matrix: (Units=GPa)
#
#
# Indices 1 2 3 4 5 6 
#
# 1 130.8777 5.3998 45.1501 0.0000 9.2089 0.0000
# 2 5.3998 14.3245 17.7202 0.0000 -2.4546 0.0000
# 3 45.1501 17.7202 117.9237 0.0000 9.4674 0.0000
# 4 0.0000 0.0000 0.0000 10.7082 0.0000 3.0751
# 5 9.2089 -2.4546 9.4674 0.0000 15.2470 0.0000
# 6 0.0000 0.0000 0.0000 3.0751 0.0000 36.5855
#
#
#
# Elastic Compliance Matrix: (Units=1/GPa)
#
#
# Indices 1 2 3 4 5 6 
#
# 1 0.008974 -0.000093 -0.003142 0.000000 -0.003484 0.000000
# 2 -0.000093 0.094127 -0.016134 0.000000 0.025228 0.000000
# 3 -0.003142 -0.016134 0.012802 0.000000 -0.008649 0.000000
# 4 0.000000 0.000000 0.000000 0.095696 0.000000 -0.008043
# 5 -0.003484 0.025228 -0.008649 0.000000 0.077123 0.000000
# 6 0.000000 0.000000 0.000000 -0.008043 0.000000 0.028009
#
#
# Mechanical properties :
#
#
# Convention : Reuss Voigt Hill
#
# Bulk Modulus (GPa) = 12.95932 44.40734 28.68333
# Shear Modulus (GPa) = 13.11680 25.49853 19.30767
#
# Velocity S-wave (km/s) = 2.57953 3.59654 3.12962
# Velocity P-wave (km/s) = 3.93015 6.30667 5.25453
#
# Compressibility (1/GPa) = 0.07716455
#
# Stress axis : x y z
#
# Youngs Moduli (GPa) = 111.43729 10.62394 78.11316
#
# Poissons Ratio (x) = 0.00098 0.24545
# Poissons Ratio (y) = 0.01033 1.26029
# Poissons Ratio (z) = 0.35016 0.17141
#
# Static dielectric constant tensor:
#      x y z
#    x 1.685610 0.000000 -0.009450 
#    y 0.000000 1.678670 0.000000 
#    z -0.009450 0.000000 1.694460 
# 
# From -- ./inp_files/267698.got.cif
#   From: 2010.05.17/outbox.cif.g08.bks.cpg/sg12_134_cif.got.tgz:267698.got - 2010.06.03 13:09:07.
