data_PCOD9210931
_publ_section_title
;
Structure prediction by ZEFSAII (Michael W. Deem and Ramdas Pophale) SiO2 
 PCOD9210931
Probable space group: C 2/M
;
_chemical_formula_sum "Si O2"
_cell_formula_units_Z 40
_cell_length_a 22.222247
_cell_length_b 15.087539
_cell_length_c 18.194259
_cell_angle_alpha 90.000000
_cell_angle_beta 17.509056
_cell_angle_gamma 90.000000
_cell_volume 1835.270998
_symmetry_space_group_name_H-M "C 2/M"
_symmetry_group_IT_number 12
_symmetry_cell_setting 'monoclinic'
loop_
_space_group_symop_operation_xyz
x,y,z
-x,y,-z
-x,-y,-z
x,-y,z
1/2+x,1/2+y,z
1/2-x,1/2+y,-z
1/2-x,1/2-y,-z
1/2+x,1/2-y,z
loop_
_atom_site_type_symbol
_atom_site_label
_atom_site_fract_x
_atom_site_fract_y
_atom_site_fract_z
Si Si1 0.185063 0.285415 0.839188
Si Si2 0.217101 0.596424 0.211303
Si Si3 0.405878 0.399412 0.470806
Si Si4 0.551383 0.895298 0.772584
Si Si5 0.809234 0.352410 0.927607
O O1 0.195049 0.184413 0.853855
O O2 0.367342 0.327815 0.580205
O O3 0.123085 0.345304 0.980098
O O4 0.000000 0.294968 0.000000
O O5 0.319579 0.500000 0.102469
O O6 0.000000 0.590261 0.500000
O O7 0.191678 0.614114 0.154356
O O8 0.351122 0.500000 0.559380
O O9 0.629635 0.399711 0.180335
O O10 0.259762 0.375867 0.571806
O O11 0.524101 0.000000 0.809306
O O12 0.517908 0.867581 0.727196
O O13 0.750000 0.250000 0.000000
#
# Coordination Sequence:
#
# PCOD9210931 Si02
#       5
#     8   8   8   8   8
#     4  10  21  40  62  93 125 162 203 251 313 373
#     4  11  24  43  61  84 123 166 211 258 306 368
#     4  10  22  40  66  98 128 158 203 260 314 372
#     4  10  21  39  64  96 130 162 200 255 318 373
#     4  12  23  41  66  91 126 166 209 260 311 367
#
# _framework density 21.795145999999999
#
# number of rings (size 3 to 8) (size 9 to 14) (size 15 to 20)
#    0.000    1.400    2.000    3.600    0.000    3.600 
#    3.600    2.000    0.000    0.000    0.000    0.000 
#    0.000    0.000    0.000    0.000    0.000    0.000 
#
# Total GULP energy -111727.033039 kJ/mol
# GULP energy per Si atom -5586.351652 kJ/mol
# Density = 2.174554 g / cm^3
# Si number density = 21.795146 Si / 1000 Ang^3
#
#
#
# Elastic Constant Matrix: (Units=GPa)
#
#
# Indices 1 2 3 4 5 6 
#
# 1 -4.1557 19.3688 88.9284 0.0615 38.4713 -0.0183
# 2 19.3688 127.1145 -0.7214 -0.0322 5.1235 0.0132
# 3 88.9284 -0.7214 1.5427 -0.1312 -17.0963 0.0545
# 4 0.0615 -0.0322 -0.1312 4.6785 -0.0217 10.5784
# 5 38.4713 5.1235 -17.0963 -0.0217 17.1248 0.0070
# 6 -0.0183 0.0132 0.0545 10.5784 0.0070 18.3900
#
#
#
# Elastic Compliance Matrix: (Units=1/GPa)
#
#
# Indices 1 2 3 4 5 6 
#
# 1 0.001064 -0.000369 0.008634 -0.001049 0.006338 0.000577
# 2 -0.000369 0.008012 -0.000757 -0.000116 -0.002324 0.000064
# 3 0.008634 -0.000757 0.006189 -0.000015 -0.012992 0.000004
# 4 -0.001049 -0.000116 -0.000015 -0.711107 0.001310 0.409043
# 5 0.006338 -0.002324 -0.012992 0.001310 0.031883 -0.000719
# 6 0.000577 0.000064 0.000004 0.409043 -0.000719 -0.180913
#
#
# Mechanical properties :
#
#
# Convention : Reuss Voigt Hill
#
# Bulk Modulus (GPa) = 33.02371 37.73922 35.38147
# Shear Modulus (GPa) = -5.88378 9.16706 1.64164
#
# Velocity S-wave (km/s) = -1.64482 2.05308 0.86882
# Velocity P-wave (km/s) = 3.40257 4.79304 4.15636
#
# Compressibility (1/GPa) = 0.03028127
#
# Stress axis : x y z
#
# Youngs Moduli (GPa) = 939.97972 124.80532 161.58776
#
# Poissons Ratio (x) = 0.04604 -1.39513
# Poissons Ratio (y) = 0.34676 0.12229
# Poissons Ratio (z) = -8.11567 0.09445
#
# Static dielectric constant tensor:
#      x y z
#    x 1.764030 -0.000020 -0.035610 
#    y -0.000020 1.856040 -0.000010 
#    z -0.035610 -0.000010 1.770010 
# 
# From -- ./inp_files/58964.got.cif
#   From: 2010.05.17/outbox.cif.g08.bks.cpg/sg12_30_cif.got.tgz:58964.got - 2010.06.03 13:09:07.
