data_PCOD9210075
_publ_section_title
;
Structure prediction by ZEFSAII (Michael W. Deem and Ramdas Pophale) SiO2 
 PCOD9210075
Probable space group: C 2/M
;
_chemical_formula_sum "Si O2"
_cell_formula_units_Z 36
_cell_length_a 16.648938
_cell_length_b 15.554104
_cell_length_c 13.201140
_cell_angle_alpha 90.000000
_cell_angle_beta 149.890129
_cell_angle_gamma 90.000000
_cell_volume 1714.953125
_symmetry_space_group_name_H-M "C 2/M"
_symmetry_group_IT_number 12
_symmetry_cell_setting 'monoclinic'
loop_
_space_group_symop_operation_xyz
x,y,z
-x,y,-z
-x,-y,-z
x,-y,z
1/2+x,1/2+y,z
1/2-x,1/2+y,-z
1/2-x,1/2-y,-z
1/2+x,1/2-y,z
loop_
_atom_site_type_symbol
_atom_site_label
_atom_site_fract_x
_atom_site_fract_y
_atom_site_fract_z
Si Si1 0.795096 0.322817 0.667372
Si Si2 0.500000 0.323250 0.000000
Si Si3 0.005480 0.718349 0.298338
Si Si4 0.201145 0.147729 0.038002
Si Si5 0.738208 0.500000 0.694890
Si Si6 0.115483 0.000000 0.786969
O O1 0.609355 0.294260 0.461515
O O2 0.820567 0.411254 0.753154
O O3 0.866812 0.331909 0.632140
O O4 0.879870 0.241605 0.811704
O O5 0.391118 0.376097 0.959844
O O6 0.891500 0.664856 0.248333
O O7 0.882889 0.762373 0.085471
O O8 0.163247 0.080929 0.907981
O O9 0.707296 0.500000 0.780599
O O10 0.570447 0.500000 0.448809
#
# Coordination Sequence:
#
# PCOD9210075 Si02
#       6
#     8   4   8   8   4   4
#     4  10  21  39  59  94 122 161 202 244 305 358
#     4  10  24  38  66  88 114 170 212 240 296 358
#     4   9  20  38  63  84 125 162 199 246 295 362
#     4  10  21  40  60  88 119 162 203 250 295 364
#     4  11  24  36  61  95 126 158 188 258 307 367
#     4  11  24  38  60  93 125 158 195 251 321 344
#
# _framework density 20.991827000000001
#
# number of rings (size 3 to 8) (size 9 to 14) (size 15 to 20)
#    0.000    2.000    2.222    0.000    9.333    2.667 
#    0.000    0.000    0.000    1.333    0.000    0.000 
#    0.000    0.000    0.000    0.000    0.000    0.000 
#
# Total GULP energy -100377.897088 kJ/mol
# GULP energy per Si atom -5576.549838 kJ/mol
# Density = 2.094405 g / cm^3
# Si number density = 20.991827 Si / 1000 Ang^3
#
#
#
# Elastic Constant Matrix: (Units=GPa)
#
#
# Indices 1 2 3 4 5 6 
#
# 1 131.1182 56.1899 45.8269 0.0000 12.6638 0.0000
# 2 56.1899 72.6222 14.2936 0.0000 3.4983 0.0000
# 3 45.8269 14.2936 75.0264 0.0000 18.5632 0.0000
# 4 0.0000 0.0000 0.0000 6.8018 0.0000 -11.7755
# 5 12.6638 3.4983 18.5632 0.0000 23.1387 0.0000
# 6 0.0000 0.0000 0.0000 -11.7755 0.0000 26.6829
#
#
#
# Elastic Compliance Matrix: (Units=1/GPa)
#
#
# Indices 1 2 3 4 5 6 
#
# 1 0.014123 -0.009590 -0.006545 0.000000 -0.001029 0.000000
# 2 -0.009590 0.020818 0.001711 0.000000 0.000728 0.000000
# 3 -0.006545 0.001711 0.020185 0.000000 -0.012870 0.000000
# 4 0.000000 0.000000 0.000000 0.622994 0.000000 0.274934
# 5 -0.001029 0.000728 -0.012870 0.000000 0.053996 0.000000
# 6 0.000000 0.000000 0.000000 0.274934 0.000000 0.158809
#
#
# Mechanical properties :
#
#
# Convention : Reuss Voigt Hill
#
# Bulk Modulus (GPa) = 38.05360 56.82085 47.43722
# Shear Modulus (GPa) = 5.38485 22.15510 13.76998
#
# Velocity S-wave (km/s) = 1.60337 3.25224 2.56397
# Velocity P-wave (km/s) = 4.64703 6.42103 5.60466
#
# Compressibility (1/GPa) = 0.02627872
#
# Stress axis : x y z
#
# Youngs Moduli (GPa) = 70.80490 48.03551 49.54240
#
# Poissons Ratio (x) = 0.46065 0.32426
# Poissons Ratio (y) = 0.67901 -0.08478
# Poissons Ratio (z) = 0.46342 -0.08220
#
# Static dielectric constant tensor:
#      x y z
#    x 1.824950 0.000000 0.031250 
#    y 0.000000 1.744700 0.000000 
#    z 0.031250 0.000000 1.813150 
# 
# From -- ./inp_files/225531.got.cif
#   From: 2010.05.17/outbox.cif.g08.bks.cpg/sg12_113_cif.got.tgz:225531.got - 2010.06.03 13:09:07.
