data_PCOD9210741
_publ_section_title
;
Structure prediction by ZEFSAII (Michael W. Deem and Ramdas Pophale) SiO2 
 PCOD9210741
Probable space group: C 2/M
;
_chemical_formula_sum "Si O2"
_cell_formula_units_Z 48
_cell_length_a 27.823629
_cell_length_b 14.755327
_cell_length_c 9.738146
_cell_angle_alpha 90.000000
_cell_angle_beta 145.549918
_cell_angle_gamma 90.000000
_cell_volume 2261.600399
_symmetry_space_group_name_H-M "C 2/M"
_symmetry_group_IT_number 12
_symmetry_cell_setting 'monoclinic'
loop_
_space_group_symop_operation_xyz
x,y,z
-x,y,-z
-x,-y,-z
x,-y,z
1/2+x,1/2+y,z
1/2-x,1/2+y,-z
1/2-x,1/2-y,-z
1/2+x,1/2-y,z
loop_
_atom_site_type_symbol
_atom_site_label
_atom_site_fract_x
_atom_site_fract_y
_atom_site_fract_z
Si Si1 0.253629 0.353909 0.462323
Si Si2 0.475283 0.288045 0.282819
Si Si3 0.281374 0.890931 0.057547
Si Si4 0.376422 0.607764 0.510067
Si Si5 0.597187 0.894517 0.891632
Si Si6 0.198262 0.897828 0.132422
O O1 0.250000 0.250000 0.500000
O O2 0.336559 0.371114 0.564428
O O3 0.258991 0.403650 0.619356
O O4 0.173964 0.384727 0.182025
O O5 0.500000 0.302267 0.500000
O O6 0.540294 0.338900 0.336699
O O7 0.471866 0.181362 0.239630
O O8 0.382077 0.331981 0.046463
O O9 0.362341 0.862803 0.159378
O O10 0.263719 0.862191 0.171128
O O11 0.287887 0.000000 0.071967
O O12 0.197356 0.867177 0.773076
O O13 0.390986 0.500000 0.534716
O O14 0.570647 0.000000 0.822969
O O15 0.170259 0.000000 0.024659
#
# Coordination Sequence:
#
# PCOD9210741 Si02
#       6
#     8   8   8   8   8   8
#     4  11  22  41  66  94 121 159 209 259 308 368
#     4  12  24  37  61  96 128 167 205 254 308 375
#     4   8  17  35  63  91 116 154 202 254 308 359
#     4  10  21  39  63  93 130 164 199 251 319 374
#     4  10  22  43  65  87 123 168 211 257 308 364
#     4  11  21  36  61  95 127 155 199 258 317 368
#
# _framework density 21.22391
#
# number of rings (size 3 to 8) (size 9 to 14) (size 15 to 20)
#    0.000    1.667    3.333    3.000    0.000    3.667 
#    0.000    1.667    0.000    4.000    0.000    0.000 
#    0.000    0.000    0.000    0.000    0.000    0.000 
#
# Total GULP energy -134122.184125 kJ/mol
# GULP energy per Si atom -5588.424339 kJ/mol
# Density = 2.117560 g / cm^3
# Si number density = 21.223910 Si / 1000 Ang^3
#
#
#
# Elastic Constant Matrix: (Units=GPa)
#
#
# Indices 1 2 3 4 5 6 
#
# 1 107.6465 43.2576 30.3270 0.0000 -27.9589 0.0000
# 2 43.2576 136.1327 11.0230 0.0000 7.7844 0.0000
# 3 30.3270 11.0230 55.6477 0.0000 -20.8567 0.0000
# 4 0.0000 0.0000 0.0000 7.2826 0.0000 -5.9258
# 5 -27.9589 7.7844 -20.8567 0.0000 29.3540 0.0000
# 6 0.0000 0.0000 0.0000 -5.9258 0.0000 29.8919
#
#
#
# Elastic Compliance Matrix: (Units=1/GPa)
#
#
# Indices 1 2 3 4 5 6 
#
# 1 0.016284 -0.005937 -0.001765 0.000000 0.015830 0.000000
# 2 -0.005937 0.010016 -0.002540 0.000000 -0.010116 0.000000
# 3 -0.001765 -0.002540 0.025975 0.000000 0.017448 0.000000
# 4 0.000000 0.000000 0.000000 0.163725 0.000000 0.032457
# 5 0.015830 -0.010116 0.017448 0.000000 0.064225 0.000000
# 6 0.000000 0.000000 0.000000 0.032457 0.000000 0.039888
#
#
# Mechanical properties :
#
#
# Convention : Reuss Voigt Hill
#
# Bulk Modulus (GPa) = 31.45526 52.07134 41.76330
# Shear Modulus (GPa) = 14.23712 27.62698 20.93205
#
# Velocity S-wave (km/s) = 2.59280 3.61181 3.14387
# Velocity P-wave (km/s) = 4.88020 6.47928 5.73574
#
# Compressibility (1/GPa) = 0.03179118
#
# Stress axis : x y z
#
# Youngs Moduli (GPa) = 61.40864 99.83669 38.49865
#
# Poissons Ratio (x) = 0.59271 0.06797
# Poissons Ratio (y) = 0.36457 0.09779
# Poissons Ratio (z) = 0.10841 0.25358
#
# Static dielectric constant tensor:
#      x y z
#    x 1.756870 0.000000 -0.010290 
#    y 0.000000 2.056430 0.000000 
#    z -0.010290 0.000000 1.766200 
# 
# From -- ./inp_files/105021.got.cif
#   From: 2010.05.17/outbox.cif.g08.bks.cpg/sg12_53_cif.got.tgz:105021.got - 2010.06.03 13:09:07.
