data_PCOD9210199
_publ_section_title
;
Structure prediction by ZEFSAII (Michael W. Deem and Ramdas Pophale) SiO2 
 PCOD9210199
Probable space group: C 2/M
;
_chemical_formula_sum "Si O2"
_cell_formula_units_Z 48
_cell_length_a 9.698811
_cell_length_b 15.889273
_cell_length_c 30.406097
_cell_angle_alpha 90.000000
_cell_angle_beta 31.384370
_cell_angle_gamma 90.000000
_cell_volume 2440.252700
_symmetry_space_group_name_H-M "C 2/M"
_symmetry_group_IT_number 12
_symmetry_cell_setting 'monoclinic'
loop_
_space_group_symop_operation_xyz
x,y,z
-x,y,-z
-x,-y,-z
x,-y,z
1/2+x,1/2+y,z
1/2-x,1/2+y,-z
1/2-x,1/2-y,-z
1/2+x,1/2-y,z
loop_
_atom_site_type_symbol
_atom_site_label
_atom_site_fract_x
_atom_site_fract_y
_atom_site_fract_z
Si Si1 0.436109 0.092934 0.966363
Si Si2 0.350320 0.728790 0.824760
Si Si3 0.224796 0.186493 0.548798
Si Si4 0.621053 0.596222 0.420484
Si Si5 0.903124 0.278404 0.711817
Si Si6 0.368907 0.403647 0.084021
O O1 0.597908 0.170025 0.902246
O O2 0.505047 0.000000 0.928430
O O3 0.500000 0.091977 0.000000
O O4 0.123031 0.102704 0.046310
O O5 0.611096 0.692658 0.777367
O O6 0.390486 0.731944 0.761699
O O7 0.310684 0.823831 0.854641
O O8 0.500000 0.173056 0.500000
O O9 0.250000 0.250000 0.500000
O O10 0.090946 0.107854 0.560682
O O11 0.019324 0.222625 0.640408
O O12 0.500000 0.627162 0.500000
O O13 0.690566 0.500000 0.407577
O O14 0.883782 0.648297 0.339744
O O15 0.259328 0.500000 0.116728
O O16 0.500000 0.393968 0.000000
#
# Coordination Sequence:
#
# PCOD9210199 Si02
#       6
#     8   8   8   8   8   8
#     4  10  21  39  61  84 115 160 212 261 305 366
#     4  12  23  36  61  92 126 161 209 255 325 379
#     4  12  20  41  70  89 122 167 213 255 301 381
#     4  11  24  43  67  94 124 165 216 264 313 377
#     4  12  23  38  60  94 125 166 198 254 322 373
#     4  10  21  39  61  85 119 164 211 259 309 370
#
# _framework density 19.670093000000001
#
# number of rings (size 3 to 8) (size 9 to 14) (size 15 to 20)
#    0.000    0.833    5.000    3.000    0.000    1.667 
#    0.000    0.833    0.000    0.000    0.000    0.000 
#    0.000    0.000    0.000    0.000    0.000    0.000 
#
# Total GULP energy -133984.757607 kJ/mol
# GULP energy per Si atom -5582.698234 kJ/mol
# Density = 1.962532 g / cm^3
# Si number density = 19.670093 Si / 1000 Ang^3
#
#
#
# Elastic Constant Matrix: (Units=GPa)
#
#
# Indices 1 2 3 4 5 6 
#
# 1 111.3145 2.6451 9.1720 0.0516 1.2713 0.0029
# 2 2.6451 85.8672 36.6744 0.0346 3.2274 -0.0003
# 3 9.1720 36.6744 62.2495 0.2204 9.2753 -0.0199
# 4 0.0516 0.0346 0.2204 9.7935 -0.0345 4.5959
# 5 1.2713 3.2274 9.2753 -0.0345 35.8039 -0.0009
# 6 0.0029 -0.0003 -0.0199 4.5959 -0.0009 20.6719
#
#
#
# Elastic Compliance Matrix: (Units=1/GPa)
#
#
# Indices 1 2 3 4 5 6 
#
# 1 0.009104 0.000393 -0.001580 -0.000014 0.000051 0.000000
# 2 0.000393 0.015614 -0.009409 0.000181 0.001016 -0.000049
# 3 -0.001580 -0.009409 0.022579 -0.000552 -0.004946 0.000144
# 4 -0.000014 0.000181 -0.000552 0.114018 0.000236 -0.025350
# 5 0.000051 0.001016 -0.004946 0.000236 0.029118 -0.000056
# 6 0.000000 -0.000049 0.000144 -0.025350 -0.000056 0.054011
#
#
# Mechanical properties :
#
#
# Convention : Reuss Voigt Hill
#
# Bulk Modulus (GPa) = 38.30800 39.60158 38.95479
# Shear Modulus (GPa) = 18.22561 27.31648 22.77105
#
# Velocity S-wave (km/s) = 3.04725 3.73061 3.40611
# Velocity P-wave (km/s) = 5.64788 6.22360 5.94272
#
# Compressibility (1/GPa) = 0.02610421
#
# Stress axis : x y z
#
# Youngs Moduli (GPa) = 109.84354 64.04430 44.28802
#
# Poissons Ratio (x) = -0.02514 0.06998
# Poissons Ratio (y) = -0.04312 0.41671
# Poissons Ratio (z) = 0.17357 0.60260
#
# Static dielectric constant tensor:
#      x y z
#    x 1.687510 -0.000020 0.033770 
#    y -0.000020 1.716190 0.000020 
#    z 0.033770 0.000020 1.716200 
# 
# From -- ./inp_files/356297.got.cif
#   From: 2010.05.17/outbox.cif.g08.bks.cpg/sg12_179_cif.got.tgz:356297.got - 2010.06.03 13:09:07.
