data_PCOD9210173
_publ_section_title
;
Structure prediction by ZEFSAII (Michael W. Deem and Ramdas Pophale) SiO2 
 PCOD9210173
Probable space group: C 2/M
;
_chemical_formula_sum "Si O2"
_cell_formula_units_Z 56
_cell_length_a 13.315923
_cell_length_b 12.605635
_cell_length_c 16.875857
_cell_angle_alpha 90.000000
_cell_angle_beta 122.378234
_cell_angle_gamma 90.000000
_cell_volume 2392.311075
_symmetry_space_group_name_H-M "C 2/M"
_symmetry_group_IT_number 12
_symmetry_cell_setting 'monoclinic'
loop_
_space_group_symop_operation_xyz
x,y,z
-x,y,-z
-x,-y,-z
x,-y,z
1/2+x,1/2+y,z
1/2-x,1/2+y,-z
1/2-x,1/2-y,-z
1/2+x,1/2-y,z
loop_
_atom_site_type_symbol
_atom_site_label
_atom_site_fract_x
_atom_site_fract_y
_atom_site_fract_z
Si Si1 0.292074 0.882875 0.084385
Si Si2 0.921182 0.835616 0.318322
Si Si3 0.824507 0.379717 0.728189
Si Si4 0.906933 0.216013 0.890928
Si Si5 0.104019 0.838438 0.872591
Si Si6 0.105585 0.381068 0.609421
Si Si7 0.176999 0.798594 0.397319
O O1 0.200390 0.846214 0.113463
O O2 0.386720 0.789738 0.118525
O O3 0.338441 0.000000 0.116894
O O4 0.213114 0.879969 0.970612
O O5 0.820480 0.882451 0.332683
O O6 0.890427 0.868104 0.215805
O O7 0.907416 0.709978 0.330836
O O8 0.061476 0.857593 0.382795
O O9 0.867956 0.500000 0.741580
O O10 0.859375 0.317597 0.823471
O O11 0.863552 0.300449 0.674847
O O12 0.979353 0.139174 0.862117
O O13 0.000000 0.244461 0.000000
O O14 0.096288 0.500000 0.637116
O O15 0.231326 0.365074 0.617625
O O16 0.000000 0.365806 0.500000
O O17 0.250000 0.750000 0.500000
#
# Coordination Sequence:
#
# PCOD9210173 Si02
#       7
#     8   8   8   8   8   8   8
#     4  10  22  41  65  90 124 167 209 256 313 376
#     4  11  22  42  63  89 129 164 204 264 311 369
#     4  11  25  42  63  95 130 167 209 259 318 377
#     4  10  21  41  64  92 131 165 211 263 311 372
#     4  10  21  39  60  93 125 159 211 260 309 367
#     4  10  22  40  65  95 122 155 204 258 312 370
#     4  11  23  43  68  91 125 168 208 261 316 375
#
# _framework density 23.408325999999999
#
# number of rings (size 3 to 8) (size 9 to 14) (size 15 to 20)
#    0.000    1.571    4.286    0.000    0.000    6.286 
#    0.000    0.714    0.000    0.000    0.000    0.000 
#    0.000    0.000    0.000    0.000    0.000    0.000 
#
# Total GULP energy -156585.322271 kJ/mol
# GULP energy per Si atom -5592.332938 kJ/mol
# Density = 2.335505 g / cm^3
# Si number density = 23.408326 Si / 1000 Ang^3
#
#
#
# Elastic Constant Matrix: (Units=GPa)
#
#
# Indices 1 2 3 4 5 6 
#
# 1 115.7329 -11.7044 2.1200 0.0000 14.9049 0.0000
# 2 -11.7044 125.7075 11.6699 0.0000 -2.7872 0.0000
# 3 2.1200 11.6699 71.6346 0.0000 -2.5388 0.0000
# 4 0.0000 0.0000 0.0000 3.6747 0.0000 -4.6512
# 5 14.9049 -2.7872 -2.5388 0.0000 35.9771 0.0000
# 6 0.0000 0.0000 0.0000 -4.6512 0.0000 -3.8697
#
#
#
# Elastic Compliance Matrix: (Units=1/GPa)
#
#
# Indices 1 2 3 4 5 6 
#
# 1 0.009223 0.000825 -0.000542 0.000000 -0.003795 0.000000
# 2 0.000825 0.008161 -0.001347 0.000000 0.000195 0.000000
# 3 -0.000542 -0.001347 0.014235 0.000000 0.001125 0.000000
# 4 0.000000 0.000000 0.000000 0.107930 0.000000 -0.129728
# 5 -0.003795 0.000195 0.001125 0.000000 0.029462 0.000000
# 6 0.000000 0.000000 0.000000 -0.129728 0.000000 -0.102491
#
#
# Mechanical properties :
#
#
# Convention : Reuss Voigt Hill
#
# Bulk Modulus (GPa) = 33.90865 35.24955 34.57910
# Shear Modulus (GPa) = 63.71168 27.88905 45.80036
#
# Velocity S-wave (km/s) = 5.22270 3.45543 4.42813
# Velocity P-wave (km/s) = 7.13344 5.56878 6.39911
#
# Compressibility (1/GPa) = 0.02949100
#
# Stress axis : x y z
#
# Youngs Moduli (GPa) = 108.42804 122.53166 70.24902
#
# Poissons Ratio (x) = -0.10107 0.03806
# Poissons Ratio (y) = -0.08944 0.09463
# Poissons Ratio (z) = 0.05875 0.16505
#
# Static dielectric constant tensor:
#      x y z
#    x 1.920670 0.000000 0.017970 
#    y 0.000000 1.884890 0.000000 
#    z 0.017970 0.000000 1.893120 
# 
# From -- ./inp_files/269389.got.cif
#   From: 2010.05.17/outbox.cif.g08.bks.cpg/sg12_135_cif.got.tgz:269389.got - 2010.06.03 13:09:07.
