data_PCOD9210037
_publ_section_title
;
Structure prediction by ZEFSAII (Michael W. Deem and Ramdas Pophale) SiO2 
 PCOD9210037
Probable space group: C 2/M
;
_chemical_formula_sum "Si O2"
_cell_formula_units_Z 48
_cell_length_a 30.582543
_cell_length_b 8.308486
_cell_length_c 9.643120
_cell_angle_alpha 90.000000
_cell_angle_beta 98.811966
_cell_angle_gamma 90.000000
_cell_volume 2421.343087
_symmetry_space_group_name_H-M "C 2/M"
_symmetry_group_IT_number 12
_symmetry_cell_setting 'monoclinic'
loop_
_space_group_symop_operation_xyz
x,y,z
-x,y,-z
-x,-y,-z
x,-y,z
1/2+x,1/2+y,z
1/2-x,1/2+y,-z
1/2-x,1/2-y,-z
1/2+x,1/2-y,z
loop_
_atom_site_type_symbol
_atom_site_label
_atom_site_fract_x
_atom_site_fract_y
_atom_site_fract_z
Si Si1 0.624003 0.305306 0.346659
Si Si2 0.473006 0.688918 0.614696
Si Si3 0.968711 0.685075 0.118012
Si Si4 0.373212 0.807098 0.966904
Si Si5 0.207943 0.805267 0.568828
Si Si6 0.708462 0.307115 0.889406
O O1 0.623214 0.500000 0.347908
O O2 0.575557 0.244485 0.371633
O O3 0.632952 0.253972 0.192942
O O4 0.663114 0.251911 0.468688
O O5 0.500000 0.762891 0.500000
O O6 0.465754 0.500000 0.580766
O O7 0.505811 0.709074 0.758867
O O8 0.964297 0.500000 0.167274
O O9 0.920765 0.746525 0.049120
O O10 0.000000 0.680224 0.000000
O O11 0.373718 0.000000 0.961455
O O12 0.335050 0.750620 0.051412
O O13 0.250000 0.750000 0.500000
O O14 0.210172 0.749551 0.730111
O O15 0.207797 0.000000 0.570587
O O16 0.708636 0.500000 0.886124
O O17 0.750000 0.250000 0.000000
#
# Coordination Sequence:
#
# PCOD9210037 Si02
#       6
#     8   8   8   8   8   8
#     4  10  21  39  60  86 118 155 197 245 300 353
#     4  10  22  37  59  88 119 155 200 250 297 353
#     4  10  21  39  59  84 121 161 201 246 294 348
#     4  11  23  39  61  89 121 158 202 247 294 351
#     4  10  23  41  62  87 118 153 191 237 292 351
#     4  11  24  42  65  92 122 155 194 244 297 354
#
# _framework density 19.823709000000001
#
# number of rings (size 3 to 8) (size 9 to 14) (size 15 to 20)
#    0.000    1.667    1.667    2.000    2.333    6.667 
#    0.000    0.000    0.000    0.000    0.000    0.000 
#    0.000    0.000    0.000    0.000    0.000    0.000 
#
# Total GULP energy -134039.887416 kJ/mol
# GULP energy per Si atom -5584.995309 kJ/mol
# Density = 1.977859 g / cm^3
# Si number density = 19.823709 Si / 1000 Ang^3
#
#
#
# Elastic Constant Matrix: (Units=GPa)
#
#
# Indices 1 2 3 4 5 6 
#
# 1 195.6290 19.3027 117.9030 0.0000 5.4217 0.0000
# 2 19.3027 12.5970 15.2244 0.0000 0.3550 0.0000
# 3 117.9030 15.2244 176.3311 0.0000 -5.9733 0.0000
# 4 0.0000 0.0000 0.0000 19.5892 0.0000 7.7254
# 5 5.4217 0.3550 -5.9733 0.0000 37.8556 0.0000
# 6 0.0000 0.0000 0.0000 7.7254 0.0000 34.5678
#
#
#
# Elastic Compliance Matrix: (Units=1/GPa)
#
#
# Indices 1 2 3 4 5 6 
#
# 1 0.009311 -0.007362 -0.005663 0.000000 -0.002158 0.000000
# 2 -0.007362 0.094613 -0.003258 0.000000 -0.000347 0.000000
# 3 -0.005663 -0.003258 0.009820 0.000000 0.002391 0.000000
# 4 0.000000 0.000000 0.000000 0.055983 0.000000 -0.012511
# 5 -0.002158 -0.000347 0.002391 0.000000 0.027106 0.000000
# 6 0.000000 0.000000 0.000000 -0.012511 0.000000 0.031725
#
#
# Mechanical properties :
#
#
# Convention : Reuss Voigt Hill
#
# Bulk Modulus (GPa) = 12.31876 76.60194 44.46035
# Shear Modulus (GPa) = 17.35007 33.87764 25.61385
#
# Velocity S-wave (km/s) = 2.96162 4.13842 3.59845
# Velocity P-wave (km/s) = 4.23350 7.84607 6.30410
#
# Compressibility (1/GPa) = 0.08117701
#
# Stress axis : x y z
#
# Youngs Moduli (GPa) = 107.39776 10.56941 101.83115
#
# Poissons Ratio (x) = 0.07782 0.57670
# Poissons Ratio (y) = 0.79071 0.33174
# Poissons Ratio (z) = 0.60823 0.03443
#
# Static dielectric constant tensor:
#      x y z
#    x 1.683480 0.000000 -0.010330 
#    y 0.000000 1.710680 0.000000 
#    z -0.010330 0.000000 1.663050 
# 
# From -- ./inp_files/108621.got.cif
#   From: 2010.05.17/outbox.cif.g08.bks.cpg/sg12_55_cif.got.tgz:108621.got - 2010.06.03 13:09:07.
