data_PCOD9210904
_publ_section_title
;
Structure prediction by ZEFSAII (Michael W. Deem and Ramdas Pophale) SiO2 
 PCOD9210904
Probable space group: C 2/M
;
_chemical_formula_sum "Si O2"
_cell_formula_units_Z 56
_cell_length_a 9.571012
_cell_length_b 27.335172
_cell_length_c 12.374708
_cell_angle_alpha 90.000000
_cell_angle_beta 114.199601
_cell_angle_gamma 90.000000
_cell_volume 2953.031126
_symmetry_space_group_name_H-M "C 2/M"
_symmetry_group_IT_number 12
_symmetry_cell_setting 'monoclinic'
loop_
_space_group_symop_operation_xyz
x,y,z
-x,y,-z
-x,-y,-z
x,-y,z
1/2+x,1/2+y,z
1/2-x,1/2+y,-z
1/2-x,1/2-y,-z
1/2+x,1/2-y,z
loop_
_atom_site_type_symbol
_atom_site_label
_atom_site_fract_x
_atom_site_fract_y
_atom_site_fract_z
Si Si1 0.106036 0.849332 0.739792
Si Si2 0.717727 0.690582 0.357745
Si Si3 0.019257 0.557328 0.380130
Si Si4 0.785605 0.695145 0.624433
Si Si5 0.091058 0.352429 0.770706
Si Si6 0.648212 0.556693 0.622108
Si Si7 0.825233 0.698420 0.987907
O O1 0.130747 0.817906 0.637706
O O2 0.142724 0.904758 0.717737
O O3 0.217919 0.826137 0.863697
O O4 0.930684 0.841419 0.715873
O O5 0.778356 0.680376 0.497307
O O6 0.678210 0.747982 0.349162
O O7 0.839929 0.679801 0.304408
O O8 0.979574 0.500000 0.357982
O O9 0.195632 0.562917 0.397271
O O10 0.000000 0.571415 0.500000
O O11 0.915081 0.591944 0.272270
O O12 0.915558 0.664147 0.723948
O O13 0.169270 0.337620 0.906929
O O14 0.500000 0.566059 0.500000
O O15 0.642140 0.500000 0.655303
O O16 0.750000 0.750000 0.000000
O O17 0.000000 0.705592 0.000000
#
# Coordination Sequence:
#
# PCOD9210904 Si02
#       7
#     8   8   8   8   8   8   8
#     4  12  24  39  61  89 125 165 208 255 308 364
#     4  11  24  35  60  90 123 161 199 256 316 384
#     4  10  21  39  64  94 125 160 205 258 318 377
#     4  11  20  39  58  88 123 157 203 250 320 370
#     4  12  24  39  61  89 125 165 208 255 308 364
#     4  10  21  39  64  94 125 160 205 258 318 377
#     4  12  26  44  65  87 124 172 219 256 298 366
#
# _framework density 18.963564000000002
#
# number of rings (size 3 to 8) (size 9 to 14) (size 15 to 20)
#    0.000    0.857    2.857    5.143    4.000    2.286 
#    0.000    0.714    0.000    2.571    0.000    2.000 
#    0.000    0.000    0.000    0.000    0.000    0.000 
#
# Total GULP energy -156472.005389 kJ/mol
# GULP energy per Si atom -5588.285907 kJ/mol
# Density = 1.892040 g / cm^3
# Si number density = 18.963564 Si / 1000 Ang^3
#
#
#
# Elastic Constant Matrix: (Units=GPa)
#
#
# Indices 1 2 3 4 5 6 
#
# 1 46.9949 33.8881 30.9035 0.0000 5.9673 0.0000
# 2 33.8881 128.4517 64.8923 0.0000 -3.9535 0.0000
# 3 30.9035 64.8923 117.3979 0.0000 -6.5264 0.0000
# 4 0.0000 0.0000 0.0000 29.8952 0.0000 -2.1543
# 5 5.9673 -3.9535 -6.5264 0.0000 19.5652 0.0000
# 6 0.0000 0.0000 0.0000 -2.1543 0.0000 19.1286
#
#
#
# Elastic Compliance Matrix: (Units=1/GPa)
#
#
# Indices 1 2 3 4 5 6 
#
# 1 0.030597 -0.005600 -0.005645 0.000000 -0.012347 0.000000
# 2 -0.005600 0.011827 -0.004927 0.000000 0.002455 0.000000
# 3 -0.005645 -0.004927 0.013009 0.000000 0.005066 0.000000
# 4 0.000000 0.000000 0.000000 0.033724 0.000000 0.003798
# 5 -0.012347 0.002455 0.005066 0.000000 0.057063 0.000000
# 6 0.000000 0.000000 0.000000 0.003798 0.000000 0.052706
#
#
# Mechanical properties :
#
#
# Convention : Reuss Voigt Hill
#
# Bulk Modulus (GPa) = 43.31105 61.35692 52.33399
# Shear Modulus (GPa) = 20.92348 24.59517 22.75932
#
# Velocity S-wave (km/s) = 3.32528 3.60525 3.46809
# Velocity P-wave (km/s) = 6.13449 7.05378 6.61014
#
# Compressibility (1/GPa) = 0.02308879
#
# Stress axis : x y z
#
# Youngs Moduli (GPa) = 32.68264 84.55225 76.87026
#
# Poissons Ratio (x) = 0.47352 0.43394
# Poissons Ratio (y) = 0.18303 0.37872
# Poissons Ratio (z) = 0.18450 0.41657
#
# Static dielectric constant tensor:
#      x y z
#    x 1.643330 0.000000 -0.001390 
#    y 0.000000 1.670600 0.000000 
#    z -0.001390 0.000000 1.635370 
# 
# From -- ./inp_files/124328.got.cif
#   From: 2010.05.17/outbox.cif.g08.bks.cpg/sg12_63_cif.got.tgz:124328.got - 2010.06.03 13:09:07.
