data_PCOD9210292
_publ_section_title
;
Structure prediction by ZEFSAII (Michael W. Deem and Ramdas Pophale) SiO2 
 PCOD9210292
Probable space group: C 2/M
;
_chemical_formula_sum "Si O2"
_cell_formula_units_Z 40
_cell_length_a 10.198168
_cell_length_b 10.180090
_cell_length_c 22.489042
_cell_angle_alpha 90.000000
_cell_angle_beta 75.413895
_cell_angle_gamma 90.000000
_cell_volume 2259.524280
_symmetry_space_group_name_H-M "C 2/M"
_symmetry_group_IT_number 12
_symmetry_cell_setting 'monoclinic'
loop_
_space_group_symop_operation_xyz
x,y,z
-x,y,-z
-x,-y,-z
x,-y,z
1/2+x,1/2+y,z
1/2-x,1/2+y,-z
1/2-x,1/2-y,-z
1/2+x,1/2-y,z
loop_
_atom_site_type_symbol
_atom_site_label
_atom_site_fract_x
_atom_site_fract_y
_atom_site_fract_z
Si Si1 0.563967 0.346597 0.927312
Si Si2 0.627402 0.343048 0.276080
Si Si3 0.877610 0.500000 0.429698
Si Si4 0.165104 0.748718 0.648644
Si Si5 0.195213 0.500000 0.426164
Si Si6 0.810702 0.155546 0.869156
O O1 0.606443 0.500000 0.916177
O O2 0.688536 0.248339 0.903803
O O3 0.444969 0.321398 0.893143
O O4 0.500000 0.330770 0.000000
O O5 0.620116 0.500000 0.284634
O O6 0.744251 0.287080 0.304841
O O7 0.485581 0.281831 0.312502
O O8 0.657401 0.317043 0.203514
O O9 0.838710 0.627227 0.396142
O O10 0.807201 0.500000 0.502085
O O11 0.039167 0.500000 0.422641
O O12 0.230118 0.872813 0.608071
O O13 0.776194 0.000000 0.879122
#
# Coordination Sequence:
#
# PCOD9210292 Si02
#       6
#     8   8   4   8   4   8
#     4  10  21  39  61  89 123 155 197 245 295 348
#     4  11  23  39  61  86 123 153 200 244 294 353
#     4  11  24  41  61  93 121 149 202 247 291 363
#     4  12  22  42  62  88 117 161 193 247 300 349
#     4  11  24  41  63  89 121 155 194 247 303 351
#     4  10  22  39  58  88 119 159 198 244 289 349
#
# _framework density 17.702840999999999
#
# number of rings (size 3 to 8) (size 9 to 14) (size 15 to 20)
#    0.000    1.200    4.000    2.400    0.000    1.200 
#    3.600    1.000    0.000    0.000    0.000    0.000 
#    0.000    0.000    0.000    0.000    0.000    0.000 
#
# Total GULP energy -111786.076980 kJ/mol
# GULP energy per Si atom -5589.303849 kJ/mol
# Density = 1.766255 g / cm^3
# Si number density = 17.702841 Si / 1000 Ang^3
#
#
#
# Elastic Constant Matrix: (Units=GPa)
#
#
# Indices 1 2 3 4 5 6 
#
# 1 53.8090 2.1668 14.7848 0.0000 34.6699 0.0000
# 2 2.1668 79.6859 18.9951 0.0000 6.8759 0.0000
# 3 14.7848 18.9951 89.1866 0.0000 44.4486 0.0000
# 4 0.0000 0.0000 0.0000 -4.4958 0.0000 -3.2491
# 5 34.6699 6.8759 44.4486 0.0000 40.1646 0.0000
# 6 0.0000 0.0000 0.0000 -3.2491 0.0000 -9.2381
#
#
#
# Elastic Compliance Matrix: (Units=1/GPa)
#
#
# Indices 1 2 3 4 5 6 
#
# 1 0.101399 -0.003967 0.060916 0.000000 -0.154261 0.000000
# 2 -0.003967 0.013441 -0.006165 0.000000 0.007947 0.000000
# 3 0.060916 -0.006165 0.062674 0.000000 -0.120885 0.000000
# 4 0.000000 0.000000 0.000000 -0.298239 0.000000 0.104893
# 5 -0.154261 0.007947 -0.120885 0.000000 0.290473 0.000000
# 6 0.000000 0.000000 0.000000 0.104893 0.000000 -0.145139
#
#
# Mechanical properties :
#
#
# Convention : Reuss Voigt Hill
#
# Bulk Modulus (GPa) = 3.58321 32.73055 18.15688
# Shear Modulus (GPa) = 311.15323 17.73514 164.44418
#
# Velocity S-wave (km/s) = 13.27201 3.16859 9.64847
# Velocity P-wave (km/s) = 15.39123 5.64940 11.59322
#
# Compressibility (1/GPa) = 0.27907974
#
# Stress axis : x y z
#
# Youngs Moduli (GPa) = 9.86205 74.39841 15.95564
#
# Poissons Ratio (x) = 0.29516 -0.97195
# Poissons Ratio (y) = 0.03913 0.09837
# Poissons Ratio (z) = -0.60075 0.45870
#
# Static dielectric constant tensor:
#      x y z
#    x 1.608450 0.000000 0.003460 
#    y 0.000000 1.581290 0.000000 
#    z 0.003460 0.000000 1.575140 
# 
# From -- ./inp_files/299073.got.cif
#   From: 2010.05.17/outbox.cif.g08.bks.cpg/sg12_150_cif.got.tgz:299073.got - 2010.06.03 13:09:07.
