data_PCOD9210238
_publ_section_title
;
Structure prediction by ZEFSAII (Michael W. Deem and Ramdas Pophale) SiO2 
 PCOD9210238
Probable space group: C 2/M
;
_chemical_formula_sum "Si O2"
_cell_formula_units_Z 54
_cell_length_a 34.740862
_cell_length_b 11.107086
_cell_length_c 27.224720
_cell_angle_alpha 90.000000
_cell_angle_beta 163.601178
_cell_angle_gamma 90.000000
_cell_volume 2965.845053
_symmetry_space_group_name_H-M "C 2/M"
_symmetry_group_IT_number 12
_symmetry_cell_setting 'monoclinic'
loop_
_space_group_symop_operation_xyz
x,y,z
-x,y,-z
-x,-y,-z
x,-y,z
1/2+x,1/2+y,z
1/2-x,1/2+y,-z
1/2-x,1/2-y,-z
1/2+x,1/2-y,z
loop_
_atom_site_type_symbol
_atom_site_label
_atom_site_fract_x
_atom_site_fract_y
_atom_site_fract_z
Si Si1 0.318354 0.364044 0.689032
Si Si2 0.511570 0.364074 0.628958
Si Si3 0.686327 0.776885 0.765224
Si Si4 0.000000 0.790221 0.000000
Si Si5 0.000000 0.500000 0.500000
Si Si6 0.768924 0.362460 0.770235
Si Si7 0.109489 0.855618 0.419485
Si Si8 0.979505 0.140215 0.155747
O O1 0.255917 0.500000 0.608719
O O2 0.220038 0.247607 0.567465
O O3 0.418783 0.347907 0.765648
O O4 0.406346 0.360940 0.846743
O O5 0.559127 0.500000 0.676978
O O6 0.596001 0.274791 0.698822
O O7 0.353572 0.357060 0.418997
O O8 0.507321 0.344026 0.681993
O O9 0.704807 0.687590 0.741855
O O10 0.611035 0.894669 0.652337
O O11 0.838189 0.795984 0.971382
O O12 0.103648 0.712437 0.093718
O O13 0.811119 0.500000 0.828371
O O14 0.053357 0.826082 0.296752
O O15 0.152459 0.000000 0.473266
O O16 0.945441 0.000000 0.119065
#
# Coordination Sequence:
#
# PCOD9210238 Si02
#       8
#     8   8   8   4   2   8   8   8
#     4  11  23  41  62  94 126 162 199 254 314 369
#     4  10  21  39  61  86 118 156 201 250 304 355
#     4  12  22  40  60  91 121 162 203 249 308 365
#     4  12  22  38  62  98 121 159 194 252 309 380
#     4  12  24  36  62  90 124 164 208 244 300 390
#     4  11  22  38  61  90 123 154 199 251 309 366
#     4  10  22  43  65  88 119 167 207 255 302 365
#     4  10  22  40  63  86 124 162 207 250 306 364
#
# _framework density 18.207288999999999
#
# number of rings (size 3 to 8) (size 9 to 14) (size 15 to 20)
#    0.000    1.185    5.185    1.333    0.000    2.370 
#    5.333    1.481    0.000    0.000    0.000    0.000 
#    0.000    0.000    0.000    0.000    0.000    0.000 
#
# Total GULP energy -150304.600691 kJ/mol
# GULP energy per Si atom -5566.837063 kJ/mol
# Density = 1.816585 g / cm^3
# Si number density = 18.207289 Si / 1000 Ang^3
#
#
#
# Elastic Constant Matrix: (Units=GPa)
#
#
# Indices 1 2 3 4 5 6 
#
# 1 89.9922 38.7586 26.4993 -0.0002 -16.6818 0.0000
# 2 38.7586 97.4034 32.2920 0.0001 1.0900 0.0000
# 3 26.4993 32.2920 39.5621 -0.0001 -9.3852 0.0000
# 4 -0.0002 0.0001 -0.0001 -9.9180 -0.0001 -8.4478
# 5 -16.6818 1.0900 -9.3852 -0.0001 30.1793 0.0000
# 6 0.0000 0.0000 0.0000 -8.4478 0.0000 10.6652
#
#
#
# Elastic Compliance Matrix: (Units=1/GPa)
#
#
# Indices 1 2 3 4 5 6 
#
# 1 0.016053 -0.004790 -0.005070 0.000000 0.007470 0.000000
# 2 -0.004790 0.016069 -0.011524 0.000000 -0.006812 0.000000
# 3 -0.005070 -0.011524 0.040501 0.000000 0.010209 0.000000
# 4 0.000000 0.000000 0.000000 -0.060207 0.000000 -0.047689
# 5 0.007470 -0.006812 0.010209 0.000000 0.040685 0.000000
# 6 0.000000 0.000000 0.000000 -0.047689 0.000000 0.055989
#
#
# Mechanical properties :
#
#
# Convention : Reuss Voigt Hill
#
# Bulk Modulus (GPa) = 33.49635 46.89529 40.19582
# Shear Modulus (GPa) = 30.90029 14.81247 22.85638
#
# Velocity S-wave (km/s) = 4.12410 2.85537 3.54693
# Velocity P-wave (km/s) = 6.41208 6.05666 6.23690
#
# Compressibility (1/GPa) = 0.02985400
#
# Stress axis : x y z
#
# Youngs Moduli (GPa) = 62.29407 62.22982 24.69086
#
# Poissons Ratio (x) = 0.29810 0.12519
# Poissons Ratio (y) = 0.29841 0.28453
# Poissons Ratio (z) = 0.31586 0.71713
#
# Static dielectric constant tensor:
#      x y z
#    x 1.629690 0.000000 -0.030490 
#    y 0.000000 1.630150 0.000000 
#    z -0.030490 0.000000 1.626790 
# 
# From -- ./inp_files/354020.got.cif
#   From: 2010.05.17/outbox.cif.g08.bks.cpg/sg12_178_cif.got.tgz:354020.got - 2010.06.03 13:09:07.
