data_PCOD9210762
_publ_section_title
;
Structure prediction by ZEFSAII (Michael W. Deem and Ramdas Pophale) SiO2 
 PCOD9210762
Probable space group: C 2/M
;
_chemical_formula_sum "Si O2"
_cell_formula_units_Z 58
_cell_length_a 25.728833
_cell_length_b 7.831965
_cell_length_c 12.281576
_cell_angle_alpha 90.000000
_cell_angle_beta 91.024761
_cell_angle_gamma 90.000000
_cell_volume 2474.431635
_symmetry_space_group_name_H-M "C 2/M"
_symmetry_group_IT_number 12
_symmetry_cell_setting 'monoclinic'
loop_
_space_group_symop_operation_xyz
x,y,z
-x,y,-z
-x,-y,-z
x,-y,z
1/2+x,1/2+y,z
1/2-x,1/2+y,-z
1/2-x,1/2-y,-z
1/2+x,1/2-y,z
loop_
_atom_site_type_symbol
_atom_site_label
_atom_site_fract_x
_atom_site_fract_y
_atom_site_fract_z
Si Si1 0.886799 0.810860 0.537058
Si Si2 0.199607 0.704965 0.069207
Si Si3 0.294738 0.202001 0.681755
Si Si4 0.492464 0.303082 0.121181
Si Si5 0.500000 0.500000 0.500000
Si Si6 0.875863 0.706769 0.115694
Si Si7 0.321336 0.204108 0.334765
Si Si8 0.014508 0.316220 0.352304
O O1 0.835886 0.801483 0.610404
O O2 0.865142 0.771392 0.417774
O O3 0.928666 0.687523 0.591350
O O4 0.913385 0.000000 0.541780
O O5 0.197435 0.500000 0.074165
O O6 0.202593 0.765535 0.193200
O O7 0.250000 0.750000 0.000000
O O8 0.149514 0.763070 0.998962
O O9 0.235565 0.225426 0.640974
O O10 0.307283 0.000000 0.677091
O O11 0.509767 0.500000 0.120571
O O12 0.431072 0.289117 0.139681
O O13 0.519381 0.211014 0.223224
O O14 0.500000 0.230220 0.000000
O O15 0.487599 0.654900 0.407268
O O16 0.882034 0.500000 0.115301
O O17 0.836674 0.749296 0.212126
O O18 0.319520 0.000000 0.344769
O O19 0.988598 0.500000 0.370611
#
# Coordination Sequence:
#
# PCOD9210762 Si02
#       8
#     8   8   8   8   2   8   8   8
#     4  12  26  45  67  97 140 182 231 288 345 418
#     4  10  21  39  63  95 133 169 224 280 340 416
#     4  11  23  40  64  96 134 180 228 280 346 417
#     4  11  26  48  71 103 144 186 241 302 363 434
#     4  12  26  52  74 110 148 180 242 298 356 434
#     4  10  23  41  65  98 132 176 227 284 352 422
#     4  11  23  41  65  97 133 177 230 283 346 417
#     4  12  27  49  78 109 144 190 238 301 366 429
#
# _framework density 23.439726
#
# number of rings (size 3 to 8) (size 9 to 14) (size 15 to 20)
#    0.000    0.966    2.759    3.103    3.862    3.310 
#    0.000    0.000    0.000    0.000    0.000    0.000 
#    0.000    0.000    0.000    0.000    0.000    0.000 
#
# Total GULP energy -162184.738019 kJ/mol
# GULP energy per Si atom -5592.577173 kJ/mol
# Density = 2.338638 g / cm^3
# Si number density = 23.439726 Si / 1000 Ang^3
#
#
#
# Elastic Constant Matrix: (Units=GPa)
#
#
# Indices 1 2 3 4 5 6 
#
# 1 59.5118 7.3001 16.0708 0.0000 14.9031 0.0000
# 2 7.3001 115.1521 37.5242 0.0000 -1.5320 0.0000
# 3 16.0708 37.5242 137.6860 0.0000 21.3751 0.0000
# 4 0.0000 0.0000 0.0000 -1.8674 0.0000 4.1870
# 5 14.9031 -1.5320 21.3751 0.0000 46.0592 0.0000
# 6 0.0000 0.0000 0.0000 4.1870 0.0000 22.2874
#
#
#
# Elastic Compliance Matrix: (Units=1/GPa)
#
#
# Indices 1 2 3 4 5 6 
#
# 1 0.018592 -0.000907 -0.001061 0.000000 -0.005554 0.000000
# 2 -0.000907 0.009691 -0.002835 0.000000 0.001932 0.000000
# 3 -0.001061 -0.002835 0.008751 0.000000 -0.003812 0.000000
# 4 0.000000 0.000000 0.000000 -0.376787 0.000000 0.070785
# 5 -0.005554 0.001932 -0.003812 0.000000 0.025342 0.000000
# 6 0.000000 0.000000 0.000000 0.070785 0.000000 0.031570
#
#
# Mechanical properties :
#
#
# Convention : Reuss Voigt Hill
#
# Bulk Modulus (GPa) = 36.45816 48.23779 42.34797
# Shear Modulus (GPa) = -18.93278 30.05948 5.56335
#
# Velocity S-wave (km/s) = -2.84513 3.58497 1.54228
# Velocity P-wave (km/s) = 2.18969 6.14493 4.61275
#
# Compressibility (1/GPa) = 0.02742870
#
# Stress axis : x y z
#
# Youngs Moduli (GPa) = 53.78710 103.18577 114.26929
#
# Poissons Ratio (x) = 0.09358 0.12121
# Poissons Ratio (y) = 0.04878 0.32398
# Poissons Ratio (z) = 0.05705 0.29255
#
# Static dielectric constant tensor:
#      x y z
#    x 1.765250 0.000000 -0.006970 
#    y 0.000000 1.866160 0.000000 
#    z -0.006970 0.000000 1.884130 
# 
# From -- ./inp_files/180919.got.cif
#   From: 2010.05.17/outbox.cif.g08.bks.cpg/sg12_91_cif.got.tgz:180919.got - 2010.06.03 13:09:07.
