data_PCOD9210348
_publ_section_title
;
Structure prediction by ZEFSAII (Michael W. Deem and Ramdas Pophale) SiO2 
 PCOD9210348
Probable space group: C 2/M
;
_chemical_formula_sum "Si O2"
_cell_formula_units_Z 40
_cell_length_a 27.088475
_cell_length_b 14.977112
_cell_length_c 9.863356
_cell_angle_alpha 90.000000
_cell_angle_beta 28.156581
_cell_angle_gamma 90.000000
_cell_volume 1888.302054
_symmetry_space_group_name_H-M "C 2/M"
_symmetry_group_IT_number 12
_symmetry_cell_setting 'monoclinic'
loop_
_space_group_symop_operation_xyz
x,y,z
-x,y,-z
-x,-y,-z
x,-y,z
1/2+x,1/2+y,z
1/2-x,1/2+y,-z
1/2-x,1/2-y,-z
1/2+x,1/2-y,z
loop_
_atom_site_type_symbol
_atom_site_label
_atom_site_fract_x
_atom_site_fract_y
_atom_site_fract_z
Si Si1 0.186439 0.840446 0.286299
Si Si2 0.807518 0.105768 0.420163
Si Si3 0.385924 0.897312 0.274708
Si Si4 0.757487 0.137746 0.132289
Si Si5 0.539691 0.394510 0.178115
O O1 0.188388 0.882115 0.430361
O O2 0.238964 0.743996 0.174615
O O3 0.063877 0.838174 0.542674
O O4 0.241400 0.890103 0.027441
O O5 0.701290 0.144967 0.612263
O O6 0.805102 0.000000 0.395766
O O7 0.907525 0.136012 0.091373
O O8 0.333019 0.898307 0.550696
O O9 0.400730 0.000000 0.192283
O O10 0.500000 0.854112 0.000000
O O11 0.867730 0.114513 0.936189
O O12 0.509802 0.500000 0.243249
#
# Coordination Sequence:
#
# PCOD9210348 Si02
#       5
#     8   8   8   8   8
#     4  11  22  35  54  84 117 144 181 236 287 329
#     4   9  19  35  57  85 110 138 188 243 282 329
#     4   9  19  37  57  76 104 146 191 229 274 338
#     4  10  23  37  52  81 116 149 186 229 280 340
#     4  10  21  39  62  85 112 151 193 230 280 345
#
# _framework density 21.183052
#
# number of rings (size 3 to 8) (size 9 to 14) (size 15 to 20)
#    0.000    2.200    0.000    3.600    0.000   12.000 
#    0.000    3.000    0.000    3.600    0.000    0.000 
#    0.000    0.000    0.000    0.000    0.000    0.000 
#
# Total GULP energy -111600.129000 kJ/mol
# GULP energy per Si atom -5580.006450 kJ/mol
# Density = 2.113484 g / cm^3
# Si number density = 21.183052 Si / 1000 Ang^3
#
#
#
# Elastic Constant Matrix: (Units=GPa)
#
#
# Indices 1 2 3 4 5 6 
#
# 1 84.5916 5.1938 49.1759 0.0000 25.3828 0.0000
# 2 5.1938 39.0452 -6.2342 0.0000 -9.4136 0.0000
# 3 49.1759 -6.2342 93.7710 0.0000 1.6385 0.0000
# 4 0.0000 0.0000 0.0000 18.0398 0.0000 -3.2971
# 5 25.3828 -9.4136 1.6385 0.0000 33.3974 0.0000
# 6 0.0000 0.0000 0.0000 -3.2971 0.0000 30.1578
#
#
#
# Elastic Compliance Matrix: (Units=1/GPa)
#
#
# Indices 1 2 3 4 5 6 
#
# 1 0.029169 -0.012386 -0.015686 0.000000 -0.024891 0.000000
# 2 -0.012386 0.033009 0.008370 0.000000 0.018307 0.000000
# 3 -0.015686 0.008370 0.019214 0.000000 0.013338 0.000000
# 4 0.000000 0.000000 0.000000 0.056563 0.000000 0.006184
# 5 -0.024891 0.018307 0.013338 0.000000 0.053366 0.000000
# 6 0.000000 0.000000 0.000000 0.006184 0.000000 0.033835
#
#
# Mechanical properties :
#
#
# Convention : Reuss Voigt Hill
#
# Bulk Modulus (GPa) = 23.81553 34.85318 29.33435
# Shear Modulus (GPa) = 17.94973 27.60381 22.77677
#
# Velocity S-wave (km/s) = 2.91411 3.61378 3.28264
# Velocity P-wave (km/s) = 4.75288 5.82250 5.31467
#
# Compressibility (1/GPa) = 0.04198941
#
# Stress axis : x y z
#
# Youngs Moduli (GPa) = 34.28241 30.29475 52.04623
#
# Poissons Ratio (x) = 0.37522 0.81638
# Poissons Ratio (y) = 0.42461 -0.43563
# Poissons Ratio (z) = 0.53774 -0.25357
#
# Static dielectric constant tensor:
#      x y z
#    x 1.778540 0.000000 -0.001890 
#    y 0.000000 1.782900 0.000000 
#    z -0.001890 0.000000 1.787240 
# 
# From -- ./inp_files/46964.got.cif
#   From: 2010.05.17/outbox.cif.g08.bks.cpg/sg12_24_cif.got.tgz:46964.got - 2010.06.03 13:09:07.
