data_PCOD9210727
_publ_section_title
;
Structure prediction by ZEFSAII (Michael W. Deem and Ramdas Pophale) SiO2 
 PCOD9210727
Probable space group: C 2/M
;
_chemical_formula_sum "Si O2"
_cell_formula_units_Z 64
_cell_length_a 25.464694
_cell_length_b 8.574072
_cell_length_c 14.692909
_cell_angle_alpha 90.000000
_cell_angle_beta 90.271822
_cell_angle_gamma 90.000000
_cell_volume 3207.956638
_symmetry_space_group_name_H-M "C 2/M"
_symmetry_group_IT_number 12
_symmetry_cell_setting 'monoclinic'
loop_
_space_group_symop_operation_xyz
x,y,z
-x,y,-z
-x,-y,-z
x,-y,z
1/2+x,1/2+y,z
1/2-x,1/2+y,-z
1/2-x,1/2-y,-z
1/2+x,1/2-y,z
loop_
_atom_site_type_symbol
_atom_site_label
_atom_site_fract_x
_atom_site_fract_y
_atom_site_fract_z
Si Si1 0.558234 0.186359 0.535321
Si Si2 0.523151 0.684434 0.207951
Si Si3 0.694940 0.814732 0.819171
Si Si4 0.333185 0.316638 0.993378
Si Si5 0.588624 0.314180 0.731897
Si Si6 0.899906 0.314907 0.654983
Si Si7 0.810317 0.189073 0.784862
Si Si8 0.058297 0.683061 0.029053
O O1 0.500000 0.234651 0.500000
O O2 0.577106 0.264148 0.628352
O O3 0.598695 0.214915 0.452837
O O4 0.555271 0.000000 0.551563
O O5 0.526161 0.500000 0.186743
O O6 0.462902 0.738380 0.211776
O O7 0.551243 0.719694 0.303031
O O8 0.556462 0.782285 0.136166
O O9 0.697395 0.765073 0.925140
O O10 0.643004 0.747941 0.771951
O O11 0.749301 0.768562 0.771197
O O12 0.691625 0.000000 0.816522
O O13 0.322753 0.500000 0.997249
O O14 0.323076 0.263250 0.889645
O O15 0.394561 0.280838 0.012201
O O16 0.589236 0.500000 0.737196
O O17 0.908864 0.500000 0.667615
O O18 0.848855 0.262931 0.711012
O O19 0.816423 0.000000 0.781194
O O20 0.065541 0.500000 0.009661
O O21 0.000000 0.732650 0.000000
#
# Coordination Sequence:
#
# PCOD9210727 Si02
#       8
#     8   8   8   8   8   8   8   8
#     4  10  21  39  63  93 126 159 198 246 302 367
#     4  11  22  36  56  84 121 158 195 244 301 358
#     4  11  24  42  63  87 121 164 207 252 304 360
#     4  11  22  38  61  89 121 157 204 255 303 358
#     4  11  24  40  62  92 124 161 203 252 307 361
#     4  11  22  37  63  93 120 155 198 245 298 359
#     4  10  23  42  63  89 122 162 205 254 305 354
#     4  11  23  36  53  82 119 161 205 245 296 361
#
# _framework density 19.950395
#
# number of rings (size 3 to 8) (size 9 to 14) (size 15 to 20)
#    0.000    1.250    2.500    3.375    0.000    7.250 
#    0.000    0.625    0.000    0.000    0.000    0.000 
#    0.000    0.000    0.000    0.000    0.000    0.000 
#
# Total GULP energy -178821.091007 kJ/mol
# GULP energy per Si atom -5588.159094 kJ/mol
# Density = 1.990499 g / cm^3
# Si number density = 19.950395 Si / 1000 Ang^3
#
#
#
# Elastic Constant Matrix: (Units=GPa)
#
#
# Indices 1 2 3 4 5 6 
#
# 1 126.2478 24.7974 37.2885 0.0000 -13.9789 0.0000
# 2 24.7974 22.1163 9.0303 0.0000 -4.0318 0.0000
# 3 37.2885 9.0303 73.6010 0.0000 -13.0268 0.0000
# 4 0.0000 0.0000 0.0000 27.6374 0.0000 2.3417
# 5 -13.9789 -4.0318 -13.0268 0.0000 27.5361 0.0000
# 6 0.0000 0.0000 0.0000 2.3417 0.0000 25.1129
#
#
#
# Elastic Compliance Matrix: (Units=1/GPa)
#
#
# Indices 1 2 3 4 5 6 
#
# 1 0.011511 -0.010811 -0.004094 0.000000 0.002324 0.000000
# 2 -0.010811 0.058292 -0.001239 0.000000 0.002460 0.000000
# 3 -0.004094 -0.001239 0.016822 0.000000 0.005698 0.000000
# 4 0.000000 0.000000 0.000000 0.036471 0.000000 -0.003401
# 5 0.002324 0.002460 0.005698 0.000000 0.040552 0.000000
# 6 0.000000 0.000000 0.000000 -0.003401 0.000000 0.040137
#
#
# Mechanical properties :
#
#
# Convention : Reuss Voigt Hill
#
# Bulk Modulus (GPa) = 18.40424 40.46639 29.43532
# Shear Modulus (GPa) = 19.67073 26.11386 22.89230
#
# Velocity S-wave (km/s) = 3.14344 3.62185 3.39109
# Velocity P-wave (km/s) = 4.73498 6.14963 5.48808
#
# Compressibility (1/GPa) = 0.05433530
#
# Stress axis : x y z
#
# Youngs Moduli (GPa) = 86.87380 17.15511 59.44760
#
# Poissons Ratio (x) = 0.18547 0.24338
# Poissons Ratio (y) = 0.93920 0.07367
# Poissons Ratio (z) = 0.35567 0.02126
#
# Static dielectric constant tensor:
#      x y z
#    x 1.743180 0.000000 0.004510 
#    y 0.000000 1.669200 0.000000 
#    z 0.004510 0.000000 1.731700 
# 
# From -- ./inp_files/238722.got.cif
#   From: 2010.05.17/outbox.cif.g08.bks.cpg/sg12_120_cif.got.tgz:238722.got - 2010.06.03 13:09:07.
