data_PCOD9210631
_publ_section_title
;
Structure prediction by ZEFSAII (Michael W. Deem and Ramdas Pophale) SiO2 
 PCOD9210631
Probable space group: C 2/M
;
_chemical_formula_sum "Si O2"
_cell_formula_units_Z 40
_cell_length_a 17.774946
_cell_length_b 14.144426
_cell_length_c 27.491356
_cell_angle_alpha 90.000000
_cell_angle_beta 162.222231
_cell_angle_gamma 90.000000
_cell_volume 2110.344501
_symmetry_space_group_name_H-M "C 2/M"
_symmetry_group_IT_number 12
_symmetry_cell_setting 'monoclinic'
loop_
_space_group_symop_operation_xyz
x,y,z
-x,y,-z
-x,-y,-z
x,-y,z
1/2+x,1/2+y,z
1/2-x,1/2+y,-z
1/2-x,1/2-y,-z
1/2+x,1/2-y,z
loop_
_atom_site_type_symbol
_atom_site_label
_atom_site_fract_x
_atom_site_fract_y
_atom_site_fract_z
Si Si1 0.798211 0.207754 0.840370
Si Si2 0.155992 0.111229 0.808638
Si Si3 0.580371 0.613028 0.602752
Si Si4 0.727130 0.111072 0.474822
Si Si5 0.585720 0.204764 0.940352
O O1 0.775997 0.318138 0.843027
O O2 0.531323 0.163788 0.681497
O O3 0.928074 0.211500 0.868649
O O4 0.000000 0.161891 0.000000
O O5 0.873651 0.118554 0.616274
O O6 0.222104 0.000000 0.845489
O O7 0.239368 0.153647 0.911728
O O8 0.500000 0.649200 0.500000
O O9 0.557347 0.500000 0.588558
O O10 0.400283 0.645389 0.536226
O O11 0.866682 0.637154 0.787343
O O12 0.682937 0.000000 0.439343
O O13 0.750000 0.250000 0.000000
#
# Coordination Sequence:
#
# PCOD9210631 Si02
#       5
#     8   8   8   8   8
#     4  10  22  37  61  90 118 156 203 253 310 362
#     4  10  21  39  66  91 116 154 209 261 299 355
#     4  10  22  37  58  86 118 157 202 253 307 361
#     4  10  21  39  63  90 118 160 211 258 306 361
#     4  11  24  37  57  89 125 159 197 247 315 368
#
# _framework density 18.954249999999998
#
# number of rings (size 3 to 8) (size 9 to 14) (size 15 to 20)
#    0.000    1.800    2.000    1.200    5.600    4.000 
#    0.000    2.000    0.000    2.400    0.000    0.000 
#    0.000    0.000    0.000    0.000    0.000    0.000 
#
# Total GULP energy -111382.466783 kJ/mol
# GULP energy per Si atom -5569.123339 kJ/mol
# Density = 1.891111 g / cm^3
# Si number density = 18.954250 Si / 1000 Ang^3
#
#
#
# Elastic Constant Matrix: (Units=GPa)
#
#
# Indices 1 2 3 4 5 6 
#
# 1 143.9462 46.6198 92.9729 -0.0111 5.8003 0.0019
# 2 46.6198 61.3290 51.8810 0.0552 9.4352 0.0051
# 3 92.9729 51.8810 174.5834 0.0873 1.8842 0.0069
# 4 -0.0111 0.0552 0.0873 14.8492 -0.0086 -4.4347
# 5 5.8003 9.4352 1.8842 -0.0086 38.0637 0.0010
# 6 0.0019 0.0051 0.0069 -4.4347 0.0010 14.6944
#
#
#
# Elastic Compliance Matrix: (Units=1/GPa)
#
#
# Indices 1 2 3 4 5 6 
#
# 1 0.011555 -0.004710 -0.004750 0.000060 -0.000358 0.000020
# 2 -0.004710 0.024730 -0.004785 -0.000079 -0.005175 -0.000029
# 3 -0.004750 -0.004785 0.009664 -0.000047 0.001431 -0.000016
# 4 0.000060 -0.000079 -0.000047 0.074015 0.000029 0.022337
# 5 -0.000358 -0.005175 0.001431 0.000029 0.027538 0.000008
# 6 0.000020 -0.000029 -0.000016 0.022337 0.000008 0.074794
#
#
# Mechanical properties :
#
#
# Convention : Reuss Voigt Hill
#
# Bulk Modulus (GPa) = 57.27722 84.75620 71.01671
# Shear Modulus (GPa) = 19.48512 26.08045 22.78279
#
# Velocity S-wave (km/s) = 3.20973 3.71343 3.47073
# Velocity P-wave (km/s) = 6.63482 7.94980 7.32189
#
# Compressibility (1/GPa) = 0.01745895
#
# Stress axis : x y z
#
# Youngs Moduli (GPa) = 86.54352 40.43674 103.47880
#
# Poissons Ratio (x) = 0.19047 0.49151
# Poissons Ratio (y) = 0.40766 0.49511
# Poissons Ratio (z) = 0.41107 0.19347
#
# Static dielectric constant tensor:
#      x y z
#    x 1.688030 0.000020 -0.044000 
#    y 0.000020 1.676680 -0.000050 
#    z -0.044000 -0.000050 1.704690 
# 
# From -- ./inp_files/142513.got.cif
#   From: 2010.05.17/outbox.cif.g08.bks.cpg/sg12_72_cif.got.tgz:142513.got - 2010.06.03 13:09:07.
