data_PCOD9210605
_publ_section_title
;
Structure prediction by ZEFSAII (Michael W. Deem and Ramdas Pophale) SiO2 
 PCOD9210605
Probable space group: C 2/M
;
_chemical_formula_sum "Si O2"
_cell_formula_units_Z 64
_cell_length_a 24.236975
_cell_length_b 21.411481
_cell_length_c 17.221842
_cell_angle_alpha 90.000000
_cell_angle_beta 19.740566
_cell_angle_gamma 90.000000
_cell_volume 3018.666829
_symmetry_space_group_name_H-M "C 2/M"
_symmetry_group_IT_number 12
_symmetry_cell_setting 'monoclinic'
loop_
_space_group_symop_operation_xyz
x,y,z
-x,y,-z
-x,-y,-z
x,-y,z
1/2+x,1/2+y,z
1/2-x,1/2+y,-z
1/2-x,1/2-y,-z
1/2+x,1/2-y,z
loop_
_atom_site_type_symbol
_atom_site_label
_atom_site_fract_x
_atom_site_fract_y
_atom_site_fract_z
Si Si1 0.966321 0.931122 0.881583
Si Si2 0.234971 0.323778 0.130897
Si Si3 0.788829 0.883805 0.557044
Si Si4 0.758653 0.073970 0.365255
Si Si5 0.168870 0.075627 0.322833
Si Si6 0.370825 0.822767 0.564217
Si Si7 0.491711 0.128061 0.177113
Si Si8 0.545353 0.256018 0.689146
O O1 0.104385 0.933469 0.631562
O O2 0.071840 0.909073 0.816183
O O3 0.902715 0.000000 0.982163
O O4 0.828788 0.886750 0.029382
O O5 0.193939 0.294974 0.269732
O O6 0.063209 0.336952 0.318787
O O7 0.362339 0.281213 0.916250
O O8 0.825776 0.892390 0.598787
O O9 0.601025 0.887365 0.780404
O O10 0.853308 0.819071 0.432080
O O11 0.724349 0.115237 0.335173
O O12 0.612409 0.092705 0.618218
O O13 0.758916 0.000000 0.351940
O O14 0.000000 0.087515 0.500000
O O15 0.186202 0.000000 0.308188
O O16 0.323741 0.104004 0.071712
O O17 0.364042 0.774795 0.503248
O O18 0.474748 0.201624 0.220611
#
# Coordination Sequence:
#
# PCOD9210605 Si02
#       8
#     8   8   8   8   8   8   8   8
#     4   9  19  37  60  85 115 152 195 245 299 353
#     4  10  22  38  57  84 117 156 197 241 295 359
#     4  10  21  39  63  89 118 157 204 255 307 364
#     4   9  19  37  60  85 115 152 195 245 299 353
#     4  11  25  41  59  91 131 167 208 257 314 377
#     4  10  22  38  57  84 117 156 197 241 295 359
#     4  10  21  39  63  89 118 157 204 255 307 364
#     4  10  22  40  62  88 120 158 200 256 308 364
#
# _framework density 21.201412999999999
#
# number of rings (size 3 to 8) (size 9 to 14) (size 15 to 20)
#    0.000    2.125    0.000    1.875    1.750    9.500 
#    0.000    2.500    0.000    0.000    0.000    0.000 
#    0.000    0.000    0.000    0.000    0.000    0.000 
#
# Total GULP energy -178542.399584 kJ/mol
# GULP energy per Si atom -5579.449987 kJ/mol
# Density = 2.115316 g / cm^3
# Si number density = 21.201413 Si / 1000 Ang^3
#
#
#
# Elastic Constant Matrix: (Units=GPa)
#
#
# Indices 1 2 3 4 5 6 
#
# 1 50.4850 13.2613 -2.9591 -0.0137 -4.0496 -0.0035
# 2 13.2613 94.4971 18.5406 -0.0152 -7.1354 -0.0167
# 3 -2.9591 18.5406 84.9561 0.0090 -10.1739 -0.0181
# 4 -0.0137 -0.0152 0.0090 13.8330 0.0004 -1.8712
# 5 -4.0496 -7.1354 -10.1739 0.0004 28.3416 0.0020
# 6 -0.0035 -0.0167 -0.0181 -1.8712 0.0020 12.4970
#
#
#
# Elastic Compliance Matrix: (Units=1/GPa)
#
#
# Indices 1 2 3 4 5 6 
#
# 1 0.020943 -0.003065 0.001739 0.000017 0.002845 0.000006
# 2 -0.003065 0.011614 -0.002449 0.000013 0.001607 0.000013
# 3 0.001739 -0.002449 0.012875 -0.000008 0.004254 0.000014
# 4 0.000017 0.000013 -0.000008 0.073786 0.000001 0.011048
# 5 0.002845 0.001607 0.004254 0.000001 0.037622 0.000003
# 6 0.000006 0.000013 0.000014 0.011048 0.000003 0.081673
#
#
# Mechanical properties :
#
#
# Convention : Reuss Voigt Hill
#
# Bulk Modulus (GPa) = 26.39762 31.95821 29.17791
# Shear Modulus (GPa) = 19.32802 24.34067 21.83434
#
# Velocity S-wave (km/s) = 3.02261 3.39199 3.21261
# Velocity P-wave (km/s) = 4.96583 5.51789 5.24912
#
# Compressibility (1/GPa) = 0.03788221
#
# Stress axis : x y z
#
# Youngs Moduli (GPa) = 47.74805 86.10012 77.66845
#
# Poissons Ratio (x) = 0.26394 -0.13508
# Poissons Ratio (y) = 0.14637 0.19021
# Poissons Ratio (z) = -0.08304 0.21086
#
# Static dielectric constant tensor:
#      x y z
#    x 1.787210 -0.000010 0.031180 
#    y -0.000010 1.759290 0.000010 
#    z 0.031180 0.000010 1.769050 
# 
# From -- ./inp_files/290920.got.cif
#   From: 2010.05.17/outbox.cif.g08.bks.cpg/sg12_146_cif.got.tgz:290920.got - 2010.06.03 13:09:07.
