data_PCOD9210698
_publ_section_title
;
Structure prediction by ZEFSAII (Michael W. Deem and Ramdas Pophale) SiO2 
 PCOD9210698
Probable space group: C 2/M
;
_chemical_formula_sum "Si O2"
_cell_formula_units_Z 32
_cell_length_a 14.047114
_cell_length_b 15.383636
_cell_length_c 20.721800
_cell_angle_alpha 90.000000
_cell_angle_beta 17.456554
_cell_angle_gamma 90.000000
_cell_volume 1343.289275
_symmetry_space_group_name_H-M "C 2/M"
_symmetry_group_IT_number 12
_symmetry_cell_setting 'monoclinic'
loop_
_space_group_symop_operation_xyz
x,y,z
-x,y,-z
-x,-y,-z
x,-y,z
1/2+x,1/2+y,z
1/2-x,1/2+y,-z
1/2-x,1/2-y,-z
1/2+x,1/2-y,z
loop_
_atom_site_type_symbol
_atom_site_label
_atom_site_fract_x
_atom_site_fract_y
_atom_site_fract_z
Si Si1 0.758803 0.899489 0.776666
Si Si2 0.807661 0.908154 0.190390
Si Si3 0.875971 0.741428 0.506144
Si Si4 0.186230 0.845585 0.067534
O O1 0.055597 0.835716 0.569482
O O2 0.853355 0.000000 0.725237
O O3 0.500000 0.875709 0.000000
O O4 0.514881 0.889603 0.874284
O O5 0.607849 0.821428 0.317751
O O6 0.017301 0.898500 0.119712
O O7 0.626669 0.000000 0.313279
O O8 0.000000 0.910694 0.000000
O O9 0.557366 0.682899 0.717973
O O10 0.000000 0.746729 0.500000
O O11 0.250000 0.750000 0.000000
#
# Coordination Sequence:
#
# PCOD9210698 Si02
#       4
#     8   8   8   8
#     4  11  24  43  64  92 130 168 207 257 312 374
#     4  10  21  39  63  92 123 155 200 258 311 367
#     4  10  21  39  65  91 122 162 207 255 311 365
#     4  11  22  40  64  91 120 167 206 251 312 364
#
# _framework density 23.822122
#
# number of rings (size 3 to 8) (size 9 to 14) (size 15 to 20)
#    0.000    1.500    5.000    1.500    0.000    7.000 
#    0.000    0.000    0.000    0.000    0.000    0.000 
#    0.000    0.000    0.000    0.000    0.000    0.000 
#
# Total GULP energy -89202.231847 kJ/mol
# GULP energy per Si atom -5575.139490 kJ/mol
# Density = 2.376790 g / cm^3
# Si number density = 23.822122 Si / 1000 Ang^3
#
#
#
# Elastic Constant Matrix: (Units=GPa)
#
#
# Indices 1 2 3 4 5 6 
#
# 1 70.2112 9.4632 21.7648 -0.1610 3.2699 0.0034
# 2 9.4632 133.0478 29.8150 -0.4288 19.9846 0.0726
# 3 21.7648 29.8150 63.5496 -0.4439 15.6823 -0.1329
# 4 -0.1610 -0.4288 -0.4439 83.1027 0.0270 29.9410
# 5 3.2699 19.9846 15.6823 0.0270 34.6511 0.0544
# 6 0.0034 0.0726 -0.1329 29.9410 0.0544 14.2425
#
#
#
# Elastic Compliance Matrix: (Units=1/GPa)
#
#
# Indices 1 2 3 4 5 6 
#
# 1 0.015971 -0.000016 -0.005733 0.000091 0.001097 -0.000252
# 2 -0.000016 0.008782 -0.003225 0.000211 -0.003603 -0.000505
# 3 -0.005733 -0.003225 0.020962 -0.000001 -0.007086 0.000242
# 4 0.000091 0.000211 -0.000001 0.049611 -0.000005 -0.104294
# 5 0.001097 -0.003603 -0.007086 -0.000005 0.034041 -0.000167
# 6 -0.000252 -0.000505 0.000242 -0.104294 -0.000167 0.289469
#
#
# Mechanical properties :
#
#
# Convention : Reuss Voigt Hill
#
# Bulk Modulus (GPa) = 36.01418 43.21052 39.61235
# Shear Modulus (GPa) = 11.20978 40.11696 25.66337
#
# Velocity S-wave (km/s) = 2.17160 4.10813 3.28577
# Velocity P-wave (km/s) = 4.63018 6.37813 5.57311
#
# Compressibility (1/GPa) = 0.02776684
#
# Stress axis : x y z
#
# Youngs Moduli (GPa) = 62.61264 113.86730 47.70627
#
# Poissons Ratio (x) = 0.00177 0.27351
# Poissons Ratio (y) = 0.00097 0.15387
# Poissons Ratio (z) = 0.35897 0.36726
#
# Static dielectric constant tensor:
#      x y z
#    x 1.994760 -0.000070 0.105410 
#    y -0.000070 1.857560 -0.000330 
#    z 0.105410 -0.000330 3.170360 
# 
# From -- ./inp_files/58240.got.cif
#   From: 2010.05.17/outbox.cif.g08.bks.cpg/sg12_30_cif.got.tgz:58240.got - 2010.06.03 13:09:07.
