data_PCOD9210654
_publ_section_title
;
Structure prediction by ZEFSAII (Michael W. Deem and Ramdas Pophale) SiO2 
 PCOD9210654
Probable space group: C 2/M
;
_chemical_formula_sum "Si O2"
_cell_formula_units_Z 64
_cell_length_a 9.054518
_cell_length_b 19.895213
_cell_length_c 29.227516
_cell_angle_alpha 90.000000
_cell_angle_beta 140.924650
_cell_angle_gamma 90.000000
_cell_volume 3318.806990
_symmetry_space_group_name_H-M "C 2/M"
_symmetry_group_IT_number 12
_symmetry_cell_setting 'monoclinic'
loop_
_space_group_symop_operation_xyz
x,y,z
-x,y,-z
-x,-y,-z
x,-y,z
1/2+x,1/2+y,z
1/2-x,1/2+y,-z
1/2-x,1/2-y,-z
1/2+x,1/2-y,z
loop_
_atom_site_type_symbol
_atom_site_label
_atom_site_fract_x
_atom_site_fract_y
_atom_site_fract_z
Si Si1 0.091960 0.175585 0.572535
Si Si2 0.235321 0.423644 0.639933
Si Si3 0.901982 0.304030 0.786351
Si Si4 0.390105 0.304409 0.617180
Si Si5 0.318943 0.666426 0.817608
Si Si6 0.255923 0.421151 0.080835
Si Si7 0.746280 0.576102 0.810414
Si Si8 0.991419 0.579580 0.673598
O O1 0.266015 0.238797 0.607745
O O2 0.901331 0.193133 0.565099
O O3 0.243311 0.112211 0.625987
O O4 0.000000 0.160813 0.500000
O O5 0.201790 0.500000 0.615290
O O6 0.258459 0.368765 0.606297
O O7 0.481753 0.421639 0.727025
O O8 0.042879 0.407817 0.632250
O O9 0.659919 0.304711 0.699075
O O10 0.905620 0.233223 0.813041
O O11 0.884969 0.366192 0.817313
O O12 0.124952 0.312702 0.807756
O O13 0.539761 0.625423 0.889666
O O14 0.186682 0.617630 0.750000
O O15 0.302587 0.500000 0.082755
O O16 0.256762 0.412427 0.136055
O O17 0.000000 0.404807 0.000000
O O18 0.834978 0.500000 0.823279
O O19 0.002516 0.500000 0.684119
#
# Coordination Sequence:
#
# PCOD9210654 Si02
#       8
#     8   8   8   8   8   8   8   8
#     4  12  25  40  59  85 120 157 195 243 300 362
#     4   9  19  35  61  88 114 149 196 249 293 343
#     4  11  22  36  62  90 118 153 197 256 299 337
#     4  11  21  39  60  88 117 155 197 246 296 355
#     4  12  22  38  60  92 120 155 201 247 291 349
#     4  10  21  39  63  90 125 165 198 235 290 355
#     4   9  18  35  58  88 121 155 196 243 294 346
#     4  11  22  38  61  86 115 152 198 247 295 348
#
# _framework density 19.284039
#
# number of rings (size 3 to 8) (size 9 to 14) (size 15 to 20)
#    0.000    1.375    3.750    2.250    1.750    1.750 
#    0.000    3.125    0.000    4.125    0.000    0.000 
#    0.000    0.000    0.000    0.000    0.000    0.000 
#
# Total GULP energy -178858.929682 kJ/mol
# GULP energy per Si atom -5589.341553 kJ/mol
# Density = 1.924015 g / cm^3
# Si number density = 19.284039 Si / 1000 Ang^3
#
#
#
# Elastic Constant Matrix: (Units=GPa)
#
#
# Indices 1 2 3 4 5 6 
#
# 1 86.0711 56.9802 -0.0846 0.0005 2.6942 0.0005
# 2 56.9802 108.9389 20.6864 0.0004 7.0369 0.0002
# 3 -0.0846 20.6864 35.3557 0.0010 2.5647 0.0009
# 4 0.0005 0.0004 0.0010 17.1824 0.0004 -8.6893
# 5 2.6942 7.0369 2.5647 0.0004 17.6433 0.0005
# 6 0.0005 0.0002 0.0009 -8.6893 0.0005 18.2384
#
#
#
# Elastic Compliance Matrix: (Units=1/GPa)
#
#
# Indices 1 2 3 4 5 6 
#
# 1 0.019060 -0.011261 0.006589 -0.000001 0.000623 -0.000001
# 2 -0.011261 0.017170 -0.009805 0.000001 -0.003703 0.000001
# 3 0.006589 -0.009805 0.034186 -0.000004 -0.002065 -0.000003
# 4 -0.000001 0.000001 -0.000004 0.076672 -0.000002 0.036529
# 5 0.000623 -0.003703 -0.002065 -0.000002 0.058361 -0.000003
# 6 -0.000001 0.000001 -0.000003 0.036529 -0.000003 0.072233
#
#
# Mechanical properties :
#
#
# Convention : Reuss Voigt Hill
#
# Bulk Modulus (GPa) = 24.11733 42.83664 33.47698
# Shear Modulus (GPa) = 15.60279 20.79840 18.20059
#
# Velocity S-wave (km/s) = 2.84756 3.28766 3.07549
# Velocity P-wave (km/s) = 4.83166 6.05585 5.47806
#
# Compressibility (1/GPa) = 0.04146397
#
# Stress axis : x y z
#
# Youngs Moduli (GPa) = 52.46580 58.23990 29.25160
#
# Poissons Ratio (x) = 0.65582 -0.19274
# Poissons Ratio (y) = 0.59080 0.28680
# Poissons Ratio (z) = -0.34570 0.57102
#
# Static dielectric constant tensor:
#      x y z
#    x 1.667290 0.000000 0.001190 
#    y 0.000000 1.665820 0.000000 
#    z 0.001190 0.000000 1.671860 
# 
# From -- ./inp_files/258081.got.cif
#   From: 2010.05.17/outbox.cif.g08.bks.cpg/sg12_130_cif.got.tgz:258081.got - 2010.06.03 13:09:07.
