data_PCOD9210847
_publ_section_title
;
Structure prediction by ZEFSAII (Michael W. Deem and Ramdas Pophale) SiO2 
 PCOD9210847
Probable space group: C 2/M
;
_chemical_formula_sum "Si O2"
_cell_formula_units_Z 32
_cell_length_a 14.491690
_cell_length_b 15.205526
_cell_length_c 8.499848
_cell_angle_alpha 90.000000
_cell_angle_beta 116.759557
_cell_angle_gamma 90.000000
_cell_volume 1672.385295
_symmetry_space_group_name_H-M "C 2/M"
_symmetry_group_IT_number 12
_symmetry_cell_setting 'monoclinic'
loop_
_space_group_symop_operation_xyz
x,y,z
-x,y,-z
-x,-y,-z
x,-y,z
1/2+x,1/2+y,z
1/2-x,1/2+y,-z
1/2-x,1/2-y,-z
1/2+x,1/2-y,z
loop_
_atom_site_type_symbol
_atom_site_label
_atom_site_fract_x
_atom_site_fract_y
_atom_site_fract_z
Si Si1 0.827356 0.724734 0.197706
Si Si2 0.122426 0.905174 0.599413
Si Si3 0.717547 0.898406 0.547953
Si Si4 0.493343 0.896444 0.806341
O O1 0.856836 0.819420 0.285949
O O2 0.781204 0.667248 0.305112
O O3 0.924272 0.668076 0.210047
O O4 0.750000 0.750000 0.000000
O O5 0.178815 0.892573 0.475699
O O6 0.000000 0.911810 0.500000
O O7 0.163594 0.000000 0.692842
O O8 0.619743 0.879600 0.356924
O O9 0.705796 0.000000 0.591958
O O10 0.517001 0.000000 0.793803
O O11 0.500000 0.884033 0.000000
#
# Coordination Sequence:
#
# PCOD9210847 Si02
#       4
#     8   8   8   8
#     4  12  24  36  58  89 122 157 194 240 294 353
#     4  10  22  40  60  82 114 157 199 240 289 348
#     4  10  21  40  64  87 115 153 198 249 299 346
#     4  10  21  39  64  92 119 149 194 251 303 348
#
# _framework density 19.134347000000002
#
# number of rings (size 3 to 8) (size 9 to 14) (size 15 to 20)
#    0.000    1.500    0.000    5.250    0.000    8.000 
#    0.000    0.000    0.000    5.250    0.000    0.000 
#    0.000    0.000    0.000    0.000    0.000    0.000 
#
# Total GULP energy -89325.515470 kJ/mol
# GULP energy per Si atom -5582.844717 kJ/mol
# Density = 1.909080 g / cm^3
# Si number density = 19.134347 Si / 1000 Ang^3
#
#
#
# Elastic Constant Matrix: (Units=GPa)
#
#
# Indices 1 2 3 4 5 6 
#
# 1 141.1313 76.5477 55.6667 0.0000 -8.4273 0.0000
# 2 76.5477 163.1461 81.3190 0.0000 -19.8301 0.0000
# 3 55.6667 81.3190 117.6827 0.0000 -5.0206 0.0000
# 4 0.0000 0.0000 0.0000 2.4919 0.0000 -44.3475
# 5 -8.4273 -19.8301 -5.0206 0.0000 17.8233 0.0000
# 6 0.0000 0.0000 0.0000 -44.3475 0.0000 11.2356
#
#
#
# Elastic Compliance Matrix: (Units=1/GPa)
#
#
# Indices 1 2 3 4 5 6 
#
# 1 0.009878 -0.003494 -0.002252 0.000000 0.000148 0.000000
# 2 -0.003494 0.012135 -0.006303 0.000000 0.010074 0.000000
# 3 -0.002252 -0.006303 0.013738 0.000000 -0.004207 0.000000
# 4 0.000000 0.000000 0.000000 -0.005795 0.000000 -0.022875
# 5 0.000148 0.010074 -0.004207 0.000000 0.066199 0.000000
# 6 0.000000 0.000000 0.000000 -0.022875 0.000000 -0.001285
#
#
# Mechanical properties :
#
#
# Convention : Reuss Voigt Hill
#
# Bulk Modulus (GPa) = 85.80796 94.33632 90.07214
# Shear Modulus (GPa) = 40.69973 20.20527 30.45250
#
# Velocity S-wave (km/s) = 4.61700 3.25309 3.99370
# Velocity P-wave (km/s) = 8.56531 7.96990 8.27296
#
# Compressibility (1/GPa) = 0.01165393
#
# Stress axis : x y z
#
# Youngs Moduli (GPa) = 101.23686 82.40682 72.79052
#
# Poissons Ratio (x) = 0.28796 0.16389
# Poissons Ratio (y) = 0.35376 0.45877
# Poissons Ratio (z) = 0.22793 0.51937
#
# Static dielectric constant tensor:
#      x y z
#    x 1.657290 0.000000 -0.015360 
#    y 0.000000 1.765870 0.000000 
#    z -0.015360 0.000000 1.647230 
# 
# From -- ./inp_files/45395.got.cif
#   From: 2010.05.17/outbox.cif.g08.bks.cpg/sg12_23_cif.got.tgz:45395.got - 2010.06.03 13:09:07.
