data_PCOD9210085
_publ_section_title
;
Structure prediction by ZEFSAII (Michael W. Deem and Ramdas Pophale) SiO2 
 PCOD9210085
Probable space group: C 2/M
;
_chemical_formula_sum "Si O2"
_cell_formula_units_Z 40
_cell_length_a 19.330661
_cell_length_b 8.706029
_cell_length_c 14.013066
_cell_angle_alpha 90.000000
_cell_angle_beta 69.665218
_cell_angle_gamma 90.000000
_cell_volume 2211.331122
_symmetry_space_group_name_H-M "C 2/M"
_symmetry_group_IT_number 12
_symmetry_cell_setting 'monoclinic'
loop_
_space_group_symop_operation_xyz
x,y,z
-x,y,-z
-x,-y,-z
x,-y,z
1/2+x,1/2+y,z
1/2-x,1/2+y,-z
1/2-x,1/2-y,-z
1/2+x,1/2-y,z
loop_
_atom_site_type_symbol
_atom_site_label
_atom_site_fract_x
_atom_site_fract_y
_atom_site_fract_z
Si Si1 0.771920 0.183631 0.090704
Si Si2 0.217520 0.314750 0.320396
Si Si3 0.626710 0.816861 0.683456
Si Si4 0.569325 0.685085 0.902072
Si Si5 0.580382 0.315540 0.502721
O O1 0.723802 0.231592 0.205811
O O2 0.855745 0.224268 0.077762
O O3 0.767487 0.000000 0.087302
O O4 0.750000 0.250000 0.000000
O O5 0.217320 0.500000 0.326238
O O6 0.292169 0.254493 0.335315
O O7 0.145532 0.247160 0.404331
O O8 0.575884 0.765037 0.796598
O O9 0.594366 0.753440 0.600552
O O10 0.633011 0.000000 0.676914
O O11 0.568133 0.500000 0.887970
O O12 0.500000 0.728053 0.000000
O O13 0.500000 0.273458 0.500000
O O14 0.584836 0.500000 0.505498
#
# Coordination Sequence:
#
# PCOD9210085 Si02
#       5
#     8   8   8   8   8
#     4   9  19  34  54  80 109 142 178 221 270 321
#     4  10  21  39  60  82 111 147 188 230 275 329
#     4  11  22  37  59  84 112 147 187 230 275 329
#     4   9  19  37  58  80 109 146 187 229 274 323
#     4  11  24  40  58  82 112 146 184 228 280 334
#
# _framework density 18.088652
#
# number of rings (size 3 to 8) (size 9 to 14) (size 15 to 20)
#    0.000    2.000    0.000    4.800    0.000    7.600 
#    0.000    6.000    0.000    0.000    0.000    0.000 
#    0.000    0.000    0.000    0.000    0.000    0.000 
#
# Total GULP energy -111696.702386 kJ/mol
# GULP energy per Si atom -5584.835119 kJ/mol
# Density = 1.804748 g / cm^3
# Si number density = 18.088652 Si / 1000 Ang^3
#
#
#
# Elastic Constant Matrix: (Units=GPa)
#
#
# Indices 1 2 3 4 5 6 
#
# 1 109.4378 50.4215 122.5958 0.0000 -6.9474 0.0000
# 2 50.4215 66.6616 64.8335 0.0000 -1.2652 0.0000
# 3 122.5958 64.8335 204.1998 0.0000 4.7189 0.0000
# 4 0.0000 0.0000 0.0000 38.1691 0.0000 0.7413
# 5 -6.9474 -1.2652 4.7189 0.0000 38.6060 0.0000
# 6 0.0000 0.0000 0.0000 0.7413 0.0000 28.2244
#
#
#
# Elastic Compliance Matrix: (Units=1/GPa)
#
#
# Indices 1 2 3 4 5 6 
#
# 1 0.032457 -0.007637 -0.017239 0.000000 0.007698 0.000000
# 2 -0.007637 0.023594 -0.002900 0.000000 -0.000247 0.000000
# 3 -0.017239 -0.002900 0.016288 0.000000 -0.005188 0.000000
# 4 0.000000 0.000000 0.000000 0.026213 0.000000 -0.000688
# 5 0.007698 -0.000247 -0.005188 0.000000 0.027914 0.000000
# 6 0.000000 0.000000 0.000000 -0.000688 0.000000 0.035448
#
#
# Mechanical properties :
#
#
# Convention : Reuss Voigt Hill
#
# Bulk Modulus (GPa) = 59.57618 95.11121 77.34370
# Shear Modulus (GPa) = 22.41521 30.49646 26.45584
#
# Velocity S-wave (km/s) = 3.52403 4.11048 3.82850
# Velocity P-wave (km/s) = 7.04028 8.67311 7.89900
#
# Compressibility (1/GPa) = 0.01678523
#
# Stress axis : x y z
#
# Youngs Moduli (GPa) = 30.80975 42.38419 61.39501
#
# Poissons Ratio (x) = 0.32370 1.05842
# Poissons Ratio (y) = 0.23530 0.17805
# Poissons Ratio (z) = 0.53114 0.12292
#
# Static dielectric constant tensor:
#      x y z
#    x 1.594890 0.000000 -0.005660 
#    y 0.000000 1.611270 0.000000 
#    z -0.005660 0.000000 1.610790 
# 
# From -- ./inp_files/151709.got.cif
#   From: 2010.05.17/outbox.cif.g08.bks.cpg/sg12_76_cif.got.tgz:151709.got - 2010.06.03 13:09:07.
