data_PCOD9210634
_publ_section_title
;
Structure prediction by ZEFSAII (Michael W. Deem and Ramdas Pophale) SiO2 
 PCOD9210634
Probable space group: C 2/M
;
_chemical_formula_sum "Si O2"
_cell_formula_units_Z 48
_cell_length_a 18.493090
_cell_length_b 8.727372
_cell_length_c 16.349578
_cell_angle_alpha 90.000000
_cell_angle_beta 106.618197
_cell_angle_gamma 90.000000
_cell_volume 2528.541550
_symmetry_space_group_name_H-M "C 2/M"
_symmetry_group_IT_number 12
_symmetry_cell_setting 'monoclinic'
loop_
_space_group_symop_operation_xyz
x,y,z
-x,y,-z
-x,-y,-z
x,-y,z
1/2+x,1/2+y,z
1/2-x,1/2+y,-z
1/2-x,1/2-y,-z
1/2+x,1/2-y,z
loop_
_atom_site_type_symbol
_atom_site_label
_atom_site_fract_x
_atom_site_fract_y
_atom_site_fract_z
Si Si1 0.310377 0.316202 0.583092
Si Si2 0.601454 0.183471 0.090155
Si Si3 0.557746 0.683180 0.906850
Si Si4 0.763744 0.316597 0.742489
Si Si5 0.105440 0.682298 0.749394
Si Si6 0.481454 0.315886 0.587777
O O1 0.303675 0.500000 0.584021
O O2 0.250000 0.250000 0.500000
O O3 0.294225 0.246674 0.666648
O O4 0.395097 0.278376 0.581404
O O5 0.527217 0.252882 0.109284
O O6 0.675102 0.217681 0.167254
O O7 0.592551 0.000000 0.081815
O O8 0.602967 0.253551 0.999946
O O9 0.556175 0.500000 0.908310
O O10 0.591446 0.742347 0.833145
O O11 0.754871 0.500000 0.734268
O O12 0.684045 0.241537 0.738138
O O13 0.106313 0.500000 0.757761
O O14 0.038386 0.733761 0.667553
O O15 0.500000 0.276022 0.500000
O O16 0.491141 0.500000 0.599778
#
# Coordination Sequence:
#
# PCOD9210634 Si02
#       6
#     8   8   8   8   8   8
#     4  11  23  39  63  92 123 159 198 243 293 350
#     4  10  21  39  63  90 120 155 199 248 296 350
#     4  11  22  38  62  89 121 159 198 243 297 356
#     4  11  24  41  61  86 120 159 199 247 300 354
#     4  12  25  40  61  88 120 157 200 249 297 352
#     4  10  22  41  64  90 122 158 196 241 295 353
#
# _framework density 18.983274999999999
#
# number of rings (size 3 to 8) (size 9 to 14) (size 15 to 20)
#    0.000    1.167    0.000    7.500    0.000    9.000 
#    0.000    0.000    0.000    0.000    0.000    0.000 
#    0.000    0.000    0.000    0.000    0.000    0.000 
#
# Total GULP energy -134295.989001 kJ/mol
# GULP energy per Si atom -5595.666208 kJ/mol
# Density = 1.894007 g / cm^3
# Si number density = 18.983275 Si / 1000 Ang^3
#
#
#
# Elastic Constant Matrix: (Units=GPa)
#
#
# Indices 1 2 3 4 5 6 
#
# 1 142.7152 79.8578 104.6638 0.0000 -0.6822 0.0000
# 2 79.8578 117.4650 81.4667 0.0000 9.1466 0.0000
# 3 104.6638 81.4667 146.8093 0.0000 -0.9442 0.0000
# 4 0.0000 0.0000 0.0000 25.5727 0.0000 -29.0417
# 5 -0.6822 9.1466 -0.9442 0.0000 41.7686 0.0000
# 6 0.0000 0.0000 0.0000 -29.0417 0.0000 -23.4151
#
#
#
# Elastic Compliance Matrix: (Units=1/GPa)
#
#
# Indices 1 2 3 4 5 6 
#
# 1 0.016307 -0.005073 -0.008803 0.000000 0.001178 0.000000
# 2 -0.005073 0.015860 -0.005208 0.000000 -0.003674 0.000000
# 3 -0.008803 -0.005208 0.015986 0.000000 0.001358 0.000000
# 4 0.000000 0.000000 0.000000 0.016236 0.000000 -0.020137
# 5 0.001178 -0.003674 0.001358 0.000000 0.024796 0.000000
# 6 0.000000 0.000000 0.000000 -0.020137 0.000000 -0.017732
#
#
# Mechanical properties :
#
#
# Convention : Reuss Voigt Hill
#
# Bulk Modulus (GPa) = 100.14641 104.32955 102.23798
# Shear Modulus (GPa) = 44.26746 18.18532 31.22639
#
# Velocity S-wave (km/s) = 4.83423 3.09846 4.06019
# Velocity P-wave (km/s) = 9.16675 8.23885 8.71516
#
# Compressibility (1/GPa) = 0.00998538
#
# Stress axis : x y z
#
# Youngs Moduli (GPa) = 61.32275 63.05237 62.55292
#
# Poissons Ratio (x) = 0.31984 0.55067
# Poissons Ratio (y) = 0.31106 0.32578
# Poissons Ratio (z) = 0.53984 0.32838
#
# Static dielectric constant tensor:
#      x y z
#    x 1.626420 0.000000 0.001420 
#    y 0.000000 1.635920 0.000000 
#    z 0.001420 0.000000 1.629860 
# 
# From -- ./inp_files/230418.got.cif
#   From: 2010.05.17/outbox.cif.g08.bks.cpg/sg12_116_cif.got.tgz:230418.got - 2010.06.03 13:09:07.
