data_PCOD9210568
_publ_section_title
;
Structure prediction by ZEFSAII (Michael W. Deem and Ramdas Pophale) SiO2 
 PCOD9210568
Probable space group: C 2/M
;
_chemical_formula_sum "Si O2"
_cell_formula_units_Z 48
_cell_length_a 13.648659
_cell_length_b 21.754025
_cell_length_c 12.567730
_cell_angle_alpha 90.000000
_cell_angle_beta 142.970745
_cell_angle_gamma 90.000000
_cell_volume 2247.209635
_symmetry_space_group_name_H-M "C 2/M"
_symmetry_group_IT_number 12
_symmetry_cell_setting 'monoclinic'
loop_
_space_group_symop_operation_xyz
x,y,z
-x,y,-z
-x,-y,-z
x,-y,z
1/2+x,1/2+y,z
1/2-x,1/2+y,-z
1/2-x,1/2-y,-z
1/2+x,1/2-y,z
loop_
_atom_site_type_symbol
_atom_site_label
_atom_site_fract_x
_atom_site_fract_y
_atom_site_fract_z
Si Si1 0.863004 0.882933 0.668509
Si Si2 0.157327 0.374980 0.695455
Si Si3 0.126576 0.349756 0.014749
Si Si4 0.401930 0.711767 0.026157
Si Si5 0.089970 0.933492 0.691460
Si Si6 0.543583 0.069990 0.305644
O O1 0.696348 0.884210 0.456166
O O2 0.788617 0.897722 0.721576
O O3 0.975841 0.927770 0.696857
O O4 0.975465 0.823190 0.787143
O O5 0.000000 0.344290 0.500000
O O6 0.069557 0.427346 0.687777
O O7 0.250181 0.330530 0.858365
O O8 0.294480 0.375136 0.204450
O O9 0.140392 0.281380 0.979687
O O10 0.000000 0.347293 0.000000
O O11 0.062279 0.400946 0.878531
O O12 0.500000 0.716630 0.000000
O O13 0.000000 0.932067 0.500000
O O14 0.175808 0.000000 0.771008
O O15 0.597558 0.000000 0.332948
#
# Coordination Sequence:
#
# PCOD9210568 Si02
#       6
#     8   8   8   8   8   8
#     4  10  21  39  63  87 120 156 193 247 302 350
#     4   9  20  38  63  92 121 153 193 244 299 355
#     4  11  24  41  62  86 119 161 202 248 298 347
#     4   9  20  40  62  89 119 152 199 247 298 356
#     4  11  24  40  60  89 122 159 203 244 290 352
#     4  11  23  38  60  91 122 158 202 241 289 356
#
# _framework density 21.359822999999999
#
# number of rings (size 3 to 8) (size 9 to 14) (size 15 to 20)
#    0.000    1.833    0.000    3.000    0.000   10.333 
#    0.000    4.167    0.000   14.500    0.000    0.000 
#    0.000    0.000    0.000    0.000    0.000    0.000 
#
# Total GULP energy -133747.575579 kJ/mol
# GULP energy per Si atom -5572.815649 kJ/mol
# Density = 2.131121 g / cm^3
# Si number density = 21.359823 Si / 1000 Ang^3
#
#
#
# Elastic Constant Matrix: (Units=GPa)
#
#
# Indices 1 2 3 4 5 6 
#
# 1 96.3873 33.9250 13.0926 0.0000 5.6633 0.0000
# 2 33.9250 122.1556 66.1576 0.0000 -0.2545 0.0000
# 3 13.0926 66.1576 103.7626 0.0000 -1.5962 0.0000
# 4 0.0000 0.0000 0.0000 20.6016 0.0000 12.9952
# 5 5.6633 -0.2545 -1.5962 0.0000 29.5532 0.0000
# 6 0.0000 0.0000 0.0000 12.9952 0.0000 22.7758
#
#
#
# Elastic Compliance Matrix: (Units=1/GPa)
#
#
# Indices 1 2 3 4 5 6 
#
# 1 0.011698 -0.003720 0.000862 0.000000 -0.002227 0.000000
# 2 -0.003720 0.013690 -0.008253 0.000000 0.000385 0.000000
# 3 0.000862 -0.008253 0.014800 0.000000 0.000563 0.000000
# 4 0.000000 0.000000 0.000000 0.075833 0.000000 -0.043268
# 5 -0.002227 0.000385 0.000563 0.000000 0.034298 0.000000
# 6 0.000000 0.000000 0.000000 -0.043268 0.000000 0.068594
#
#
# Mechanical properties :
#
#
# Convention : Reuss Voigt Hill
#
# Bulk Modulus (GPa) = 55.66677 60.96174 58.31426
# Shear Modulus (GPa) = 20.23283 28.52815 24.38049
#
# Velocity S-wave (km/s) = 3.08106 3.65855 3.38215
# Velocity P-wave (km/s) = 6.22698 6.81535 6.52780
#
# Compressibility (1/GPa) = 0.01796404
#
# Stress axis : x y z
#
# Youngs Moduli (GPa) = 85.48512 73.04582 67.56978
#
# Poissons Ratio (x) = 0.27173 -0.05821
# Poissons Ratio (y) = 0.31800 0.55767
# Poissons Ratio (z) = -0.07365 0.60287
#
# Static dielectric constant tensor:
#      x y z
#    x 1.846460 0.000000 0.015430 
#    y 0.000000 1.734490 0.000000 
#    z 0.015430 0.000000 1.766100 
# 
# From -- ./inp_files/285922.got.cif
#   From: 2010.05.17/outbox.cif.g08.bks.cpg/sg12_143_cif.got.tgz:285922.got - 2010.06.03 13:09:07.
