data_PCOD9210176
_publ_section_title
;
Structure prediction by ZEFSAII (Michael W. Deem and Ramdas Pophale) SiO2 
 PCOD9210176
Probable space group: C 2/M
;
_chemical_formula_sum "Si O2"
_cell_formula_units_Z 42
_cell_length_a 26.666284
_cell_length_b 14.585659
_cell_length_c 6.386135
_cell_angle_alpha 90.000000
_cell_angle_beta 52.790883
_cell_angle_gamma 90.000000
_cell_volume 1978.227711
_symmetry_space_group_name_H-M "C 2/M"
_symmetry_group_IT_number 12
_symmetry_cell_setting 'monoclinic'
loop_
_space_group_symop_operation_xyz
x,y,z
-x,y,-z
-x,-y,-z
x,-y,z
1/2+x,1/2+y,z
1/2-x,1/2+y,-z
1/2-x,1/2-y,-z
1/2+x,1/2-y,z
loop_
_atom_site_type_symbol
_atom_site_label
_atom_site_fract_x
_atom_site_fract_y
_atom_site_fract_z
Si Si1 0.934562 0.844647 0.108851
Si Si2 0.821195 0.897294 0.100302
Si Si3 0.361888 0.744122 0.664969
Si Si4 0.927678 0.664221 0.876605
Si Si5 0.000000 0.500000 0.500000
Si Si6 0.184760 0.393539 0.541645
O O1 0.884814 0.889066 0.074696
O O2 0.897047 0.821782 0.414092
O O3 0.952213 0.747909 0.953677
O O4 0.000000 0.892534 0.000000
O O5 0.759114 0.884756 0.400592
O O6 0.817330 0.000000 0.019710
O O7 0.821425 0.819720 0.921847
O O8 0.410422 0.795294 0.694293
O O9 0.328847 0.823092 0.612229
O O10 0.973267 0.579894 0.727451
O O11 0.862290 0.632485 0.152405
O O12 0.172659 0.500000 0.513100
#
# Coordination Sequence:
#
# PCOD9210176 Si02
#       6
#     8   8   8   8   2   8
#     4  10  22  42  60  87 125 166 210 264 319 370
#     4  10  23  41  64  90 123 164 216 271 319 368
#     4  10  22  39  63  90 123 168 211 259 317 379
#     4  10  22  37  59  92 129 167 207 256 306 375
#     4  12  20  36  62  92 126 174 202 240 302 384
#     4  10  21  39  60  94 132 166 206 259 317 376
#
# _framework density 21.231124000000001
#
# number of rings (size 3 to 8) (size 9 to 14) (size 15 to 20)
#    0.000    1.905    0.952    1.714    1.333   11.810 
#    0.000    7.143    0.000    0.000    0.000    0.000 
#    0.000    0.000    0.000    0.000    0.000    0.000 
#
# Total GULP energy -116983.067007 kJ/mol
# GULP energy per Si atom -5570.622238 kJ/mol
# Density = 2.118280 g / cm^3
# Si number density = 21.231124 Si / 1000 Ang^3
#
#
#
# Elastic Constant Matrix: (Units=GPa)
#
#
# Indices 1 2 3 4 5 6 
#
# 1 55.2400 -3.0156 13.9768 0.0000 -5.6849 0.0000
# 2 -3.0156 93.1155 28.4441 0.0000 -4.7332 0.0000
# 3 13.9768 28.4441 90.3886 0.0000 -3.2842 0.0000
# 4 0.0000 0.0000 0.0000 31.3731 0.0000 -14.9959
# 5 -5.6849 -4.7332 -3.2842 0.0000 22.2814 0.0000
# 6 0.0000 0.0000 0.0000 -14.9959 0.0000 11.7137
#
#
#
# Elastic Compliance Matrix: (Units=1/GPa)
#
#
# Indices 1 2 3 4 5 6 
#
# 1 0.019589 0.001941 -0.003462 0.000000 0.004900 0.000000
# 2 0.001941 0.012162 -0.004037 0.000000 0.002484 0.000000
# 3 -0.003462 -0.004037 0.012875 0.000000 0.000157 0.000000
# 4 0.000000 0.000000 0.000000 0.082134 0.000000 0.105148
# 5 0.004900 0.002484 0.000157 0.000000 0.046681 0.000000
# 6 0.000000 0.000000 0.000000 0.105148 0.000000 0.219982
#
#
# Mechanical properties :
#
#
# Convention : Reuss Voigt Hill
#
# Bulk Modulus (GPa) = 29.84215 35.28386 32.56301
# Shear Modulus (GPa) = 12.02766 26.36288 19.19527
#
# Velocity S-wave (km/s) = 2.38273 3.52761 3.01010
# Velocity P-wave (km/s) = 4.65363 5.76603 5.23943
#
# Compressibility (1/GPa) = 0.03350965
#
# Stress axis : x y z
#
# Youngs Moduli (GPa) = 51.04918 82.22566 77.67146
#
# Poissons Ratio (x) = -0.15960 0.26888
# Poissons Ratio (y) = -0.09908 0.31356
# Poissons Ratio (z) = 0.17672 0.33195
#
# Static dielectric constant tensor:
#      x y z
#    x 1.779870 0.000000 -0.037700 
#    y 0.000000 1.744260 0.000000 
#    z -0.037700 0.000000 1.749510 
# 
# From -- ./inp_files/20535.got.cif
#   From: 2010.05.17/outbox.cif.g08.bks.cpg/sg12_11_cif.got.tgz:20535.got - 2010.06.03 13:09:07.
