data_PCOD9210530
_publ_section_title
;
Structure prediction by ZEFSAII (Michael W. Deem and Ramdas Pophale) SiO2 
 PCOD9210530
Probable space group: C 2/M
;
_chemical_formula_sum "Si O2"
_cell_formula_units_Z 34
_cell_length_a 23.970611
_cell_length_b 7.426526
_cell_length_c 20.270621
_cell_angle_alpha 90.000000
_cell_angle_beta 25.536393
_cell_angle_gamma 90.000000
_cell_volume 1555.586201
_symmetry_space_group_name_H-M "C 2/M"
_symmetry_group_IT_number 12
_symmetry_cell_setting 'monoclinic'
loop_
_space_group_symop_operation_xyz
x,y,z
-x,y,-z
-x,-y,-z
x,-y,z
1/2+x,1/2+y,z
1/2-x,1/2+y,-z
1/2-x,1/2-y,-z
1/2+x,1/2-y,z
loop_
_atom_site_type_symbol
_atom_site_label
_atom_site_fract_x
_atom_site_fract_y
_atom_site_fract_z
Si Si1 0.630278 0.284342 0.175685
Si Si2 0.133792 0.780892 0.322491
Si Si3 0.322893 0.783389 0.236328
Si Si4 0.154462 0.785978 0.541818
Si Si5 0.000000 0.000000 0.000000
O O1 0.621785 0.500000 0.189874
O O2 0.646621 0.218435 0.233616
O O3 0.491829 0.215214 0.296623
O O4 0.750000 0.250000 0.000000
O O5 0.252766 0.730738 0.242461
O O6 0.000000 0.722896 0.500000
O O7 0.130621 0.000000 0.325762
O O8 0.223411 0.732313 0.400330
O O9 0.345717 0.000000 0.213951
O O10 0.447763 0.659971 0.106121
O O11 0.250000 0.750000 0.500000
O O12 0.142846 0.000000 0.549683
#
# Coordination Sequence:
#
# PCOD9210530 Si02
#       5
#     8   8   8   8   2
#     4  10  21  39  62  94 125 163 213 270 324 388
#     4   9  16  36  69  89 114 161 216 263 321 388
#     4  10  22  43  67  94 127 174 217 269 331 386
#     4  10  22  40  65  90 129 176 217 261 330 399
#     4  12  26  40  62  98 140 160 222 274 314 396
#
# _framework density 21.856714
#
# number of rings (size 3 to 8) (size 9 to 14) (size 15 to 20)
#    0.000    2.118    2.353    0.353    1.647    2.824 
#    6.353    5.294    0.000    0.000    0.000    0.000 
#    0.000    0.000    0.000    0.000    0.000    0.000 
#
# Total GULP energy -94664.392164 kJ/mol
# GULP energy per Si atom -5568.493657 kJ/mol
# Density = 2.180697 g / cm^3
# Si number density = 21.856714 Si / 1000 Ang^3
#
#
#
# Elastic Constant Matrix: (Units=GPa)
#
#
# Indices 1 2 3 4 5 6 
#
# 1 152.8766 3.2590 76.2937 0.0001 15.0355 0.0003
# 2 3.2590 87.1448 25.9575 -0.0018 1.5676 0.0019
# 3 76.2937 25.9575 175.3142 -0.0010 20.3509 0.0017
# 4 0.0001 -0.0018 -0.0010 10.3054 0.0000 10.1457
# 5 15.0355 1.5676 20.3509 0.0000 25.9470 -0.0004
# 6 0.0003 0.0019 0.0017 10.1457 -0.0004 10.8129
#
#
#
# Elastic Compliance Matrix: (Units=1/GPa)
#
#
# Indices 1 2 3 4 5 6 
#
# 1 0.008521 0.000784 -0.003571 -0.000005 -0.002185 0.000005
# 2 0.000784 0.012090 -0.002193 0.000048 0.000536 -0.000047
# 3 -0.003571 -0.002193 0.008061 0.000017 -0.004121 -0.000017
# 4 -0.000005 0.000048 0.000017 1.272684 -0.000032 -1.194153
# 5 -0.002185 0.000536 -0.004121 -0.000032 0.043006 0.000032
# 6 0.000005 -0.000047 -0.000017 -1.194153 0.000032 1.212948
#
#
# Mechanical properties :
#
#
# Convention : Reuss Voigt Hill
#
# Bulk Modulus (GPa) = 53.44191 69.59511 61.51851
# Shear Modulus (GPa) = 1.94287 30.06811 16.00549
#
# Velocity S-wave (km/s) = 0.94385 3.71306 2.70902
# Velocity P-wave (km/s) = 5.06872 7.09176 6.16380
#
# Compressibility (1/GPa) = 0.01871190
#
# Stress axis : x y z
#
# Youngs Moduli (GPa) = 117.35122 82.71605 124.05144
#
# Poissons Ratio (x) = -0.06487 0.44298
# Poissons Ratio (y) = -0.09203 0.27210
# Poissons Ratio (z) = 0.41905 0.18144
#
# Static dielectric constant tensor:
#      x y z
#    x 1.797000 0.000000 -0.031340 
#    y 0.000000 1.802780 0.000000 
#    z -0.031340 0.000000 1.845430 
# 
# From -- ./inp_files/101312.got.cif
#   From: 2010.05.17/outbox.cif.g08.bks.cpg/sg12_51_cif.got.tgz:101312.got - 2010.06.03 13:09:07.
