data_PCOD9210686
_publ_section_title
;
Structure prediction by ZEFSAII (Michael W. Deem and Ramdas Pophale) SiO2 
 PCOD9210686
Probable space group: C 2/M
;
_chemical_formula_sum "Si O2"
_cell_formula_units_Z 48
_cell_length_a 14.580636
_cell_length_b 8.569684
_cell_length_c 28.765649
_cell_angle_alpha 90.000000
_cell_angle_beta 38.028690
_cell_angle_gamma 90.000000
_cell_volume 2214.295780
_symmetry_space_group_name_H-M "C 2/M"
_symmetry_group_IT_number 12
_symmetry_cell_setting 'monoclinic'
loop_
_space_group_symop_operation_xyz
x,y,z
-x,y,-z
-x,-y,-z
x,-y,z
1/2+x,1/2+y,z
1/2-x,1/2+y,-z
1/2-x,1/2-y,-z
1/2+x,1/2-y,z
loop_
_atom_site_type_symbol
_atom_site_label
_atom_site_fract_x
_atom_site_fract_y
_atom_site_fract_z
Si Si1 0.910392 0.812183 0.422233
Si Si2 0.517993 0.684892 0.712447
Si Si3 0.427046 0.821584 0.165512
Si Si4 0.217307 0.816868 0.333854
Si Si5 0.292906 0.682150 0.129309
Si Si6 0.772919 0.180710 0.939719
O O1 0.750000 0.750000 0.500000
O O2 0.950104 0.769841 0.353474
O O3 0.047579 0.760262 0.400087
O O4 0.908565 0.000000 0.425122
O O5 0.482081 0.500000 0.729116
O O6 0.667530 0.722299 0.681103
O O7 0.378093 0.779625 0.788451
O O8 0.280752 0.811077 0.255730
O O9 0.390555 0.777925 0.127264
O O10 0.550369 0.707751 0.137363
O O11 0.482451 0.000000 0.146754
O O12 0.222196 0.000000 0.345844
O O13 0.323943 0.500000 0.122563
O O14 0.309537 0.732077 0.069179
O O15 0.734961 0.000000 0.953533
O O16 0.750000 0.250000 0.000000
#
# Coordination Sequence:
#
# PCOD9210686 Si02
#       6
#     8   8   8   8   8   8
#     4  10  23  42  61  88 127 166 206 260 317 374
#     4  11  22  39  63  92 125 163 212 263 314 374
#     4  11  22  41  67  96 129 166 212 263 316 376
#     4  10  21  39  63  91 125 163 208 258 314 377
#     4  12  24  40  65  97 129 168 215 260 313 377
#     4  12  26  45  67  96 132 169 210 261 320 376
#
# _framework density 21.677322
#
# number of rings (size 3 to 8) (size 9 to 14) (size 15 to 20)
#    0.000    1.000    3.333    4.000    0.000    4.000 
#    0.000    6.667    0.000    0.000    0.000    0.000 
#    0.000    0.000    0.000    0.000    0.000    0.000 
#
# Total GULP energy -134304.194134 kJ/mol
# GULP energy per Si atom -5596.008089 kJ/mol
# Density = 2.162798 g / cm^3
# Si number density = 21.677322 Si / 1000 Ang^3
#
#
#
# Elastic Constant Matrix: (Units=GPa)
#
#
# Indices 1 2 3 4 5 6 
#
# 1 77.2630 -10.5976 -8.5107 -0.0003 6.0889 -0.0012
# 2 -10.5976 55.9601 1.2976 -0.0008 8.9325 -0.0014
# 3 -8.5107 1.2976 39.2538 0.0001 -5.5733 0.0000
# 4 -0.0003 -0.0008 0.0001 31.6832 0.0000 0.7922
# 5 6.0889 8.9325 -5.5733 0.0000 30.9390 -0.0002
# 6 -0.0012 -0.0014 0.0000 0.7922 -0.0002 34.0390
#
#
#
# Elastic Compliance Matrix: (Units=1/GPa)
#
#
# Indices 1 2 3 4 5 6 
#
# 1 0.013887 0.003080 0.002457 0.000000 -0.003180 0.000001
# 2 0.003080 0.019494 -0.000884 0.000001 -0.006394 0.000001
# 3 0.002457 -0.000884 0.026687 0.000000 0.004579 0.000000
# 4 0.000000 0.000001 0.000000 0.031581 0.000000 -0.000735
# 5 -0.003180 -0.006394 0.004579 0.000000 0.035618 0.000000
# 6 0.000001 0.000001 0.000000 -0.000735 0.000000 0.029395
#
#
# Mechanical properties :
#
#
# Convention : Reuss Voigt Hill
#
# Bulk Modulus (GPa) = 14.41434 15.20618 14.81026
# Shear Modulus (GPa) = 29.32881 32.01806 30.67344
#
# Velocity S-wave (km/s) = 3.68227 3.84738 3.76573
# Velocity P-wave (km/s) = 4.97421 5.17364 5.07490
#
# Compressibility (1/GPa) = 0.06937534
#
# Stress axis : x y z
#
# Youngs Moduli (GPa) = 72.01189 51.29694 37.47084
#
# Poissons Ratio (x) = -0.15801 -0.09208
# Poissons Ratio (y) = -0.22182 0.03314
# Poissons Ratio (z) = -0.17697 0.04537
#
# Static dielectric constant tensor:
#      x y z
#    x 1.787830 0.000000 -0.014690 
#    y 0.000000 1.740500 0.000000 
#    z -0.014690 0.000000 1.828910 
# 
# From -- ./inp_files/360238.got.cif
#   From: 2010.05.17/outbox.cif.g08.bks.cpg/sg12_181_cif.got.tgz:360238.got - 2010.06.03 13:09:07.
