data_PCOD9210492
_publ_section_title
;
Structure prediction by ZEFSAII (Michael W. Deem and Ramdas Pophale) SiO2 
 PCOD9210492
Probable space group: C 2/M
;
_chemical_formula_sum "Si O2"
_cell_formula_units_Z 40
_cell_length_a 23.799593
_cell_length_b 10.902665
_cell_length_c 7.052152
_cell_angle_alpha 90.000000
_cell_angle_beta 85.929204
_cell_angle_gamma 90.000000
_cell_volume 1825.268651
_symmetry_space_group_name_H-M "C 2/M"
_symmetry_group_IT_number 12
_symmetry_cell_setting 'monoclinic'
loop_
_space_group_symop_operation_xyz
x,y,z
-x,y,-z
-x,-y,-z
x,-y,z
1/2+x,1/2+y,z
1/2-x,1/2+y,-z
1/2-x,1/2-y,-z
1/2+x,1/2-y,z
loop_
_atom_site_type_symbol
_atom_site_label
_atom_site_fract_x
_atom_site_fract_y
_atom_site_fract_z
Si Si1 0.079493 0.360352 0.647076
Si Si2 0.114675 0.223181 0.267753
Si Si3 0.003905 0.866810 0.727349
Si Si4 0.771972 0.137804 0.621128
Si Si5 0.677578 0.862798 0.924657
O O1 0.057130 0.500000 0.663558
O O2 0.090949 0.321541 0.426515
O O3 0.040192 0.255665 0.750435
O O4 0.137769 0.357412 0.748469
O O5 0.060650 0.153399 0.198406
O O6 0.160777 0.144936 0.371985
O O7 0.150134 0.279248 0.088892
O O8 0.000000 0.873589 0.500000
O O9 0.025882 0.000000 0.787312
O O10 0.750000 0.250000 0.500000
O O11 0.756559 0.000000 0.556783
O O12 0.740006 0.156033 0.829269
O O13 0.675166 0.000000 0.004281
#
# Coordination Sequence:
#
# PCOD9210492 Si02
#       5
#     8   8   8   8   8
#     4  10  21  39  62  91 123 160 205 250 301 362
#     4  11  21  38  65  89 122 163 203 252 310 357
#     4   9  20  38  60  88 123 161 202 250 302 361
#     4  11  23  42  65  91 125 162 206 255 308 367
#     4  10  22  39  61  94 126 157 204 257 304 365
#
# _framework density 21.914581999999999
#
# number of rings (size 3 to 8) (size 9 to 14) (size 15 to 20)
#    0.000    1.800    2.000    1.800    0.000    6.800 
#    0.000    7.000    0.000    0.000    0.000    0.000 
#    0.000    0.000    0.000    0.000    0.000    0.000 
#
# Total GULP energy -111591.865472 kJ/mol
# GULP energy per Si atom -5579.593274 kJ/mol
# Density = 2.186470 g / cm^3
# Si number density = 21.914582 Si / 1000 Ang^3
#
#
#
# Elastic Constant Matrix: (Units=GPa)
#
#
# Indices 1 2 3 4 5 6 
#
# 1 95.6813 54.4493 -9.7930 0.0000 -25.3198 0.0000
# 2 54.4493 182.3569 33.7065 0.0000 -16.9923 0.0000
# 3 -9.7930 33.7065 48.9607 0.0000 -6.3264 0.0000
# 4 0.0000 0.0000 0.0000 9.8034 0.0000 -1.6227
# 5 -25.3198 -16.9923 -6.3264 0.0000 22.3123 0.0000
# 6 0.0000 0.0000 0.0000 -1.6227 0.0000 26.8919
#
#
#
# Elastic Compliance Matrix: (Units=1/GPa)
#
#
# Indices 1 2 3 4 5 6 
#
# 1 0.021205 -0.006368 0.011530 0.000000 0.022483 0.000000
# 2 -0.006368 0.008503 -0.007499 0.000000 -0.002877 0.000000
# 3 0.011530 -0.007499 0.029943 0.000000 0.015863 0.000000
# 4 0.000000 0.000000 0.000000 0.103035 0.000000 0.006217
# 5 0.022483 -0.002877 0.015863 0.000000 0.072639 0.000000
# 6 0.000000 0.000000 0.000000 0.006217 0.000000 0.037561
#
#
# Mechanical properties :
#
#
# Convention : Reuss Voigt Hill
#
# Bulk Modulus (GPa) = 18.18931 53.74719 35.96825
# Shear Modulus (GPa) = 16.89846 28.37724 22.63785
#
# Velocity S-wave (km/s) = 2.77989 3.60238 3.21752
# Velocity P-wave (km/s) = 4.31530 6.47162 5.50017
#
# Compressibility (1/GPa) = 0.05497736
#
# Stress axis : x y z
#
# Youngs Moduli (GPa) = 47.15969 117.60355 33.39652
#
# Poissons Ratio (x) = 0.74886 -0.38506
# Poissons Ratio (y) = 0.30030 0.25045
# Poissons Ratio (z) = -0.54375 0.88194
#
# Static dielectric constant tensor:
#      x y z
#    x 1.834890 0.000000 0.009650 
#    y 0.000000 1.827250 0.000000 
#    z 0.009650 0.000000 1.794810 
# 
# From -- ./inp_files/101027.got.cif
#   From: 2010.05.17/outbox.cif.g08.bks.cpg/sg12_51_cif.got.tgz:101027.got - 2010.06.03 13:09:07.
