data_PCOD9210008
_publ_section_title
;
Structure prediction by ZEFSAII (Michael W. Deem and Ramdas Pophale) SiO2 
 PCOD9210008
Probable space group: C 2/M
;
_chemical_formula_sum "Si O2"
_cell_formula_units_Z 48
_cell_length_a 18.882509
_cell_length_b 8.756898
_cell_length_c 15.873371
_cell_angle_alpha 90.000000
_cell_angle_beta 89.952428
_cell_angle_gamma 90.000000
_cell_volume 2624.695996
_symmetry_space_group_name_H-M "C 2/M"
_symmetry_group_IT_number 12
_symmetry_cell_setting 'monoclinic'
loop_
_space_group_symop_operation_xyz
x,y,z
-x,y,-z
-x,-y,-z
x,-y,z
1/2+x,1/2+y,z
1/2-x,1/2+y,-z
1/2-x,1/2-y,-z
1/2+x,1/2-y,z
loop_
_atom_site_type_symbol
_atom_site_label
_atom_site_fract_x
_atom_site_fract_y
_atom_site_fract_z
Si Si1 0.292641 0.682322 0.922820
Si Si2 0.453501 0.181825 0.737588
Si Si3 0.042536 0.183965 0.584845
Si Si4 0.958096 0.816198 0.916308
Si Si5 0.791741 0.183281 0.420298
Si Si6 0.795295 0.184131 0.734354
O O1 0.286445 0.500000 0.926266
O O2 0.375560 0.720800 0.929749
O O3 0.270462 0.730363 0.828509
O O4 0.250000 0.750000 0.000000
O O5 0.505593 0.238056 0.664480
O O6 0.480168 0.237146 0.829300
O O7 0.375921 0.257047 0.724137
O O8 0.446456 0.000000 0.736348
O O9 0.125208 0.225135 0.576849
O O10 0.000000 0.224717 0.500000
O O11 0.037926 0.000000 0.594944
O O12 0.964505 0.000000 0.905693
O O13 0.000000 0.771246 0.000000
O O14 0.750000 0.250000 0.500000
O O15 0.754625 0.247408 0.336773
O O16 0.786898 0.000000 0.421611
O O17 0.796207 0.000000 0.729318
#
# Coordination Sequence:
#
# PCOD9210008 Si02
#       6
#     8   8   8   8   8   8
#     4   9  19  34  54  79 107 143 183 227 277 328
#     4  11  22  36  58  86 114 146 188 238 284 329
#     4  10  22  40  60  82 112 151 188 225 277 338
#     4   9  19  37  58  79 108 149 191 229 277 335
#     4  11  23  38  60  88 115 147 187 231 279 333
#     4  10  21  39  59  80 113 153 190 231 282 337
#
# _framework density 18.287832000000002
#
# number of rings (size 3 to 8) (size 9 to 14) (size 15 to 20)
#    0.000    2.000    0.000    4.500    0.000    8.000 
#    0.000    5.000    0.000    0.000    0.000    0.000 
#    0.000    0.000    0.000    0.000    0.000    0.000 
#
# Total GULP energy -134043.321133 kJ/mol
# GULP energy per Si atom -5585.138381 kJ/mol
# Density = 1.824621 g / cm^3
# Si number density = 18.287832 Si / 1000 Ang^3
#
#
#
# Elastic Constant Matrix: (Units=GPa)
#
#
# Indices 1 2 3 4 5 6 
#
# 1 115.4614 53.7724 117.4968 0.0000 1.3629 0.0000
# 2 53.7724 56.7918 68.1619 0.0000 -3.1999 0.0000
# 3 117.4968 68.1619 214.7429 0.0000 0.0342 0.0000
# 4 0.0000 0.0000 0.0000 33.2472 0.0000 -3.6708
# 5 1.3629 -3.1999 0.0342 0.0000 42.5148 0.0000
# 6 0.0000 0.0000 0.0000 -3.6708 0.0000 29.7666
#
#
#
# Elastic Compliance Matrix: (Units=1/GPa)
#
#
# Indices 1 2 3 4 5 6 
#
# 1 0.023117 -0.010977 -0.009164 0.000000 -0.001560 0.000000
# 2 -0.010977 0.033854 -0.004740 0.000000 0.002904 0.000000
# 3 -0.009164 -0.004740 0.011175 0.000000 -0.000072 0.000000
# 4 0.000000 0.000000 0.000000 0.030493 0.000000 0.003760
# 5 -0.001560 0.002904 -0.000072 0.000000 0.023790 0.000000
# 6 0.000000 0.000000 0.000000 0.003760 0.000000 0.034058
#
#
# Mechanical properties :
#
#
# Convention : Reuss Voigt Hill
#
# Bulk Modulus (GPa) = 54.39406 96.20647 75.30026
# Shear Modulus (GPa) = 23.54280 30.94339 27.24309
#
# Velocity S-wave (km/s) = 3.59186 4.11788 3.86383
# Velocity P-wave (km/s) = 6.85637 8.67930 7.82113
#
# Compressibility (1/GPa) = 0.01838436
#
# Stress axis : x y z
#
# Youngs Moduli (GPa) = 43.25779 29.53818 89.48230
#
# Poissons Ratio (x) = 0.32425 0.82002
# Poissons Ratio (y) = 0.47485 0.42415
# Poissons Ratio (z) = 0.39642 0.14001
#
# Static dielectric constant tensor:
#      x y z
#    x 1.606190 0.000000 0.006970 
#    y 0.000000 1.630200 0.000000 
#    z 0.006970 0.000000 1.616830 
# 
# From -- ./inp_files/221520.got.cif
#   From: 2010.05.17/outbox.cif.g08.bks.cpg/sg12_111_cif.got.tgz:221520.got - 2010.06.03 13:09:07.
