data_PCOD9210222
_publ_section_title
;
Structure prediction by ZEFSAII (Michael W. Deem and Ramdas Pophale) SiO2 
 PCOD9210222
Probable space group: C 2/M
;
_chemical_formula_sum "Si O2"
_cell_formula_units_Z 64
_cell_length_a 29.786265
_cell_length_b 8.535692
_cell_length_c 13.140307
_cell_angle_alpha 90.000000
_cell_angle_beta 95.075022
_cell_angle_gamma 90.000000
_cell_volume 3327.778384
_symmetry_space_group_name_H-M "C 2/M"
_symmetry_group_IT_number 12
_symmetry_cell_setting 'monoclinic'
loop_
_space_group_symop_operation_xyz
x,y,z
-x,y,-z
-x,-y,-z
x,-y,z
1/2+x,1/2+y,z
1/2-x,1/2+y,-z
1/2-x,1/2-y,-z
1/2+x,1/2-y,z
loop_
_atom_site_type_symbol
_atom_site_label
_atom_site_fract_x
_atom_site_fract_y
_atom_site_fract_z
Si Si1 0.259922 0.687618 0.892993
Si Si2 0.743767 0.313714 0.610166
Si Si3 0.176386 0.312638 0.737392
Si Si4 0.446064 0.820534 0.486009
Si Si5 0.000253 0.810476 0.120521
Si Si6 0.078935 0.187029 0.740127
Si Si7 0.423793 0.813602 0.709537
Si Si8 0.828174 0.186669 0.754036
O O1 0.259758 0.500000 0.889613
O O2 0.217238 0.740182 0.818004
O O3 0.308708 0.735823 0.860233
O O4 0.250000 0.750000 0.000000
O O5 0.748883 0.500000 0.620109
O O6 0.750000 0.250000 0.500000
O O7 0.693762 0.263475 0.636436
O O8 0.784366 0.228317 0.678368
O O9 0.176449 0.500000 0.728130
O O10 0.128509 0.256000 0.766488
O O11 0.500000 0.825154 0.500000
O O12 0.433587 0.735101 0.378416
O O13 0.431520 0.755593 0.594189
O O14 0.428634 0.000000 0.474436
O O15 0.042869 0.756785 0.197905
O O16 0.956985 0.759540 0.180798
O O17 0.000421 0.000000 0.118329
O O18 0.000000 0.759541 0.000000
O O19 0.080465 0.000000 0.745641
O O20 0.372734 0.774725 0.729574
O O21 0.431845 0.000000 0.708562
O O22 0.836493 0.000000 0.752365
#
# Coordination Sequence:
#
# PCOD9210222 Si02
#       8
#     8   8   8   8   8   8   8   8
#     4   9  20  38  61  86 114 154 197 245 299 348
#     4  11  22  38  59  85 118 155 195 239 289 346
#     4  10  22  40  59  84 120 157 196 242 296 352
#     4  10  21  39  61  85 120 159 195 246 305 357
#     4  10  23  43  63  86 121 161 201 252 309 362
#     4  11  23  38  61  91 120 157 205 249 300 362
#     4  11  23  39  62  91 120 158 205 249 303 363
#     4  10  22  40  59  85 121 157 195 242 295 351
#
# _framework density 19.232050000000001
#
# number of rings (size 3 to 8) (size 9 to 14) (size 15 to 20)
#    0.000    1.750    1.250    3.375    1.750    6.000 
#    0.000    3.750    0.000    0.000    0.000    0.000 
#    0.000    0.000    0.000    0.000    0.000    0.000 
#
# Total GULP energy -178390.585124 kJ/mol
# GULP energy per Si atom -5574.705785 kJ/mol
# Density = 1.918828 g / cm^3
# Si number density = 19.232050 Si / 1000 Ang^3
#
#
#
# Elastic Constant Matrix: (Units=GPa)
#
#
# Indices 1 2 3 4 5 6 
#
# 1 124.8178 5.1524 55.6631 0.0000 -25.1998 0.0000
# 2 5.1524 23.8224 14.4034 0.0000 -4.1978 0.0000
# 3 55.6631 14.4034 134.4148 0.0000 -29.3106 0.0000
# 4 0.0000 0.0000 0.0000 29.8918 0.0000 2.5421
# 5 -25.1998 -4.1978 -29.3106 0.0000 27.4582 0.0000
# 6 0.0000 0.0000 0.0000 2.5421 0.0000 34.7592
#
#
#
# Elastic Compliance Matrix: (Units=1/GPa)
#
#
# Indices 1 2 3 4 5 6 
#
# 1 0.010687 0.000706 -0.003049 0.000000 0.006662 0.000000
# 2 0.000706 0.045039 -0.004530 0.000000 0.002697 0.000000
# 3 -0.003049 -0.004530 0.010983 0.000000 0.008233 0.000000
# 4 0.000000 0.000000 0.000000 0.033663 0.000000 -0.002462
# 5 0.006662 0.002697 0.008233 0.000000 0.051734 0.000000
# 6 0.000000 0.000000 0.000000 -0.002462 0.000000 0.028949
#
#
# Mechanical properties :
#
#
# Convention : Reuss Voigt Hill
#
# Bulk Modulus (GPa) = 18.88127 48.16588 33.52357
# Shear Modulus (GPa) = 23.53424 32.27759 27.90591
#
# Velocity S-wave (km/s) = 3.50194 4.10118 3.81335
# Velocity P-wave (km/s) = 5.11765 6.89385 6.07106
#
# Compressibility (1/GPa) = 0.05296255
#
# Stress axis : x y z
#
# Youngs Moduli (GPa) = 93.57133 22.20295 91.04994
#
# Poissons Ratio (x) = -0.01567 0.27758
# Poissons Ratio (y) = -0.06603 0.41248
# Poissons Ratio (z) = 0.28527 0.10059
#
# Static dielectric constant tensor:
#      x y z
#    x 1.648380 0.000000 -0.019510 
#    y 0.000000 1.657410 0.000000 
#    z -0.019510 0.000000 1.727750 
# 
# From -- ./inp_files/187394.got.cif
#   From: 2010.05.17/outbox.cif.g08.bks.cpg/sg12_94_cif.got.tgz:187394.got - 2010.06.03 13:09:07.
