data_PCOD9210229
_publ_section_title
;
Structure prediction by ZEFSAII (Michael W. Deem and Ramdas Pophale) SiO2 
 PCOD9210229
Probable space group: C 2/M
;
_chemical_formula_sum "Si O2"
_cell_formula_units_Z 58
_cell_length_a 28.024968
_cell_length_b 22.178573
_cell_length_c 8.570923
_cell_angle_alpha 90.000000
_cell_angle_beta 145.676207
_cell_angle_gamma 90.000000
_cell_volume 3003.893815
_symmetry_space_group_name_H-M "C 2/M"
_symmetry_group_IT_number 12
_symmetry_cell_setting 'monoclinic'
loop_
_space_group_symop_operation_xyz
x,y,z
-x,y,-z
-x,-y,-z
x,-y,z
1/2+x,1/2+y,z
1/2-x,1/2+y,-z
1/2-x,1/2-y,-z
1/2+x,1/2-y,z
loop_
_atom_site_type_symbol
_atom_site_label
_atom_site_fract_x
_atom_site_fract_y
_atom_site_fract_z
Si Si1 0.489626 0.692773 0.655862
Si Si2 0.757445 0.932653 0.723870
Si Si3 0.425950 0.934711 0.928496
Si Si4 0.188002 0.198936 0.657048
Si Si5 0.000000 0.000000 0.000000
Si Si6 0.498863 0.831851 0.312747
Si Si7 0.114697 0.111437 0.196008
Si Si8 0.691019 0.168815 0.749434
O O1 0.500000 0.679081 0.500000
O O2 0.391342 0.691700 0.438583
O O3 0.519633 0.761506 0.766860
O O4 0.541838 0.648836 0.908589
O O5 0.664318 0.934260 0.397324
O O6 0.822393 0.912251 0.767396
O O7 0.748133 0.883833 0.833913
O O8 0.779266 0.000000 0.838812
O O9 0.436104 0.000000 0.037190
O O10 0.500000 0.931047 0.000000
O O11 0.434464 0.877662 0.061700
O O12 0.164001 0.156607 0.447136
O O13 0.195678 0.271138 0.654182
O O14 0.272478 0.182596 0.980146
O O15 0.928250 0.053948 0.837129
O O16 0.500000 0.840050 0.500000
O O17 0.592261 0.846262 0.498153
#
# Coordination Sequence:
#
# PCOD9210229 Si02
#       8
#     8   8   8   8   2   8   8   8
#     4  10  21  40  63  92 125 159 208 257 313 379
#     4  11  24  41  61  93 126 167 213 257 310 379
#     4  10  21  39  61  85 123 164 208 257 306 368
#     4  10  22  40  63  93 124 163 208 265 321 367
#     4  12  24  48  66  96 130 162 210 270 312 384
#     4  10  22  37  62  91 123 164 206 255 314 371
#     4  12  24  43  69  91 126 168 210 265 320 377
#     4  10  22  41  61  91 131 160 210 267 309 376
#
# _framework density 19.308274000000001
#
# number of rings (size 3 to 8) (size 9 to 14) (size 15 to 20)
#    0.000    1.517    3.448    0.828    3.862    1.931 
#    1.241    0.345    0.000    0.000    0.000    0.000 
#    0.000    0.000    0.000    0.000    0.000    0.000 
#
# Total GULP energy -161605.885827 kJ/mol
# GULP energy per Si atom -5572.616753 kJ/mol
# Density = 1.926433 g / cm^3
# Si number density = 19.308274 Si / 1000 Ang^3
#
#
#
# Elastic Constant Matrix: (Units=GPa)
#
#
# Indices 1 2 3 4 5 6 
#
# 1 43.5909 27.6276 -18.2916 0.0000 2.6963 0.0000
# 2 27.6276 112.4616 26.8819 0.0000 -24.2483 0.0000
# 3 -18.2916 26.8819 48.3197 0.0000 -3.0946 0.0000
# 4 0.0000 0.0000 0.0000 21.0624 0.0000 4.1076
# 5 2.6963 -24.2483 -3.0946 0.0000 21.6235 0.0000
# 6 0.0000 0.0000 0.0000 4.1076 0.0000 27.0645
#
#
#
# Elastic Compliance Matrix: (Units=1/GPa)
#
#
# Indices 1 2 3 4 5 6 
#
# 1 0.064425 -0.034391 0.040912 0.000000 -0.040744 0.000000
# 2 -0.034391 0.031904 -0.028463 0.000000 0.035992 0.000000
# 3 0.040912 -0.028463 0.050106 0.000000 -0.029849 0.000000
# 4 0.000000 0.000000 0.000000 0.048926 0.000000 -0.007426
# 5 -0.040744 0.035992 -0.029849 0.000000 0.087416 0.000000
# 6 0.000000 0.000000 0.000000 -0.007426 0.000000 0.038076
#
#
# Mechanical properties :
#
#
# Convention : Reuss Voigt Hill
#
# Bulk Modulus (GPa) = 9.75129 30.75642 20.25386
# Shear Modulus (GPa) = 12.53381 25.16038 18.84710
#
# Velocity S-wave (km/s) = 2.55059 3.61375 3.12767
# Velocity P-wave (km/s) = 3.70612 5.77719 4.85341
#
# Compressibility (1/GPa) = 0.10255053
#
# Stress axis : x y z
#
# Youngs Moduli (GPa) = 15.52200 31.34360 19.95761
#
# Poissons Ratio (x) = 1.07793 -0.81650
# Poissons Ratio (y) = 0.53381 0.56806
# Poissons Ratio (z) = -0.63503 0.89214
#
# Static dielectric constant tensor:
#      x y z
#    x 1.675960 0.000000 0.009020 
#    y 0.000000 1.713780 0.000000 
#    z 0.009020 0.000000 1.641790 
# 
# From -- ./inp_files/113588.got.cif
#   From: 2010.05.17/outbox.cif.g08.bks.cpg/sg12_57_cif.got.tgz:113588.got - 2010.06.03 13:09:07.
