data_PCOD9210138
_publ_section_title
;
Structure prediction by ZEFSAII (Michael W. Deem and Ramdas Pophale) SiO2 
 PCOD9210138
Probable space group: C 2/M
;
_chemical_formula_sum "Si O2"
_cell_formula_units_Z 40
_cell_length_a 9.865541
_cell_length_b 16.742583
_cell_length_c 22.089421
_cell_angle_alpha 90.000000
_cell_angle_beta 143.415888
_cell_angle_gamma 90.000000
_cell_volume 2174.580981
_symmetry_space_group_name_H-M "C 2/M"
_symmetry_group_IT_number 12
_symmetry_cell_setting 'monoclinic'
loop_
_space_group_symop_operation_xyz
x,y,z
-x,y,-z
-x,-y,-z
x,-y,z
1/2+x,1/2+y,z
1/2-x,1/2+y,-z
1/2-x,1/2-y,-z
1/2+x,1/2-y,z
loop_
_atom_site_type_symbol
_atom_site_label
_atom_site_fract_x
_atom_site_fract_y
_atom_site_fract_z
Si Si1 0.968033 0.407128 0.394252
Si Si2 0.932600 0.690405 0.261498
Si Si3 0.133765 0.593407 0.220647
Si Si4 0.512597 0.209542 0.933098
Si Si5 0.143256 0.852837 0.381163
O O1 0.028891 0.500000 0.410545
O O2 0.179021 0.360385 0.500332
O O3 0.905638 0.369070 0.308009
O O4 0.761409 0.397533 0.367300
O O5 0.693979 0.730792 0.157920
O O6 0.037810 0.644304 0.242370
O O7 0.093263 0.762930 0.341416
O O8 0.084945 0.500000 0.209891
O O9 0.026436 0.631046 0.121442
O O10 0.404115 0.608251 0.313152
O O11 0.500000 0.193362 0.000000
O O12 0.750000 0.250000 0.000000
#
# Coordination Sequence:
#
# PCOD9210138 Si02
#       5
#     8   8   8   8   8
#     4  11  22  38  59  89 125 160 199 247 297 349
#     4  11  23  39  63  88 120 158 202 243 301 361
#     4  11  23  40  62  93 123 152 198 255 300 349
#     4  11  23  44  66  87 118 159 202 245 301 364
#     4  10  21  39  60  86 122 165 201 237 290 361
#
# _framework density 18.394348000000001
#
# number of rings (size 3 to 8) (size 9 to 14) (size 15 to 20)
#    0.000    1.200    2.000    6.000    2.800    2.800 
#    0.000    5.000    0.000    0.000    0.000    0.000 
#    0.000    0.000    0.000    0.000    0.000    0.000 
#
# Total GULP energy -111791.528776 kJ/mol
# GULP energy per Si atom -5589.576439 kJ/mol
# Density = 1.835248 g / cm^3
# Si number density = 18.394348 Si / 1000 Ang^3
#
#
#
# Elastic Constant Matrix: (Units=GPa)
#
#
# Indices 1 2 3 4 5 6 
#
# 1 69.2382 52.5261 56.6217 0.0000 -18.8645 0.0000
# 2 52.5261 144.8250 59.4830 0.0000 -4.3208 0.0000
# 3 56.6217 59.4830 97.2993 0.0000 -10.3106 -0.0001
# 4 0.0000 0.0000 0.0000 5.5842 0.0000 7.8333
# 5 -18.8645 -4.3208 -10.3106 0.0000 41.1225 0.0000
# 6 0.0000 0.0000 -0.0001 7.8333 0.0000 10.8492
#
#
#
# Elastic Compliance Matrix: (Units=1/GPa)
#
#
# Indices 1 2 3 4 5 6 
#
# 1 0.034508 -0.005907 -0.015264 -0.000004 0.011382 0.000003
# 2 -0.005907 0.010239 -0.003077 -0.000002 -0.002405 0.000001
# 3 -0.015264 -0.003077 0.020818 0.000014 -0.002106 -0.000010
# 4 -0.000004 -0.000002 0.000014-13.977168 0.000001 10.091711
# 5 0.011382 -0.002405 -0.002106 0.000001 0.028758 -0.000001
# 6 0.000003 0.000001 -0.000010 10.091711 -0.000001 -7.194185
#
#
# Mechanical properties :
#
#
# Convention : Reuss Voigt Hill
#
# Bulk Modulus (GPa) = 58.58449 72.06936 65.32692
# Shear Modulus (GPa) = -0.23784 21.02663 10.39440
#
# Velocity S-wave (km/s) = -0.35997 3.38465 2.37973
# Velocity P-wave (km/s) = 5.63432 7.38510 6.56830
#
# Compressibility (1/GPa) = 0.01706936
#
# Stress axis : x y z
#
# Youngs Moduli (GPa) = 28.97909 97.66292 48.03444
#
# Poissons Ratio (x) = 0.57685 0.73320
# Poissons Ratio (y) = 0.17117 0.14782
# Poissons Ratio (z) = 0.44234 0.30054
#
# Static dielectric constant tensor:
#      x y z
#    x 1.612820 0.000000 -0.001340 
#    y 0.000000 1.619260 0.000000 
#    z -0.001340 0.000000 1.617320 
# 
# From -- ./inp_files/119137.got.cif
#   From: 2010.05.17/outbox.cif.g08.bks.cpg/sg12_60_cif.got.tgz:119137.got - 2010.06.03 13:09:07.
