data_PCOD9210408
_publ_section_title
;
Structure prediction by ZEFSAII (Michael W. Deem and Ramdas Pophale) SiO2 
 PCOD9210408
Probable space group: C 2/M
;
_chemical_formula_sum "Si O2"
_cell_formula_units_Z 48
_cell_length_a 16.446767
_cell_length_b 8.693439
_cell_length_c 14.618941
_cell_angle_alpha 90.000000
_cell_angle_beta 101.007423
_cell_angle_gamma 90.000000
_cell_volume 2051.746495
_symmetry_space_group_name_H-M "C 2/M"
_symmetry_group_IT_number 12
_symmetry_cell_setting 'monoclinic'
loop_
_space_group_symop_operation_xyz
x,y,z
-x,y,-z
-x,-y,-z
x,-y,z
1/2+x,1/2+y,z
1/2-x,1/2+y,-z
1/2-x,1/2-y,-z
1/2+x,1/2-y,z
loop_
_atom_site_type_symbol
_atom_site_label
_atom_site_fract_x
_atom_site_fract_y
_atom_site_fract_z
Si Si1 0.321052 0.678162 0.692205
Si Si2 0.382470 0.821525 0.531367
Si Si3 0.189943 0.179114 0.800245
Si Si4 0.625472 0.180778 0.961428
Si Si5 0.064296 0.681822 0.144550
Si Si6 0.947992 0.178853 0.371455
O O1 0.316291 0.500000 0.669132
O O2 0.320244 0.771403 0.597639
O O3 0.251915 0.726040 0.750255
O O4 0.405705 0.717985 0.764568
O O5 0.384629 0.719807 0.440281
O O6 0.473636 0.787491 0.594311
O O7 0.373242 0.000000 0.506329
O O8 0.182927 0.227947 0.903959
O O9 0.100567 0.201346 0.732900
O O10 0.212066 0.000000 0.798175
O O11 0.530961 0.199200 0.904523
O O12 0.645688 0.000000 0.960697
O O13 0.618730 0.223721 0.066460
O O14 0.077739 0.500000 0.167182
O O15 0.973647 0.000000 0.384285
#
# Coordination Sequence:
#
# PCOD9210408 Si02
#       6
#     8   8   8   8   8   8
#     4  12  25  39  57  82 115 154 192 234 284 337
#     4  11  22  38  62  88 115 149 188 232 283 337
#     4  11  24  39  57  83 116 153 190 233 283 336
#     4   9  19  37  62  88 114 148 187 232 283 335
#     4   9  19  38  62  87 115 147 188 234 281 336
#     4  10  21  39  62  88 116 147 189 236 280 331
#
# _framework density 23.394704000000001
#
# number of rings (size 3 to 8) (size 9 to 14) (size 15 to 20)
#    0.000    1.667    0.000    7.000    0.000    8.000 
#    0.000    1.667    0.000    0.000    0.000    0.000 
#    0.000    0.000    0.000    0.000    0.000    0.000 
#
# Total GULP energy -134366.073941 kJ/mol
# GULP energy per Si atom -5598.586414 kJ/mol
# Density = 2.334146 g / cm^3
# Si number density = 23.394704 Si / 1000 Ang^3
#
#
#
# Elastic Constant Matrix: (Units=GPa)
#
#
# Indices 1 2 3 4 5 6 
#
# 1 59.0863 2.8118 1.5945 0.0000 -11.8581 0.0000
# 2 2.8118 57.6557 17.1644 0.0000 -7.1127 0.0000
# 3 1.5945 17.1644 97.1578 0.0000 -15.2536 0.0000
# 4 0.0000 0.0000 0.0000 30.7556 0.0000 -8.0781
# 5 -11.8581 -7.1127 -15.2536 0.0000 43.1643 0.0000
# 6 0.0000 0.0000 0.0000 -8.0781 0.0000 27.6595
#
#
#
# Elastic Compliance Matrix: (Units=1/GPa)
#
#
# Indices 1 2 3 4 5 6 
#
# 1 0.017945 -0.000422 0.000575 0.000000 0.005064 0.000000
# 2 -0.000422 0.018479 -0.002962 0.000000 0.001882 0.000000
# 3 0.000575 -0.002962 0.011386 0.000000 0.003694 0.000000
# 4 0.000000 0.000000 0.000000 0.035216 0.000000 0.010285
# 5 0.005064 0.001882 0.003694 0.000000 0.026174 0.000000
# 6 0.000000 0.000000 0.000000 0.010285 0.000000 0.039158
#
#
# Mechanical properties :
#
#
# Convention : Reuss Voigt Hill
#
# Bulk Modulus (GPa) = 23.70077 28.56014 26.13046
# Shear Modulus (GPa) = 29.75490 33.13784 31.44637
#
# Velocity S-wave (km/s) = 3.57019 3.76768 3.67026
# Velocity P-wave (km/s) = 5.21036 5.58227 5.39951
#
# Compressibility (1/GPa) = 0.04219272
#
# Stress axis : x y z
#
# Youngs Moduli (GPa) = 55.72536 54.11560 87.82486
#
# Poissons Ratio (x) = 0.02282 -0.05050
# Poissons Ratio (y) = 0.02350 0.26015
# Poissons Ratio (z) = -0.03204 0.16030
#
# Static dielectric constant tensor:
#      x y z
#    x 1.974140 0.000000 0.010740 
#    y 0.000000 1.785230 0.000000 
#    z 0.010740 0.000000 1.866750 
# 
# From -- ./inp_files/221656.got.cif
#   From: 2010.05.17/outbox.cif.g08.bks.cpg/sg12_111_cif.got.tgz:221656.got - 2010.06.03 13:09:07.
