data_PCOD9210331
_publ_section_title
;
Structure prediction by ZEFSAII (Michael W. Deem and Ramdas Pophale) SiO2 
 PCOD9210331
Probable space group: C 2/M
;
_chemical_formula_sum "Si O2"
_cell_formula_units_Z 56
_cell_length_a 14.365796
_cell_length_b 23.754167
_cell_length_c 9.230195
_cell_angle_alpha 90.000000
_cell_angle_beta 52.759364
_cell_angle_gamma 90.000000
_cell_volume 2507.543643
_symmetry_space_group_name_H-M "C 2/M"
_symmetry_group_IT_number 12
_symmetry_cell_setting 'monoclinic'
loop_
_space_group_symop_operation_xyz
x,y,z
-x,y,-z
-x,-y,-z
x,-y,z
1/2+x,1/2+y,z
1/2-x,1/2+y,-z
1/2-x,1/2-y,-z
1/2+x,1/2-y,z
loop_
_atom_site_type_symbol
_atom_site_label
_atom_site_fract_x
_atom_site_fract_y
_atom_site_fract_z
Si Si1 0.508193 0.436466 0.164940
Si Si2 0.375682 0.883654 0.697977
Si Si3 0.705249 0.756152 0.207171
Si Si4 0.026006 0.629277 0.807165
Si Si5 0.021267 0.839268 0.329250
Si Si6 0.918661 0.756200 0.212135
Si Si7 0.263057 0.935110 0.540353
O O1 0.547265 0.500000 0.163165
O O2 0.578111 0.384562 0.166889
O O3 0.375613 0.428062 0.350880
O O4 0.500000 0.431980 0.000000
O O5 0.500000 0.886930 0.500000
O O6 0.331624 0.820042 0.733204
O O7 0.416207 0.896207 0.822532
O O8 0.289353 0.921546 0.685063
O O9 0.604595 0.710442 0.305305
O O10 0.797274 0.743912 0.247620
O O11 0.750000 0.750000 0.000000
O O12 0.033307 0.696865 0.772458
O O13 0.148185 0.602850 0.636957
O O14 0.000000 0.622256 0.000000
O O15 0.000000 0.871073 0.500000
O O16 0.924787 0.805039 0.325650
O O17 0.000000 0.774438 0.000000
O O18 0.292282 0.000000 0.484969
#
# Coordination Sequence:
#
# PCOD9210331 Si02
#       7
#     8   8   8   8   8   8   8
#     4  10  24  49  71  92 129 174 229 283 324 389
#     4  10  21  40  61  89 131 166 217 270 313 390
#     4  12  23  38  66  95 130 175 220 268 329 400
#     4  10  21  39  61  93 137 168 203 271 333 389
#     4  12  26  40  64 103 131 173 220 267 344 399
#     4  11  22  41  61  92 139 175 214 265 327 405
#     4  10  23  42  69  95 120 173 226 269 326 385
#
# _framework density 22.332612999999998
#
# number of rings (size 3 to 8) (size 9 to 14) (size 15 to 20)
#    0.000    1.286    2.857    2.571    6.000    3.714 
#    0.000    0.000    0.000    0.000    0.000    0.000 
#    0.000    0.000    0.000    0.000    0.000    0.000 
#
# Total GULP energy -156414.050807 kJ/mol
# GULP energy per Si atom -5586.216100 kJ/mol
# Density = 2.228178 g / cm^3
# Si number density = 22.332613 Si / 1000 Ang^3
#
#
#
# Elastic Constant Matrix: (Units=GPa)
#
#
# Indices 1 2 3 4 5 6 
#
# 1 71.8034 9.3513 8.9393 0.0000 14.0072 0.0000
# 2 9.3513 88.9917 28.1422 0.0000 16.3697 0.0000
# 3 8.9393 28.1422 58.1444 0.0000 25.1706 0.0000
# 4 0.0000 0.0000 0.0000 31.1643 0.0000 7.4092
# 5 14.0072 16.3697 25.1706 0.0000 29.9859 0.0000
# 6 0.0000 0.0000 0.0000 7.4092 0.0000 6.0952
#
#
#
# Elastic Compliance Matrix: (Units=1/GPa)
#
#
# Indices 1 2 3 4 5 6 
#
# 1 0.015399 -0.000579 0.001398 0.000000 -0.008050 0.000000
# 2 -0.000579 0.013453 -0.005278 0.000000 -0.002643 0.000000
# 3 0.001398 -0.005278 0.029175 0.000000 -0.022262 0.000000
# 4 0.000000 0.000000 0.000000 0.045131 0.000000 -0.054860
# 5 -0.008050 -0.002643 -0.022262 0.000000 0.057239 0.000000
# 6 0.000000 0.000000 0.000000 -0.054860 0.000000 0.230750
#
#
# Mechanical properties :
#
#
# Convention : Reuss Voigt Hill
#
# Bulk Modulus (GPa) = 20.36323 34.64500 27.50412
# Shear Modulus (GPa) = 12.00666 24.94954 18.47810
#
# Velocity S-wave (km/s) = 2.32120 3.34605 2.87958
# Velocity P-wave (km/s) = 4.04004 5.52041 4.83719
#
# Compressibility (1/GPa) = 0.04910811
#
# Stress axis : x y z
#
# Youngs Moduli (GPa) = 64.94029 74.33178 34.27548
#
# Poissons Ratio (x) = 0.04306 -0.04791
# Poissons Ratio (y) = 0.03762 0.18091
# Poissons Ratio (z) = -0.09078 0.39233
#
# Static dielectric constant tensor:
#      x y z
#    x 1.927320 0.000000 0.028030 
#    y 0.000000 1.791510 0.000000 
#    z 0.028030 0.000000 1.896510 
# 
# From -- ./inp_files/65800.got.cif
#   From: 2010.05.17/outbox.cif.g08.bks.cpg/sg12_33_cif.got.tgz:65800.got - 2010.06.03 13:09:07.
