data_PCOD9210928
_publ_section_title
;
Structure prediction by ZEFSAII (Michael W. Deem and Ramdas Pophale) SiO2 
 PCOD9210928
Probable space group: C 2/M
;
_chemical_formula_sum "Si O2"
_cell_formula_units_Z 48
_cell_length_a 19.849499
_cell_length_b 25.094151
_cell_length_c 5.315189
_cell_angle_alpha 90.000000
_cell_angle_beta 119.093322
_cell_angle_gamma 90.000000
_cell_volume 2313.487584
_symmetry_space_group_name_H-M "C 2/M"
_symmetry_group_IT_number 12
_symmetry_cell_setting 'monoclinic'
loop_
_space_group_symop_operation_xyz
x,y,z
-x,y,-z
-x,-y,-z
x,-y,z
1/2+x,1/2+y,z
1/2-x,1/2+y,-z
1/2-x,1/2-y,-z
1/2+x,1/2-y,z
loop_
_atom_site_type_symbol
_atom_site_label
_atom_site_fract_x
_atom_site_fract_y
_atom_site_fract_z
Si Si1 0.166674 0.146662 0.135326
Si Si2 0.226671 0.939867 0.636967
Si Si3 0.449162 0.830680 0.655425
Si Si4 0.083904 0.055824 0.767355
Si Si5 0.662786 0.236689 0.252798
Si Si6 0.681405 0.136990 0.907630
O O1 0.207268 0.109979 0.421475
O O2 0.136298 0.205777 0.115050
O O3 0.235818 0.151632 0.060532
O O4 0.095946 0.109140 0.939131
O O5 0.153034 0.943544 0.689853
O O6 0.238101 0.000000 0.553540
O O7 0.301821 0.918260 0.919456
O O8 0.500000 0.819943 0.500000
O O9 0.395111 0.781356 0.634711
O O10 0.383576 0.870316 0.424664
O O11 0.500000 0.844194 0.000000
O O12 0.000000 0.055464 0.500000
O O13 0.092855 0.000000 0.932322
O O14 0.750000 0.250000 0.500000
O O15 0.662395 0.187048 0.057092
#
# Coordination Sequence:
#
# PCOD9210928 Si02
#       6
#     8   8   8   8   8   8
#     4  11  22  37  64  94 129 176 229 276 334 399
#     4  10  21  39  64  96 125 169 232 284 338 402
#     4  12  26  45  68 102 141 181 224 277 344 409
#     4   9  20  39  58  84 128 179 228 280 333 391
#     4  12  23  42  67  99 133 181 221 273 333 414
#     4  11  22  42  68  95 131 179 223 279 335 404
#
# _framework density 20.747897999999999
#
# number of rings (size 3 to 8) (size 9 to 14) (size 15 to 20)
#    0.000    1.167    5.000    1.000    0.000    1.333 
#    6.000    2.500    0.000    1.000    0.000    0.000 
#    0.000    0.000    0.000    0.000    0.000    0.000 
#
# Total GULP energy -133644.326733 kJ/mol
# GULP energy per Si atom -5568.513614 kJ/mol
# Density = 2.070068 g / cm^3
# Si number density = 20.747898 Si / 1000 Ang^3
#
#
#
# Elastic Constant Matrix: (Units=GPa)
#
#
# Indices 1 2 3 4 5 6 
#
# 1 44.7180 33.7958 41.0356 0.0000 15.1313 0.0000
# 2 33.7958 118.2926 45.7197 0.0000 7.4381 0.0000
# 3 41.0356 45.7197 115.2203 0.0000 21.0155 0.0000
# 4 0.0000 0.0000 0.0000 35.9591 0.0000 3.8968
# 5 15.1313 7.4381 21.0155 0.0000 30.1696 0.0000
# 6 0.0000 0.0000 0.0000 3.8968 0.0000 -3.9371
#
#
#
# Elastic Compliance Matrix: (Units=1/GPa)
#
#
# Indices 1 2 3 4 5 6 
#
# 1 0.040441 -0.007179 -0.009368 0.000000 -0.011987 0.000000
# 2 -0.007179 0.011263 -0.002363 0.000000 0.002470 0.000000
# 3 -0.009368 -0.002363 0.013735 0.000000 -0.004286 0.000000
# 4 0.000000 0.000000 0.000000 0.025116 0.000000 0.024858
# 5 -0.011987 0.002470 -0.004286 0.000000 0.041535 0.000000
# 6 0.000000 0.000000 0.000000 0.024858 0.000000 -0.229388
#
#
# Mechanical properties :
#
#
# Convention : Reuss Voigt Hill
#
# Bulk Modulus (GPa) = 36.20750 57.70366 46.95558
# Shear Modulus (GPa) = -99.45492 22.95029 -38.25231
#
# Velocity S-wave (km/s) = -6.93102 3.32949 -4.29846
# Velocity P-wave (km/s) = 6.82370 6.53092 1.39823
#
# Compressibility (1/GPa) = 0.02761859
#
# Stress axis : x y z
#
# Youngs Moduli (GPa) = 24.72750 88.78965 72.80877
#
# Poissons Ratio (x) = 0.63746 0.68205
# Poissons Ratio (y) = 0.17753 0.17201
# Poissons Ratio (z) = 0.23164 0.20977
#
# Static dielectric constant tensor:
#      x y z
#    x 1.759090 0.000000 -0.045470 
#    y 0.000000 1.810460 0.000000 
#    z -0.045470 0.000000 1.911370 
# 
# From -- ./inp_files/16632.got.cif
#   From: 2010.05.17/outbox.cif.g08.bks.cpg/sg12_9_cif.got.tgz:16632.got - 2010.06.03 13:09:07.
