data_PCOD9210153
_publ_section_title
;
Structure prediction by ZEFSAII (Michael W. Deem and Ramdas Pophale) SiO2 
 PCOD9210153
Probable space group: C 2/M
;
_chemical_formula_sum "Si O2"
_cell_formula_units_Z 58
_cell_length_a 23.954583
_cell_length_b 7.464530
_cell_length_c 14.751997
_cell_angle_alpha 90.000000
_cell_angle_beta 78.905253
_cell_angle_gamma 90.000000
_cell_volume 2588.500542
_symmetry_space_group_name_H-M "C 2/M"
_symmetry_group_IT_number 12
_symmetry_cell_setting 'monoclinic'
loop_
_space_group_symop_operation_xyz
x,y,z
-x,y,-z
-x,-y,-z
x,-y,z
1/2+x,1/2+y,z
1/2-x,1/2+y,-z
1/2-x,1/2-y,-z
1/2+x,1/2-y,z
loop_
_atom_site_type_symbol
_atom_site_label
_atom_site_fract_x
_atom_site_fract_y
_atom_site_fract_z
Si Si1 0.881231 0.717600 0.761035
Si Si2 0.207894 0.213460 0.594796
Si Si3 0.412642 0.283062 0.311066
Si Si4 0.521180 0.790977 0.397364
Si Si5 0.940122 0.793163 0.931566
Si Si6 0.746999 0.218604 0.225646
Si Si7 0.132596 0.217357 0.872991
Si Si8 0.500000 0.000000 0.000000
O O1 0.881211 0.500000 0.759123
O O2 0.921265 0.782337 0.666149
O O3 0.909600 0.775574 0.845712
O O4 0.816047 0.779164 0.778294
O O5 0.250000 0.250000 0.500000
O O6 0.142431 0.275891 0.612210
O O7 0.236560 0.278205 0.678457
O O8 0.203465 0.000000 0.604990
O O9 0.416113 0.500000 0.308825
O O10 0.470715 0.220629 0.338942
O O11 0.396424 0.227963 0.213178
O O12 0.500000 0.712707 0.500000
O O13 0.533153 0.000000 0.411149
O O14 0.991629 0.657944 0.925390
O O15 0.955736 0.000000 0.940001
O O16 0.898844 0.725392 0.025833
O O17 0.801255 0.273221 0.148754
O O18 0.746013 0.000000 0.224520
O O19 0.131324 0.000000 0.873845
#
# Coordination Sequence:
#
# PCOD9210153 Si02
#       8
#     8   8   8   8   8   8   8   2
#     4  10  21  39  60  88 125 165 209 254 316 374
#     4   9  18  32  55  83 110 147 197 248 307 361
#     4   9  19  36  56  80 111 151 194 244 301 364
#     4  10  23  38  55  82 115 158 208 252 302 369
#     4  11  24  41  66  97 127 167 212 261 313 373
#     4   8  16  34  60  84 117 164 201 245 307 377
#     4   8  17  36  61  90 119 154 204 250 305 367
#     4  12  26  44  64  94 134 168 210 260 316 370
#
# _framework density 22.406794999999999
#
# number of rings (size 3 to 8) (size 9 to 14) (size 15 to 20)
#    0.000    2.621    0.690    1.862    3.862    1.931 
#    0.000    0.690    3.034    0.000    0.000    0.000 
#    0.000    0.000    0.000    0.000    0.000    0.000 
#
# Total GULP energy -161688.948703 kJ/mol
# GULP energy per Si atom -5575.480990 kJ/mol
# Density = 2.235580 g / cm^3
# Si number density = 22.406795 Si / 1000 Ang^3
#
#
#
# Elastic Constant Matrix: (Units=GPa)
#
#
# Indices 1 2 3 4 5 6 
#
# 1 125.3327 8.2680 45.6997 0.0000 -13.6029 0.0000
# 2 8.2680 87.5258 2.7322 0.0000 -1.7740 0.0000
# 3 45.6997 2.7322 114.0655 0.0000 -29.2568 0.0000
# 4 0.0000 0.0000 0.0000 -11.7523 0.0000 -2.6150
# 5 -13.6029 -1.7740 -29.2568 0.0000 36.5104 0.0000
# 6 0.0000 0.0000 0.0000 -2.6150 0.0000 -3.3555
#
#
#
# Elastic Compliance Matrix: (Units=1/GPa)
#
#
# Indices 1 2 3 4 5 6 
#
# 1 0.009405 -0.000764 -0.003601 0.000000 0.000582 0.000000
# 2 -0.000764 0.011501 0.000127 0.000000 0.000376 0.000000
# 3 -0.003601 0.000127 0.012416 0.000000 0.008614 0.000000
# 4 0.000000 0.000000 0.000000 -0.102940 0.000000 0.080222
# 5 0.000582 0.000376 0.008614 0.000000 0.034527 0.000000
# 6 0.000000 0.000000 0.000000 0.080222 0.000000 -0.360537
#
#
# Mechanical properties :
#
#
# Convention : Reuss Voigt Hill
#
# Bulk Modulus (GPa) = 40.24702 48.92485 44.58594
# Shear Modulus (GPa) = -13.19712 22.29547 4.54918
#
# Velocity S-wave (km/s) = -2.42952 3.15783 1.42642
# Velocity P-wave (km/s) = 3.18290 5.93111 4.75967
#
# Compressibility (1/GPa) = 0.02484656
#
# Stress axis : x y z
#
# Youngs Moduli (GPa) = 106.32412 86.94860 80.54259
#
# Poissons Ratio (x) = 0.06645 0.29000
# Poissons Ratio (y) = 0.08126 -0.01024
# Poissons Ratio (z) = 0.38283 -0.01106
#
# Static dielectric constant tensor:
#      x y z
#    x 1.873970 0.000000 -0.061230 
#    y 0.000000 1.856700 0.000000 
#    z -0.061230 0.000000 1.829530 
# 
# From -- ./inp_files/237541.got.cif
#   From: 2010.05.17/outbox.cif.g08.bks.cpg/sg12_119_cif.got.tgz:237541.got - 2010.06.03 13:09:07.
