data_PCOD9210255
_publ_section_title
;
Structure prediction by ZEFSAII (Michael W. Deem and Ramdas Pophale) SiO2 
 PCOD9210255
Probable space group: C 2/M
;
_chemical_formula_sum "Si O2"
_cell_formula_units_Z 64
_cell_length_a 14.821840
_cell_length_b 8.121506
_cell_length_c 27.596877
_cell_angle_alpha 90.000000
_cell_angle_beta 127.003823
_cell_angle_gamma 90.000000
_cell_volume 2652.927654
_symmetry_space_group_name_H-M "C 2/M"
_symmetry_group_IT_number 12
_symmetry_cell_setting 'monoclinic'
loop_
_space_group_symop_operation_xyz
x,y,z
-x,y,-z
-x,-y,-z
x,-y,z
1/2+x,1/2+y,z
1/2-x,1/2+y,-z
1/2-x,1/2-y,-z
1/2+x,1/2-y,z
loop_
_atom_site_type_symbol
_atom_site_label
_atom_site_fract_x
_atom_site_fract_y
_atom_site_fract_z
Si Si1 0.605323 0.690973 0.594464
Si Si2 0.402273 0.693110 0.855572
Si Si3 0.861509 0.313105 0.104853
Si Si4 0.738760 0.304165 0.551425
Si Si5 0.483040 0.699864 0.645587
Si Si6 0.376334 0.190500 0.951800
Si Si7 0.065783 0.190874 0.770176
Si Si8 0.192359 0.808913 0.277562
O O1 0.573042 0.500000 0.576820
O O2 0.637827 0.762814 0.552747
O O3 0.515401 0.764121 0.602723
O O4 0.719259 0.702114 0.663888
O O5 0.380592 0.500000 0.856808
O O6 0.536192 0.713832 0.886999
O O7 0.364552 0.792593 0.890176
O O8 0.333338 0.746212 0.785621
O O9 0.879269 0.500000 0.095981
O O10 0.731290 0.264380 0.055566
O O11 0.879236 0.291316 0.168628
O O12 0.728106 0.500000 0.548489
O O13 0.750000 0.250000 0.500000
O O14 0.855867 0.252595 0.613855
O O15 0.487888 0.500000 0.647130
O O16 0.567386 0.754620 0.715585
O O17 0.381113 0.000000 0.967648
O O18 0.500000 0.268608 0.000000
O O19 0.932043 0.190426 0.739100
O O20 0.104431 0.000000 0.785509
O O21 0.231398 0.000000 0.290463
#
# Coordination Sequence:
#
# PCOD9210255 Si02
#       8
#     8   8   8   8   8   8   8   8
#     4  10  22  37  58  89 119 153 197 245 298 356
#     4  10  22  41  63  92 126 163 207 256 311 370
#     4  11  23  39  62  92 126 166 207 254 310 369
#     4  11  24  42  62  86 118 158 203 251 299 357
#     4  10  21  39  61  87 118 157 197 243 302 356
#     4  11  25  44  65  90 122 164 213 261 312 372
#     4   9  18  35  59  87 122 160 197 244 304 366
#     4   9  18  34  58  88 121 155 193 241 298 357
#
# _framework density 24.124290999999999
#
# number of rings (size 3 to 8) (size 9 to 14) (size 15 to 20)
#    0.000    1.875    1.250    3.000    1.750    6.000 
#    0.000    2.500    0.000    0.000    0.000    0.000 
#    0.000    0.000    0.000    0.000    0.000    0.000 
#
# Total GULP energy -178884.102463 kJ/mol
# GULP energy per Si atom -5590.128202 kJ/mol
# Density = 2.406938 g / cm^3
# Si number density = 24.124291 Si / 1000 Ang^3
#
#
#
# Elastic Constant Matrix: (Units=GPa)
#
#
# Indices 1 2 3 4 5 6 
#
# 1 113.1565 -4.8523 17.5396 0.0000 -4.3702 0.0000
# 2 -4.8523 26.7519 -1.0431 0.0000 2.4177 0.0000
# 3 17.5396 -1.0431 44.1486 0.0000 2.5013 0.0000
# 4 0.0000 0.0000 0.0000 20.2850 0.0000 3.7937
# 5 -4.3702 2.4177 2.5013 0.0000 46.2104 0.0000
# 6 0.0000 0.0000 0.0000 3.7937 0.0000 16.4241
#
#
#
# Elastic Compliance Matrix: (Units=1/GPa)
#
#
# Indices 1 2 3 4 5 6 
#
# 1 0.009531 0.001487 -0.003810 0.000000 0.001030 0.000000
# 2 0.001487 0.037834 0.000409 0.000000 -0.001861 0.000000
# 3 -0.003810 0.000409 0.024270 0.000000 -0.001695 0.000000
# 4 0.000000 0.000000 0.000000 0.051523 0.000000 -0.011901
# 5 0.001030 -0.001861 -0.001695 0.000000 0.021927 0.000000
# 6 0.000000 0.000000 0.000000 -0.011901 0.000000 0.063635
#
#
# Mechanical properties :
#
#
# Convention : Reuss Voigt Hill
#
# Bulk Modulus (GPa) = 14.74760 23.03837 18.89298
# Shear Modulus (GPa) = 21.26286 28.07808 24.67047
#
# Velocity S-wave (km/s) = 2.97204 3.41529 3.20134
# Velocity P-wave (km/s) = 4.23129 5.01227 4.63825
#
# Compressibility (1/GPa) = 0.06780764
#
# Stress axis : x y z
#
# Youngs Moduli (GPa) = 104.91624 26.43095 41.20291
#
# Poissons Ratio (x) = -0.03931 0.15698
# Poissons Ratio (y) = -0.15603 -0.01683
# Poissons Ratio (z) = 0.39972 -0.01080
#
# Static dielectric constant tensor:
#      x y z
#    x 1.934410 0.000000 -0.014510 
#    y 0.000000 1.842440 0.000000 
#    z -0.014510 0.000000 1.979910 
# 
# From -- ./inp_files/338917.got.cif
#   From: 2010.05.17/outbox.cif.g08.bks.cpg/sg12_170_cif.got.tgz:338917.got - 2010.06.03 13:09:07.
