data_PCOD9210163
_publ_section_title
;
Structure prediction by ZEFSAII (Michael W. Deem and Ramdas Pophale) SiO2 
 PCOD9210163
Probable space group: C 2/M
;
_chemical_formula_sum "Si O2"
_cell_formula_units_Z 44
_cell_length_a 21.197164
_cell_length_b 14.600350
_cell_length_c 16.570008
_cell_angle_alpha 90.000000
_cell_angle_beta 22.622877
_cell_angle_gamma 90.000000
_cell_volume 1972.627972
_symmetry_space_group_name_H-M "C 2/M"
_symmetry_group_IT_number 12
_symmetry_cell_setting 'monoclinic'
loop_
_space_group_symop_operation_xyz
x,y,z
-x,y,-z
-x,-y,-z
x,-y,z
1/2+x,1/2+y,z
1/2-x,1/2+y,-z
1/2-x,1/2-y,-z
1/2+x,1/2-y,z
loop_
_atom_site_type_symbol
_atom_site_label
_atom_site_fract_x
_atom_site_fract_y
_atom_site_fract_z
Si Si1 0.169035 0.898395 0.982103
Si Si2 0.000000 0.258961 0.000000
Si Si3 0.545560 0.820514 0.265092
Si Si4 0.261373 0.601174 0.290138
Si Si5 0.655806 0.330645 0.563661
Si Si6 0.993553 0.604226 0.869530
O O1 0.279303 0.826065 0.899770
O O2 0.218010 0.895919 0.830697
O O3 0.208634 0.000000 0.966810
O O4 0.977426 0.880834 0.223555
O O5 0.866144 0.188904 0.193496
O O6 0.067069 0.324133 0.991471
O O7 0.421980 0.884307 0.462508
O O8 0.457554 0.721643 0.367305
O O9 0.549278 0.860020 0.169538
O O10 0.318926 0.500000 0.249458
O O11 0.750000 0.250000 0.500000
O O12 0.807108 0.392110 0.356934
O O13 0.937794 0.500000 0.946910
#
# Coordination Sequence:
#
# PCOD9210163 Si02
#       6
#     8   4   8   8   8   8
#     4  11  23  39  63  94 126 162 202 251 313 377
#     4  12  24  42  60  90 124 164 220 258 312 362
#     4  11  22  41  63  93 126 164 203 254 314 375
#     4  11  23  38  61  93 129 163 202 255 314 376
#     4  10  21  39  60  90 124 160 208 248 306 367
#     4  11  23  41  65  90 123 165 211 263 308 364
#
# _framework density 22.305271000000001
#
# number of rings (size 3 to 8) (size 9 to 14) (size 15 to 20)
#    0.000    1.091    1.818    6.000    2.545    1.455 
#    0.000    0.000    0.000    0.000    0.000    5.091 
#    0.000    0.000    0.000    0.000    0.000    0.000 
#
# Total GULP energy -122991.952060 kJ/mol
# GULP energy per Si atom -5590.543275 kJ/mol
# Density = 2.225450 g / cm^3
# Si number density = 22.305271 Si / 1000 Ang^3
#
#
#
# Elastic Constant Matrix: (Units=GPa)
#
#
# Indices 1 2 3 4 5 6 
#
# 1 66.7860 25.0131 14.3951 -0.0003 7.0809 0.0001
# 2 25.0131 111.5906 7.4901 -0.0010 8.0946 0.0004
# 3 14.3951 7.4901 81.0442 -0.0011 5.2399 0.0004
# 4 -0.0003 -0.0010 -0.0011 26.7335 0.0007 -2.5773
# 5 7.0809 8.0946 5.2399 0.0007 31.4625 -0.0002
# 6 0.0001 0.0004 0.0004 -2.5773 -0.0002 27.8171
#
#
#
# Elastic Compliance Matrix: (Units=1/GPa)
#
#
# Indices 1 2 3 4 5 6 
#
# 1 0.017093 -0.003477 -0.002551 0.000000 -0.002528 0.000000
# 2 -0.003477 0.009878 -0.000184 0.000000 -0.001728 0.000000
# 3 -0.002551 -0.000184 0.012908 0.000001 -0.001528 0.000000
# 4 0.000000 0.000000 0.000001 0.037743 -0.000001 0.003497
# 5 -0.002528 -0.001728 -0.001528 -0.000001 0.033052 0.000000
# 6 0.000000 0.000000 0.000000 0.003497 0.000000 0.036273
#
#
# Mechanical properties :
#
#
# Convention : Reuss Voigt Hill
#
# Bulk Modulus (GPa) = 36.42217 39.24637 37.83427
# Shear Modulus (GPa) = 29.66941 31.37078 30.52009
#
# Velocity S-wave (km/s) = 3.65108 3.75431 3.70305
# Velocity P-wave (km/s) = 5.84280 6.03543 5.93989
#
# Compressibility (1/GPa) = 0.02745580
#
# Stress axis : x y z
#
# Youngs Moduli (GPa) = 58.50257 101.23123 77.47195
#
# Poissons Ratio (x) = 0.35197 0.19766
# Poissons Ratio (y) = 0.20341 0.01423
# Poissons Ratio (z) = 0.14926 0.01859
#
# Static dielectric constant tensor:
#      x y z
#    x 1.827690 0.000000 -0.014290 
#    y 0.000000 1.857180 0.000000 
#    z -0.014290 0.000000 1.862670 
# 
# From -- ./inp_files/289993.got.cif
#   From: 2010.05.17/outbox.cif.g08.bks.cpg/sg12_145_cif.got.tgz:289993.got - 2010.06.03 13:09:07.
