data_PCOD9210791
_publ_section_title
;
Structure prediction by ZEFSAII (Michael W. Deem and Ramdas Pophale) SiO2 
 PCOD9210791
Probable space group: C 2/M
;
_chemical_formula_sum "Si O2"
_cell_formula_units_Z 54
_cell_length_a 9.543957
_cell_length_b 29.616432
_cell_length_c 9.229779
_cell_angle_alpha 90.000000
_cell_angle_beta 75.115873
_cell_angle_gamma 90.000000
_cell_volume 2521.335737
_symmetry_space_group_name_H-M "C 2/M"
_symmetry_group_IT_number 12
_symmetry_cell_setting 'monoclinic'
loop_
_space_group_symop_operation_xyz
x,y,z
-x,y,-z
-x,-y,-z
x,-y,z
1/2+x,1/2+y,z
1/2-x,1/2+y,-z
1/2-x,1/2-y,-z
1/2+x,1/2-y,z
loop_
_atom_site_type_symbol
_atom_site_label
_atom_site_fract_x
_atom_site_fract_y
_atom_site_fract_z
Si Si1 0.106333 0.551064 0.587334
Si Si2 0.500000 0.500000 0.500000
Si Si3 0.000000 0.842260 0.500000
Si Si4 0.271922 0.300240 0.134096
Si Si5 0.394355 0.427804 0.359093
Si Si6 0.338816 0.394504 0.073316
Si Si7 0.840843 0.553089 0.111987
Si Si8 0.076917 0.218304 0.209414
O O1 0.048601 0.500000 0.632133
O O2 0.259612 0.547651 0.469033
O O3 0.135479 0.572559 0.733682
O O4 0.000000 0.573525 0.500000
O O5 0.525121 0.459719 0.371335
O O6 0.088780 0.877802 0.578110
O O7 0.079134 0.810768 0.357927
O O8 0.245164 0.353271 0.159845
O O9 0.137117 0.269021 0.212881
O O10 0.413608 0.284786 0.188472
O O11 0.316521 0.297353 0.950817
O O12 0.365128 0.428158 0.197903
O O13 0.500000 0.375678 0.000000
O O14 0.268855 0.417930 0.954610
O O15 0.800150 0.500000 0.127136
O O16 0.000000 0.555145 0.000000
#
# Coordination Sequence:
#
# PCOD9210791 Si02
#       8
#     8   2   4   8   8   8   8   8
#     4  10  21  39  64  87 126 175 215 260 313 374
#     4  10  24  36  60  88 132 176 220 252 322 388
#     4  11  22  39  66  94 126 168 203 280 315 380
#     4  10  21  43  65  92 124 168 207 264 326 398
#     4  11  23  38  61  92 131 168 220 259 323 375
#     4  12  24  41  65  96 135 166 219 276 319 379
#     4  10  24  43  65  94 131 175 220 263 319 379
#     4  10  21  42  67  90 123 165 210 258 335 386
#
# _framework density 21.417218999999999
#
# number of rings (size 3 to 8) (size 9 to 14) (size 15 to 20)
#    0.000    1.481    3.704    0.889    7.259    2.074 
#    5.333    1.481    0.000    0.000    0.000    0.000 
#    0.000    0.000    0.000    0.000    0.000    0.000 
#
# Total GULP energy -150341.701172 kJ/mol
# GULP energy per Si atom -5568.211155 kJ/mol
# Density = 2.136847 g / cm^3
# Si number density = 21.417219 Si / 1000 Ang^3
#
#
#
# Elastic Constant Matrix: (Units=GPa)
#
#
# Indices 1 2 3 4 5 6 
#
# 1 86.4045 39.6480 39.7644 0.0000 28.9910 0.0000
# 2 39.6480 111.6538 40.9674 0.0000 16.9195 0.0000
# 3 39.7644 40.9674 119.2467 0.0000 31.3057 0.0000
# 4 0.0000 0.0000 0.0000 30.3431 0.0000 -4.3740
# 5 28.9910 16.9195 31.3057 0.0000 44.4023 0.0000
# 6 0.0000 0.0000 0.0000 -4.3740 0.0000 26.7098
#
#
#
# Elastic Compliance Matrix: (Units=1/GPa)
#
#
# Indices 1 2 3 4 5 6 
#
# 1 0.017172 -0.004061 -0.002201 0.000000 -0.008112 0.000000
# 2 -0.004061 0.011320 -0.002575 0.000000 0.000153 0.000000
# 3 -0.002201 -0.002575 0.011498 0.000000 -0.005688 0.000000
# 4 0.000000 0.000000 0.000000 0.033753 0.000000 0.005527
# 5 -0.008112 0.000153 -0.005688 0.000000 0.031770 0.000000
# 6 0.000000 0.000000 0.000000 0.005527 0.000000 0.038345
#
#
# Mechanical properties :
#
#
# Convention : Reuss Voigt Hill
#
# Bulk Modulus (GPa) = 44.81242 62.00720 53.40981
# Shear Modulus (GPa) = 29.59105 33.41939 31.50522
#
# Velocity S-wave (km/s) = 3.72108 3.95447 3.83955
# Velocity P-wave (km/s) = 6.27941 7.06154 6.68193
#
# Compressibility (1/GPa) = 0.02231524
#
# Stress axis : x y z
#
# Youngs Moduli (GPa) = 58.23515 88.34090 86.97133
#
# Poissons Ratio (x) = 0.35872 0.19146
# Poissons Ratio (y) = 0.23647 0.22396
# Poissons Ratio (z) = 0.12820 0.22749
#
# Static dielectric constant tensor:
#      x y z
#    x 2.405140 0.000000 -0.030970 
#    y 0.000000 1.846040 0.000000 
#    z -0.030970 0.000000 1.857840 
# 
# From -- ./inp_files/53212.got.cif
#   From: 2010.05.17/outbox.cif.g08.bks.cpg/sg12_27_cif.got.tgz:53212.got - 2010.06.03 13:09:07.
