data_PCOD9210511
_publ_section_title
;
Structure prediction by ZEFSAII (Michael W. Deem and Ramdas Pophale) SiO2 
 PCOD9210511
Probable space group: C 2/M
;
_chemical_formula_sum "Si O2"
_cell_formula_units_Z 48
_cell_length_a 14.855397
_cell_length_b 8.608742
_cell_length_c 27.622580
_cell_angle_alpha 90.000000
_cell_angle_beta 42.931289
_cell_angle_gamma 90.000000
_cell_volume 2406.092625
_symmetry_space_group_name_H-M "C 2/M"
_symmetry_group_IT_number 12
_symmetry_cell_setting 'monoclinic'
loop_
_space_group_symop_operation_xyz
x,y,z
-x,y,-z
-x,-y,-z
x,-y,z
1/2+x,1/2+y,z
1/2-x,1/2+y,-z
1/2-x,1/2-y,-z
1/2+x,1/2-y,z
loop_
_atom_site_type_symbol
_atom_site_label
_atom_site_fract_x
_atom_site_fract_y
_atom_site_fract_z
Si Si1 0.323336 0.184154 0.518371
Si Si2 0.930062 0.186208 0.626158
Si Si3 0.822186 0.683328 0.330284
Si Si4 0.418493 0.686177 0.739342
Si Si5 0.144435 0.312064 0.894030
Si Si6 0.141779 0.813368 0.004479
O O1 0.250000 0.250000 0.500000
O O2 0.475020 0.230624 0.449373
O O3 0.256690 0.258262 0.591473
O O4 0.308241 0.000000 0.526888
O O5 0.777239 0.214557 0.674451
O O6 0.955823 0.240685 0.670607
O O7 0.954139 0.000000 0.613104
O O8 0.841393 0.500000 0.326731
O O9 0.964244 0.761893 0.271901
O O10 0.416287 0.500000 0.738080
O O11 0.273838 0.736133 0.813055
O O12 0.134733 0.500000 0.898665
O O13 0.164292 0.251987 0.941192
O O14 0.008375 0.243740 0.926217
O O15 0.146276 0.000000 0.002130
O O16 0.250000 0.750000 0.000000
#
# Coordination Sequence:
#
# PCOD9210511 Si02
#       6
#     8   8   8   8   8   8
#     4  12  23  37  59  84 111 149 197 251 304 354
#     4  10  22  40  59  83 116 153 194 242 296 354
#     4  11  23  38  59  86 116 155 198 244 296 352
#     4  10  22  40  61  85 120 160 194 239 292 348
#     4  10  21  39  62  92 126 160 198 244 295 353
#     4  11  22  39  64  93 123 160 201 246 294 348
#
# _framework density 19.949356999999999
#
# number of rings (size 3 to 8) (size 9 to 14) (size 15 to 20)
#    0.000    1.333    1.667    5.500    0.000    6.000 
#    0.000    1.667    0.000    0.000    0.000    0.000 
#    0.000    0.000    0.000    0.000    0.000    0.000 
#
# Total GULP energy -134122.678864 kJ/mol
# GULP energy per Si atom -5588.444953 kJ/mol
# Density = 1.990395 g / cm^3
# Si number density = 19.949357 Si / 1000 Ang^3
#
#
#
# Elastic Constant Matrix: (Units=GPa)
#
#
# Indices 1 2 3 4 5 6 
#
# 1 92.5547 16.7237 19.8439 0.0000 -23.2942 0.0001
# 2 16.7237 33.1337 10.6554 0.0000 -4.4513 0.0003
# 3 19.8439 10.6554 91.1090 0.0000 -29.3559 0.0000
# 4 0.0000 0.0000 0.0000 27.4097 0.0000 -8.3928
# 5 -23.2942 -4.4513 -29.3559 0.0000 23.9017 0.0000
# 6 0.0001 0.0003 0.0000 -8.3928 0.0000 31.0416
#
#
#
# Elastic Compliance Matrix: (Units=1/GPa)
#
#
# Indices 1 2 3 4 5 6 
#
# 1 0.015880 -0.006594 0.003150 0.000000 0.018118 0.000000
# 2 -0.006594 0.034169 -0.004270 0.000000 -0.005308 0.000000
# 3 0.003150 -0.004270 0.019068 0.000000 0.025694 0.000000
# 4 0.000000 0.000000 0.000000 0.039776 0.000000 0.010754
# 5 0.018118 -0.005308 0.025694 0.000000 0.090064 0.000000
# 6 0.000000 0.000000 0.000000 0.010754 0.000000 0.035123
#
#
# Mechanical properties :
#
#
# Convention : Reuss Voigt Hill
#
# Bulk Modulus (GPa) = 18.62594 34.58261 26.60428
# Shear Modulus (GPa) = 18.69817 27.77555 23.23686
#
# Velocity S-wave (km/s) = 3.06483 3.73541 3.41661
# Velocity P-wave (km/s) = 4.67772 5.99810 5.37858
#
# Compressibility (1/GPa) = 0.05368857
#
# Stress axis : x y z
#
# Youngs Moduli (GPa) = 62.97041 29.26599 52.44417
#
# Poissons Ratio (x) = 0.19299 -0.16520
# Poissons Ratio (y) = 0.41526 0.22394
# Poissons Ratio (z) = -0.19836 0.12497
#
# Static dielectric constant tensor:
#      x y z
#    x 1.713330 0.000000 -0.015630 
#    y 0.000000 1.674020 0.000000 
#    z -0.015630 0.000000 1.697250 
# 
# From -- ./inp_files/374912.got.cif
#   From: 2010.05.17/outbox.cif.g08.bks.cpg/sg12_188_cif.got.tgz:374912.got - 2010.06.03 13:09:07.
