data_PCOD9210797
_publ_section_title
;
Structure prediction by ZEFSAII (Michael W. Deem and Ramdas Pophale) SiO2 
 PCOD9210797
Probable space group: C 2/M
;
_chemical_formula_sum "Si O2"
_cell_formula_units_Z 52
_cell_length_a 15.186530
_cell_length_b 14.376876
_cell_length_c 12.227520
_cell_angle_alpha 90.000000
_cell_angle_beta 68.162358
_cell_angle_gamma 90.000000
_cell_volume 2478.121016
_symmetry_space_group_name_H-M "C 2/M"
_symmetry_group_IT_number 12
_symmetry_cell_setting 'monoclinic'
loop_
_space_group_symop_operation_xyz
x,y,z
-x,y,-z
-x,-y,-z
x,-y,z
1/2+x,1/2+y,z
1/2-x,1/2+y,-z
1/2-x,1/2-y,-z
1/2+x,1/2-y,z
loop_
_atom_site_type_symbol
_atom_site_label
_atom_site_fract_x
_atom_site_fract_y
_atom_site_fract_z
Si Si1 0.760945 0.108325 0.822444
Si Si2 0.387865 0.398140 0.569838
Si Si3 0.766375 0.892457 0.297208
Si Si4 0.000000 0.779814 0.000000
Si Si5 0.602925 0.801816 0.509233
Si Si6 0.307287 0.389115 0.040454
Si Si7 0.893302 0.718893 0.245081
O O1 0.860064 0.113159 0.710228
O O2 0.767172 0.144279 0.942943
O O3 0.688262 0.163731 0.781274
O O4 0.732945 0.000000 0.839254
O O5 0.500000 0.402005 0.500000
O O6 0.348183 0.500000 0.553680
O O7 0.356264 0.303694 0.525631
O O8 0.677777 0.866988 0.413575
O O9 0.853589 0.823576 0.280861
O O10 0.793147 0.000000 0.296939
O O11 0.744214 0.875345 0.178239
O O12 0.092621 0.841225 0.980544
O O13 0.979304 0.722380 0.119818
O O14 0.500000 0.805636 0.500000
O O15 0.590545 0.821800 0.642825
O O16 0.322460 0.500000 0.021439
#
# Coordination Sequence:
#
# PCOD9210797 Si02
#       7
#     8   8   8   4   8   8   8
#     4  10  21  39  64  88 118 157 200 251 297 350
#     4   9  19  35  57  90 120 153 196 245 304 351
#     4  10  22  41  62  88 122 161 197 241 297 357
#     4  10  23  36  61  88 124 162 192 244 304 348
#     4  11  24  40  61  87 124 157 202 247 295 359
#     4   9  20  39  63  91 120 153 201 249 299 355
#     4  11  24  41  59  92 121 156 205 248 295 359
#
# _framework density 20.983640000000001
#
# number of rings (size 3 to 8) (size 9 to 14) (size 15 to 20)
#    0.000    2.000    1.538    0.692    4.308    5.846 
#    0.000    0.385    0.000    0.000    0.000    0.000 
#    0.000    0.000    0.000    0.000    0.000    0.000 
#
# Total GULP energy -145138.043707 kJ/mol
# GULP energy per Si atom -5582.232450 kJ/mol
# Density = 2.093588 g / cm^3
# Si number density = 20.983640 Si / 1000 Ang^3
#
#
#
# Elastic Constant Matrix: (Units=GPa)
#
#
# Indices 1 2 3 4 5 6 
#
# 1 55.8166 12.2572 59.6904 0.0000 14.0924 0.0000
# 2 12.2572 60.6559 27.4638 0.0000 4.1293 0.0000
# 3 59.6904 27.4638 205.6916 0.0000 14.8345 0.0000
# 4 0.0000 0.0000 0.0000 101.7342 0.0000 77.6683
# 5 14.0924 4.1293 14.8345 0.0000 39.9052 0.0000
# 6 0.0000 0.0000 0.0000 77.6683 0.0000 106.8771
#
#
#
# Elastic Compliance Matrix: (Units=1/GPa)
#
#
# Indices 1 2 3 4 5 6 
#
# 1 0.027948 -0.001841 -0.007364 0.000000 -0.006942 0.000000
# 2 -0.001841 0.017705 -0.001793 0.000000 -0.000516 0.000000
# 3 -0.007364 -0.001793 0.007231 0.000000 0.000098 0.000000
# 4 0.000000 0.000000 0.000000 0.022079 0.000000 -0.016045
# 5 -0.006942 -0.000516 0.000098 0.000000 0.027528 0.000000
# 6 0.000000 0.000000 0.000000 -0.016045 0.000000 0.021017
#
#
# Mechanical properties :
#
#
# Convention : Reuss Voigt Hill
#
# Bulk Modulus (GPa) = 32.37380 57.88744 45.13062
# Shear Modulus (GPa) = 32.09294 64.55347 48.32321
#
# Velocity S-wave (km/s) = 3.91503 5.55252 4.80406
# Velocity P-wave (km/s) = 5.99151 8.29181 7.23368
#
# Compressibility (1/GPa) = 0.03088917
#
# Stress axis : x y z
#
# Youngs Moduli (GPa) = 35.78136 56.48062 138.29635
#
# Poissons Ratio (x) = 0.10397 1.01838
# Poissons Ratio (y) = 0.06587 0.24791
# Poissons Ratio (z) = 0.26349 0.10125
#
# Static dielectric constant tensor:
#      x y z
#    x 1.727700 0.000000 0.013180 
#    y 0.000000 1.792860 0.000000 
#    z 0.013180 0.000000 1.804840 
# 
# From -- ./inp_files/143631.got.cif
#   From: 2010.05.17/outbox.cif.g08.bks.cpg/sg12_72_cif.got.tgz:143631.got - 2010.06.03 13:09:07.
