data_PCOD9210342
_publ_section_title
;
Structure prediction by ZEFSAII (Michael W. Deem and Ramdas Pophale) SiO2 
 PCOD9210342
Probable space group: C 2/M
;
_chemical_formula_sum "Si O2"
_cell_formula_units_Z 56
_cell_length_a 23.198551
_cell_length_b 19.299630
_cell_length_c 18.962731
_cell_angle_alpha 90.000000
_cell_angle_beta 161.728609
_cell_angle_gamma 90.000000
_cell_volume 2661.789390
_symmetry_space_group_name_H-M "C 2/M"
_symmetry_group_IT_number 12
_symmetry_cell_setting 'monoclinic'
loop_
_space_group_symop_operation_xyz
x,y,z
-x,y,-z
-x,-y,-z
x,-y,z
1/2+x,1/2+y,z
1/2-x,1/2+y,-z
1/2-x,1/2-y,-z
1/2+x,1/2-y,z
loop_
_atom_site_type_symbol
_atom_site_label
_atom_site_fract_x
_atom_site_fract_y
_atom_site_fract_z
Si Si1 0.397836 0.309953 0.666459
Si Si2 0.785087 0.721967 0.162479
Si Si3 0.017069 0.152125 0.385038
Si Si4 0.292880 0.920290 0.470520
Si Si5 0.959898 0.575734 0.370805
Si Si6 0.830966 0.320686 0.854798
Si Si7 0.865033 0.581357 0.026051
O O1 0.250000 0.250000 0.500000
O O2 0.391870 0.349961 0.585540
O O3 0.358472 0.365197 0.682161
O O4 0.592457 0.272412 0.899373
O O5 0.834848 0.642069 0.215081
O O6 0.751976 0.753186 0.202171
O O7 0.938182 0.770292 0.305477
O O8 0.168793 0.142717 0.621914
O O9 0.837695 0.103812 0.182389
O O10 0.360034 0.913851 0.468161
O O11 0.235693 0.000000 0.416371
O O12 0.475282 0.906849 0.730593
O O13 0.883232 0.500000 0.259910
O O14 0.000000 0.573365 0.500000
O O15 0.895219 0.371545 0.992119
O O16 0.000000 0.303783 0.000000
O O17 0.866129 0.500000 0.010304
#
# Coordination Sequence:
#
# PCOD9210342 Si02
#       7
#     8   8   8   8   8   8   8
#     4  12  23  37  60  86 116 153 196 240 288 344
#     4  11  22  37  59  84 114 152 196 240 285 343
#     4  11  22  38  59  85 119 154 195 241 284 339
#     4  10  22  40  59  85 120 151 188 241 293 340
#     4  10  21  39  62  84 110 148 192 237 289 348
#     4  11  23  39  58  87 123 154 190 239 294 339
#     4  10  21  39  62  86 116 157 199 235 279 342
#
# _framework density 21.038478000000001
#
# number of rings (size 3 to 8) (size 9 to 14) (size 15 to 20)
#    0.000    1.286    0.000    8.143    0.000    3.714 
#    0.000    0.000    0.000    3.000    0.000    0.000 
#    0.000    0.000    0.000    0.000    0.000    0.000 
#
# Total GULP energy -156519.575798 kJ/mol
# GULP energy per Si atom -5589.984850 kJ/mol
# Density = 2.099059 g / cm^3
# Si number density = 21.038478 Si / 1000 Ang^3
#
#
#
# Elastic Constant Matrix: (Units=GPa)
#
#
# Indices 1 2 3 4 5 6 
#
# 1 120.2981 16.6361 -10.5362 0.0078 12.1190 0.0042
# 2 16.6361 90.1348 -12.8133 0.0137 17.4472 0.0114
# 3 -10.5362 -12.8133 26.4944 0.0183 -0.6363 0.0151
# 4 0.0078 0.0137 0.0183 27.3574 0.0076 0.3726
# 5 12.1190 17.4472 -0.6363 0.0076 28.2883 0.0047
# 6 0.0042 0.0114 0.0151 0.3726 0.0047 15.0251
#
#
#
# Elastic Compliance Matrix: (Units=1/GPa)
#
#
# Indices 1 2 3 4 5 6 
#
# 1 0.009019 -0.000533 0.003246 -0.000003 -0.003462 -0.000004
# 2 -0.000533 0.013628 0.006186 -0.000008 -0.008038 -0.000014
# 3 0.003246 0.006186 0.041924 -0.000030 -0.004263 -0.000046
# 4 -0.000003 -0.000008 -0.000030 0.036566 -0.000004 -0.000907
# 5 -0.003462 -0.008038 -0.004263 -0.000004 0.041695 -0.000002
# 6 -0.000004 -0.000014 -0.000046 -0.000907 -0.000002 0.066578
#
#
# Mechanical properties :
#
#
# Convention : Reuss Voigt Hill
#
# Bulk Modulus (GPa) = 12.14057 24.83341 18.48699
# Shear Modulus (GPa) = 22.82385 30.37686 26.60035
#
# Velocity S-wave (km/s) = 3.29730 3.80395 3.55965
# Velocity P-wave (km/s) = 4.50327 5.57879 5.06963
#
# Compressibility (1/GPa) = 0.08236849
#
# Stress axis : x y z
#
# Youngs Moduli (GPa) = 110.87110 73.37779 23.85274
#
# Poissons Ratio (x) = 0.03912 -0.07742
# Poissons Ratio (y) = 0.05911 -0.14755
# Poissons Ratio (z) = -0.35987 -0.45390
#
# Static dielectric constant tensor:
#      x y z
#    x 1.782100 0.000000 -0.012570 
#    y 0.000000 1.759580 0.000000 
#    z -0.012570 0.000000 1.750360 
# 
# From -- ./inp_files/286070.got.cif
#   From: 2010.05.17/outbox.cif.g08.bks.cpg/sg12_144_cif.got.tgz:286070.got - 2010.06.03 13:09:07.
