data_PCOD9210535
_publ_section_title
;
Structure prediction by ZEFSAII (Michael W. Deem and Ramdas Pophale) SiO2 
 PCOD9210535
Probable space group: C 2/M
;
_chemical_formula_sum "Si O2"
_cell_formula_units_Z 56
_cell_length_a 12.737226
_cell_length_b 24.096567
_cell_length_c 9.301340
_cell_angle_alpha 90.000000
_cell_angle_beta 97.183769
_cell_angle_gamma 90.000000
_cell_volume 2832.389383
_symmetry_space_group_name_H-M "C 2/M"
_symmetry_group_IT_number 12
_symmetry_cell_setting 'monoclinic'
loop_
_space_group_symop_operation_xyz
x,y,z
-x,y,-z
-x,-y,-z
x,-y,z
1/2+x,1/2+y,z
1/2-x,1/2+y,-z
1/2-x,1/2-y,-z
1/2+x,1/2-y,z
loop_
_atom_site_type_symbol
_atom_site_label
_atom_site_fract_x
_atom_site_fract_y
_atom_site_fract_z
Si Si1 0.157760 0.936205 0.395916
Si Si2 0.749891 0.339892 0.215315
Si Si3 0.572287 0.937778 0.152976
Si Si4 0.731717 0.357981 0.873777
Si Si5 0.012945 0.343564 0.662409
Si Si6 0.190148 0.733247 0.339639
Si Si7 0.406580 0.563847 0.296059
O O1 0.219408 0.894939 0.300771
O O2 0.157785 0.922646 0.566910
O O3 0.032169 0.934542 0.342127
O O4 0.193635 0.000000 0.384142
O O5 0.674620 0.291270 0.257464
O O6 0.869713 0.323447 0.279895
O O7 0.742297 0.342764 0.042352
O O8 0.680030 0.905312 0.138960
O O9 0.510079 0.896331 0.244363
O O10 0.590910 0.000000 0.211682
O O11 0.500000 0.941788 0.000000
O O12 0.748578 0.308265 0.761130
O O13 0.623663 0.390100 0.823746
O O14 0.922299 0.296869 0.658733
O O15 0.000000 0.364335 0.500000
O O16 0.250000 0.750000 0.500000
O O17 0.380562 0.500000 0.252446
#
# Coordination Sequence:
#
# PCOD9210535 Si02
#       7
#     8   8   8   8   8   8   8
#     4   9  21  40  65  93 128 167 214 264 315 380
#     4  12  24  42  63  98 124 164 213 263 326 383
#     4  10  21  39  62  94 134 176 207 246 318 388
#     4  11  23  39  64  94 130 167 212 263 320 380
#     4  11  24  43  66  91 130 162 215 272 315 373
#     4  11  24  43  65  88 120 168 215 264 322 378
#     4   9  19  40  64  91 126 169 211 260 315 375
#
# _framework density 19.771294000000001
#
# number of rings (size 3 to 8) (size 9 to 14) (size 15 to 20)
#    0.000    1.571    2.857    2.571    2.000    3.714 
#    2.571    2.857    0.000    0.000    0.000    0.000 
#    0.000    0.000    0.000    0.000    0.000    0.000 
#
# Total GULP energy -156193.465471 kJ/mol
# GULP energy per Si atom -5578.338053 kJ/mol
# Density = 1.972629 g / cm^3
# Si number density = 19.771294 Si / 1000 Ang^3
#
#
#
# Elastic Constant Matrix: (Units=GPa)
#
#
# Indices 1 2 3 4 5 6 
#
# 1 46.0945 33.2522 42.9176 0.0000 -1.3294 0.0000
# 2 33.2522 105.4860 38.7758 0.0000 0.3109 0.0000
# 3 42.9176 38.7758 100.0285 0.0000 13.7046 0.0000
# 4 0.0000 0.0000 0.0000 22.0058 0.0000 8.0007
# 5 -1.3294 0.3109 13.7046 0.0000 27.3337 0.0000
# 6 0.0000 0.0000 0.0000 8.0007 0.0000 19.6207
#
#
#
# Elastic Compliance Matrix: (Units=1/GPa)
#
#
# Indices 1 2 3 4 5 6 
#
# 1 0.043371 -0.007367 -0.017237 0.000000 0.010835 0.000000
# 2 -0.007367 0.012428 -0.001705 0.000000 0.000355 0.000000
# 3 -0.017237 -0.001705 0.019506 0.000000 -0.010599 0.000000
# 4 0.000000 0.000000 0.000000 0.053352 0.000000 -0.021755
# 5 0.010835 0.000355 -0.010599 0.000000 0.042422 0.000000
# 6 0.000000 0.000000 0.000000 -0.021755 0.000000 0.059838
#
#
# Mechanical properties :
#
#
# Convention : Reuss Voigt Hill
#
# Bulk Modulus (GPa) = 44.08145 53.50004 48.79074
# Shear Modulus (GPa) = 17.17633 22.90294 20.03964
#
# Velocity S-wave (km/s) = 2.95066 3.40721 3.18712
# Velocity P-wave (km/s) = 5.82688 6.52664 6.18666
#
# Compressibility (1/GPa) = 0.02268528
#
# Stress axis : x y z
#
# Youngs Moduli (GPa) = 23.05696 80.46209 51.26635
#
# Poissons Ratio (x) = 0.59280 0.88368
# Poissons Ratio (y) = 0.16987 0.08743
# Poissons Ratio (z) = 0.39743 0.13722
#
# Static dielectric constant tensor:
#      x y z
#    x 1.740780 0.000000 0.016780 
#    y 0.000000 1.697960 0.000000 
#    z 0.016780 0.000000 1.720370 
# 
# From -- ./inp_files/64083.got.cif
#   From: 2010.05.17/outbox.cif.g08.bks.cpg/sg12_33_cif.got.tgz:64083.got - 2010.06.03 13:09:07.
