data_PCOD9210824
_publ_section_title
;
Structure prediction by ZEFSAII (Michael W. Deem and Ramdas Pophale) SiO2 
 PCOD9210824
Probable space group: C 2/M
;
_chemical_formula_sum "Si O2"
_cell_formula_units_Z 64
_cell_length_a 20.582729
_cell_length_b 31.053170
_cell_length_c 14.780147
_cell_angle_alpha 90.000000
_cell_angle_beta 160.423160
_cell_angle_gamma 90.000000
_cell_volume 3165.367670
_symmetry_space_group_name_H-M "C 2/M"
_symmetry_group_IT_number 12
_symmetry_cell_setting 'monoclinic'
loop_
_space_group_symop_operation_xyz
x,y,z
-x,y,-z
-x,-y,-z
x,-y,z
1/2+x,1/2+y,z
1/2-x,1/2+y,-z
1/2-x,1/2-y,-z
1/2+x,1/2-y,z
loop_
_atom_site_type_symbol
_atom_site_label
_atom_site_fract_x
_atom_site_fract_y
_atom_site_fract_z
Si Si1 0.834843 0.582743 0.046234
Si Si2 0.802424 0.791583 0.800113
Si Si3 0.446121 0.372520 0.552783
Si Si4 0.117430 0.657854 0.408698
Si Si5 0.535555 0.632850 0.878465
Si Si6 0.134831 0.304592 0.087036
Si Si7 0.679190 0.952980 0.166717
Si Si8 0.217961 0.450720 0.824595
O O1 0.788550 0.555439 0.074793
O O2 0.001592 0.616319 0.290065
O O3 0.647930 0.611764 0.775810
O O4 0.883395 0.556983 0.018626
O O5 0.641013 0.805979 0.516485
O O6 0.793606 0.744394 0.830982
O O7 0.824689 0.829974 0.900564
O O8 0.000000 0.790683 0.000000
O O9 0.496172 0.360533 0.721189
O O10 0.321076 0.334416 0.346787
O O11 0.315332 0.415161 0.379389
O O12 0.329311 0.640533 0.656874
O O13 0.999461 0.677957 0.170038
O O14 0.636442 0.586137 0.021213
O O15 0.000000 0.307086 0.000000
O O16 0.775493 0.000000 0.294854
O O17 0.500000 0.953517 0.000000
O O18 0.276199 0.500000 0.879790
O O19 0.000000 0.444226 0.500000
#
# Coordination Sequence:
#
# PCOD9210824 Si02
#       8
#     8   8   8   8   8   8   8   8
#     4  11  23  39  63  88 131 169 208 259 321 384
#     4   9  22  36  61  95 120 163 210 269 315 379
#     4  11  22  37  60  86 124 169 204 253 313 381
#     4  11  21  38  63  89 126 168 208 267 320 371
#     4  10  21  39  64  90 125 162 213 256 317 369
#     4  11  21  36  63  91 127 162 218 258 317 384
#     4  11  23  39  60  90 123 159 207 262 322 381
#     4  10  22  42  68  93 125 171 216 260 316 382
#
# _framework density 20.218820000000001
#
# number of rings (size 3 to 8) (size 9 to 14) (size 15 to 20)
#    0.000    1.500    2.500    2.625    1.750    4.500 
#    0.000    1.875    8.250    4.875    0.000    0.000 
#    0.000    0.000    0.000    0.000    0.000    0.000 
#
# Total GULP energy -178717.977635 kJ/mol
# GULP energy per Si atom -5584.936801 kJ/mol
# Density = 2.017280 g / cm^3
# Si number density = 20.218820 Si / 1000 Ang^3
#
#
#
# Elastic Constant Matrix: (Units=GPa)
#
#
# Indices 1 2 3 4 5 6 
#
# 1 31.9083 36.1914 20.9029 -0.0001 1.6149 -0.0001
# 2 36.1914 173.5546 63.3190 -0.0021 -5.9596 0.0000
# 3 20.9029 63.3190 100.1401 -0.0037 -15.0975 0.0001
# 4 -0.0001 -0.0021 -0.0037 -208.6047 -0.0010 -0.2197
# 5 1.6149 -5.9596 -15.0975 -0.0010 27.8039 0.0000
# 6 -0.0001 0.0000 0.0001 -0.2197 0.0000 25.2906
#
#
#
# Elastic Compliance Matrix: (Units=1/GPa)
#
#
# Indices 1 2 3 4 5 6 
#
# 1 0.043640 -0.007318 -0.005556 0.000000 -0.007120 0.000000
# 2 -0.007318 0.008745 -0.003981 0.000000 0.000138 0.000000
# 3 -0.005556 -0.003981 0.014794 0.000000 0.007503 0.000000
# 4 0.000000 0.000000 0.000000 -0.004794 0.000000 -0.000042
# 5 -0.007120 0.000138 0.007503 0.000000 0.040483 0.000000
# 6 0.000000 0.000000 0.000000 -0.000042 0.000000 0.039540
#
#
# Mechanical properties :
#
#
# Convention : Reuss Voigt Hill
#
# Bulk Modulus (GPa) = 29.87784 60.71441 45.29612
# Shear Modulus (GPa) = 26.69880 -18.75607 3.97136
#
# Velocity S-wave (km/s) = 3.63780 -3.04905 1.40302
# Velocity P-wave (km/s) = 5.69685 4.20693 5.00761
#
# Compressibility (1/GPa) = 0.03346962
#
# Stress axis : x y z
#
# Youngs Moduli (GPa) = 22.91492 114.34940 67.59416
#
# Poissons Ratio (x) = 0.83679 0.37552
# Poissons Ratio (y) = 0.16769 0.26911
# Poissons Ratio (z) = 0.12730 0.45526
#
# Static dielectric constant tensor:
#      x y z
#    x 1.738960 0.000000 -0.004350 
#    y 0.000000 1.714600 0.000000 
#    z -0.004350 0.000000 1.724980 
# 
# From -- ./inp_files/236011.got.cif
#   From: 2010.05.17/outbox.cif.g08.bks.cpg/sg12_119_cif.got.tgz:236011.got - 2010.06.03 13:09:07.
