data_PCOD9210619
_publ_section_title
;
Structure prediction by ZEFSAII (Michael W. Deem and Ramdas Pophale) SiO2 
 PCOD9210619
Probable space group: C 2/M
;
_chemical_formula_sum "Si O2"
_cell_formula_units_Z 50
_cell_length_a 13.006019
_cell_length_b 13.314777
_cell_length_c 14.344180
_cell_angle_alpha 90.000000
_cell_angle_beta 113.105259
_cell_angle_gamma 90.000000
_cell_volume 2284.759848
_symmetry_space_group_name_H-M "C 2/M"
_symmetry_group_IT_number 12
_symmetry_cell_setting 'monoclinic'
loop_
_space_group_symop_operation_xyz
x,y,z
-x,y,-z
-x,-y,-z
x,-y,z
1/2+x,1/2+y,z
1/2-x,1/2+y,-z
1/2-x,1/2-y,-z
1/2+x,1/2-y,z
loop_
_atom_site_type_symbol
_atom_site_label
_atom_site_fract_x
_atom_site_fract_y
_atom_site_fract_z
Si Si1 0.318652 0.384798 0.890533
Si Si2 0.433108 0.794359 0.858360
Si Si3 0.670698 0.120001 0.007760
Si Si4 0.841983 0.178987 0.453870
Si Si5 0.000000 0.000000 0.500000
Si Si6 0.144246 0.613531 0.658336
Si Si7 0.094340 0.681089 0.369867
O O1 0.350650 0.500000 0.909122
O O2 0.418852 0.319576 0.885955
O O3 0.271028 0.350419 0.973980
O O4 0.217112 0.377270 0.779046
O O5 0.553290 0.839257 0.925813
O O6 0.416268 0.804116 0.743539
O O7 0.336171 0.847058 0.886687
O O8 0.666688 0.000000 0.002557
O O9 0.833505 0.284407 0.393060
O O10 0.900075 0.214845 0.570746
O O11 0.717954 0.138895 0.430231
O O12 0.911873 0.089159 0.436765
O O13 0.168628 0.500000 0.629221
O O14 0.012003 0.619838 0.632597
#
# Coordination Sequence:
#
# PCOD9210619 Si02
#       7
#     8   8   8   8   2   8   8
#     4  10  21  39  63  89 122 165 202 255 315 366
#     4  11  20  37  64  92 123 157 207 256 307 373
#     4  10  22  40  63  90 126 166 205 263 311 359
#     4  11  25  45  62  93 128 170 204 261 325 371
#     4  12  24  48  62  84 142 164 200 262 324 376
#     4  11  22  42  65  91 124 161 214 264 303 373
#     4  11  23  41  64  93 122 161 217 251 314 381
#
# _framework density 21.884138
#
# number of rings (size 3 to 8) (size 9 to 14) (size 15 to 20)
#    0.000    1.280    4.800    1.440    1.120    1.920 
#    5.760    1.600    0.000    1.920    0.000    0.000 
#    0.000    0.000    0.000    0.000    0.000    0.000 
#
# Total GULP energy -139273.560068 kJ/mol
# GULP energy per Si atom -5570.942403 kJ/mol
# Density = 2.183433 g / cm^3
# Si number density = 21.884138 Si / 1000 Ang^3
#
#
#
# Elastic Constant Matrix: (Units=GPa)
#
#
# Indices 1 2 3 4 5 6 
#
# 1 31.8874 10.2854 -13.9653 0.0000 -6.3696 0.0000
# 2 10.2854 116.0340 22.7005 0.0000 -8.1806 0.0000
# 3 -13.9653 22.7005 85.3437 0.0000 -18.9814 0.0000
# 4 0.0000 0.0000 0.0000 18.3917 0.0000 8.8729
# 5 -6.3696 -8.1806 -18.9814 0.0000 30.7420 0.0000
# 6 0.0000 0.0000 0.0000 8.8729 0.0000 24.8137
#
#
#
# Elastic Compliance Matrix: (Units=1/GPa)
#
#
# Indices 1 2 3 4 5 6 
#
# 1 0.040481 -0.004756 0.010981 0.000000 0.013902 0.000000
# 2 -0.004756 0.009681 -0.003477 0.000000 -0.000556 0.000000
# 3 0.010981 -0.003477 0.017086 0.000000 0.011899 0.000000
# 4 0.000000 0.000000 0.000000 0.065708 0.000000 -0.023496
# 5 0.013902 -0.000556 0.011899 0.000000 0.042608 0.000000
# 6 0.000000 0.000000 0.000000 -0.023496 0.000000 0.048702
#
#
# Mechanical properties :
#
#
# Convention : Reuss Voigt Hill
#
# Bulk Modulus (GPa) = 13.74709 30.14514 21.94612
# Shear Modulus (GPa) = 20.57464 29.07244 24.82354
#
# Velocity S-wave (km/s) = 3.06953 3.64877 3.37162
# Velocity P-wave (km/s) = 4.34259 5.61749 5.02067
#
# Compressibility (1/GPa) = 0.07274265
#
# Stress axis : x y z
#
# Youngs Moduli (GPa) = 24.70307 103.29726 58.52864
#
# Poissons Ratio (x) = 0.49133 -0.64272
# Poissons Ratio (y) = 0.11750 0.20351
# Poissons Ratio (z) = -0.27127 0.35917
#
# Static dielectric constant tensor:
#      x y z
#    x 1.843370 0.000000 -0.016210 
#    y 0.000000 1.864980 0.000000 
#    z -0.016210 0.000000 1.832060 
# 
# From -- ./inp_files/213458.got.cif
#   From: 2010.05.17/outbox.cif.g08.bks.cpg/sg12_107_cif.got.tgz:213458.got - 2010.06.03 13:09:07.
