data_PCOD9210845
_publ_section_title
;
Structure prediction by ZEFSAII (Michael W. Deem and Ramdas Pophale) SiO2 
 PCOD9210845
Probable space group: C 2/M
;
_chemical_formula_sum "Si O2"
_cell_formula_units_Z 50
_cell_length_a 15.398053
_cell_length_b 17.424805
_cell_length_c 9.846389
_cell_angle_alpha 90.000000
_cell_angle_beta 115.407540
_cell_angle_gamma 90.000000
_cell_volume 2386.341324
_symmetry_space_group_name_H-M "C 2/M"
_symmetry_group_IT_number 12
_symmetry_cell_setting 'monoclinic'
loop_
_space_group_symop_operation_xyz
x,y,z
-x,y,-z
-x,-y,-z
x,-y,z
1/2+x,1/2+y,z
1/2-x,1/2+y,-z
1/2-x,1/2-y,-z
1/2+x,1/2-y,z
loop_
_atom_site_type_symbol
_atom_site_label
_atom_site_fract_x
_atom_site_fract_y
_atom_site_fract_z
Si Si1 0.701822 0.918927 0.161213
Si Si2 0.688042 0.182789 0.394590
Si Si3 0.707201 0.827916 0.910945
Si Si4 0.239579 0.087738 0.322321
Si Si5 0.011862 0.084085 0.171558
Si Si6 0.012029 0.745291 0.843349
Si Si7 0.000000 0.500000 0.000000
O O1 0.726575 0.851226 0.279413
O O2 0.745696 0.000000 0.234301
O O3 0.730899 0.896596 0.029718
O O4 0.586002 0.934849 0.081944
O O5 0.750000 0.250000 0.500000
O O6 0.695428 0.113711 0.507559
O O7 0.585023 0.217275 0.291622
O O8 0.742137 0.852999 0.787475
O O9 0.594383 0.810976 0.845969
O O10 0.750000 0.750000 0.000000
O O11 0.125972 0.090583 0.279579
O O12 0.261673 0.000000 0.296527
O O13 0.966467 0.165653 0.182261
O O14 0.977964 0.000000 0.199799
O O15 0.000000 0.081606 0.000000
O O16 0.000000 0.744036 0.000000
#
# Coordination Sequence:
#
# PCOD9210845 Si02
#       7
#     8   8   8   8   8   8   2
#     4  10  21  39  64  92 118 167 215 256 304 376
#     4  12  22  40  64  97 126 163 210 263 318 372
#     4  12  23  40  64  95 126 165 208 261 315 374
#     4  11  24  41  58  94 135 159 196 263 329 368
#     4   9  18  36  62  89 117 160 210 259 304 361
#     4  11  21  39  65  91 117 164 221 255 297 374
#     4   8  20  40  68  90 116 158 238 254 292 376
#
# _framework density 20.952577000000002
#
# number of rings (size 3 to 8) (size 9 to 14) (size 15 to 20)
#    0.480    0.800    3.200    4.800    0.000    0.640 
#    0.000    1.600    0.000    0.000    0.000    2.240 
#    0.000    0.000    0.000    0.000    0.000    0.000 
#
# Total GULP energy -139283.758285 kJ/mol
# GULP energy per Si atom -5571.350331 kJ/mol
# Density = 2.090489 g / cm^3
# Si number density = 20.952577 Si / 1000 Ang^3
#
#
#
# Elastic Constant Matrix: (Units=GPa)
#
#
# Indices 1 2 3 4 5 6 
#
# 1 29.9444 0.6674 13.4309 0.0000 14.9424 0.0000
# 2 0.6674 108.7955 10.2429 0.0000 5.3779 0.0000
# 3 13.4309 10.2429 79.3629 0.0000 15.5868 0.0000
# 4 0.0000 0.0000 0.0000 55.3781 0.0000 12.3982
# 5 14.9424 5.3779 15.5868 0.0000 31.3791 0.0000
# 6 0.0000 0.0000 0.0000 12.3982 0.0000 19.7157
#
#
#
# Elastic Compliance Matrix: (Units=1/GPa)
#
#
# Indices 1 2 3 4 5 6 
#
# 1 0.044913 0.001061 -0.003880 0.000000 -0.019642 0.000000
# 2 0.001061 0.009364 -0.001079 0.000000 -0.001574 0.000000
# 3 -0.003880 -0.001079 0.014402 0.000000 -0.005121 0.000000
# 4 0.000000 0.000000 0.000000 0.021017 0.000000 -0.013216
# 5 -0.019642 -0.001574 -0.005121 0.000000 0.044035 0.000000
# 6 0.000000 0.000000 0.000000 -0.013216 0.000000 0.059032
#
#
# Mechanical properties :
#
#
# Convention : Reuss Voigt Hill
#
# Bulk Modulus (GPa) = 16.42494 29.64280 23.03387
# Shear Modulus (GPa) = 22.63930 34.21201 28.42566
#
# Velocity S-wave (km/s) = 3.29067 4.04521 3.68729
# Velocity P-wave (km/s) = 4.72166 5.99972 5.39864
#
# Compressibility (1/GPa) = 0.06088301
#
# Stress axis : x y z
#
# Youngs Moduli (GPa) = 22.26517 106.78691 69.43447
#
# Poissons Ratio (x) = -0.11327 0.26941
# Poissons Ratio (y) = -0.02362 0.07492
# Poissons Ratio (z) = 0.08639 0.11522
#
# Static dielectric constant tensor:
#      x y z
#    x 1.505950 0.000000 0.001780 
#    y 0.000000 1.830120 0.000000 
#    z 0.001780 0.000000 1.735280 
# 
# From -- ./inp_files/75358.got.cif
#   From: 2010.05.17/outbox.cif.g08.bks.cpg/sg12_38_cif.got.tgz:75358.got - 2010.06.03 13:09:07.
