data_PCOD9210335
_publ_section_title
;
Structure prediction by ZEFSAII (Michael W. Deem and Ramdas Pophale) SiO2 
 PCOD9210335
Probable space group: C 2/M
;
_chemical_formula_sum "Si O2"
_cell_formula_units_Z 48
_cell_length_a 20.763514
_cell_length_b 15.120488
_cell_length_c 11.087338
_cell_angle_alpha 90.000000
_cell_angle_beta 49.696873
_cell_angle_gamma 90.000000
_cell_volume 2654.664001
_symmetry_space_group_name_H-M "C 2/M"
_symmetry_group_IT_number 12
_symmetry_cell_setting 'monoclinic'
loop_
_space_group_symop_operation_xyz
x,y,z
-x,y,-z
-x,-y,-z
x,-y,z
1/2+x,1/2+y,z
1/2-x,1/2+y,-z
1/2-x,1/2-y,-z
1/2+x,1/2-y,z
loop_
_atom_site_type_symbol
_atom_site_label
_atom_site_fract_x
_atom_site_fract_y
_atom_site_fract_z
Si Si1 0.040726 0.000000 0.821234
Si Si2 0.795542 0.500000 0.009329
Si Si3 0.100705 0.500000 0.862712
Si Si4 0.861010 0.833347 0.386489
Si Si5 0.327307 0.803448 0.963092
Si Si6 0.525223 0.696783 0.342208
Si Si7 0.311552 0.174291 0.271681
Si Si8 0.909040 0.000000 0.761456
O O1 0.101976 0.917691 0.726034
O O2 0.961031 0.000000 0.825117
O O3 0.000000 0.000000 0.000000
O O4 0.824328 0.405470 0.922618
O O5 0.840918 0.500000 0.086358
O O6 0.692915 0.500000 0.126732
O O7 0.128225 0.591765 0.769042
O O8 0.000000 0.500000 0.000000
O O9 0.782362 0.851378 0.570576
O O10 0.836306 0.759504 0.319399
O O11 0.939289 0.805413 0.372695
O O12 0.408667 0.752117 0.816249
O O13 0.250000 0.750000 0.000000
O O14 0.318790 0.805901 0.119616
O O15 0.500000 0.738108 0.500000
O O16 0.561407 0.596694 0.323539
#
# Coordination Sequence:
#
# PCOD9210335 Si02
#       8
#     4   4   4   8   8   8   8   4
#     4  10  23  36  61  96 131 158 195 252 323 373
#     4  10  22  38  59  89 118 153 212 244 304 355
#     4  10  23  37  64  87 116 157 209 257 293 359
#     4  10  23  39  60  88 125 160 201 254 308 371
#     4  11  22  38  64  88 122 160 204 257 304 373
#     4  11  23  38  62  92 124 156 206 257 314 369
#     4  10  23  41  62  88 120 162 209 252 306 366
#     4  10  21  39  61  95 117 162 199 258 305 374
#
# _framework density 18.081385000000001
#
# number of rings (size 3 to 8) (size 9 to 14) (size 15 to 20)
#    0.000    1.667    1.667    1.750   11.667    0.000 
#    0.000    0.417    0.000    4.000    0.000    0.000 
#    0.000    0.000    0.000    0.000    0.000    0.000 
#
# Total GULP energy -133728.112592 kJ/mol
# GULP energy per Si atom -5572.004691 kJ/mol
# Density = 1.804023 g / cm^3
# Si number density = 18.081385 Si / 1000 Ang^3
#
#
#
# Elastic Constant Matrix: (Units=GPa)
#
#
# Indices 1 2 3 4 5 6 
#
# 1 56.7710 44.0748 62.4418 0.0000 -24.8931 0.0000
# 2 44.0748 98.8949 71.0295 0.0000 0.4979 0.0000
# 3 62.4418 71.0295 181.5593 0.0000 -14.2337 0.0000
# 4 0.0000 0.0000 0.0000 14.1446 0.0000 26.2225
# 5 -24.8931 0.4979 -14.2337 0.0000 38.4007 0.0000
# 6 0.0000 0.0000 0.0000 26.2225 0.0000 -13.6957
#
#
#
# Elastic Compliance Matrix: (Units=1/GPa)
#
#
# Indices 1 2 3 4 5 6 
#
# 1 0.058510 -0.019108 -0.009943 0.000000 0.034491 0.000000
# 2 -0.019108 0.020502 -0.002514 0.000000 -0.013585 0.000000
# 3 -0.009943 -0.002514 0.009690 0.000000 -0.002821 0.000000
# 4 0.000000 0.000000 0.000000 0.015540 0.000000 0.029753
# 5 0.034491 -0.013585 -0.002821 0.000000 0.047530 0.000000
# 6 0.000000 0.000000 0.000000 0.029753 0.000000 -0.016049
#
#
# Mechanical properties :
#
#
# Convention : Reuss Voigt Hill
#
# Bulk Modulus (GPa) = 39.10767 76.92414 58.01591
# Shear Modulus (GPa) = 24.11075 18.41520 21.26297
#
# Velocity S-wave (km/s) = 3.65561 3.19480 3.43295
# Velocity P-wave (km/s) = 6.28440 7.49964 6.91875
#
# Compressibility (1/GPa) = 0.02557043
#
# Stress axis : x y z
#
# Youngs Moduli (GPa) = 17.09121 48.77608 103.20164
#
# Poissons Ratio (x) = 0.93203 1.02614
# Poissons Ratio (y) = 0.32659 0.25944
# Poissons Ratio (z) = 0.16994 0.12262
#
# Static dielectric constant tensor:
#      x y z
#    x 1.611290 0.000000 -0.003820 
#    y 0.000000 1.648470 0.000000 
#    z -0.003820 0.000000 1.662210 
# 
# From -- ./inp_files/167596.got.cif
#   From: 2010.05.17/outbox.cif.g08.bks.cpg/sg12_84_cif.got.tgz:167596.got - 2010.06.03 13:09:07.
