data_PCOD9210929
_publ_section_title
;
Structure prediction by ZEFSAII (Michael W. Deem and Ramdas Pophale) SiO2 
 PCOD9210929
Probable space group: C 2/M
;
_chemical_formula_sum "Si O2"
_cell_formula_units_Z 64
_cell_length_a 12.604388
_cell_length_b 14.435994
_cell_length_c 27.368558
_cell_angle_alpha 90.000000
_cell_angle_beta 140.111209
_cell_angle_gamma 90.000000
_cell_volume 3193.605722
_symmetry_space_group_name_H-M "C 2/M"
_symmetry_group_IT_number 12
_symmetry_cell_setting 'monoclinic'
loop_
_space_group_symop_operation_xyz
x,y,z
-x,y,-z
-x,-y,-z
x,-y,z
1/2+x,1/2+y,z
1/2-x,1/2+y,-z
1/2-x,1/2-y,-z
1/2+x,1/2-y,z
loop_
_atom_site_type_symbol
_atom_site_label
_atom_site_fract_x
_atom_site_fract_y
_atom_site_fract_z
Si Si1 0.675645 0.896908 0.587959
Si Si2 0.723326 0.745837 0.682998
Si Si3 0.652680 0.896087 0.916405
Si Si4 0.681048 0.106859 0.043320
Si Si5 0.988344 0.790806 0.851065
Si Si6 0.946217 0.389090 0.696446
Si Si7 0.314663 0.392338 0.873822
Si Si8 0.125025 0.761832 0.410123
O O1 0.500000 0.904131 0.500000
O O2 0.657005 0.828975 0.626386
O O3 0.795350 0.839533 0.595645
O O4 0.734656 0.000000 0.621143
O O5 0.832377 0.799227 0.761280
O O6 0.832666 0.669455 0.693834
O O7 0.555974 0.700035 0.641734
O O8 0.516428 0.818307 0.863630
O O9 0.789986 0.874425 0.923187
O O10 0.596897 0.000000 0.884567
O O11 0.690749 0.893294 0.987475
O O12 0.845197 0.165317 0.113490
O O13 0.699001 0.000000 0.066233
O O14 0.500000 0.138038 0.000000
O O15 0.942861 0.831845 0.887992
O O16 0.912252 0.500000 0.681124
O O17 0.909739 0.333414 0.632935
O O18 0.133989 0.380489 0.784144
O O19 0.364868 0.500000 0.886433
O O20 0.250000 0.750000 0.500000
#
# Coordination Sequence:
#
# PCOD9210929 Si02
#       8
#     8   8   8   8   8   8   8   8
#     4  10  22  40  62  88 123 167 213 263 317 376
#     4  11  23  39  63  93 126 163 212 263 317 386
#     4  10  23  43  65  92 129 170 210 263 325 387
#     4  10  24  45  66  96 135 171 215 271 332 396
#     4  12  23  39  69  95 127 169 218 265 329 389
#     4  10  22  40  62  91 129 168 210 266 325 381
#     4  10  21  39  64  96 127 162 218 273 322 386
#     4  11  22  40  62  91 127 166 211 265 316 375
#
# _framework density 20.040044000000002
#
# number of rings (size 3 to 8) (size 9 to 14) (size 15 to 20)
#    0.000    1.500    3.750    0.750    1.750    3.000 
#    0.000    2.500    0.000    0.000    0.000    0.000 
#    0.000    0.000    0.000    0.000    0.000    0.000 
#
# Total GULP energy -178396.896422 kJ/mol
# GULP energy per Si atom -5574.903013 kJ/mol
# Density = 1.999443 g / cm^3
# Si number density = 20.040044 Si / 1000 Ang^3
#
#
#
# Elastic Constant Matrix: (Units=GPa)
#
#
# Indices 1 2 3 4 5 6 
#
# 1 129.7216 38.3341 31.8524 0.0000 14.2264 0.0000
# 2 38.3341 88.1285 10.7351 0.0000 11.0559 0.0000
# 3 31.8524 10.7351 66.9223 0.0000 12.8981 0.0000
# 4 0.0000 0.0000 0.0000 17.2354 0.0000 2.8991
# 5 14.2264 11.0559 12.8981 0.0000 26.7716 0.0000
# 6 0.0000 0.0000 0.0000 2.8991 0.0000 16.5535
#
#
#
# Elastic Compliance Matrix: (Units=1/GPa)
#
#
# Indices 1 2 3 4 5 6 
#
# 1 0.009914 -0.003608 -0.003761 0.000000 -0.001966 0.000000
# 2 -0.003608 0.013349 0.000296 0.000000 -0.003738 0.000000
# 3 -0.003761 0.000296 0.017995 0.000000 -0.006793 0.000000
# 4 0.000000 0.000000 0.000000 0.059781 0.000000 -0.010470
# 5 -0.001966 -0.003738 -0.006793 0.000000 0.043215 0.000000
# 6 0.000000 0.000000 0.000000 -0.010470 0.000000 0.062244
#
#
# Mechanical properties :
#
#
# Convention : Reuss Voigt Hill
#
# Bulk Modulus (GPa) = 36.88254 49.62396 43.25325
# Shear Modulus (GPa) = 21.76945 25.70217 23.73581
#
# Velocity S-wave (km/s) = 3.29948 3.58514 3.44527
# Velocity P-wave (km/s) = 5.74106 6.47718 6.12020
#
# Compressibility (1/GPa) = 0.02711310
#
# Stress axis : x y z
#
# Youngs Moduli (GPa) = 100.86697 74.91087 55.57244
#
# Poissons Ratio (x) = 0.27025 0.20901
# Poissons Ratio (y) = 0.36388 -0.01646
# Poissons Ratio (z) = 0.37936 -0.02219
#
# Static dielectric constant tensor:
#      x y z
#    x 1.744550 0.000000 -0.039120 
#    y 0.000000 1.712250 0.000000 
#    z -0.039120 0.000000 1.738800 
# 
# From -- ./inp_files/358481.got.cif
#   From: 2010.05.17/outbox.cif.g08.bks.cpg/sg12_180_cif.got.tgz:358481.got - 2010.06.03 13:09:07.
