data_PCOD9210041
_publ_section_title
;
Structure prediction by ZEFSAII (Michael W. Deem and Ramdas Pophale) SiO2 
 PCOD9210041
Probable space group: C 2/M
;
_chemical_formula_sum "Si O2"
_cell_formula_units_Z 40
_cell_length_a 13.017258
_cell_length_b 22.372517
_cell_length_c 6.316792
_cell_angle_alpha 90.000000
_cell_angle_beta 79.114616
_cell_angle_gamma 90.000000
_cell_volume 1806.531271
_symmetry_space_group_name_H-M "C 2/M"
_symmetry_group_IT_number 12
_symmetry_cell_setting 'monoclinic'
loop_
_space_group_symop_operation_xyz
x,y,z
-x,y,-z
-x,-y,-z
x,-y,z
1/2+x,1/2+y,z
1/2-x,1/2+y,-z
1/2-x,1/2-y,-z
1/2+x,1/2-y,z
loop_
_atom_site_type_symbol
_atom_site_label
_atom_site_fract_x
_atom_site_fract_y
_atom_site_fract_z
Si Si1 0.085429 0.659262 0.294183
Si Si2 0.111964 0.099621 0.901357
Si Si3 0.724963 0.639714 0.475837
Si Si4 0.679591 0.067413 0.940711
Si Si5 0.354752 0.279024 0.861671
O O1 0.194080 0.664258 0.382281
O O2 0.065425 0.724690 0.204644
O O3 0.000000 0.642189 0.500000
O O4 0.104183 0.610565 0.104965
O O5 0.136824 0.105233 0.643620
O O6 0.210557 0.068123 0.972996
O O7 0.111934 0.166570 0.001689
O O8 0.000000 0.072798 0.000000
O O9 0.790714 0.596994 0.294266
O O10 0.674346 0.690310 0.349992
O O11 0.640929 0.000000 0.935860
O O12 0.250000 0.250000 0.000000
#
# Coordination Sequence:
#
# PCOD9210041 Si02
#       5
#     8   8   8   8   8
#     4  11  24  38  61  93 122 157 203 244 300 358
#     4  10  23  38  61  94 123 154 197 248 305 364
#     4  10  21  39  59  84 124 160 197 244 304 352
#     4  10  23  44  62  83 119 161 210 253 296 348
#     4  11  20  37  58  89 126 160 191 242 298 368
#
# _framework density 22.141881000000001
#
# number of rings (size 3 to 8) (size 9 to 14) (size 15 to 20)
#    0.000    1.600    6.000    0.600    2.800    7.200 
#    0.000    2.000    0.000    0.000    0.000    0.000 
#    0.000    0.000    0.000    0.000    0.000    0.000 
#
# Total GULP energy -111830.623711 kJ/mol
# GULP energy per Si atom -5591.531186 kJ/mol
# Density = 2.209148 g / cm^3
# Si number density = 22.141881 Si / 1000 Ang^3
#
#
#
# Elastic Constant Matrix: (Units=GPa)
#
#
# Indices 1 2 3 4 5 6 
#
# 1 53.9154 -3.8914 19.2899 0.0000 -13.8535 0.0000
# 2 -3.8914 147.8832 50.1229 0.0000 -0.6629 0.0000
# 3 19.2899 50.1229 159.2576 0.0000 -18.4268 0.0000
# 4 0.0000 0.0000 0.0000 -4.6220 0.0000 0.4157
# 5 -13.8535 -0.6629 -18.4268 0.0000 34.8517 0.0000
# 6 0.0000 0.0000 0.0000 0.4157 0.0000 5.8782
#
#
#
# Elastic Compliance Matrix: (Units=1/GPa)
#
#
# Indices 1 2 3 4 5 6 
#
# 1 0.021301 0.001320 -0.002144 0.000000 0.007358 0.000000
# 2 0.001320 0.007698 -0.002668 0.000000 -0.000740 0.000000
# 3 -0.002144 -0.002668 0.007748 0.000000 0.003194 0.000000
# 4 0.000000 0.000000 0.000000 -0.214989 0.000000 0.015205
# 5 0.007358 -0.000740 0.003194 0.000000 0.033292 0.000000
# 6 0.000000 0.000000 0.000000 0.015205 0.000000 0.169044
#
#
# Mechanical properties :
#
#
# Convention : Reuss Voigt Hill
#
# Bulk Modulus (GPa) = 33.59938 54.67769 44.13853
# Shear Modulus (GPa) = 121.95397 26.92390 74.43893
#
# Velocity S-wave (km/s) = 7.42953 3.49086 5.80449
# Velocity P-wave (km/s) = 9.42363 6.40281 8.05608
#
# Compressibility (1/GPa) = 0.02976246
#
# Stress axis : x y z
#
# Youngs Moduli (GPa) = 46.94671 129.90604 129.06361
#
# Poissons Ratio (x) = -0.17150 0.27673
# Poissons Ratio (y) = -0.06198 0.34437
# Poissons Ratio (z) = 0.10066 0.34662
#
# Static dielectric constant tensor:
#      x y z
#    x 1.847610 0.000000 -0.008530 
#    y 0.000000 1.801330 0.000000 
#    z -0.008530 0.000000 1.796890 
# 
# From -- ./inp_files/11399.got.cif
#   From: 2010.05.17/outbox.cif.g08.bks.cpg/sg12_6_cif.got.tgz:11399.got - 2010.06.03 13:09:07.
