data_PCOD9210750
_publ_section_title
;
Structure prediction by ZEFSAII (Michael W. Deem and Ramdas Pophale) SiO2 
 PCOD9210750
Probable space group: C 2/M
;
_chemical_formula_sum "Si O2"
_cell_formula_units_Z 56
_cell_length_a 29.408895
_cell_length_b 8.912656
_cell_length_c 21.479857
_cell_angle_alpha 90.000000
_cell_angle_beta 151.706773
_cell_angle_gamma 90.000000
_cell_volume 2668.584947
_symmetry_space_group_name_H-M "C 2/M"
_symmetry_group_IT_number 12
_symmetry_cell_setting 'monoclinic'
loop_
_space_group_symop_operation_xyz
x,y,z
-x,y,-z
-x,-y,-z
x,-y,z
1/2+x,1/2+y,z
1/2-x,1/2+y,-z
1/2-x,1/2-y,-z
1/2+x,1/2-y,z
loop_
_atom_site_type_symbol
_atom_site_label
_atom_site_fract_x
_atom_site_fract_y
_atom_site_fract_z
Si Si1 0.879795 0.827586 0.709958
Si Si2 0.536933 0.174779 0.975971
Si Si3 0.093639 0.179051 0.653813
Si Si4 0.802070 0.672911 0.431509
Si Si5 0.266223 0.326052 0.789851
Si Si6 0.027867 0.170181 0.313255
Si Si7 0.150227 0.321594 0.855502
O O1 0.771800 0.794673 0.601528
O O2 0.910391 0.824532 0.675374
O O3 0.948464 0.709393 0.825270
O O4 0.898180 0.000000 0.754441
O O5 0.563691 0.000000 0.008615
O O6 0.500000 0.216815 0.000000
O O7 0.627726 0.272529 0.065670
O O8 0.186460 0.224371 0.725662
O O9 0.112509 0.256458 0.743629
O O10 0.000000 0.226486 0.500000
O O11 0.087307 0.000000 0.655276
O O12 0.834149 0.500000 0.476741
O O13 0.745424 0.687388 0.298701
O O14 0.895429 0.775887 0.543351
O O15 0.251035 0.500000 0.788745
O O16 0.935469 0.275559 0.200997
O O17 0.995915 0.000000 0.285642
O O18 0.161170 0.500000 0.864323
O O19 0.250000 0.250000 0.000000
#
# Coordination Sequence:
#
# PCOD9210750 Si02
#       7
#     8   8   8   8   8   8   8
#     4  10  22  40  62  90 127 170 214 257 313 384
#     4  11  23  38  59  90 126 166 213 267 320 376
#     4  11  25  46  72 102 135 170 218 279 337 398
#     4  10  21  39  63  94 130 171 214 258 312 380
#     4  11  23  39  65  94 128 171 212 261 320 387
#     4  11  24  41  65  94 128 168 212 264 322 382
#     4  12  27  48  72  97 132 175 224 279 336 400
#
# _framework density 20.984902999999999
#
# number of rings (size 3 to 8) (size 9 to 14) (size 15 to 20)
#    0.000    1.143    1.429    4.286    2.000    6.857 
#    0.000    0.000    0.000    0.000    0.000    0.000 
#    0.000    0.000    0.000    0.000    0.000    0.000 
#
# Total GULP energy -156493.618910 kJ/mol
# GULP energy per Si atom -5589.057818 kJ/mol
# Density = 2.093714 g / cm^3
# Si number density = 20.984903 Si / 1000 Ang^3
#
#
#
# Elastic Constant Matrix: (Units=GPa)
#
#
# Indices 1 2 3 4 5 6 
#
# 1 68.5444 30.9998 12.0375 0.0000 7.7981 0.0000
# 2 30.9998 77.8146 48.9366 0.0000 3.6629 0.0000
# 3 12.0375 48.9366 74.0262 0.0000 9.4059 0.0000
# 4 0.0000 0.0000 0.0000 33.5837 0.0000 6.6285
# 5 7.7981 3.6629 9.4059 0.0000 29.6221 0.0000
# 6 0.0000 0.0000 0.0000 6.6285 0.0000 18.2375
#
#
#
# Elastic Compliance Matrix: (Units=1/GPa)
#
#
# Indices 1 2 3 4 5 6 
#
# 1 0.018909 -0.009867 0.004091 0.000000 -0.005057 0.000000
# 2 -0.009867 0.027256 -0.017002 0.000000 0.004626 0.000000
# 3 0.004091 -0.017002 0.024960 0.000000 -0.006900 0.000000
# 4 0.000000 0.000000 0.000000 0.032077 0.000000 -0.011659
# 5 -0.005057 0.004626 -0.006900 0.000000 0.036709 0.000000
# 6 0.000000 0.000000 0.000000 -0.011659 0.000000 0.059069
#
#
# Mechanical properties :
#
#
# Convention : Reuss Voigt Hill
#
# Bulk Modulus (GPa) = 39.11138 44.92589 42.01864
# Shear Modulus (GPa) = 19.75822 24.84941 22.30382
#
# Velocity S-wave (km/s) = 3.07179 3.44489 3.26368
# Velocity P-wave (km/s) = 5.59102 6.10559 5.85396
#
# Compressibility (1/GPa) = 0.02556800
#
# Stress axis : x y z
#
# Youngs Moduli (GPa) = 52.88608 36.68864 40.06490
#
# Poissons Ratio (x) = 0.36202 -0.16390
# Poissons Ratio (y) = 0.52185 0.68117
# Poissons Ratio (z) = -0.21635 0.62377
#
# Static dielectric constant tensor:
#      x y z
#    x 1.775170 0.000000 -0.030800 
#    y 0.000000 1.734130 0.000000 
#    z -0.030800 0.000000 1.728410 
# 
# From -- ./inp_files/329640.got.cif
#   From: 2010.05.17/outbox.cif.g08.bks.cpg/sg12_165_cif.got.tgz:329640.got - 2010.06.03 13:09:07.
