data_PCOD9210239
_publ_section_title
;
Structure prediction by ZEFSAII (Michael W. Deem and Ramdas Pophale) SiO2 
 PCOD9210239
Probable space group: C 2/M
;
_chemical_formula_sum "Si O2"
_cell_formula_units_Z 48
_cell_length_a 19.185143
_cell_length_b 9.130859
_cell_length_c 30.461223
_cell_angle_alpha 90.000000
_cell_angle_beta 29.148156
_cell_angle_gamma 90.000000
_cell_volume 2599.052397
_symmetry_space_group_name_H-M "C 2/M"
_symmetry_group_IT_number 12
_symmetry_cell_setting 'monoclinic'
loop_
_space_group_symop_operation_xyz
x,y,z
-x,y,-z
-x,-y,-z
x,-y,z
1/2+x,1/2+y,z
1/2-x,1/2+y,-z
1/2-x,1/2-y,-z
1/2+x,1/2-y,z
loop_
_atom_site_type_symbol
_atom_site_label
_atom_site_fract_x
_atom_site_fract_y
_atom_site_fract_z
Si Si1 0.842238 0.665269 0.566756
Si Si2 0.687749 0.825493 0.077360
Si Si3 0.876494 0.174823 0.456991
Si Si4 0.331674 0.323310 0.090176
Si Si5 0.150045 0.674257 0.743778
Si Si6 0.303561 0.324165 0.750233
O O1 0.796554 0.500000 0.579409
O O2 0.855964 0.769347 0.517538
O O3 0.738409 0.733651 0.660023
O O4 0.000000 0.656699 0.500000
O O5 0.762880 0.776854 0.081415
O O6 0.517662 0.799929 0.171217
O O7 0.710968 0.000000 0.061054
O O8 0.750000 0.750000 0.000000
O O9 0.750000 0.250000 0.500000
O O10 0.033758 0.216471 0.352297
O O11 0.865908 0.000000 0.460646
O O12 0.319935 0.500000 0.099435
O O13 0.250021 0.253150 0.176270
O O14 0.500000 0.285030 0.000000
O O15 0.178721 0.500000 0.722121
O O16 0.202551 0.712352 0.764077
O O17 0.298420 0.500000 0.759006
#
# Coordination Sequence:
#
# PCOD9210239 Si02
#       6
#     8   8   8   8   8   8
#     4  11  23  39  61  91 122 159 206 248 297 357
#     4  10  22  39  61  89 116 151 195 241 296 357
#     4  11  24  41  61  87 123 162 204 251 300 356
#     4  10  22  39  59  86 121 155 192 240 298 356
#     4  10  21  39  61  86 118 157 202 248 298 353
#     4  10  22  39  60  86 116 154 199 245 297 354
#
# _framework density 18.468268999999999
#
# number of rings (size 3 to 8) (size 9 to 14) (size 15 to 20)
#    0.000    1.667    1.667    2.000    2.333    4.333 
#    0.000    0.000    0.000    0.000    0.000    0.000 
#    0.000    0.000    0.000    0.000    0.000    0.000 
#
# Total GULP energy -134072.522961 kJ/mol
# GULP energy per Si atom -5586.355123 kJ/mol
# Density = 1.842623 g / cm^3
# Si number density = 18.468269 Si / 1000 Ang^3
#
#
#
# Elastic Constant Matrix: (Units=GPa)
#
#
# Indices 1 2 3 4 5 6 
#
# 1 170.6951 52.7560 94.9952 -0.0002 2.5725 0.0006
# 2 52.7560 50.7355 68.4956 -0.0004 3.9712 0.0011
# 3 94.9952 68.4956 137.1020 0.0003 17.8730 0.0003
# 4 -0.0002 -0.0004 0.0003 20.2270 0.0001 14.0239
# 5 2.5725 3.9712 17.8730 0.0001 36.9701 -0.0002
# 6 0.0006 0.0011 0.0003 14.0239 -0.0002 31.0072
#
#
#
# Elastic Compliance Matrix: (Units=1/GPa)
#
#
# Indices 1 2 3 4 5 6 
#
# 1 0.009888 -0.002435 -0.005954 0.000000 0.002452 0.000000
# 2 -0.002435 0.063868 -0.031323 0.000004 0.008452 -0.000004
# 3 -0.005954 -0.031323 0.028363 -0.000002 -0.009933 0.000002
# 4 0.000000 0.000004 -0.000002 0.072024 0.000000 -0.032575
# 5 0.002452 0.008452 -0.009933 0.000000 0.030772 0.000000
# 6 0.000000 -0.000004 0.000002 -0.032575 0.000000 0.046983
#
#
# Mechanical properties :
#
#
# Convention : Reuss Voigt Hill
#
# Bulk Modulus (GPa) = 44.06310 87.89180 65.97745
# Shear Modulus (GPa) = 14.75422 27.12657 20.94039
#
# Velocity S-wave (km/s) = 2.82954 3.83668 3.37093
# Velocity P-wave (km/s) = 5.88096 8.20493 7.13815
#
# Compressibility (1/GPa) = 0.02269473
#
# Stress axis : x y z
#
# Youngs Moduli (GPa) = 101.13730 15.65735 35.25745
#
# Poissons Ratio (x) = 0.03813 0.20992
# Poissons Ratio (y) = 0.24627 1.10436
# Poissons Ratio (z) = 0.60217 0.49043
#
# Static dielectric constant tensor:
#      x y z
#    x 1.697440 0.000000 -0.027110 
#    y 0.000000 1.628350 0.000000 
#    z -0.027110 0.000000 1.599290 
# 
# From -- ./inp_files/244728.got.cif
#   From: 2010.05.17/outbox.cif.g08.bks.cpg/sg12_123_cif.got.tgz:244728.got - 2010.06.03 13:09:07.
