data_PCOD9210410
_publ_section_title
;
Structure prediction by ZEFSAII (Michael W. Deem and Ramdas Pophale) SiO2 
 PCOD9210410
Probable space group: C 2/M
;
_chemical_formula_sum "Si O2"
_cell_formula_units_Z 56
_cell_length_a 30.706977
_cell_length_b 9.267801
_cell_length_c 20.897896
_cell_angle_alpha 90.000000
_cell_angle_beta 27.803338
_cell_angle_gamma 90.000000
_cell_volume 2774.025277
_symmetry_space_group_name_H-M "C 2/M"
_symmetry_group_IT_number 12
_symmetry_cell_setting 'monoclinic'
loop_
_space_group_symop_operation_xyz
x,y,z
-x,y,-z
-x,-y,-z
x,-y,z
1/2+x,1/2+y,z
1/2-x,1/2+y,-z
1/2-x,1/2-y,-z
1/2+x,1/2-y,z
loop_
_atom_site_type_symbol
_atom_site_label
_atom_site_fract_x
_atom_site_fract_y
_atom_site_fract_z
Si Si1 0.728469 0.170353 0.359881
Si Si2 0.051703 0.675415 0.102679
Si Si3 0.897371 0.333839 0.104710
Si Si4 0.140733 0.835048 0.357906
Si Si5 0.659005 0.174397 0.587407
Si Si6 0.342703 0.172204 0.906096
Si Si7 0.929986 0.165955 0.684339
O O1 0.829847 0.240053 0.236110
O O2 0.694088 0.236076 0.337871
O O3 0.664821 0.206383 0.503745
O O4 0.733980 0.000000 0.348446
O O5 0.049474 0.500000 0.104750
O O6 0.118608 0.717362 0.074640
O O7 0.943259 0.720017 0.253812
O O8 0.093418 0.720390 0.980220
O O9 0.864288 0.500000 0.147699
O O10 0.000000 0.333049 0.000000
O O11 0.136578 0.792906 0.288874
O O12 0.034283 0.835828 0.521395
O O13 0.175424 0.000000 0.315113
O O14 0.750000 0.250000 0.500000
O O15 0.666952 0.000000 0.585586
O O16 0.419849 0.223288 0.754721
O O17 0.330330 0.000000 0.922238
O O18 0.250000 0.250000 0.000000
O O19 0.907452 0.000000 0.732572
#
# Coordination Sequence:
#
# PCOD9210410 Si02
#       7
#     8   8   8   8   8   8   8
#     4  11  23  36  56  88 122 149 185 240 300 353
#     4   9  20  39  61  84 115 157 199 242 290 348
#     4  10  21  39  63  86 111 153 204 243 287 357
#     4   9  19  36  59  83 111 149 191 235 285 348
#     4  10  21  39  62  88 117 150 192 242 298 355
#     4  11  23  38  57  82 117 159 202 245 292 351
#     4   9  19  37  58  82 112 147 192 243 288 336
#
# _framework density 20.187270000000002
#
# number of rings (size 3 to 8) (size 9 to 14) (size 15 to 20)
#    0.000    2.143    0.000    3.429    2.000    4.857 
#    0.000    4.286    0.000    0.000    0.000    0.000 
#    0.000    0.000    0.000    0.000    0.000    0.000 
#
# Total GULP energy -156301.653005 kJ/mol
# GULP energy per Si atom -5582.201893 kJ/mol
# Density = 2.014132 g / cm^3
# Si number density = 20.187270 Si / 1000 Ang^3
#
#
#
# Elastic Constant Matrix: (Units=GPa)
#
#
# Indices 1 2 3 4 5 6 
#
# 1 84.3930 22.0094 4.8512 -0.0003 1.2446 0.0002
# 2 22.0094 32.4037 10.6902 -0.0027 5.9726 0.0012
# 3 4.8512 10.6902 59.8145 -0.0030 2.8773 0.0004
# 4 -0.0003 -0.0027 -0.0030 27.6504 0.0005 -5.4795
# 5 1.2446 5.9726 2.8773 0.0005 34.5099 -0.0005
# 6 0.0002 0.0012 0.0004 -5.4795 -0.0005 19.3309
#
#
#
# Elastic Compliance Matrix: (Units=1/GPa)
#
#
# Indices 1 2 3 4 5 6 
#
# 1 0.014470 -0.010248 0.000600 -0.000001 0.001202 0.000000
# 2 -0.010248 0.041011 -0.006200 0.000003 -0.006211 -0.000002
# 3 0.000600 -0.006200 0.017799 0.000001 -0.000433 0.000000
# 4 -0.000001 0.000003 0.000001 0.038318 -0.000001 0.010862
# 5 0.001202 -0.006211 -0.000433 -0.000001 0.030045 0.000001
# 6 0.000000 -0.000002 0.000000 0.010862 0.000001 0.054810
#
#
# Mechanical properties :
#
#
# Convention : Reuss Voigt Hill
#
# Bulk Modulus (GPa) = 24.04712 27.96809 26.00760
# Shear Modulus (GPa) = 20.66042 25.56892 23.11467
#
# Velocity S-wave (km/s) = 3.20259 3.56277 3.38747
# Velocity P-wave (km/s) = 5.06096 5.55057 5.31141
#
# Compressibility (1/GPa) = 0.04158502
#
# Stress axis : x y z
#
# Youngs Moduli (GPa) = 69.11011 24.38348 56.18438
#
# Poissons Ratio (x) = 0.24987 -0.03372
# Poissons Ratio (y) = 0.70822 0.34833
# Poissons Ratio (z) = -0.04148 0.15117
#
# Static dielectric constant tensor:
#      x y z
#    x 1.741490 0.000000 -0.017840 
#    y 0.000000 1.676430 0.000000 
#    z -0.017840 0.000000 1.763240 
# 
# From -- ./inp_files/329451.got.cif
#   From: 2010.05.17/outbox.cif.g08.bks.cpg/sg12_165_cif.got.tgz:329451.got - 2010.06.03 13:09:07.
