data_PCOD9210976
_publ_section_title
;
Structure prediction by ZEFSAII (Michael W. Deem and Ramdas Pophale) SiO2 
 PCOD9210976
Probable space group: C 2/M
;
_chemical_formula_sum "Si O2"
_cell_formula_units_Z 48
_cell_length_a 20.457898
_cell_length_b 15.145285
_cell_length_c 25.834038
_cell_angle_alpha 90.000000
_cell_angle_beta 162.864445
_cell_angle_gamma 90.000000
_cell_volume 2358.374186
_symmetry_space_group_name_H-M "C 2/M"
_symmetry_group_IT_number 12
_symmetry_cell_setting 'monoclinic'
loop_
_space_group_symop_operation_xyz
x,y,z
-x,y,-z
-x,-y,-z
x,-y,z
1/2+x,1/2+y,z
1/2-x,1/2+y,-z
1/2-x,1/2-y,-z
1/2+x,1/2-y,z
loop_
_atom_site_type_symbol
_atom_site_label
_atom_site_fract_x
_atom_site_fract_y
_atom_site_fract_z
Si Si1 0.754344 0.721530 0.190525
Si Si2 0.567523 0.595527 0.302316
Si Si3 0.007137 0.728893 0.203790
Si Si4 0.036921 0.602750 0.325111
Si Si5 0.226777 0.171691 0.695571
Si Si6 0.662416 0.095881 0.062991
O O1 0.825038 0.750127 0.302102
O O2 0.740001 0.816040 0.150527
O O3 0.899657 0.655502 0.265694
O O4 0.500000 0.687984 0.000000
O O5 0.621924 0.500000 0.319714
O O6 0.617620 0.680898 0.307443
O O7 0.710475 0.602289 0.462995
O O8 0.309093 0.596474 0.121876
O O9 0.022988 0.655349 0.260788
O O10 0.128657 0.704553 0.243245
O O11 0.750000 0.750000 0.000000
O O12 0.966598 0.500000 0.267227
O O13 0.000000 0.135040 0.500000
O O14 0.400828 0.106503 0.855064
O O15 0.709943 0.000000 0.122860
#
# Coordination Sequence:
#
# PCOD9210976 Si02
#       6
#     8   8   8   8   8   8
#     4  10  21  42  63  88 123 168 207 255 315 381
#     4  10  21  39  65  91 118 159 213 263 306 364
#     4  12  22  41  65  93 129 166 207 267 319 375
#     4  11  24  41  67  95 121 166 222 264 304 374
#     4  11  24  37  60  93 130 166 204 257 326 377
#     4  10  21  40  62  86 119 165 212 251 305 375
#
# _framework density 20.353003999999999
#
# number of rings (size 3 to 8) (size 9 to 14) (size 15 to 20)
#    0.000    1.333    3.333    2.500    2.333    5.000 
#    0.000    0.833    0.000    3.000    0.000    0.000 
#    0.000    0.000    0.000    0.000    0.000    0.000 
#
# Total GULP energy -133887.075928 kJ/mol
# GULP energy per Si atom -5578.628164 kJ/mol
# Density = 2.030668 g / cm^3
# Si number density = 20.353004 Si / 1000 Ang^3
#
#
#
# Elastic Constant Matrix: (Units=GPa)
#
#
# Indices 1 2 3 4 5 6 
#
# 1 100.5999 61.3873 4.3690 -0.0050 -9.7278 -0.0012
# 2 61.3873 159.0928 38.6514 0.0092 -12.8734 -0.0087
# 3 4.3690 38.6514 70.0060 0.0300 5.3349 0.0120
# 4 -0.0050 0.0092 0.0300 26.3857 -0.0176 2.2180
# 5 -9.7278 -12.8734 5.3349 -0.0176 24.8590 -0.0040
# 6 -0.0012 -0.0087 0.0120 2.2180 -0.0040 -3.0678
#
#
#
# Elastic Compliance Matrix: (Units=1/GPa)
#
#
# Indices 1 2 3 4 5 6 
#
# 1 0.013405 -0.005515 0.002060 0.000002 0.001947 0.000017
# 2 -0.005515 0.010111 -0.005564 0.000009 0.004272 -0.000048
# 3 0.002060 -0.005564 0.017675 -0.000028 -0.005868 0.000072
# 4 0.000002 0.000009 -0.000028 0.035728 0.000041 0.025831
# 5 0.001947 0.004272 -0.005868 0.000041 0.044460 -0.000064
# 6 0.000017 -0.000048 0.000072 0.025831 -0.000064 -0.307286
#
#
# Mechanical properties :
#
#
# Convention : Reuss Voigt Hill
#
# Bulk Modulus (GPa) = 43.19138 59.83493 51.51315
# Shear Modulus (GPa) = -31.22054 24.65479 -3.28287
#
# Velocity S-wave (km/s) = -3.92082 3.48423 -1.27140
# Velocity P-wave (km/s) = 0.87755 6.75640 4.81762
#
# Compressibility (1/GPa) = 0.02315277
#
# Stress axis : x y z
#
# Youngs Moduli (GPa) = 74.60096 98.90081 56.57703
#
# Poissons Ratio (x) = 0.54546 -0.11655
# Poissons Ratio (y) = 0.41144 0.31479
# Poissons Ratio (z) = -0.15368 0.55027
#
# Static dielectric constant tensor:
#      x y z
#    x 1.746950 0.000000 -0.018940 
#    y 0.000000 1.717950 -0.000050 
#    z -0.018940 -0.000050 1.782810 
# 
# From -- ./inp_files/347542.got.cif
#   From: 2010.05.17/outbox.cif.g08.bks.cpg/sg12_174_cif.got.tgz:347542.got - 2010.06.03 13:09:07.
