data_PCOD9210025
_publ_section_title
;
Structure prediction by ZEFSAII (Michael W. Deem and Ramdas Pophale) SiO2 
 PCOD9210025
Probable space group: C 2/M
;
_chemical_formula_sum "Si O2"
_cell_formula_units_Z 40
_cell_length_a 15.665417
_cell_length_b 23.857046
_cell_length_c 8.792800
_cell_angle_alpha 90.000000
_cell_angle_beta 146.690486
_cell_angle_gamma 90.000000
_cell_volume 1804.620896
_symmetry_space_group_name_H-M "C 2/M"
_symmetry_group_IT_number 12
_symmetry_cell_setting 'monoclinic'
loop_
_space_group_symop_operation_xyz
x,y,z
-x,y,-z
-x,-y,-z
x,-y,z
1/2+x,1/2+y,z
1/2-x,1/2+y,-z
1/2-x,1/2-y,-z
1/2+x,1/2-y,z
loop_
_atom_site_type_symbol
_atom_site_label
_atom_site_fract_x
_atom_site_fract_y
_atom_site_fract_z
Si Si1 0.147577 0.776072 0.479306
Si Si2 0.654145 0.935337 0.141053
Si Si3 0.311920 0.344756 0.188435
Si Si4 0.358568 0.612257 0.699214
Si Si5 0.143687 0.334819 0.632466
O O1 0.250000 0.750000 0.500000
O O2 0.243606 0.802462 0.762074
O O3 0.079826 0.830735 0.292700
O O4 0.073319 0.722056 0.451006
O O5 0.719721 0.901089 0.095309
O O6 0.787853 0.927010 0.466101
O O7 0.626771 0.000000 0.062656
O O8 0.500000 0.913231 0.000000
O O9 0.500000 0.348385 0.500000
O O10 0.265235 0.324913 0.951489
O O11 0.227745 0.631109 0.624845
O O12 0.500000 0.586036 0.000000
O O13 0.000000 0.364611 0.500000
#
# Coordination Sequence:
#
# PCOD9210025 Si02
#       5
#     8   8   8   8   8
#     4   9  20  35  54  81 117 158 192 225 274 339
#     4  10  22  42  64  84 111 151 195 239 295 358
#     4  11  22  38  58  85 119 151 192 245 294 338
#     4  10  21  39  59  83 116 153 193 235 282 343
#     4  11  21  34  56  85 115 149 191 235 282 332
#
# _framework density 22.165320000000001
#
# number of rings (size 3 to 8) (size 9 to 14) (size 15 to 20)
#    0.000    1.800    0.000    4.800    0.000    4.000 
#    0.000   17.000    0.000    3.600    0.000    0.000 
#    0.000    0.000    0.000    0.000    0.000    0.000 
#
# Total GULP energy -111466.122372 kJ/mol
# GULP energy per Si atom -5573.306119 kJ/mol
# Density = 2.211487 g / cm^3
# Si number density = 22.165320 Si / 1000 Ang^3
#
#
#
# Elastic Constant Matrix: (Units=GPa)
#
#
# Indices 1 2 3 4 5 6 
#
# 1 133.6428 23.6247 21.6219 0.0000 -7.9517 0.0000
# 2 23.6247 39.2702 -6.0155 0.0000 1.0991 0.0000
# 3 21.6219 -6.0155 91.6255 0.0000 -3.8675 0.0000
# 4 0.0000 0.0000 0.0000 3.7559 0.0000 -6.0290
# 5 -7.9517 1.0991 -3.8675 0.0000 41.4811 0.0000
# 6 0.0000 0.0000 0.0000 -6.0290 0.0000 22.8303
#
#
#
# Elastic Compliance Matrix: (Units=1/GPa)
#
#
# Indices 1 2 3 4 5 6 
#
# 1 0.009008 -0.005839 -0.002439 0.000000 0.001654 0.000000
# 2 -0.005839 0.029520 0.003248 0.000000 -0.001599 0.000000
# 3 -0.002439 0.003248 0.011726 0.000000 0.000540 0.000000
# 4 0.000000 0.000000 0.000000 0.462162 0.000000 0.122046
# 5 0.001654 -0.001599 0.000540 0.000000 0.024517 0.000000
# 6 0.000000 0.000000 0.000000 0.122046 0.000000 0.076031
#
#
# Mechanical properties :
#
#
# Convention : Reuss Voigt Hill
#
# Bulk Modulus (GPa) = 24.87953 38.11119 31.49536
# Shear Modulus (GPa) = 7.85644 28.63394 18.24519
#
# Velocity S-wave (km/s) = 1.88472 3.59811 2.87216
# Velocity P-wave (km/s) = 3.99814 5.87310 5.02386
#
# Compressibility (1/GPa) = 0.04019368
#
# Stress axis : x y z
#
# Youngs Moduli (GPa) = 111.01401 33.87573 85.28308
#
# Poissons Ratio (x) = 0.19780 0.20802
# Poissons Ratio (y) = 0.64821 -0.27704
# Poissons Ratio (z) = 0.27079 -0.11004
#
# Static dielectric constant tensor:
#      x y z
#    x 1.860920 0.000000 0.024030 
#    y 0.000000 1.855710 0.000000 
#    z 0.024030 0.000000 1.851260 
# 
# From -- ./inp_files/79313.got.cif
#   From: 2010.05.17/outbox.cif.g08.bks.cpg/sg12_40_cif.got.tgz:79313.got - 2010.06.03 13:09:07.
