data_PCOD9210590
_publ_section_title
;
Structure prediction by ZEFSAII (Michael W. Deem and Ramdas Pophale) SiO2 
 PCOD9210590
Probable space group: C 2/M
;
_chemical_formula_sum "Si O2"
_cell_formula_units_Z 28
_cell_length_a 5.093152
_cell_length_b 13.389345
_cell_length_c 20.507112
_cell_angle_alpha 90.000000
_cell_angle_beta 113.505633
_cell_angle_gamma 90.000000
_cell_volume 1282.418254
_symmetry_space_group_name_H-M "C 2/M"
_symmetry_group_IT_number 12
_symmetry_cell_setting 'monoclinic'
loop_
_space_group_symop_operation_xyz
x,y,z
-x,y,-z
-x,-y,-z
x,-y,z
1/2+x,1/2+y,z
1/2-x,1/2+y,-z
1/2-x,1/2-y,-z
1/2+x,1/2-y,z
loop_
_atom_site_type_symbol
_atom_site_label
_atom_site_fract_x
_atom_site_fract_y
_atom_site_fract_z
Si Si1 0.133930 0.808615 0.206210
Si Si2 0.000000 0.823092 0.500000
Si Si3 0.240306 0.000000 0.612105
Si Si4 0.388288 0.500000 0.704304
Si Si5 0.316660 0.616668 0.047560
O O1 0.459547 0.780402 0.223355
O O2 0.105957 0.903778 0.249181
O O3 0.972661 0.829323 0.122166
O O4 0.250000 0.750000 0.500000
O O5 0.113658 0.899953 0.566348
O O6 0.581859 0.000000 0.637627
O O7 0.142707 0.000000 0.677440
O O8 0.284786 0.500000 0.064143
O O9 0.500000 0.618849 0.000000
O O10 0.000000 0.655556 0.000000
#
# Coordination Sequence:
#
# PCOD9210590 Si02
#       5
#     8   4   4   4   8
#     4  12  26  42  65  94 127 174 223 271 332 391
#     4  11  24  45  74 108 138 167 218 267 308 376
#     4  11  26  44  72 101 136 181 210 259 326 371
#     4  12  26  47  64  97 142 173 220 265 312 393
#     4  10  21  39  63  88 121 164 215 279 340 387
#
# _framework density 21.833749999999998
#
# number of rings (size 3 to 8) (size 9 to 14) (size 15 to 20)
#    0.000    0.857    1.429    5.143    0.000   12.571 
#    0.000    0.000    0.000    0.000    0.000    0.000 
#    0.000    0.000    0.000    0.000    0.000    0.000 
#
# Total GULP energy -78431.238187 kJ/mol
# GULP energy per Si atom -5602.231299 kJ/mol
# Density = 2.178406 g / cm^3
# Si number density = 21.833750 Si / 1000 Ang^3
#
#
#
# Elastic Constant Matrix: (Units=GPa)
#
#
# Indices 1 2 3 4 5 6 
#
# 1 91.9030 8.2369 0.4031 0.0000 5.6942 0.0000
# 2 8.2369 118.7074 27.9759 0.0000 -6.2682 0.0000
# 3 0.4031 27.9759 58.3798 0.0000 -7.8189 0.0000
# 4 0.0000 0.0000 0.0000 10.3679 0.0000 20.6918
# 5 5.6942 -6.2682 -7.8189 0.0000 34.0159 0.0000
# 6 0.0000 0.0000 0.0000 20.6918 0.0000 65.9881
#
#
#
# Elastic Compliance Matrix: (Units=1/GPa)
#
#
# Indices 1 2 3 4 5 6 
#
# 1 0.011085 -0.000895 0.000084 0.000000 -0.002001 0.000000
# 2 -0.000895 0.009586 -0.004468 0.000000 0.000889 0.000000
# 3 0.000084 -0.004468 0.019766 0.000000 0.003706 0.000000
# 4 0.000000 0.000000 0.000000 0.257758 0.000000 -0.080825
# 5 -0.002001 0.000889 0.003706 0.000000 0.030749 0.000000
# 6 0.000000 0.000000 0.000000 -0.080825 0.000000 0.040498
#
#
# Mechanical properties :
#
#
# Convention : Reuss Voigt Hill
#
# Bulk Modulus (GPa) = 33.46789 38.02466 35.74627
# Shear Modulus (GPa) = 12.82184 37.56599 25.19391
#
# Velocity S-wave (km/s) = 2.42595 4.15245 3.40059
# Velocity P-wave (km/s) = 4.81755 6.35954 5.64148
#
# Compressibility (1/GPa) = 0.02987939
#
# Stress axis : x y z
#
# Youngs Moduli (GPa) = 90.21330 104.31671 50.59119
#
# Poissons Ratio (x) = 0.09333 -0.00426
# Poissons Ratio (y) = 0.08071 0.22607
# Poissons Ratio (z) = -0.00759 0.46614
#
# Static dielectric constant tensor:
#      x y z
#    x 1.760470 0.000000 0.005910 
#    y 0.000000 1.800480 0.000000 
#    z 0.005910 0.000000 1.762590 
# 
# From -- ./inp_files/252273.got.cif
#   From: 2010.05.17/outbox.cif.g08.bks.cpg/sg12_127_cif.got.tgz:252273.got - 2010.06.03 13:09:07.
