data_PCOD9210591
_publ_section_title
;
Structure prediction by ZEFSAII (Michael W. Deem and Ramdas Pophale) SiO2 
 PCOD9210591
Probable space group: C 2/M
;
_chemical_formula_sum "Si O2"
_cell_formula_units_Z 56
_cell_length_a 17.421757
_cell_length_b 17.086152
_cell_length_c 9.698341
_cell_angle_alpha 90.000000
_cell_angle_beta 67.059503
_cell_angle_gamma 90.000000
_cell_volume 2658.587281
_symmetry_space_group_name_H-M "C 2/M"
_symmetry_group_IT_number 12
_symmetry_cell_setting 'monoclinic'
loop_
_space_group_symop_operation_xyz
x,y,z
-x,y,-z
-x,-y,-z
x,-y,z
1/2+x,1/2+y,z
1/2-x,1/2+y,-z
1/2-x,1/2-y,-z
1/2+x,1/2-y,z
loop_
_atom_site_type_symbol
_atom_site_label
_atom_site_fract_x
_atom_site_fract_y
_atom_site_fract_z
Si Si1 0.078800 0.667563 0.697949
Si Si2 0.081274 0.590910 0.106403
Si Si3 0.291868 0.815236 0.174174
Si Si4 0.646135 0.588937 0.149716
Si Si5 0.304851 0.371651 0.190225
Si Si6 0.125691 0.588117 0.395055
Si Si7 0.975662 0.837010 0.176874
O O1 0.169597 0.663584 0.704425
O O2 0.085382 0.643566 0.535670
O O3 0.043573 0.754635 0.739352
O O4 0.016130 0.612684 0.829041
O O5 0.096640 0.500000 0.059353
O O6 0.101389 0.602201 0.254194
O O7 0.140990 0.648753 0.980298
O O8 0.203547 0.853492 0.199698
O O9 0.292109 0.721203 0.168750
O O10 0.649069 0.500000 0.199247
O O11 0.551775 0.619192 0.196116
O O12 0.683827 0.590468 0.967944
O O13 0.225046 0.402894 0.324655
O O14 0.388712 0.382469 0.220112
O O15 0.101332 0.500000 0.449837
O O16 0.000000 0.820490 0.000000
#
# Coordination Sequence:
#
# PCOD9210591 Si02
#       7
#     8   8   8   8   8   8   8
#     4  11  23  40  60  88 124 163 201 245 301 363
#     4  11  22  38  59  89 123 155 199 252 301 353
#     4  11  23  38  63  92 123 157 204 250 301 364
#     4  11  21  36  61  95 125 155 200 256 311 355
#     4  10  21  39  63  88 122 159 206 248 299 354
#     4  11  24  39  61  91 122 159 201 246 300 362
#     4   9  21  38  61  91 118 155 210 254 294 354
#
# _framework density 21.06382
#
# number of rings (size 3 to 8) (size 9 to 14) (size 15 to 20)
#    0.000    1.429    1.429    5.143    2.000    9.429 
#    0.000    0.000    0.000    0.000    0.000    3.000 
#    0.000    0.000    0.000    0.000    0.000    0.000 
#
# Total GULP energy -156588.443677 kJ/mol
# GULP energy per Si atom -5592.444417 kJ/mol
# Density = 2.101588 g / cm^3
# Si number density = 21.063820 Si / 1000 Ang^3
#
#
#
# Elastic Constant Matrix: (Units=GPa)
#
#
# Indices 1 2 3 4 5 6 
#
# 1 137.5198 33.3395 3.5864 0.0000 -2.8014 0.0000
# 2 33.3395 70.4017 10.8378 0.0000 13.4842 0.0000
# 3 3.5864 10.8378 16.9233 0.0000 -1.3002 0.0000
# 4 0.0000 0.0000 0.0000 26.5837 0.0000 7.7722
# 5 -2.8014 13.4842 -1.3002 0.0000 24.8698 0.0000
# 6 0.0000 0.0000 0.0000 7.7722 0.0000 7.6891
#
#
#
# Elastic Compliance Matrix: (Units=1/GPa)
#
#
# Indices 1 2 3 4 5 6 
#
# 1 0.008521 -0.005018 0.001698 0.000000 0.003770 0.000000
# 2 -0.005018 0.021076 -0.013409 0.000000 -0.012694 0.000000
# 3 0.001698 -0.013409 0.068165 0.000000 0.011025 0.000000
# 4 0.000000 0.000000 0.000000 0.053397 0.000000 -0.053974
# 5 0.003770 -0.012694 0.011025 0.000000 0.048093 0.000000
# 6 0.000000 0.000000 0.000000 -0.053974 0.000000 0.184612
#
#
# Mechanical properties :
#
#
# Convention : Reuss Voigt Hill
#
# Bulk Modulus (GPa) = 15.55161 35.59691 25.57426
# Shear Modulus (GPa) = 11.39581 23.63393 17.51487
#
# Velocity S-wave (km/s) = 2.32849 3.35328 2.88673
# Velocity P-wave (km/s) = 3.82469 5.65057 4.82479
#
# Compressibility (1/GPa) = 0.06430203
#
# Stress axis : x y z
#
# Youngs Moduli (GPa) = 117.35929 47.44680 14.67037
#
# Poissons Ratio (x) = 0.23811 -0.02491
# Poissons Ratio (y) = 0.58897 0.19672
# Poissons Ratio (z) = -0.19924 0.63622
#
# Static dielectric constant tensor:
#      x y z
#    x 1.816750 0.000000 0.010120 
#    y 0.000000 1.731500 0.000000 
#    z 0.010120 0.000000 1.722340 
# 
# From -- ./inp_files/75860.got.cif
#   From: 2010.05.17/outbox.cif.g08.bks.cpg/sg12_38_cif.got.tgz:75860.got - 2010.06.03 13:09:07.
