data_PCOD9210154
_publ_section_title
;
Structure prediction by ZEFSAII (Michael W. Deem and Ramdas Pophale) SiO2 
 PCOD9210154
Probable space group: C 2/M
;
_chemical_formula_sum "Si O2"
_cell_formula_units_Z 60
_cell_length_a 27.160156
_cell_length_b 16.937416
_cell_length_c 5.733759
_cell_angle_alpha 90.000000
_cell_angle_beta 99.621380
_cell_angle_gamma 90.000000
_cell_volume 2600.558200
_symmetry_space_group_name_H-M "C 2/M"
_symmetry_group_IT_number 12
_symmetry_cell_setting 'monoclinic'
loop_
_space_group_symop_operation_xyz
x,y,z
-x,y,-z
-x,-y,-z
x,-y,z
1/2+x,1/2+y,z
1/2-x,1/2+y,-z
1/2-x,1/2-y,-z
1/2+x,1/2-y,z
loop_
_atom_site_type_symbol
_atom_site_label
_atom_site_fract_x
_atom_site_fract_y
_atom_site_fract_z
Si Si1 0.661487 0.412353 0.602039
Si Si2 0.686483 0.094336 0.697271
Si Si3 0.940670 0.086164 0.178669
Si Si4 0.500000 0.281409 0.500000
Si Si5 0.356028 0.091883 0.828106
Si Si6 0.120897 0.820349 0.166552
Si Si7 0.223831 0.834358 0.003681
Si Si8 0.551779 0.178934 0.175867
O O1 0.667197 0.500000 0.495991
O O2 0.611035 0.418628 0.717785
O O3 0.647041 0.339359 0.428596
O O4 0.713122 0.390083 0.772580
O O5 0.668440 0.127260 0.430470
O O6 0.743741 0.117404 0.785537
O O7 0.679695 0.000000 0.681608
O O8 0.659708 0.120871 0.922609
O O9 0.973894 0.157993 0.299841
O O10 0.965027 0.000000 0.205616
O O11 0.919487 0.110079 0.908988
O O12 0.538820 0.221800 0.409240
O O13 0.415048 0.101200 0.819106
O O14 0.342179 0.000000 0.822955
O O15 0.167509 0.819364 0.034121
O O16 0.090137 0.742038 0.101020
O O17 0.250000 0.750000 0.000000
O O18 0.500000 0.172190 0.000000
#
# Coordination Sequence:
#
# PCOD9210154 Si02
#       8
#     8   8   8   4   8   8   8   8
#     4  10  22  39  59  86 125 169 213 269 327 396
#     4  10  23  46  72 103 141 184 231 287 352 424
#     4  10  21  39  60  88 125 168 220 276 330 400
#     4  12  23  40  61  96 126 176 230 278 349 412
#     4  10  25  47  74 104 140 183 234 292 360 427
#     4  11  23  41  62  94 131 172 228 276 345 409
#     4  11  25  39  65  97 132 173 223 278 342 420
#     4  12  26  43  70  95 136 181 228 295 351 417
#
# _framework density 23.071968999999999
#
# number of rings (size 3 to 8) (size 9 to 14) (size 15 to 20)
#    0.000    1.333    2.667    1.800    5.600    2.400 
#    0.000    1.000    0.000    0.000    0.000    0.000 
#    0.000    0.000    0.000    0.000    0.000    0.000 
#
# Total GULP energy -167225.332562 kJ/mol
# GULP energy per Si atom -5574.177752 kJ/mol
# Density = 2.301946 g / cm^3
# Si number density = 23.071969 Si / 1000 Ang^3
#
#
#
# Elastic Constant Matrix: (Units=GPa)
#
#
# Indices 1 2 3 4 5 6 
#
# 1 80.3665 4.4400 24.8575 0.0000 2.4141 0.0000
# 2 4.4400 26.6319 2.9854 0.0000 -9.9103 0.0000
# 3 24.8575 2.9854 73.0878 0.0000 14.1920 0.0000
# 4 0.0000 0.0000 0.0000 13.2599 0.0000 9.4061
# 5 2.4141 -9.9103 14.1920 0.0000 35.9381 0.0000
# 6 0.0000 0.0000 0.0000 9.4061 0.0000 25.5197
#
#
#
# Elastic Compliance Matrix: (Units=1/GPa)
#
#
# Indices 1 2 3 4 5 6 
#
# 1 0.013999 -0.001607 -0.004795 0.000000 0.000510 0.000000
# 2 -0.001607 0.043300 -0.003857 0.000000 0.013572 0.000000
# 3 -0.004795 -0.003857 0.016911 0.000000 -0.007420 0.000000
# 4 0.000000 0.000000 0.000000 0.102114 0.000000 -0.037637
# 5 0.000510 0.013572 -0.007420 0.000000 0.034464 0.000000
# 6 0.000000 0.000000 0.000000 -0.037637 0.000000 0.053058
#
#
# Mechanical properties :
#
#
# Convention : Reuss Voigt Hill
#
# Bulk Modulus (GPa) = 18.62460 27.18355 22.90407
# Shear Modulus (GPa) = 16.54201 24.79710 20.66955
#
# Velocity S-wave (km/s) = 2.68054 3.28193 2.99636
# Velocity P-wave (km/s) = 4.20361 5.11557 4.68185
#
# Compressibility (1/GPa) = 0.05369243
#
# Stress axis : x y z
#
# Youngs Moduli (GPa) = 71.43139 23.09493 59.13231
#
# Poissons Ratio (x) = 0.03711 0.28352
# Poissons Ratio (y) = 0.11477 0.22810
# Poissons Ratio (z) = 0.34249 0.08909
#
# Static dielectric constant tensor:
#      x y z
#    x 1.861000 0.000000 -0.052700 
#    y 0.000000 1.912230 0.000000 
#    z -0.052700 0.000000 1.951970 
# 
# From -- ./inp_files/32089.got.cif
#   From: 2010.05.17/outbox.cif.g08.bks.cpg/sg12_17_cif.got.tgz:32089.got - 2010.06.03 13:09:07.
