data_PCOD9210140
_publ_section_title
;
Structure prediction by ZEFSAII (Michael W. Deem and Ramdas Pophale) SiO2 
 PCOD9210140
Probable space group: C 2/M
;
_chemical_formula_sum "Si O2"
_cell_formula_units_Z 40
_cell_length_a 9.481143
_cell_length_b 15.564276
_cell_length_c 14.340253
_cell_angle_alpha 90.000000
_cell_angle_beta 62.642993
_cell_angle_gamma 90.000000
_cell_volume 1879.480683
_symmetry_space_group_name_H-M "C 2/M"
_symmetry_group_IT_number 12
_symmetry_cell_setting 'monoclinic'
loop_
_space_group_symop_operation_xyz
x,y,z
-x,y,-z
-x,-y,-z
x,-y,z
1/2+x,1/2+y,z
1/2-x,1/2+y,-z
1/2-x,1/2-y,-z
1/2+x,1/2-y,z
loop_
_atom_site_type_symbol
_atom_site_label
_atom_site_fract_x
_atom_site_fract_y
_atom_site_fract_z
Si Si1 0.030175 0.851020 0.846276
Si Si2 0.066974 0.728242 0.572595
Si Si3 0.424396 0.839154 0.224477
Si Si4 0.243201 0.902791 0.950144
Si Si5 0.421196 0.594200 0.680562
O O1 0.002317 0.897403 0.757139
O O2 0.101564 0.757276 0.805633
O O3 0.144505 0.898270 0.883701
O O4 0.857476 0.844848 0.947942
O O5 0.250000 0.750000 0.500000
O O6 0.046599 0.674131 0.673463
O O7 0.000000 0.684263 0.500000
O O8 0.978447 0.819909 0.610938
O O9 0.579052 0.875138 0.126288
O O10 0.268529 0.894917 0.254408
O O11 0.238646 0.000000 0.988005
O O12 0.458761 0.500000 0.629329
#
# Coordination Sequence:
#
# PCOD9210140 Si02
#       5
#     8   8   8   8   8
#     4  10  21  39  60  86 123 166 200 236 295 361
#     4  11  23  44  65  88 118 159 201 246 303 367
#     4  11  23  39  63  89 120 157 205 246 296 361
#     4  11  22  38  59  89 126 161 199 248 296 350
#     4  11  23  40  63  93 122 154 198 254 303 349
#
# _framework density 21.282475000000002
#
# number of rings (size 3 to 8) (size 9 to 14) (size 15 to 20)
#    0.000    1.200    2.000    6.000    2.800    2.800 
#    0.000    2.000    0.000    3.000    0.000    0.000 
#    0.000    0.000    0.000    0.000    0.000    0.000 
#
# Total GULP energy -111814.762996 kJ/mol
# GULP energy per Si atom -5590.738150 kJ/mol
# Density = 2.123404 g / cm^3
# Si number density = 21.282475 Si / 1000 Ang^3
#
#
#
# Elastic Constant Matrix: (Units=GPa)
#
#
# Indices 1 2 3 4 5 6 
#
# 1 42.3133 -5.7155 -15.5452 0.0000 -17.5594 0.0000
# 2 -5.7155 69.3238 -7.8263 0.0000 3.8823 0.0000
# 3 -15.5452 -7.8263 41.1725 0.0000 0.0630 0.0000
# 4 0.0000 0.0000 0.0000 2.0831 0.0000 -0.0359
# 5 -17.5594 3.8823 0.0630 0.0000 42.9120 0.0000
# 6 0.0000 0.0000 0.0000 -0.0359 0.0000 6.7699
#
#
#
# Elastic Compliance Matrix: (Units=1/GPa)
#
#
# Indices 1 2 3 4 5 6 
#
# 1 0.035044 0.003676 0.013909 0.000000 0.013987 0.000000
# 2 0.003676 0.015204 0.004278 0.000000 0.000122 0.000000
# 3 0.013909 0.004278 0.030345 0.000000 0.005260 0.000000
# 4 0.000000 0.000000 0.000000 0.480098 0.000000 0.002549
# 5 0.013987 0.000122 0.005260 0.000000 0.029008 0.000000
# 6 0.000000 0.000000 0.000000 0.002549 0.000000 0.147726
#
#
# Mechanical properties :
#
#
# Convention : Reuss Voigt Hill
#
# Bulk Modulus (GPa) = 8.04388 10.51507 9.27947
# Shear Modulus (GPa) = 6.80143 22.47945 14.64044
#
# Velocity S-wave (km/s) = 1.78962 3.25351 2.62565
# Velocity P-wave (km/s) = 2.83868 4.36638 3.68262
#
# Compressibility (1/GPa) = 0.12431808
#
# Stress axis : x y z
#
# Youngs Moduli (GPa) = 28.53562 65.77110 32.95487
#
# Poissons Ratio (x) = -0.24179 -0.45836
# Poissons Ratio (y) = -0.10490 -0.14098
# Poissons Ratio (z) = -0.39689 -0.28136
#
# Static dielectric constant tensor:
#      x y z
#    x 1.760800 0.000000 0.005050 
#    y 0.000000 1.765430 0.000000 
#    z 0.005050 0.000000 1.770120 
# 
# From -- ./inp_files/194420.got.cif
#   From: 2010.05.17/outbox.cif.g08.bks.cpg/sg12_98_cif.got.tgz:194420.got - 2010.06.03 13:09:07.
