data_PCOD9210546
_publ_section_title
;
Structure prediction by ZEFSAII (Michael W. Deem and Ramdas Pophale) SiO2 
 PCOD9210546
Probable space group: C 2/M
;
_chemical_formula_sum "Si O2"
_cell_formula_units_Z 48
_cell_length_a 9.759190
_cell_length_b 16.535582
_cell_length_c 17.003370
_cell_angle_alpha 90.000000
_cell_angle_beta 90.000000
_cell_angle_gamma 90.000000
_cell_volume 2743.899900
_symmetry_space_group_name_H-M "C 2/M"
_symmetry_group_IT_number 12
_symmetry_cell_setting 'monoclinic'
loop_
_space_group_symop_operation_xyz
x,y,z
-x,y,-z
-x,-y,-z
x,-y,z
1/2+x,1/2+y,z
1/2-x,1/2+y,-z
1/2-x,1/2-y,-z
1/2+x,1/2-y,z
loop_
_atom_site_type_symbol
_atom_site_label
_atom_site_fract_x
_atom_site_fract_y
_atom_site_fract_z
Si Si1 0.372891 0.279749 0.554778
Si Si2 0.737101 0.904822 0.182113
Si Si3 0.762899 0.904822 0.682113
Si Si4 0.967675 0.828285 0.803566
Si Si5 0.467675 0.171715 0.696434
Si Si6 0.627109 0.779749 0.054778
O O1 0.500000 0.303014 0.500000
O O2 0.250000 0.250000 0.500000
O O3 0.323712 0.352930 0.610003
O O4 0.419555 0.207655 0.613247
O O5 0.654064 0.874825 0.259016
O O6 0.676288 0.852930 0.110003
O O7 0.896617 0.881746 0.189754
O O8 0.719576 0.000000 0.171320
O O9 0.845936 0.874825 0.759016
O O10 0.603383 0.881746 0.689754
O O11 0.780424 0.000000 0.671320
O O12 0.002882 0.750000 0.750000
O O13 0.919555 0.792345 0.886753
O O14 0.500000 0.803014 0.000000
O O15 0.750000 0.750000 0.000000
#
# Coordination Sequence:
#
# PCOD9210546 Si02
#       6
#     8   8   8   8   8   8
#     4  11  22  40  64  87 116 158 202 239 289 360
#     4  11  23  39  60  90 120 152 197 249 296 341
#     4  11  23  39  60  90 120 152 197 249 296 341
#     4  10  21  39  63  84 116 160 201 236 285 362
#     4  10  21  39  63  84 116 160 201 236 285 362
#     4  11  22  40  64  87 116 158 202 239 289 360
#
# _framework density 17.49335
#
# number of rings (size 3 to 8) (size 9 to 14) (size 15 to 20)
#    0.000    1.333    3.333    4.000    4.667    0.667 
#    0.000    5.000    0.000    0.000    0.000    0.000 
#    0.000    0.000    0.000    0.000    0.000    0.000 
#
# Total GULP energy -134084.054382 kJ/mol
# GULP energy per Si atom -5586.835599 kJ/mol
# Density = 1.745353 g / cm^3
# Si number density = 17.493350 Si / 1000 Ang^3
#
#
#
# Elastic Constant Matrix: (Units=GPa)
#
#
# Indices 1 2 3 4 5 6 
#
# 1 118.7573 47.1994 57.1956 0.0000 0.0000 0.0000
# 2 47.1994 117.1684 38.0328 0.0000 0.0000 0.0000
# 3 57.1956 38.0328 108.1507 0.0000 0.0000 0.0000
# 4 0.0000 0.0000 0.0000 8.6246 0.0000 0.0000
# 5 0.0000 0.0000 0.0000 0.0000 36.3700 0.0000
# 6 0.0000 0.0000 0.0000 0.0000 0.0000 20.5113
#
#
#
# Elastic Compliance Matrix: (Units=1/GPa)
#
#
# Indices 1 2 3 4 5 6 
#
# 1 0.012279 -0.003204 -0.005367 0.000000 0.000000 0.000000
# 2 -0.003204 0.010471 -0.001988 0.000000 0.000000 0.000000
# 3 -0.005367 -0.001988 0.012784 0.000000 0.000000 0.000000
# 4 0.000000 0.000000 0.000000 0.115948 0.000000 0.000000
# 5 0.000000 0.000000 0.000000 0.000000 0.027495 0.000000
# 6 0.000000 0.000000 0.000000 0.000000 0.000000 0.048754
#
#
# Mechanical properties :
#
#
# Convention : Reuss Voigt Hill
#
# Bulk Modulus (GPa) = 69.36881 69.88133 69.62507
# Shear Modulus (GPa) = 19.71204 26.54444 23.12824
#
# Velocity S-wave (km/s) = 3.36047 3.89961 3.64004
# Velocity P-wave (km/s) = 7.40253 7.76595 7.58642
#
# Compressibility (1/GPa) = 0.01441570
#
# Stress axis : x y z
#
# Youngs Moduli (GPa) = 81.44117 95.50485 78.22531
#
# Poissons Ratio (x) = 0.30602 0.41982
# Poissons Ratio (y) = 0.26096 0.15548
# Poissons Ratio (z) = 0.43708 0.18983
#
# Static dielectric constant tensor:
#      x y z
#    x 1.591340 0.000000 0.000000 
#    y 0.000000 1.555240 0.000000 
#    z 0.000000 0.000000 1.585870 
# 
# From -- ./inp_files/195959.got.cif
#   From: 2010.05.17/outbox.cif.g08.bks.cpg/sg12_98_cif.got.tgz:195959.got - 2010.06.03 13:09:07.
