data_PCOD9210803
_publ_section_title
;
Structure prediction by ZEFSAII (Michael W. Deem and Ramdas Pophale) SiO2 
 PCOD9210803
Probable space group: C 2/M
;
_chemical_formula_sum "Si O2"
_cell_formula_units_Z 36
_cell_length_a 14.241524
_cell_length_b 16.745023
_cell_length_c 6.815383
_cell_angle_alpha 90.000000
_cell_angle_beta 60.188978
_cell_angle_gamma 90.000000
_cell_volume 1410.220358
_symmetry_space_group_name_H-M "C 2/M"
_symmetry_group_IT_number 12
_symmetry_cell_setting 'monoclinic'
loop_
_space_group_symop_operation_xyz
x,y,z
-x,y,-z
-x,-y,-z
x,-y,z
1/2+x,1/2+y,z
1/2-x,1/2+y,-z
1/2-x,1/2-y,-z
1/2+x,1/2-y,z
loop_
_atom_site_type_symbol
_atom_site_label
_atom_site_fract_x
_atom_site_fract_y
_atom_site_fract_z
Si Si1 0.983936 0.163177 0.786436
Si Si2 0.076732 0.500000 0.225849
Si Si3 0.401333 0.500000 0.750870
Si Si4 0.693867 0.000000 0.696256
Si Si5 0.593372 0.829237 0.077383
Si Si6 0.730177 0.334841 0.419212
O O1 0.101261 0.150342 0.563643
O O2 0.913227 0.083091 0.849789
O O3 0.933937 0.248030 0.779474
O O4 0.000000 0.174020 0.000000
O O5 0.103635 0.405567 0.205255
O O6 0.000000 0.500000 0.500000
O O7 0.098833 0.500000 0.955359
O O8 0.500000 0.500000 0.500000
O O9 0.294171 0.500000 0.739064
O O10 0.709720 0.083431 0.564087
O O11 0.500000 0.838908 0.000000
O O12 0.708231 0.823432 0.849338
O O13 0.750000 0.250000 0.500000
#
# Coordination Sequence:
#
# PCOD9210803 Si02
#       6
#     8   4   4   4   8   8
#     4  11  22  39  64  94 122 162 213 260 311 378
#     4  10  23  45  59  87 127 164 210 254 307 388
#     4  12  23  42  63  89 127 167 199 260 320 372
#     4  10  24  43  65  94 127 170 209 261 323 373
#     4  10  21  39  64  89 119 162 209 263 311 362
#     4  11  19  40  65  91 127 159 211 260 311 366
#
# _framework density 25.527926999999998
#
# number of rings (size 3 to 8) (size 9 to 14) (size 15 to 20)
#    0.000    1.333    6.667    0.667    0.000    0.889 
#    8.000    2.222    0.000    0.000    0.000    0.000 
#    0.000    0.000    0.000    0.000    0.000    0.000 
#
# Total GULP energy -100210.359170 kJ/mol
# GULP energy per Si atom -5567.242176 kJ/mol
# Density = 2.546982 g / cm^3
# Si number density = 25.527927 Si / 1000 Ang^3
#
#
#
# Elastic Constant Matrix: (Units=GPa)
#
#
# Indices 1 2 3 4 5 6 
#
# 1 71.6695 17.0510 23.3105 0.0000 -21.0249 0.0000
# 2 17.0510 268.8784 69.8011 0.0000 17.2221 0.0000
# 3 23.3105 69.8011 177.1456 0.0000 -28.5891 0.0000
# 4 0.0000 0.0000 0.0000 57.4319 0.0000 -7.8792
# 5 -21.0249 17.2221 -28.5891 0.0000 28.3064 0.0000
# 6 0.0000 0.0000 0.0000 -7.8792 0.0000 11.2622
#
#
#
# Elastic Compliance Matrix: (Units=1/GPa)
#
#
# Indices 1 2 3 4 5 6 
#
# 1 0.019205 -0.002654 0.001292 0.000000 0.017185 0.000000
# 2 -0.002654 0.005195 -0.003018 0.000000 -0.008180 0.000000
# 3 0.001292 -0.003018 0.008501 0.000000 0.011382 0.000000
# 4 0.000000 0.000000 0.000000 0.019261 0.000000 0.013475
# 5 0.017185 -0.008180 0.011382 0.000000 0.064564 0.000000
# 6 0.000000 0.000000 0.000000 0.013475 0.000000 0.098220
#
#
# Mechanical properties :
#
#
# Convention : Reuss Voigt Hill
#
# Bulk Modulus (GPa) = 41.42258 82.00209 61.71234
# Shear Modulus (GPa) = 21.57478 46.56883 34.07181
#
# Velocity S-wave (km/s) = 2.91029 4.27574 3.65730
# Velocity P-wave (km/s) = 5.24925 7.52118 6.48548
#
# Compressibility (1/GPa) = 0.02414142
#
# Stress axis : x y z
#
# Youngs Moduli (GPa) = 52.06870 192.49963 117.63281
#
# Poissons Ratio (x) = 0.51089 -0.15197
# Poissons Ratio (y) = 0.13819 0.35499
# Poissons Ratio (z) = -0.06727 0.58093
#
# Static dielectric constant tensor:
#      x y z
#    x 2.157350 0.000000 -0.035450 
#    y 0.000000 2.134180 0.000000 
#    z -0.035450 0.000000 1.995270 
# 
# From -- ./inp_files/86295.got.cif
#   From: 2010.05.17/outbox.cif.g08.bks.cpg/sg12_44_cif.got.tgz:86295.got - 2010.06.03 13:09:07.
