data_PCOD9210329
_publ_section_title
;
Structure prediction by ZEFSAII (Michael W. Deem and Ramdas Pophale) SiO2 
 PCOD9210329
Probable space group: C 2/M
;
_chemical_formula_sum "Si O2"
_cell_formula_units_Z 40
_cell_length_a 9.970827
_cell_length_b 10.014944
_cell_length_c 21.741439
_cell_angle_alpha 90.000000
_cell_angle_beta 109.601859
_cell_angle_gamma 90.000000
_cell_volume 2045.221566
_symmetry_space_group_name_H-M "C 2/M"
_symmetry_group_IT_number 12
_symmetry_cell_setting 'monoclinic'
loop_
_space_group_symop_operation_xyz
x,y,z
-x,y,-z
-x,-y,-z
x,-y,z
1/2+x,1/2+y,z
1/2-x,1/2+y,-z
1/2-x,1/2-y,-z
1/2+x,1/2-y,z
loop_
_atom_site_type_symbol
_atom_site_label
_atom_site_fract_x
_atom_site_fract_y
_atom_site_fract_z
Si Si1 0.711478 0.657810 0.359997
Si Si2 0.220020 0.225791 0.133250
Si Si3 0.984579 0.845825 0.787397
Si Si4 0.169982 0.000000 0.028715
Si Si5 0.356149 0.000000 0.938977
Si Si6 0.523887 0.656632 0.576017
O O1 0.748118 0.500000 0.362652
O O2 0.608130 0.687933 0.286752
O O3 0.619359 0.681454 0.407378
O O4 0.850206 0.749064 0.381219
O O5 0.118282 0.165559 0.169638
O O6 0.378190 0.253365 0.182567
O O7 0.221804 0.128609 0.074811
O O8 0.156117 0.367387 0.102882
O O9 0.032850 0.000000 0.788810
O O10 0.000000 0.000000 0.000000
O O11 0.229218 0.000000 0.969151
O O12 0.500000 0.000000 0.000000
O O13 0.500000 0.679366 0.500000
O O14 0.560921 0.500000 0.590776
#
# Coordination Sequence:
#
# PCOD9210329 Si02
#       6
#     8   8   8   4   4   8
#     4  10  22  39  62  89 124 165 206 252 301 358
#     4  12  23  43  66  88 125 162 199 256 309 363
#     4  11  23  43  62  91 125 159 206 256 302 361
#     4  12  24  42  64  92 124 156 199 254 309 368
#     4  12  24  40  62  96 118 154 209 246 303 378
#     4  10  21  39  61  93 129 162 204 254 303 356
#
# _framework density 19.557784000000002
#
# number of rings (size 3 to 8) (size 9 to 14) (size 15 to 20)
#    0.000    1.000    2.000    5.400    0.000    1.200 
#    3.600    0.000    0.000    0.000    0.000    0.000 
#    0.000    0.000    0.000    0.000    0.000    0.000 
#
# Total GULP energy -111904.561976 kJ/mol
# GULP energy per Si atom -5595.228099 kJ/mol
# Density = 1.951327 g / cm^3
# Si number density = 19.557784 Si / 1000 Ang^3
#
#
#
# Elastic Constant Matrix: (Units=GPa)
#
#
# Indices 1 2 3 4 5 6 
#
# 1 60.3485 2.5793 -15.3775 0.0000 18.6339 0.0000
# 2 2.5793 75.3017 5.0410 0.0000 22.9434 0.0000
# 3 -15.3775 5.0410 34.7394 0.0000 -0.9303 0.0000
# 4 0.0000 0.0000 0.0000 36.4897 0.0000 17.1299
# 5 18.6339 22.9434 -0.9303 0.0000 36.5131 0.0000
# 6 0.0000 0.0000 0.0000 17.1299 0.0000 21.4415
#
#
#
# Elastic Compliance Matrix: (Units=1/GPa)
#
#
# Indices 1 2 3 4 5 6 
#
# 1 0.022889 0.002563 0.009410 0.000000 -0.013051 0.000000
# 2 0.002563 0.016961 -0.001648 0.000000 -0.012007 0.000000
# 3 0.009410 -0.001648 0.033112 0.000000 -0.002923 0.000000
# 4 0.000000 0.000000 0.000000 0.043851 0.000000 -0.035033
# 5 -0.013051 -0.012007 -0.002923 0.000000 0.041518 0.000000
# 6 0.000000 0.000000 0.000000 -0.035033 0.000000 0.074627
#
#
# Mechanical properties :
#
#
# Convention : Reuss Voigt Hill
#
# Bulk Modulus (GPa) = 10.68254 17.20836 13.94545
# Shear Modulus (GPa) = 20.53278 30.76533 25.64906
#
# Velocity S-wave (km/s) = 3.24366 3.97047 3.62532
# Velocity P-wave (km/s) = 4.41614 5.46236 4.96687
#
# Compressibility (1/GPa) = 0.09361072
#
# Stress axis : x y z
#
# Youngs Moduli (GPa) = 43.68984 58.95883 30.20040
#
# Poissons Ratio (x) = -0.15109 -0.28420
# Poissons Ratio (y) = -0.11196 0.04978
# Poissons Ratio (z) = -0.41114 0.09719
#
# Static dielectric constant tensor:
#      x y z
#    x 1.620870 0.000000 0.001770 
#    y 0.000000 1.665740 0.000000 
#    z 0.001770 0.000000 1.665850 
# 
# From -- ./inp_files/331798.got.cif
#   From: 2010.05.17/outbox.cif.g08.bks.cpg/sg12_166_cif.got.tgz:331798.got - 2010.06.03 13:09:07.
