data_PCOD9210880
_publ_section_title
;
Structure prediction by ZEFSAII (Michael W. Deem and Ramdas Pophale) SiO2 
 PCOD9210880
Probable space group: C 2/M
;
_chemical_formula_sum "Si O2"
_cell_formula_units_Z 36
_cell_length_a 13.399707
_cell_length_b 18.049945
_cell_length_c 11.120973
_cell_angle_alpha 90.000000
_cell_angle_beta 136.413147
_cell_angle_gamma 90.000000
_cell_volume 1854.465946
_symmetry_space_group_name_H-M "C 2/M"
_symmetry_group_IT_number 12
_symmetry_cell_setting 'monoclinic'
loop_
_space_group_symop_operation_xyz
x,y,z
-x,y,-z
-x,-y,-z
x,-y,z
1/2+x,1/2+y,z
1/2-x,1/2+y,-z
1/2-x,1/2-y,-z
1/2+x,1/2-y,z
loop_
_atom_site_type_symbol
_atom_site_label
_atom_site_fract_x
_atom_site_fract_y
_atom_site_fract_z
Si Si1 0.500000 0.810969 0.000000
Si Si2 0.057257 0.087040 0.911657
Si Si3 0.112731 0.418965 0.491953
Si Si4 0.627119 0.913289 0.914994
Si Si5 0.161609 0.796330 0.323973
O O1 0.394827 0.861479 0.989474
O O2 0.595244 0.759329 0.169561
O O3 0.969522 0.147404 0.756144
O O4 0.033342 0.000000 0.860870
O O5 0.227919 0.101195 0.036710
O O6 0.000000 0.096283 0.000000
O O7 0.184315 0.500000 0.540155
O O8 0.221852 0.355121 0.620659
O O9 0.000000 0.424983 0.500000
O O10 0.016830 0.402639 0.291029
O O11 0.632500 0.000000 0.954037
O O12 0.250000 0.750000 0.500000
#
# Coordination Sequence:
#
# PCOD9210880 Si02
#       5
#     4   8   8   8   8
#     4  12  25  42  63  92 136 170 206 254 321 388
#     4  10  21  41  67  94 124 162 212 266 314 364
#     4  10  21  39  64  93 122 161 216 267 307 364
#     4  10  22  42  67  91 125 171 215 259 311 376
#     4  12  24  40  61  93 130 167 203 256 316 377
#
# _framework density 19.412597000000002
#
# number of rings (size 3 to 8) (size 9 to 14) (size 15 to 20)
#    0.000    1.333    3.333    2.333    0.000    6.222 
#    0.000    0.000    0.000    2.667    0.000    0.000 
#    0.000    0.000    0.000    0.000    0.000    0.000 
#
# Total GULP energy -100386.012469 kJ/mol
# GULP energy per Si atom -5577.000693 kJ/mol
# Density = 1.936841 g / cm^3
# Si number density = 19.412597 Si / 1000 Ang^3
#
#
#
# Elastic Constant Matrix: (Units=GPa)
#
#
# Indices 1 2 3 4 5 6 
#
# 1 94.7159 61.2178 37.0133 0.0000 14.3101 0.0000
# 2 61.2178 129.7997 80.4182 0.0000 5.0243 0.0000
# 3 37.0133 80.4182 119.4059 0.0000 4.3157 0.0000
# 4 0.0000 0.0000 0.0000-2059.8218 0.0000 531.4916
# 5 14.3101 5.0243 4.3157 0.0000 28.3259 0.0000
# 6 0.0000 0.0000 0.0000 531.4916 0.0000 -172.4721
#
#
#
# Elastic Compliance Matrix: (Units=1/GPa)
#
#
# Indices 1 2 3 4 5 6 
#
# 1 0.016462 -0.007702 0.000337 0.000000 -0.007002 0.000000
# 2 -0.007702 0.016852 -0.009045 0.000000 0.002280 0.000000
# 3 0.000337 -0.009045 0.014389 0.000000 -0.000758 0.000000
# 4 0.000000 0.000000 0.000000 -0.002370 0.000000 -0.007303
# 5 -0.007002 0.002280 -0.000758 0.000000 0.038552 0.000000
# 6 0.000000 0.000000 0.000000 -0.007303 0.000000 -0.028303
#
#
# Mechanical properties :
#
#
# Convention : Reuss Voigt Hill
#
# Bulk Modulus (GPa) = 67.18320 77.91335 72.54827
# Shear Modulus (GPa) = 53.55478 -429.77546 -188.11034
#
# Velocity S-wave (km/s) = 5.25809 -14.89532 -9.85452
# Velocity P-wave (km/s) = 8.45852 15.98765 9.59318
#
# Compressibility (1/GPa) = 0.01488467
#
# Stress axis : x y z
#
# Youngs Moduli (GPa) = 60.74614 59.33986 69.49750
#
# Poissons Ratio (x) = 0.45704 -0.02345
# Poissons Ratio (y) = 0.46787 0.62858
# Poissons Ratio (z) = -0.02050 0.53670
#
# Static dielectric constant tensor:
#      x y z
#    x 1.667340 0.000000 0.005910 
#    y 0.000000 1.714840 0.000000 
#    z 0.005910 0.000000 1.744110 
# 
# From -- ./inp_files/61479.got.cif
#   From: 2010.05.17/outbox.cif.g08.bks.cpg/sg12_31_cif.got.tgz:61479.got - 2010.06.03 13:09:07.
