data_PCOD9210886
_publ_section_title
;
Structure prediction by ZEFSAII (Michael W. Deem and Ramdas Pophale) SiO2 
 PCOD9210886
Probable space group: C 2/M
;
_chemical_formula_sum "Si O2"
_cell_formula_units_Z 64
_cell_length_a 25.280716
_cell_length_b 8.448752
_cell_length_c 14.499848
_cell_angle_alpha 90.000000
_cell_angle_beta 90.280236
_cell_angle_gamma 90.000000
_cell_volume 3096.992738
_symmetry_space_group_name_H-M "C 2/M"
_symmetry_group_IT_number 12
_symmetry_cell_setting 'monoclinic'
loop_
_space_group_symop_operation_xyz
x,y,z
-x,y,-z
-x,-y,-z
x,-y,z
1/2+x,1/2+y,z
1/2-x,1/2+y,-z
1/2-x,1/2-y,-z
1/2+x,1/2-y,z
loop_
_atom_site_type_symbol
_atom_site_label
_atom_site_fract_x
_atom_site_fract_y
_atom_site_fract_z
Si Si1 0.417151 0.816644 0.505183
Si Si2 0.806933 0.182176 0.525931
Si Si3 0.057741 0.809362 0.290726
Si Si4 0.441097 0.686411 0.314815
Si Si5 0.831511 0.684080 0.240581
Si Si6 0.775519 0.680639 0.704697
Si Si7 0.650336 0.310765 0.151889
Si Si8 0.193704 0.811033 0.960849
O O1 0.354813 0.785158 0.488509
O O2 0.427956 0.761932 0.609429
O O3 0.445686 0.720876 0.424374
O O4 0.430084 0.000000 0.495187
O O5 0.750000 0.250000 0.500000
O O6 0.806007 0.202208 0.636387
O O7 0.813457 0.000000 0.499712
O O8 0.098610 0.764515 0.210303
O O9 0.996881 0.765660 0.270466
O O10 0.059871 0.000000 0.300171
O O11 0.432825 0.500000 0.300847
O O12 0.390186 0.775152 0.274720
O O13 0.819997 0.500000 0.256005
O O14 0.786580 0.783795 0.293507
O O15 0.823345 0.726649 0.133222
O O16 0.785347 0.500000 0.676549
O O17 0.800650 0.716253 0.803724
O O18 0.659020 0.500000 0.164149
O O19 0.651536 0.282563 0.042794
O O20 0.197251 0.000000 0.944249
O O21 0.250000 0.750000 0.000000
#
# Coordination Sequence:
#
# PCOD9210886 Si02
#       8
#     8   8   8   8   8   8   8   8
#     4  12  24  39  61  92 126 164 210 258 309 369
#     4  12  24  39  57  83 123 164 206 252 307 372
#     4  10  22  42  67  92 123 165 213 261 311 367
#     4  11  24  43  65  90 122 165 214 264 314 369
#     4  12  25  42  63  90 127 168 208 258 316 376
#     4  12  23  37  60  90 123 160 201 251 311 371
#     4  10  21  39  64  93 124 160 201 251 307 369
#     4  11  22  38  64  96 129 162 205 254 311 378
#
# _framework density 20.665209999999998
#
# number of rings (size 3 to 8) (size 9 to 14) (size 15 to 20)
#    0.000    0.750    2.500    6.375    0.000    3.000 
#    0.000    0.625    0.000    3.750    0.000    0.000 
#    0.000    0.000    0.000    0.000    0.000    0.000 
#
# Total GULP energy -179030.405677 kJ/mol
# GULP energy per Si atom -5594.700177 kJ/mol
# Density = 2.061818 g / cm^3
# Si number density = 20.665210 Si / 1000 Ang^3
#
#
#
# Elastic Constant Matrix: (Units=GPa)
#
#
# Indices 1 2 3 4 5 6 
#
# 1 105.3686 11.2360 17.1184 0.0000 -11.7128 0.0000
# 2 11.2360 52.8056 3.3015 0.0000 1.4009 0.0000
# 3 17.1184 3.3015 71.8278 0.0000 -8.1863 0.0000
# 4 0.0000 0.0000 0.0000 30.1572 0.0000 5.6921
# 5 -11.7128 1.4009 -8.1863 0.0000 26.7403 0.0000
# 6 0.0000 0.0000 0.0000 5.6921 0.0000 22.1442
#
#
#
# Elastic Compliance Matrix: (Units=1/GPa)
#
#
# Indices 1 2 3 4 5 6 
#
# 1 0.010500 -0.002223 -0.001930 0.000000 0.004125 0.000000
# 2 -0.002223 0.019507 -0.000616 0.000000 -0.002184 0.000000
# 3 -0.001930 -0.000616 0.014835 0.000000 0.003729 0.000000
# 4 0.000000 0.000000 0.000000 0.034850 0.000000 -0.008958
# 5 0.004125 -0.002184 0.003729 0.000000 0.040459 0.000000
# 6 0.000000 0.000000 0.000000 -0.008958 0.000000 0.047461
#
#
# Mechanical properties :
#
#
# Convention : Reuss Voigt Hill
#
# Bulk Modulus (GPa) = 28.32507 32.59042 30.45775
# Shear Modulus (GPa) = 26.46648 29.03142 27.74895
#
# Velocity S-wave (km/s) = 3.58261 3.75219 3.66838
# Velocity P-wave (km/s) = 5.55426 5.88021 5.71956
#
# Compressibility (1/GPa) = 0.03530441
#
# Stress axis : x y z
#
# Youngs Moduli (GPa) = 95.24189 51.26416 67.40629
#
# Poissons Ratio (x) = 0.11395 0.13010
# Poissons Ratio (y) = 0.21171 0.04151
# Poissons Ratio (z) = 0.18382 0.03157
#
# Static dielectric constant tensor:
#      x y z
#    x 1.757110 0.000000 0.001310 
#    y 0.000000 1.705460 0.000000 
#    z 0.001310 0.000000 1.780790 
# 
# From -- ./inp_files/238762.got.cif
#   From: 2010.05.17/outbox.cif.g08.bks.cpg/sg12_120_cif.got.tgz:238762.got - 2010.06.03 13:09:07.
