data_PCOD9210234
_publ_section_title
;
Structure prediction by ZEFSAII (Michael W. Deem and Ramdas Pophale) SiO2 
 PCOD9210234
Probable space group: C 2/M
;
_chemical_formula_sum "Si O2"
_cell_formula_units_Z 64
_cell_length_a 9.459573
_cell_length_b 16.955668
_cell_length_c 21.710194
_cell_angle_alpha 90.000000
_cell_angle_beta 86.472378
_cell_angle_gamma 90.000000
_cell_volume 3475.573539
_symmetry_space_group_name_H-M "C 2/M"
_symmetry_group_IT_number 12
_symmetry_cell_setting 'monoclinic'
loop_
_space_group_symop_operation_xyz
x,y,z
-x,y,-z
-x,-y,-z
x,-y,z
1/2+x,1/2+y,z
1/2-x,1/2+y,-z
1/2-x,1/2-y,-z
1/2+x,1/2-y,z
loop_
_atom_site_type_symbol
_atom_site_label
_atom_site_fract_x
_atom_site_fract_y
_atom_site_fract_z
Si Si1 0.334071 0.701004 0.146039
Si Si2 0.516636 0.784612 0.653348
Si Si3 0.843894 0.591331 0.933701
Si Si4 0.141197 0.189815 0.536455
Si Si5 0.772373 0.803139 0.735771
Si Si6 0.098424 0.090393 0.170429
Si Si7 0.662506 0.140674 0.929471
Si Si8 0.896634 0.408538 0.560704
O O1 0.224964 0.639322 0.119841
O O2 0.273763 0.743885 0.208128
O O3 0.474571 0.652568 0.158829
O O4 0.357773 0.770605 0.095460
O O5 0.592607 0.727691 0.602003
O O6 0.636522 0.815969 0.696396
O O7 0.397540 0.736847 0.693540
O O8 0.444062 0.853278 0.615456
O O9 0.799845 0.500000 0.936287
O O10 0.013314 0.596948 0.924431
O O11 0.803393 0.633135 0.999302
O O12 0.250000 0.250000 0.500000
O O13 0.237000 0.113419 0.545803
O O14 0.000000 0.177843 0.500000
O O15 0.829270 0.881098 0.768097
O O16 0.215416 0.101002 0.114093
O O17 0.049662 0.000000 0.174295
O O18 0.910555 0.500000 0.575661
O O19 0.000000 0.391216 0.500000
#
# Coordination Sequence:
#
# PCOD9210234 Si02
#       8
#     8   8   8   8   8   8   8   8
#     4  11  23  40  59  86 120 161 202 251 307 367
#     4  12  21  41  67  90 122 166 214 247 292 371
#     4  11  22  38  60  89 120 156 197 254 315 368
#     4  12  20  38  69  98 123 169 206 250 306 368
#     4  11  24  40  63  90 118 166 214 249 295 369
#     4  11  23  41  61  88 122 155 199 262 311 356
#     4  10  21  39  61  86 117 155 205 248 304 377
#     4  11  24  41  63  99 134 159 202 263 313 356
#
# _framework density 18.414227
#
# number of rings (size 3 to 8) (size 9 to 14) (size 15 to 20)
#    0.000    0.875    5.000    3.750    1.750    2.250 
#    0.000    4.375    0.000    0.000    0.000    0.000 
#    0.000    0.000    0.000    0.000    0.000    0.000 
#
# Total GULP energy -178826.062677 kJ/mol
# GULP energy per Si atom -5588.314459 kJ/mol
# Density = 1.837232 g / cm^3
# Si number density = 18.414227 Si / 1000 Ang^3
#
#
#
# Elastic Constant Matrix: (Units=GPa)
#
#
# Indices 1 2 3 4 5 6 
#
# 1 77.5929 23.1029 30.8608 0.0000 4.4419 0.0000
# 2 23.1029 102.3687 33.7337 0.0000 -6.0581 0.0000
# 3 30.8608 33.7337 87.1588 0.0000 -3.9564 0.0000
# 4 0.0000 0.0000 0.0000 11.1360 0.0000 -0.4067
# 5 4.4419 -6.0581 -3.9564 0.0000 41.5964 0.0000
# 6 0.0000 0.0000 0.0000 -0.4067 0.0000 19.7351
#
#
#
# Elastic Compliance Matrix: (Units=1/GPa)
#
#
# Indices 1 2 3 4 5 6 
#
# 1 0.015558 -0.002067 -0.004819 0.000000 -0.002421 0.000000
# 2 -0.002067 0.011533 -0.003662 0.000000 0.001552 0.000000
# 3 -0.004819 -0.003662 0.014659 0.000000 0.001376 0.000000
# 4 0.000000 0.000000 0.000000 0.089866 0.000000 0.001852
# 5 -0.002421 0.001552 0.001376 0.000000 0.024656 0.000000
# 6 0.000000 0.000000 0.000000 0.001852 0.000000 0.050709
#
#
# Mechanical properties :
#
#
# Convention : Reuss Voigt Hill
#
# Bulk Modulus (GPa) = 48.41034 49.16834 48.78934
# Shear Modulus (GPa) = 21.28003 26.45504 23.86754
#
# Velocity S-wave (km/s) = 3.40314 3.79445 3.60411
# Velocity P-wave (km/s) = 6.46441 6.77911 6.62363
#
# Compressibility (1/GPa) = 0.02065675
#
# Stress axis : x y z
#
# Youngs Moduli (GPa) = 64.27462 86.70395 68.21645
#
# Poissons Ratio (x) = 0.17918 0.32872
# Poissons Ratio (y) = 0.13283 0.24979
# Poissons Ratio (z) = 0.30973 0.31749
#
# Static dielectric constant tensor:
#      x y z
#    x 1.632630 0.000000 0.012690 
#    y 0.000000 1.619890 0.000000 
#    z 0.012690 0.000000 1.624370 
# 
# From -- ./inp_files/300791.got.cif
#   From: 2010.05.17/outbox.cif.g08.bks.cpg/sg12_151_cif.got.tgz:300791.got - 2010.06.03 13:09:07.
