data_PCOD9210448
_publ_section_title
;
Structure prediction by ZEFSAII (Michael W. Deem and Ramdas Pophale) SiO2 
 PCOD9210448
Probable space group: C 2/M
;
_chemical_formula_sum "Si O2"
_cell_formula_units_Z 32
_cell_length_a 8.518363
_cell_length_b 15.634393
_cell_length_c 9.162358
_cell_angle_alpha 90.000000
_cell_angle_beta 92.080422
_cell_angle_gamma 90.000000
_cell_volume 1219.433349
_symmetry_space_group_name_H-M "C 2/M"
_symmetry_group_IT_number 12
_symmetry_cell_setting 'monoclinic'
loop_
_space_group_symop_operation_xyz
x,y,z
-x,y,-z
-x,-y,-z
x,-y,z
1/2+x,1/2+y,z
1/2-x,1/2+y,-z
1/2-x,1/2-y,-z
1/2+x,1/2-y,z
loop_
_atom_site_type_symbol
_atom_site_label
_atom_site_fract_x
_atom_site_fract_y
_atom_site_fract_z
Si Si1 0.872176 0.338562 0.195068
Si Si2 0.411169 0.719759 0.635663
Si Si3 0.327712 0.402065 0.050958
Si Si4 0.665862 0.908248 0.343255
O O1 0.717205 0.337297 0.290141
O O2 0.965063 0.252132 0.238037
O O3 0.808242 0.346952 0.030435
O O4 0.998980 0.407428 0.251431
O O5 0.500000 0.681488 0.500000
O O6 0.342437 0.814306 0.582840
O O7 0.301509 0.500000 0.998006
O O8 0.500000 0.379291 0.000000
O O9 0.297316 0.404164 0.222347
O O10 0.680316 0.000000 0.422849
#
# Coordination Sequence:
#
# PCOD9210448 Si02
#       4
#     8   8   8   8
#     4  10  22  37  63  85 119 156 199 240 300 346
#     4  10  23  40  60  85 121 161 198 245 291 345
#     4  10  21  39  62  89 123 154 192 246 303 356
#     4   9  21  39  62  87 117 154 196 244 295 353
#
# _framework density 26.241693999999999
#
# number of rings (size 3 to 8) (size 9 to 14) (size 15 to 20)
#    1.500    0.750    0.000    2.250    3.500    3.500 
#    0.000    0.000    0.000    3.000    0.000    0.000 
#    0.000    0.000    0.000    0.000    0.000    0.000 
#
# Total GULP energy -89396.468814 kJ/mol
# GULP energy per Si atom -5587.279301 kJ/mol
# Density = 2.618197 g / cm^3
# Si number density = 26.241694 Si / 1000 Ang^3
#
#
#
# Elastic Constant Matrix: (Units=GPa)
#
#
# Indices 1 2 3 4 5 6 
#
# 1 103.6737 16.0154 12.6759 0.0000 -23.4202 0.0000
# 2 16.0154 107.6051 12.0525 0.0000 -4.3085 0.0000
# 3 12.6759 12.0525 83.4800 0.0000 -20.4174 0.0000
# 4 0.0000 0.0000 0.0000 29.4998 0.0000 -0.8796
# 5 -23.4202 -4.3085 -20.4174 0.0000 56.0401 0.0000
# 6 0.0000 0.0000 0.0000 -0.8796 0.0000 19.7751
#
#
#
# Elastic Compliance Matrix: (Units=1/GPa)
#
#
# Indices 1 2 3 4 5 6 
#
# 1 0.010881 -0.001403 -0.000399 0.000000 0.004294 0.000000
# 2 -0.001403 0.009630 -0.001251 0.000000 -0.000302 0.000000
# 3 -0.000399 -0.001251 0.013345 0.000000 0.004599 0.000000
# 4 0.000000 0.000000 0.000000 0.033944 0.000000 0.001510
# 5 0.004294 -0.000302 0.004599 0.000000 0.021291 0.000000
# 6 0.000000 0.000000 0.000000 0.001510 0.000000 0.050636
#
#
# Mechanical properties :
#
#
# Convention : Reuss Voigt Hill
#
# Bulk Modulus (GPa) = 36.03676 41.80516 38.92096
# Shear Modulus (GPa) = 32.24064 37.99733 35.11899
#
# Velocity S-wave (km/s) = 3.50895 3.80936 3.66223
# Velocity P-wave (km/s) = 5.49358 5.94253 5.72246
#
# Compressibility (1/GPa) = 0.02774945
#
# Stress axis : x y z
#
# Youngs Moduli (GPa) = 91.90127 103.84122 74.93446
#
# Poissons Ratio (x) = 0.14567 0.02993
# Poissons Ratio (y) = 0.12892 0.09375
# Poissons Ratio (z) = 0.03671 0.12992
#
# Static dielectric constant tensor:
#      x y z
#    x 2.119090 0.000000 0.068170 
#    y 0.000000 2.122060 0.000000 
#    z 0.068170 0.000000 2.035370 
# 
# From -- ./inp_files/37550.got.cif
#   From: 2010.05.17/outbox.cif.g08.bks.cpg/sg12_19_cif.got.tgz:37550.got - 2010.06.03 13:09:07.
