data_PCOD9210680
_publ_section_title
;
Structure prediction by ZEFSAII (Michael W. Deem and Ramdas Pophale) SiO2 
 PCOD9210680
Probable space group: C 2/M
;
_chemical_formula_sum "Si O2"
_cell_formula_units_Z 48
_cell_length_a 9.837398
_cell_length_b 26.306237
_cell_length_c 11.321636
_cell_angle_alpha 90.000000
_cell_angle_beta 57.933300
_cell_angle_gamma 90.000000
_cell_volume 2482.860464
_symmetry_space_group_name_H-M "C 2/M"
_symmetry_group_IT_number 12
_symmetry_cell_setting 'monoclinic'
loop_
_space_group_symop_operation_xyz
x,y,z
-x,y,-z
-x,-y,-z
x,-y,z
1/2+x,1/2+y,z
1/2-x,1/2+y,-z
1/2-x,1/2-y,-z
1/2+x,1/2-y,z
loop_
_atom_site_type_symbol
_atom_site_label
_atom_site_fract_x
_atom_site_fract_y
_atom_site_fract_z
Si Si1 0.485602 0.210429 0.647609
Si Si2 0.742712 0.858842 0.652762
Si Si3 0.683277 0.443165 0.958355
Si Si4 0.339428 0.338798 0.146993
Si Si5 0.164578 0.440611 0.865904
Si Si6 0.469298 0.327472 0.341426
O O1 0.500000 0.199230 0.500000
O O2 0.592388 0.172800 0.676644
O O3 0.302015 0.202410 0.773783
O O4 0.554542 0.266976 0.634682
O O5 0.698768 0.912520 0.728547
O O6 0.864010 0.856854 0.486910
O O7 0.844247 0.834077 0.712976
O O8 0.755049 0.500000 0.899745
O O9 0.737334 0.391016 0.869801
O O10 0.500000 0.445965 0.000000
O O11 0.705165 0.435641 0.088922
O O12 0.410793 0.347109 0.243830
O O13 0.500000 0.324236 0.000000
O O14 0.144258 0.500000 0.852041
O O15 0.000000 0.420558 0.000000
#
# Coordination Sequence:
#
# PCOD9210680 Si02
#       6
#     8   8   8   8   8   8
#     4  12  22  41  64  84 120 173 208 243 314 373
#     4  11  21  37  64  90 116 162 212 247 300 374
#     4   9  18  36  61  87 120 160 195 240 308 366
#     4  11  23  39  61  93 125 158 209 259 302 364
#     4  10  21  39  63  91 124 159 197 251 314 366
#     4  11  23  39  61  88 122 164 205 256 306 361
#
# _framework density 19.332540000000002
#
# number of rings (size 3 to 8) (size 9 to 14) (size 15 to 20)
#    0.000    1.333    3.333    4.500    0.000    0.667 
#    0.000    5.833    0.000    1.000    0.000    0.000 
#    0.000    0.000    0.000    0.000    0.000    0.000 
#
# Total GULP energy -133750.926263 kJ/mol
# GULP energy per Si atom -5572.955261 kJ/mol
# Density = 1.928854 g / cm^3
# Si number density = 19.332540 Si / 1000 Ang^3
#
#
#
# Elastic Constant Matrix: (Units=GPa)
#
#
# Indices 1 2 3 4 5 6 
#
# 1 70.6472 15.5953 32.9112 0.0000 1.0854 0.0000
# 2 15.5953 89.0184 53.1340 0.0000 10.8838 0.0000
# 3 32.9112 53.1340 106.8712 0.0000 0.5020 0.0000
# 4 0.0000 0.0000 0.0000 38.1395 0.0000 6.2315
# 5 1.0854 10.8838 0.5020 0.0000 31.9317 0.0000
# 6 0.0000 0.0000 0.0000 6.2315 0.0000 26.9558
#
#
#
# Elastic Compliance Matrix: (Units=1/GPa)
#
#
# Indices 1 2 3 4 5 6 
#
# 1 0.016538 0.000302 -0.005240 0.000000 -0.000583 0.000000
# 2 0.000302 0.016938 -0.008487 0.000000 -0.005650 0.000000
# 3 -0.005240 -0.008487 0.015177 0.000000 0.002832 0.000000
# 4 0.000000 0.000000 0.000000 0.027249 0.000000 -0.006299
# 5 -0.000583 -0.005650 0.002832 0.000000 0.033218 0.000000
# 6 0.000000 0.000000 0.000000 -0.006299 0.000000 0.038554
#
#
# Mechanical properties :
#
#
# Convention : Reuss Voigt Hill
#
# Bulk Modulus (GPa) = 45.86878 52.20196 49.03537
# Shear Modulus (GPa) = 27.50386 30.39850 28.95118
#
# Velocity S-wave (km/s) = 3.77592 3.96965 3.87400
# Velocity P-wave (km/s) = 6.54124 6.93337 6.74016
#
# Compressibility (1/GPa) = 0.02180132
#
# Stress axis : x y z
#
# Youngs Moduli (GPa) = 60.46532 59.04044 65.88823
#
# Poissons Ratio (x) = -0.01781 0.34527
# Poissons Ratio (y) = -0.01824 0.55922
# Poissons Ratio (z) = 0.31686 0.50110
#
# Static dielectric constant tensor:
#      x y z
#    x 1.715270 0.000000 -0.042140 
#    y 0.000000 1.722820 0.000000 
#    z -0.042140 0.000000 1.718480 
# 
# From -- ./inp_files/123523.got.cif
#   From: 2010.05.17/outbox.cif.g08.bks.cpg/sg12_62_cif.got.tgz:123523.got - 2010.06.03 13:09:07.
