data_PCOD9210152
_publ_section_title
;
Structure prediction by ZEFSAII (Michael W. Deem and Ramdas Pophale) SiO2 
 PCOD9210152
Probable space group: C 2/M
;
_chemical_formula_sum "Si O2"
_cell_formula_units_Z 42
_cell_length_a 15.069755
_cell_length_b 8.012646
_cell_length_c 15.834297
_cell_angle_alpha 90.000000
_cell_angle_beta 64.870923
_cell_angle_gamma 90.000000
_cell_volume 1731.007996
_symmetry_space_group_name_H-M "C 2/M"
_symmetry_group_IT_number 12
_symmetry_cell_setting 'monoclinic'
loop_
_space_group_symop_operation_xyz
x,y,z
-x,y,-z
-x,-y,-z
x,-y,z
1/2+x,1/2+y,z
1/2-x,1/2+y,-z
1/2-x,1/2-y,-z
1/2+x,1/2-y,z
loop_
_atom_site_type_symbol
_atom_site_label
_atom_site_fract_x
_atom_site_fract_y
_atom_site_fract_z
Si Si1 0.149966 0.804238 0.299981
Si Si2 0.047134 0.696132 0.565397
Si Si3 0.500000 0.500000 0.000000
Si Si4 0.193965 0.308993 0.106094
Si Si5 0.023434 0.812104 0.827637
Si Si6 0.192955 0.698044 0.638122
O O1 0.209565 0.782220 0.189143
O O2 0.209388 0.733335 0.356924
O O3 0.045731 0.713666 0.334486
O O4 0.133649 0.000000 0.319783
O O5 0.065486 0.500000 0.543084
O O6 0.142926 0.768699 0.572995
O O7 0.000000 0.773329 0.500000
O O8 0.457855 0.356751 0.082484
O O9 0.220053 0.500000 0.109299
O O10 0.079048 0.282871 0.134377
O O11 0.250000 0.250000 0.000000
O O12 0.110156 0.725060 0.743107
O O13 0.007449 0.000000 0.795411
O O14 0.206401 0.500000 0.620719
#
# Coordination Sequence:
#
# PCOD9210152 Si02
#       6
#     8   8   2   8   8   8
#     4  11  24  41  63  97 130 168 219 268 324 382
#     4  10  22  43  68  94 127 171 217 267 330 394
#     4   8  24  36  58  88 122 160 214 260 302 380
#     4  12  25  40  61  89 128 172 217 266 321 382
#     4  10  21  39  60  88 124 165 211 262 312 376
#     4  10  22  40  63  92 129 170 210 266 324 383
#
# _framework density 24.263318999999999
#
# number of rings (size 3 to 8) (size 9 to 14) (size 15 to 20)
#    0.571    0.952    1.905    2.857    2.667    2.667 
#    0.000    0.952    0.000    0.000    0.000    0.000 
#    0.000    0.000    0.000    0.000    0.000    0.000 
#
# Total GULP energy -117027.783534 kJ/mol
# GULP energy per Si atom -5572.751597 kJ/mol
# Density = 2.420809 g / cm^3
# Si number density = 24.263319 Si / 1000 Ang^3
#
#
#
# Elastic Constant Matrix: (Units=GPa)
#
#
# Indices 1 2 3 4 5 6 
#
# 1 129.9134 2.6860 17.2184 0.0000 4.0056 0.0000
# 2 2.6860 65.9446 9.3440 0.0000 7.9050 0.0000
# 3 17.2184 9.3440 84.1595 0.0000 1.9922 0.0000
# 4 0.0000 0.0000 0.0000 35.2931 0.0000 -2.0200
# 5 4.0056 7.9050 1.9922 0.0000 26.4197 0.0000
# 6 0.0000 0.0000 0.0000 -2.0200 0.0000 18.7027
#
#
#
# Elastic Compliance Matrix: (Units=1/GPa)
#
#
# Indices 1 2 3 4 5 6 
#
# 1 0.007943 0.000035 -0.001603 0.000000 -0.001094 0.000000
# 2 0.000035 0.015957 -0.001669 0.000000 -0.004654 0.000000
# 3 -0.001603 -0.001669 0.012400 0.000000 -0.000193 0.000000
# 4 0.000000 0.000000 0.000000 0.028510 0.000000 0.003079
# 5 -0.001094 -0.004654 -0.000193 0.000000 0.039423 0.000000
# 6 0.000000 0.000000 0.000000 0.003079 0.000000 0.053801
#
#
# Mechanical properties :
#
#
# Convention : Reuss Voigt Hill
#
# Bulk Modulus (GPa) = 33.52755 37.61272 35.57014
# Shear Modulus (GPa) = 28.66145 32.80105 30.73125
#
# Velocity S-wave (km/s) = 3.44068 3.68078 3.56275
# Velocity P-wave (km/s) = 5.44358 5.79653 5.62283
#
# Compressibility (1/GPa) = 0.02982621
#
# Stress axis : x y z
#
# Youngs Moduli (GPa) = 125.89857 62.66779 80.64519
#
# Poissons Ratio (x) = -0.00218 0.12928
# Poissons Ratio (y) = -0.00437 0.13457
# Poissons Ratio (z) = 0.20182 0.10457
#
# Static dielectric constant tensor:
#      x y z
#    x 2.004710 0.000000 0.040750 
#    y 0.000000 1.862140 0.000000 
#    z 0.040750 0.000000 2.108240 
# 
# From -- ./inp_files/221457.got.cif
#   From: 2010.05.17/outbox.cif.g08.bks.cpg/sg12_111_cif.got.tgz:221457.got - 2010.06.03 13:09:07.
