data_PCOD9210672
_publ_section_title
;
Structure prediction by ZEFSAII (Michael W. Deem and Ramdas Pophale) SiO2 
 PCOD9210672
Probable space group: C 2/M
;
_chemical_formula_sum "Si O2"
_cell_formula_units_Z 56
_cell_length_a 21.842921
_cell_length_b 23.954330
_cell_length_c 5.659748
_cell_angle_alpha 90.000000
_cell_angle_beta 57.307333
_cell_angle_gamma 90.000000
_cell_volume 2492.224732
_symmetry_space_group_name_H-M "C 2/M"
_symmetry_group_IT_number 12
_symmetry_cell_setting 'monoclinic'
loop_
_space_group_symop_operation_xyz
x,y,z
-x,y,-z
-x,-y,-z
x,-y,z
1/2+x,1/2+y,z
1/2-x,1/2+y,-z
1/2-x,1/2-y,-z
1/2+x,1/2-y,z
loop_
_atom_site_type_symbol
_atom_site_label
_atom_site_fract_x
_atom_site_fract_y
_atom_site_fract_z
Si Si1 0.070817 0.746292 0.721998
Si Si2 0.779665 0.065960 0.250317
Si Si3 0.315708 0.715995 0.126395
Si Si4 0.915747 0.065460 0.221340
Si Si5 0.296797 0.933285 0.092092
Si Si6 0.326417 0.823595 0.804454
Si Si7 0.073034 0.148865 0.430328
O O1 0.139786 0.770896 0.727574
O O2 0.104600 0.701483 0.474274
O O3 0.040132 0.800992 0.657614
O O4 0.000000 0.722418 0.000000
O O5 0.864166 0.080893 0.110637
O O6 0.754992 0.071535 0.031718
O O7 0.777388 0.000000 0.289931
O O8 0.734374 0.082892 0.583211
O O9 0.241188 0.680277 0.246478
O O10 0.301984 0.777613 0.048509
O O11 0.372714 0.682799 0.846292
O O12 0.887771 0.104469 0.487139
O O13 0.908494 0.000000 0.293536
O O14 0.000000 0.076591 0.000000
O O15 0.346118 0.880840 0.900365
O O16 0.319401 0.000000 0.052684
O O17 0.000000 0.118489 0.500000
#
# Coordination Sequence:
#
# PCOD9210672 Si02
#       7
#     8   8   8   8   8   8   8
#     4  11  22  39  61  84 120 159 199 255 311 381
#     4   9  20  37  57  83 119 163 207 252 307 370
#     4  10  22  40  57  89 119 155 207 256 313 366
#     4  10  22  36  52  79 113 159 214 265 311 361
#     4  10  21  39  63  91 123 161 203 254 319 384
#     4  10  23  36  62  92 121 157 201 263 310 373
#     4  11  22  36  57  80 112 161 207 252 311 369
#
# _framework density 22.469884
#
# number of rings (size 3 to 8) (size 9 to 14) (size 15 to 20)
#    0.000    1.857    1.429    1.714    4.000    1.429 
#    0.000    2.857    0.000    0.429    0.000    1.000 
#    0.000    0.000    0.000    0.000    0.000    0.000 
#
# Total GULP energy -155948.129808 kJ/mol
# GULP energy per Si atom -5569.576065 kJ/mol
# Density = 2.241874 g / cm^3
# Si number density = 22.469884 Si / 1000 Ang^3
#
#
#
# Elastic Constant Matrix: (Units=GPa)
#
#
# Indices 1 2 3 4 5 6 
#
# 1 29.1640 -8.6322 2.3140 0.0000 10.0418 0.0000
# 2 -8.6322 112.2208 36.5991 0.0000 1.0134 0.0000
# 3 2.3140 36.5991 86.7650 0.0000 -3.5642 0.0000
# 4 0.0000 0.0000 0.0000 46.5418 0.0000 6.5794
# 5 10.0418 1.0134 -3.5642 0.0000 32.5617 0.0000
# 6 0.0000 0.0000 0.0000 6.5794 0.0000 15.5132
#
#
#
# Elastic Compliance Matrix: (Units=1/GPa)
#
#
# Indices 1 2 3 4 5 6 
#
# 1 0.040301 0.004337 -0.003436 0.000000 -0.012939 0.000000
# 2 0.004337 0.010820 -0.004770 0.000000 -0.002197 0.000000
# 3 -0.003436 -0.004770 0.013741 0.000000 0.002712 0.000000
# 4 0.000000 0.000000 0.000000 0.022856 0.000000 -0.009694
# 5 -0.012939 -0.002197 0.002712 0.000000 0.035067 0.000000
# 6 0.000000 0.000000 0.000000 -0.009694 0.000000 0.068573
#
#
# Mechanical properties :
#
#
# Convention : Reuss Voigt Hill
#
# Bulk Modulus (GPa) = 17.50575 32.07909 24.79242
# Shear Modulus (GPa) = 22.92153 32.11458 27.51806
#
# Velocity S-wave (km/s) = 3.19737 3.78461 3.50332
# Velocity P-wave (km/s) = 4.63018 5.77972 5.23659
#
# Compressibility (1/GPa) = 0.05712409
#
# Stress axis : x y z
#
# Youngs Moduli (GPa) = 24.81353 92.42006 72.77740
#
# Poissons Ratio (x) = -0.40086 0.25006
# Poissons Ratio (y) = -0.10763 0.34715
# Poissons Ratio (z) = 0.08526 0.44085
#
# Static dielectric constant tensor:
#      x y z
#    x 1.917380 0.000000 0.036230 
#    y 0.000000 1.895200 0.000000 
#    z 0.036230 0.000000 1.888400 
# 
# From -- ./inp_files/26011.got.cif
#   From: 2010.05.17/outbox.cif.g08.bks.cpg/sg12_14_cif.got.tgz:26011.got - 2010.06.03 13:09:07.
