data_PCOD9210852
_publ_section_title
;
Structure prediction by ZEFSAII (Michael W. Deem and Ramdas Pophale) SiO2 
 PCOD9210852
Probable space group: C 2/M
;
_chemical_formula_sum "Si O2"
_cell_formula_units_Z 64
_cell_length_a 29.335533
_cell_length_b 8.912104
_cell_length_c 15.063095
_cell_angle_alpha 90.000000
_cell_angle_beta 48.534915
_cell_angle_gamma 90.000000
_cell_volume 2951.063717
_symmetry_space_group_name_H-M "C 2/M"
_symmetry_group_IT_number 12
_symmetry_cell_setting 'monoclinic'
loop_
_space_group_symop_operation_xyz
x,y,z
-x,y,-z
-x,-y,-z
x,-y,z
1/2+x,1/2+y,z
1/2-x,1/2+y,-z
1/2-x,1/2-y,-z
1/2+x,1/2-y,z
loop_
_atom_site_type_symbol
_atom_site_label
_atom_site_fract_x
_atom_site_fract_y
_atom_site_fract_z
Si Si1 0.642936 0.679903 0.987572
Si Si2 0.238862 0.821666 0.110861
Si Si3 0.262230 0.320960 0.388503
Si Si4 0.044930 0.823922 0.751415
Si Si5 0.599563 0.322777 0.351564
Si Si6 0.855505 0.825201 0.522613
Si Si7 0.556999 0.177350 0.236934
Si Si8 0.104219 0.182090 0.850163
O O1 0.645866 0.500000 0.988237
O O2 0.710463 0.745794 0.892164
O O3 0.601092 0.724338 0.957332
O O4 0.613858 0.745200 0.113911
O O5 0.169988 0.797665 0.231833
O O6 0.249080 0.000000 0.093569
O O7 0.250000 0.750000 0.000000
O O8 0.263180 0.500000 0.394247
O O9 0.250000 0.250000 0.500000
O O10 0.205646 0.269311 0.401918
O O11 0.328032 0.272757 0.267855
O O12 0.109090 0.818092 0.616210
O O13 0.056456 0.768797 0.836895
O O14 0.999192 0.731493 0.750075
O O15 0.025441 0.000000 0.778203
O O16 0.585860 0.500000 0.361251
O O17 0.599801 0.279962 0.454804
O O18 0.557448 0.235677 0.337140
O O19 0.839543 0.000000 0.559366
O O20 0.563100 0.000000 0.227329
O O21 0.101371 0.000000 0.851133
#
# Coordination Sequence:
#
# PCOD9210852 Si02
#       8
#     8   8   8   8   8   8   8   8
#     4  11  22  39  63  89 119 156 199 246 298 355
#     4  11  21  35  59  90 124 158 195 238 292 355
#     4  11  20  35  60  92 127 161 196 238 293 353
#     4  10  21  42  65  84 116 157 201 246 292 352
#     4  10  22  40  63  90 120 159 199 239 296 357
#     4  10  21  39  64  92 121 155 199 246 294 353
#     4  12  26  42  60  85 118 155 201 252 301 354
#     4   9  20  38  62  90 119 157 200 240 292 355
#
# _framework density 21.687094999999999
#
# number of rings (size 3 to 8) (size 9 to 14) (size 15 to 20)
#    0.000    1.500    2.500    3.000    0.000    2.500 
#    0.000    8.125    0.000    0.000    0.000    0.000 
#    0.000    0.000    0.000    0.000    0.000    0.000 
#
# Total GULP energy -178920.269814 kJ/mol
# GULP energy per Si atom -5591.258432 kJ/mol
# Density = 2.163773 g / cm^3
# Si number density = 21.687095 Si / 1000 Ang^3
#
#
#
# Elastic Constant Matrix: (Units=GPa)
#
#
# Indices 1 2 3 4 5 6 
#
# 1 144.3999 40.2346 10.1340 0.0000 24.3168 0.0000
# 2 40.2346 64.9685 6.5263 0.0001 4.7376 -0.0001
# 3 10.1340 6.5263 34.2485 0.0000 17.4435 0.0000
# 4 0.0000 0.0001 0.0000 12.7696 0.0000 -1.8367
# 5 24.3168 4.7376 17.4435 0.0000 42.2871 0.0000
# 6 0.0000 -0.0001 0.0000 -1.8367 0.0000 38.5417
#
#
#
# Elastic Compliance Matrix: (Units=1/GPa)
#
#
# Indices 1 2 3 4 5 6 
#
# 1 0.009230 -0.005436 0.000883 0.000000 -0.005063 0.000000
# 2 -0.005436 0.018908 -0.003175 0.000000 0.002317 0.000000
# 3 0.000883 -0.003175 0.037498 0.000000 -0.015620 0.000000
# 4 0.000000 0.000000 0.000000 0.078851 0.000000 0.003758
# 5 -0.005063 0.002317 -0.015620 0.000000 0.032743 0.000000
# 6 0.000000 0.000000 0.000000 0.003758 0.000000 0.026125
#
#
# Mechanical properties :
#
#
# Convention : Reuss Voigt Hill
#
# Bulk Modulus (GPa) = 19.92747 39.71184 29.81965
# Shear Modulus (GPa) = 21.22800 31.16783 26.19792
#
# Velocity S-wave (km/s) = 3.13202 3.79510 3.47939
# Velocity P-wave (km/s) = 4.72102 6.12819 5.47004
#
# Compressibility (1/GPa) = 0.05018199
#
# Stress axis : x y z
#
# Youngs Moduli (GPa) = 108.33661 52.88636 26.66836
#
# Poissons Ratio (x) = 0.28749 -0.02356
# Poissons Ratio (y) = 0.58891 0.08467
# Poissons Ratio (z) = -0.09571 0.16790
#
# Static dielectric constant tensor:
#      x y z
#    x 1.839300 0.000000 -0.003020 
#    y 0.000000 1.717690 0.000000 
#    z -0.003020 0.000000 1.805300 
# 
# From -- ./inp_files/249659.got.cif
#   From: 2010.05.17/outbox.cif.g08.bks.cpg/sg12_125_cif.got.tgz:249659.got - 2010.06.03 13:09:07.
