data_PCOD9210295
_publ_section_title
;
Structure prediction by ZEFSAII (Michael W. Deem and Ramdas Pophale) SiO2 
 PCOD9210295
Probable space group: C 2/M
;
_chemical_formula_sum "Si O2"
_cell_formula_units_Z 64
_cell_length_a 28.563826
_cell_length_b 9.460057
_cell_length_c 23.186540
_cell_angle_alpha 90.000000
_cell_angle_beta 31.386328
_cell_angle_gamma 90.000000
_cell_volume 3263.037075
_symmetry_space_group_name_H-M "C 2/M"
_symmetry_group_IT_number 12
_symmetry_cell_setting 'monoclinic'
loop_
_space_group_symop_operation_xyz
x,y,z
-x,y,-z
-x,-y,-z
x,-y,z
1/2+x,1/2+y,z
1/2-x,1/2+y,-z
1/2-x,1/2-y,-z
1/2+x,1/2-y,z
loop_
_atom_site_type_symbol
_atom_site_label
_atom_site_fract_x
_atom_site_fract_y
_atom_site_fract_z
Si Si1 0.843139 0.667054 0.401142
Si Si2 0.684549 0.832660 0.026784
Si Si3 0.861370 0.164769 0.612852
Si Si4 0.140825 0.666090 0.946371
Si Si5 0.926599 0.661704 0.186130
Si Si6 0.518046 0.832223 0.280521
Si Si7 0.940585 0.836135 0.651037
Si Si8 0.190678 0.831710 0.778930
O O1 0.826924 0.500000 0.428085
O O2 0.750000 0.750000 0.500000
O O3 0.889345 0.680155 0.289805
O O4 0.917823 0.717114 0.368973
O O5 0.689256 0.791529 0.954927
O O6 0.583955 0.810875 0.156938
O O7 0.703009 0.000000 0.010637
O O8 0.750000 0.750000 0.000000
O O9 0.877170 0.201971 0.663742
O O10 0.788584 0.267282 0.661941
O O11 0.957985 0.173974 0.480714
O O12 0.833219 0.000000 0.639214
O O13 0.161120 0.500000 0.913258
O O14 0.033929 0.674935 0.070149
O O15 0.165751 0.762980 0.866627
O O16 0.904342 0.500000 0.191133
O O17 0.879503 0.771669 0.193437
O O18 0.560912 0.756446 0.290403
O O19 0.513597 0.000000 0.295879
O O20 0.922495 0.000000 0.684227
O O21 0.191280 0.000000 0.780037
#
# Coordination Sequence:
#
# PCOD9210295 Si02
#       8
#     8   8   8   8   8   8   8   8
#     4  10  22  40  62  89 121 158 199 243 291 350
#     4  10  22  40  62  89 121 158 199 243 291 350
#     4   9  20  41  61  83 116 154 199 242 281 346
#     4  10  21  42  66  84 111 157 203 240 287 352
#     4  10  21  42  66  84 111 157 203 240 287 352
#     4  10  21  39  61  89 125 156 190 242 301 356
#     4   9  20  38  62  86 113 153 199 242 284 339
#     4  12  26  38  57  90 122 149 188 247 304 349
#
# _framework density 19.613630000000001
#
# number of rings (size 3 to 8) (size 9 to 14) (size 15 to 20)
#    0.000    2.000    1.250    2.250    3.500    5.000 
#    0.000    1.250    0.000    0.000    0.000    0.000 
#    0.000    0.000    0.000    0.000    0.000    0.000 
#
# Total GULP energy -178801.772100 kJ/mol
# GULP energy per Si atom -5587.555378 kJ/mol
# Density = 1.956899 g / cm^3
# Si number density = 19.613630 Si / 1000 Ang^3
#
#
#
# Elastic Constant Matrix: (Units=GPa)
#
#
# Indices 1 2 3 4 5 6 
#
# 1 80.4929 37.8451 -6.8820 -0.0019 -6.9634 0.0007
# 2 37.8451 61.2572 13.5828 -0.0090 -3.9553 0.0051
# 3 -6.8820 13.5828 34.2622 -0.0060 -9.1857 0.0035
# 4 -0.0019 -0.0090 -0.0060 15.6699 0.0022 -1.1478
# 5 -6.9634 -3.9553 -9.1857 0.0022 29.9474 -0.0009
# 6 0.0007 0.0051 0.0035 -1.1478 -0.0009 32.5112
#
#
#
# Elastic Compliance Matrix: (Units=1/GPa)
#
#
# Indices 1 2 3 4 5 6 
#
# 1 0.021291 -0.015424 0.012173 -0.000003 0.006647 0.000001
# 2 -0.015424 0.029072 -0.015860 0.000009 -0.004611 -0.000002
# 3 0.012173 -0.015860 0.041532 0.000006 0.013475 -0.000002
# 4 -0.000003 0.000009 0.000006 0.063982 -0.000002 0.002259
# 5 0.006647 -0.004611 0.013475 -0.000002 0.038462 0.000000
# 6 0.000001 -0.000002 -0.000002 0.002259 0.000000 0.030838
#
#
# Mechanical properties :
#
#
# Convention : Reuss Voigt Hill
#
# Bulk Modulus (GPa) = 18.63066 29.45600 24.04333
# Shear Modulus (GPa) = 17.77527 24.39012 21.08270
#
# Velocity S-wave (km/s) = 3.01370 3.53020 3.28212
# Velocity P-wave (km/s) = 4.65073 5.62735 5.16219
#
# Compressibility (1/GPa) = 0.05367497
#
# Stress axis : x y z
#
# Youngs Moduli (GPa) = 46.96803 34.39684 24.07791
#
# Poissons Ratio (x) = 0.53053 -0.29311
# Poissons Ratio (y) = 0.72443 0.38187
# Poissons Ratio (z) = -0.57176 0.54552
#
# Static dielectric constant tensor:
#      x y z
#    x 1.676940 0.000000 -0.006290 
#    y 0.000000 1.642020 0.000000 
#    z -0.006290 0.000000 1.711190 
# 
# From -- ./inp_files/353328.got.cif
#   From: 2010.05.17/outbox.cif.g08.bks.cpg/sg12_177_cif.got.tgz:353328.got - 2010.06.03 13:09:07.
