data_PCOD9210691
_publ_section_title
;
Structure prediction by ZEFSAII (Michael W. Deem and Ramdas Pophale) SiO2 
 PCOD9210691
Probable space group: C 2/M
;
_chemical_formula_sum "Si O2"
_cell_formula_units_Z 50
_cell_length_a 7.888991
_cell_length_b 19.112393
_cell_length_c 17.358508
_cell_angle_alpha 90.000000
_cell_angle_beta 62.968749
_cell_angle_gamma 90.000000
_cell_volume 2331.358324
_symmetry_space_group_name_H-M "C 2/M"
_symmetry_group_IT_number 12
_symmetry_cell_setting 'monoclinic'
loop_
_space_group_symop_operation_xyz
x,y,z
-x,y,-z
-x,-y,-z
x,-y,z
1/2+x,1/2+y,z
1/2-x,1/2+y,-z
1/2-x,1/2-y,-z
1/2+x,1/2-y,z
loop_
_atom_site_type_symbol
_atom_site_label
_atom_site_fract_x
_atom_site_fract_y
_atom_site_fract_z
Si Si1 0.204267 0.168636 0.499999
Si Si2 0.873270 0.674332 0.824905
Si Si3 0.629039 0.080402 0.665594
Si Si4 0.000000 0.000000 0.000000
Si Si5 0.539776 0.419598 0.665593
Si Si6 0.523077 0.325668 0.175096
Si Si7 0.188615 0.612919 1.000000
O O1 0.250000 0.250000 0.500000
O O2 0.350397 0.127915 0.414504
O O3 0.000000 0.164122 0.500000
O O4 0.179408 0.127914 0.585495
O O5 0.656450 0.674722 0.843551
O O6 0.961225 0.750000 0.788777
O O7 0.981741 0.614782 0.754858
O O8 0.881412 0.658839 0.913493
O O9 0.835000 0.080535 0.665001
O O10 0.581464 0.000000 0.657214
O O11 0.847806 0.939769 0.000000
O O12 0.604112 0.500000 0.657213
O O13 0.508550 0.385218 0.754856
O O14 0.708396 0.341162 0.086508
O O15 0.000000 0.580651 0.000000
#
# Coordination Sequence:
#
# PCOD9210691 Si02
#       7
#     8   8   8   2   8   8   8
#     4  10  21  39  63  91 127 168 219 274 330 407
#     4  12  25  44  66  97 133 175 228 281 336 408
#     4  10  22  40  64  94 128 171 218 273 341 404
#     4  12  26  48  68 110 136 178 236 272 344 414
#     4  10  22  40  64  94 128 171 218 273 341 404
#     4  12  25  44  66  97 133 175 228 281 336 408
#     4  12  26  46  72 101 141 182 226 284 340 397
#
# _framework density 21.446724
#
# number of rings (size 3 to 8) (size 9 to 14) (size 15 to 20)
#    0.000    0.960    1.600    5.040    2.240    6.400 
#    0.000    0.000    0.000    2.880    0.000    0.000 
#    0.000    0.000    0.000    0.000    0.000    0.000 
#
# Total GULP energy -139606.475296 kJ/mol
# GULP energy per Si atom -5584.259012 kJ/mol
# Density = 2.139791 g / cm^3
# Si number density = 21.446724 Si / 1000 Ang^3
#
#
#
# Elastic Constant Matrix: (Units=GPa)
#
#
# Indices 1 2 3 4 5 6 
#
# 1 114.9721 29.4821 15.2173 0.0000 -0.0020 0.0000
# 2 29.4821 170.0662 57.1205 0.0000 -0.0052 0.0000
# 3 15.2173 57.1205 136.7889 0.0000 -0.0042 0.0000
# 4 0.0000 0.0000 0.0000 -247.1909 0.0000 -0.0002
# 5 -0.0020 -0.0052 -0.0042 0.0000 69.1460 0.0000
# 6 0.0000 0.0000 0.0000 -0.0002 0.0000 27.4304
#
#
#
# Elastic Compliance Matrix: (Units=1/GPa)
#
#
# Indices 1 2 3 4 5 6 
#
# 1 0.009122 -0.001443 -0.000412 0.000000 0.000000 0.000000
# 2 -0.001443 0.007068 -0.002791 0.000000 0.000000 0.000000
# 3 -0.000412 -0.002791 0.008522 0.000000 0.000000 0.000000
# 4 0.000000 0.000000 0.000000 -0.004045 0.000000 0.000000
# 5 0.000000 0.000000 0.000000 0.000000 0.014462 0.000000
# 6 0.000000 0.000000 0.000000 0.000000 0.000000 0.036456
#
#
# Mechanical properties :
#
#
# Convention : Reuss Voigt Hill
#
# Bulk Modulus (GPa) = 64.85214 69.49633 67.17423
# Shear Modulus (GPa) = 58.12867 -8.78908 24.66980
#
# Velocity S-wave (km/s) = 5.21177 -2.02657 3.39526
# Velocity P-wave (km/s) = 8.15605 5.19601 6.83812
#
# Compressibility (1/GPa) = 0.01541969
#
# Stress axis : x y z
#
# Youngs Moduli (GPa) = 109.62102 141.49189 117.34654
#
# Poissons Ratio (x) = 0.20416 0.04838
# Poissons Ratio (y) = 0.15818 0.32749
# Poissons Ratio (z) = 0.04520 0.39487
#
# Static dielectric constant tensor:
#      x y z
#    x 1.775350 0.000000 0.000000 
#    y 0.000000 1.756210 0.000000 
#    z 0.000000 0.000000 1.747560 
# 
# From -- ./inp_files/256945.got.cif
#   From: 2010.05.17/outbox.cif.g08.bks.cpg/sg12_129_cif.got.tgz:256945.got - 2010.06.03 13:09:07.
