data_PCOD9210344
_publ_section_title
;
Structure prediction by ZEFSAII (Michael W. Deem and Ramdas Pophale) SiO2 
 PCOD9210344
Probable space group: C 2/M
;
_chemical_formula_sum "Si O2"
_cell_formula_units_Z 40
_cell_length_a 13.893561
_cell_length_b 10.741813
_cell_length_c 14.326708
_cell_angle_alpha 90.000000
_cell_angle_beta 124.384045
_cell_angle_gamma 90.000000
_cell_volume 1764.550303
_symmetry_space_group_name_H-M "C 2/M"
_symmetry_group_IT_number 12
_symmetry_cell_setting 'monoclinic'
loop_
_space_group_symop_operation_xyz
x,y,z
-x,y,-z
-x,-y,-z
x,-y,z
1/2+x,1/2+y,z
1/2-x,1/2+y,-z
1/2-x,1/2-y,-z
1/2+x,1/2-y,z
loop_
_atom_site_type_symbol
_atom_site_label
_atom_site_fract_x
_atom_site_fract_y
_atom_site_fract_z
Si Si1 0.929030 0.299880 0.166811
Si Si2 0.417058 0.143191 0.578138
Si Si3 0.309681 0.360931 0.409935
Si Si4 0.163911 0.866231 0.022978
Si Si5 0.641380 0.862413 0.149226
O O1 0.803419 0.363206 0.087171
O O2 0.977828 0.312257 0.297584
O O3 0.029800 0.356019 0.156407
O O4 0.901385 0.163248 0.109939
O O5 0.387281 0.244691 0.483508
O O6 0.302321 0.140726 0.581936
O O7 0.435802 0.000000 0.558338
O O8 0.362115 0.500000 0.447503
O O9 0.254340 0.347897 0.277081
O O10 0.136540 0.751668 0.076040
O O11 0.130425 0.000000 0.042905
O O12 0.644679 0.000000 0.107217
#
# Coordination Sequence:
#
# PCOD9210344 Si02
#       5
#     8   8   8   8   8
#     4  10  22  39  60  82 115 154 191 230 283 344
#     4   9  16  30  55  81 105 142 187 227 273 331
#     4   8  16  31  52  81 111 140 181 229 276 330
#     4  11  24  39  58  87 117 147 192 243 283 327
#     4  10  21  39  62  84 113 155 192 226 281 347
#
# _framework density 22.668666000000002
#
# number of rings (size 3 to 8) (size 9 to 14) (size 15 to 20)
#    0.000    2.400    0.000    3.600    0.000    8.800 
#    0.000    5.000    0.000    4.800    0.000    0.000 
#    0.000    0.000    0.000    0.000    0.000    0.000 
#
# Total GULP energy -111742.207404 kJ/mol
# GULP energy per Si atom -5587.110370 kJ/mol
# Density = 2.261707 g / cm^3
# Si number density = 22.668666 Si / 1000 Ang^3
#
#
#
# Elastic Constant Matrix: (Units=GPa)
#
#
# Indices 1 2 3 4 5 6 
#
# 1 79.5255 28.6551 21.8888 0.0000 17.5594 0.0000
# 2 28.6551 217.2169 108.8863 0.0000 -8.6056 0.0000
# 3 21.8888 108.8863 152.1405 0.0000 1.7151 0.0000
# 4 0.0000 0.0000 0.0000 21.0536 0.0000 -12.8611
# 5 17.5594 -8.6056 1.7151 0.0000 25.7059 0.0000
# 6 0.0000 0.0000 0.0000 -12.8611 0.0000 0.6060
#
#
#
# Elastic Compliance Matrix: (Units=1/GPa)
#
#
# Indices 1 2 3 4 5 6 
#
# 1 0.016163 -0.002340 -0.000518 0.000000 -0.011790 0.000000
# 2 -0.002340 0.007717 -0.005238 0.000000 0.004531 0.000000
# 3 -0.000518 -0.005238 0.010420 0.000000 -0.002095 0.000000
# 4 0.000000 0.000000 0.000000 -0.003970 0.000000 -0.084253
# 5 -0.011790 0.004531 -0.002095 0.000000 0.048612 0.000000
# 6 0.000000 0.000000 0.000000 -0.084253 0.000000 -0.137922
#
#
# Mechanical properties :
#
#
# Convention : Reuss Voigt Hill
#
# Bulk Modulus (GPa) = 55.21969 85.30482 70.26225
# Shear Modulus (GPa) = -136.04733 28.76995 -53.63869
#
# Velocity S-wave (km/s) = -7.75538 3.56638 -4.86964
# Velocity P-wave (km/s) = 7.46874 7.39402 0.74516
#
# Compressibility (1/GPa) = 0.01810948
#
# Stress axis : x y z
#
# Youngs Moduli (GPa) = 61.86809 129.57621 95.97186
#
# Poissons Ratio (x) = 0.30316 0.04972
# Poissons Ratio (y) = 0.14475 0.50268
# Poissons Ratio (z) = 0.03205 0.67870
#
# Static dielectric constant tensor:
#      x y z
#    x 1.886420 0.000000 -0.002840 
#    y 0.000000 1.832410 0.000000 
#    z -0.002840 0.000000 1.831560 
# 
# From -- ./inp_files/314544.got.cif
#   From: 2010.05.17/outbox.cif.g08.bks.cpg/sg12_158_cif.got.tgz:314544.got - 2010.06.03 13:09:07.
