data_PCOD9210734
_publ_section_title
;
Structure prediction by ZEFSAII (Michael W. Deem and Ramdas Pophale) SiO2 
 PCOD9210734
Probable space group: C 2/M
;
_chemical_formula_sum "Si O2"
_cell_formula_units_Z 40
_cell_length_a 22.931716
_cell_length_b 10.550301
_cell_length_c 7.663730
_cell_angle_alpha 90.000000
_cell_angle_beta 105.855823
_cell_angle_gamma 90.000000
_cell_volume 1783.590366
_symmetry_space_group_name_H-M "C 2/M"
_symmetry_group_IT_number 12
_symmetry_cell_setting 'monoclinic'
loop_
_space_group_symop_operation_xyz
x,y,z
-x,y,-z
-x,-y,-z
x,-y,z
1/2+x,1/2+y,z
1/2-x,1/2+y,-z
1/2-x,1/2-y,-z
1/2+x,1/2-y,z
loop_
_atom_site_type_symbol
_atom_site_label
_atom_site_fract_x
_atom_site_fract_y
_atom_site_fract_z
Si Si1 0.292245 0.745840 0.364922
Si Si2 0.105253 0.635020 0.369245
Si Si3 0.378427 0.636367 0.208653
Si Si4 0.680671 0.852345 0.071228
Si Si5 0.014202 0.856374 0.218991
O O1 0.250000 0.750000 0.500000
O O2 0.341036 0.855740 0.443714
O O3 0.341227 0.637304 0.358810
O O4 0.241763 0.721874 0.176589
O O5 0.073322 0.500000 0.361158
O O6 0.139595 0.639700 0.211353
O O7 0.058986 0.750549 0.327015
O O8 0.365397 0.500000 0.108620
O O9 0.450602 0.646914 0.270101
O O10 0.354268 0.760611 0.089659
O O11 0.692262 0.000000 0.026248
O O12 0.038710 0.000000 0.251665
O O13 0.000000 0.833963 0.000000
#
# Coordination Sequence:
#
# PCOD9210734 Si02
#       5
#     8   8   8   8   8
#     4  10  23  41  59  87 127 164 204 256 313 368
#     4  10  22  40  64  92 124 165 209 257 314 373
#     4  11  23  40  65  95 125 165 213 258 311 375
#     4  10  21  39  64  94 125 162 209 260 315 373
#     4  10  21  39  63  93 127 163 206 257 315 376
#
# _framework density 22.426673000000001
#
# number of rings (size 3 to 8) (size 9 to 14) (size 15 to 20)
#    0.000    1.800    2.000    1.200    0.000    6.000 
#    0.000    9.000    0.000    0.000    0.000    0.000 
#    0.000    0.000    0.000    0.000    0.000    0.000 
#
# Total GULP energy -111346.237082 kJ/mol
# GULP energy per Si atom -5567.311854 kJ/mol
# Density = 2.237563 g / cm^3
# Si number density = 22.426673 Si / 1000 Ang^3
#
#
#
# Elastic Constant Matrix: (Units=GPa)
#
#
# Indices 1 2 3 4 5 6 
#
# 1 124.1812 58.4824 37.7785 0.0000 2.5802 0.0000
# 2 58.4824 187.3884 74.3058 0.0000 34.0417 0.0000
# 3 37.7785 74.3058 75.1141 0.0000 1.7210 0.0000
# 4 0.0000 0.0000 0.0000 21.3606 0.0000 7.6096
# 5 2.5802 34.0417 1.7210 0.0000 36.9918 0.0000
# 6 0.0000 0.0000 0.0000 7.6096 0.0000 10.1339
#
#
#
# Elastic Compliance Matrix: (Units=1/GPa)
#
#
# Indices 1 2 3 4 5 6 
#
# 1 0.009940 -0.002278 -0.002781 0.000000 0.001532 0.000000
# 2 -0.002278 0.012207 -0.010688 0.000000 -0.010577 0.000000
# 3 -0.002781 -0.010688 0.025081 0.000000 0.008862 0.000000
# 4 0.000000 0.000000 0.000000 0.063912 0.000000 -0.047992
# 5 0.001532 -0.010577 0.008862 0.000000 0.036247 0.000000
# 6 0.000000 0.000000 0.000000 -0.047992 0.000000 0.134717
#
#
# Mechanical properties :
#
#
# Convention : Reuss Voigt Hill
#
# Bulk Modulus (GPa) = 63.55198 80.86858 72.21028
# Shear Modulus (GPa) = 15.68176 28.10507 21.89342
#
# Velocity S-wave (km/s) = 2.64719 3.54389 3.12785
# Velocity P-wave (km/s) = 6.14351 7.27207 6.73148
#
# Compressibility (1/GPa) = 0.01573515
#
# Stress axis : x y z
#
# Youngs Moduli (GPa) = 100.60758 81.92155 39.87024
#
# Poissons Ratio (x) = 0.18658 0.11089
# Poissons Ratio (y) = 0.22914 0.42612
# Poissons Ratio (z) = 0.27981 0.87554
#
# Static dielectric constant tensor:
#      x y z
#    x 1.821050 0.000000 -0.052930 
#    y 0.000000 2.020950 0.000000 
#    z -0.052930 0.000000 1.931550 
# 
# From -- ./inp_files/93011.got.cif
#   From: 2010.05.17/outbox.cif.g08.bks.cpg/sg12_47_cif.got.tgz:93011.got - 2010.06.03 13:09:07.
