data_PCOD9210559
_publ_section_title
;
Structure prediction by ZEFSAII (Michael W. Deem and Ramdas Pophale) SiO2 
 PCOD9210559
Probable space group: C 2/M
;
_chemical_formula_sum "Si O2"
_cell_formula_units_Z 40
_cell_length_a 17.225306
_cell_length_b 9.523446
_cell_length_c 25.114280
_cell_angle_alpha 90.000000
_cell_angle_beta 149.261777
_cell_angle_gamma 90.000000
_cell_volume 2105.724935
_symmetry_space_group_name_H-M "C 2/M"
_symmetry_group_IT_number 12
_symmetry_cell_setting 'monoclinic'
loop_
_space_group_symop_operation_xyz
x,y,z
-x,y,-z
-x,-y,-z
x,-y,z
1/2+x,1/2+y,z
1/2-x,1/2+y,-z
1/2-x,1/2-y,-z
1/2+x,1/2-y,z
loop_
_atom_site_type_symbol
_atom_site_label
_atom_site_fract_x
_atom_site_fract_y
_atom_site_fract_z
Si Si1 0.248333 0.281405 0.936547
Si Si2 0.091728 0.159399 0.147362
Si Si3 0.409433 0.153713 0.749002
Si Si4 0.870457 0.668861 0.607281
Si Si5 0.183464 0.160493 0.790969
O O1 0.228597 0.162824 0.880185
O O2 0.087067 0.358122 0.837023
O O3 0.250000 0.250000 0.000000
O O4 0.414631 0.344863 0.025608
O O5 0.102941 0.229451 0.212721
O O6 0.184965 0.259591 0.163308
O O7 0.149879 0.000000 0.181443
O O8 0.329025 0.185786 0.645657
O O9 0.361431 0.000000 0.741169
O O10 0.878970 0.500000 0.602108
O O11 0.750000 0.750000 0.500000
O O12 0.031163 0.747766 0.693809
O O13 0.162753 0.000000 0.761493
#
# Coordination Sequence:
#
# PCOD9210559 Si02
#       5
#     8   8   8   8   8
#     4   9  20  34  54  81 112 148 188 227 269 322
#     4  11  22  35  54  82 117 153 187 229 278 327
#     4   9  19  36  57  82 112 147 187 228 272 329
#     4  10  21  39  63  87 111 141 181 230 282 335
#     4  11  23  38  57  82 113 149 189 231 277 330
#
# _framework density 18.995833999999999
#
# number of rings (size 3 to 8) (size 9 to 14) (size 15 to 20)
#    0.000    2.000    0.000    3.000    0.000   16.000 
#    0.000    1.000    0.000    6.000    0.000    0.000 
#    0.000    0.000    0.000    0.000    0.000    0.000 
#
# Total GULP energy -111341.679332 kJ/mol
# GULP energy per Si atom -5567.083967 kJ/mol
# Density = 1.895260 g / cm^3
# Si number density = 18.995834 Si / 1000 Ang^3
#
#
#
# Elastic Constant Matrix: (Units=GPa)
#
#
# Indices 1 2 3 4 5 6 
#
# 1 87.2221 54.6630 34.7811 0.0000 -0.3290 0.0000
# 2 54.6630 160.4817 46.7054 -0.0001 -10.4080 0.0000
# 3 34.7811 46.7054 111.6990 -0.0002 -19.2083 -0.0001
# 4 0.0000 -0.0001 -0.0002 17.7776 0.0000 -6.5020
# 5 -0.3290 -10.4080 -19.2083 0.0000 22.6915 0.0000
# 6 0.0000 0.0000 -0.0001 -6.5020 0.0000 17.5812
#
#
#
# Elastic Compliance Matrix: (Units=1/GPa)
#
#
# Indices 1 2 3 4 5 6 
#
# 1 0.015898 -0.004613 -0.003916 0.000000 -0.005200 0.000000
# 2 -0.004613 0.008448 -0.001687 0.000000 0.002380 0.000000
# 3 -0.003916 -0.001687 0.012563 0.000000 0.009804 0.000000
# 4 0.000000 0.000000 0.000000 0.065049 0.000000 0.024057
# 5 -0.005200 0.002380 0.009804 0.000000 0.053385 0.000000
# 6 0.000000 0.000000 0.000000 0.024057 0.000000 0.065776
#
#
# Mechanical properties :
#
#
# Convention : Reuss Voigt Hill
#
# Bulk Modulus (GPa) = 60.68578 70.18910 65.43744
# Shear Modulus (GPa) = 20.23956 26.49363 23.36660
#
# Velocity S-wave (km/s) = 3.26770 3.73863 3.51107
# Velocity P-wave (km/s) = 6.80099 7.46099 7.13862
#
# Compressibility (1/GPa) = 0.01647832
#
# Stress axis : x y z
#
# Youngs Moduli (GPa) = 62.90251 118.37642 79.59779
#
# Poissons Ratio (x) = 0.54603 0.31168
# Poissons Ratio (y) = 0.29015 0.13426
# Poissons Ratio (z) = 0.24631 0.19966
#
# Static dielectric constant tensor:
#      x y z
#    x 1.686610 0.000000 -0.022530 
#    y 0.000000 1.675920 0.000000 
#    z -0.022530 0.000000 1.700720 
# 
# From -- ./inp_files/243383.got.cif
#   From: 2010.05.17/outbox.cif.g08.bks.cpg/sg12_122_cif.got.tgz:243383.got - 2010.06.03 13:09:07.
