data_PCOD9210700
_publ_section_title
;
Structure prediction by ZEFSAII (Michael W. Deem and Ramdas Pophale) SiO2 
 PCOD9210700
Probable space group: C 2/M
;
_chemical_formula_sum "Si O2"
_cell_formula_units_Z 28
_cell_length_a 10.968343
_cell_length_b 23.223920
_cell_length_c 11.621862
_cell_angle_alpha 90.000000
_cell_angle_beta 154.654243
_cell_angle_gamma 90.000000
_cell_volume 1267.292705
_symmetry_space_group_name_H-M "C 2/M"
_symmetry_group_IT_number 12
_symmetry_cell_setting 'monoclinic'
loop_
_space_group_symop_operation_xyz
x,y,z
-x,y,-z
-x,-y,-z
x,-y,z
1/2+x,1/2+y,z
1/2-x,1/2+y,-z
1/2-x,1/2-y,-z
1/2+x,1/2-y,z
loop_
_atom_site_type_symbol
_atom_site_label
_atom_site_fract_x
_atom_site_fract_y
_atom_site_fract_z
Si Si1 0.477223 0.115105 0.734021
Si Si2 0.472384 0.768619 0.840691
Si Si3 0.680734 0.000000 0.268515
Si Si4 0.607987 0.639861 0.221081
O O1 0.345727 0.174541 0.673173
O O2 0.366562 0.110398 0.508418
O O3 0.385352 0.057632 0.717984
O O4 0.815339 0.124535 0.038389
O O5 0.312048 0.707599 0.706780
O O6 0.500000 0.782948 0.000000
O O7 0.750000 0.750000 0.000000
O O8 0.000000 0.000000 0.500000
O O9 0.500000 0.000000 0.000000
O O10 0.500000 0.626956 0.000000
#
# Coordination Sequence:
#
# PCOD9210700 Si02
#       4
#     8   8   4   8
#     4  11  22  40  61  89 122 164 208 255 311 374
#     4   9  19  36  61  92 125 162 205 258 320 379
#     4  12  26  44  63  88 123 166 214 264 308 370
#     4  10  21  39  63  92 124 157 201 259 317 379
#
# _framework density 22.094342000000001
#
# number of rings (size 3 to 8) (size 9 to 14) (size 15 to 20)
#    0.000    1.714    0.000    4.286    0.000    2.286 
#    0.000   15.714    0.000    0.000    0.000    0.000 
#    0.000    0.000    0.000    0.000    0.000    0.000 
#
# Total GULP energy -78067.400590 kJ/mol
# GULP energy per Si atom -5576.242899 kJ/mol
# Density = 2.204405 g / cm^3
# Si number density = 22.094342 Si / 1000 Ang^3
#
#
#
# Elastic Constant Matrix: (Units=GPa)
#
#
# Indices 1 2 3 4 5 6 
#
# 1 108.3575 61.3101 43.0513 0.0001 -25.2946 0.0000
# 2 61.3101 137.1995 67.1073 0.0000 -15.9425 0.0000
# 3 43.0513 67.1073 120.0653 0.0001 -16.4027 -0.0004
# 4 0.0001 0.0000 0.0001 24.2609 0.0001 -16.3505
# 5 -25.2946 -15.9425 -16.4027 0.0001 56.0186 -0.0001
# 6 0.0000 0.0000 -0.0004 -16.3505 -0.0001 6.6270
#
#
#
# Elastic Compliance Matrix: (Units=1/GPa)
#
#
# Indices 1 2 3 4 5 6 
#
# 1 0.013576 -0.004780 -0.001609 0.000000 0.004299 0.000000
# 2 -0.004780 0.011801 -0.004914 0.000000 -0.000239 0.000000
# 3 -0.001609 -0.004914 0.011836 -0.000001 0.001340 -0.000001
# 4 0.000000 0.000000 -0.000001 -0.062189 0.000000 -0.153437
# 5 0.004299 -0.000239 0.001340 0.000000 0.020117 0.000000
# 6 0.000000 0.000000 -0.000001 -0.153437 0.000000 -0.227670
#
#
# Mechanical properties :
#
#
# Convention : Reuss Voigt Hill
#
# Bulk Modulus (GPa) = 68.46755 78.72886 73.59821
# Shear Modulus (GPa) = -24.38371 30.32486 2.97058
#
# Velocity S-wave (km/s) = -3.32568 3.70877 1.16078
# Velocity P-wave (km/s) = 4.03846 7.35189 5.93125
#
# Compressibility (1/GPa) = 0.01460546
#
# Stress axis : x y z
#
# Youngs Moduli (GPa) = 73.65852 84.74025 84.49129
#
# Poissons Ratio (x) = 0.40509 0.13593
# Poissons Ratio (y) = 0.35211 0.41522
# Poissons Ratio (z) = 0.11851 0.41644
#
# Static dielectric constant tensor:
#      x y z
#    x 1.977560 0.000000 0.028190 
#    y 0.000000 1.842560 0.000000 
#    z 0.028190 0.000000 1.796540 
# 
# From -- ./inp_files/5627.got.cif
#   From: 2010.05.17/outbox.cif.g08.bks.cpg/sg12_3_cif.got.tgz:5627.got - 2010.06.03 13:09:07.
