data_PCOD9210738
_publ_section_title
;
Structure prediction by ZEFSAII (Michael W. Deem and Ramdas Pophale) SiO2 
 PCOD9210738
Probable space group: C 2/M
;
_chemical_formula_sum "Si O2"
_cell_formula_units_Z 56
_cell_length_a 9.520206
_cell_length_b 17.714836
_cell_length_c 30.995177
_cell_angle_alpha 90.000000
_cell_angle_beta 147.647967
_cell_angle_gamma 90.000000
_cell_volume 2797.232617
_symmetry_space_group_name_H-M "C 2/M"
_symmetry_group_IT_number 12
_symmetry_cell_setting 'monoclinic'
loop_
_space_group_symop_operation_xyz
x,y,z
-x,y,-z
-x,-y,-z
x,-y,z
1/2+x,1/2+y,z
1/2-x,1/2+y,-z
1/2-x,1/2-y,-z
1/2+x,1/2-y,z
loop_
_atom_site_type_symbol
_atom_site_label
_atom_site_fract_x
_atom_site_fract_y
_atom_site_fract_z
Si Si1 0.862637 0.316525 0.773181
Si Si2 0.122317 0.086085 0.079408
Si Si3 0.196376 0.826004 0.511676
Si Si4 0.589169 0.913361 0.671076
Si Si5 0.888637 0.165527 0.200522
Si Si6 0.708872 0.589126 0.650914
Si Si7 0.578712 0.088306 0.970826
O O1 0.121252 0.364375 0.851961
O O2 0.968576 0.235624 0.785460
O O3 0.678567 0.314430 0.767448
O O4 0.729646 0.359850 0.698695
O O5 0.188250 0.000000 0.108975
O O6 0.880477 0.113981 0.045589
O O7 0.000000 0.085842 0.000000
O O8 0.250000 0.750000 0.500000
O O9 0.454243 0.860753 0.600367
O O10 0.000000 0.809198 0.500000
O O11 0.045797 0.885936 0.442399
O O12 0.458139 0.896046 0.683711
O O13 0.899025 0.901062 0.749352
O O14 0.518569 0.000000 0.643780
O O15 0.620382 0.139013 0.108084
O O16 0.704326 0.500000 0.659727
O O17 0.570229 0.000000 0.953474
O O18 0.500000 0.089771 0.000000
#
# Coordination Sequence:
#
# PCOD9210738 Si02
#       7
#     8   8   8   8   8   8   8
#     4  12  26  41  61  89 124 164 204 254 307 363
#     4  10  21  41  64  87 118 158 202 250 306 361
#     4  10  21  39  63  93 128 163 201 246 300 359
#     4  10  22  41  66  92 123 162 204 252 303 359
#     4  12  26  42  60  89 126 161 205 254 308 362
#     4  10  22  41  66  93 122 161 207 250 300 363
#     4  10  23  41  64  90 119 157 203 252 303 365
#
# _framework density 20.019786
#
# number of rings (size 3 to 8) (size 9 to 14) (size 15 to 20)
#    0.000    1.429    1.429    3.000    4.000    8.000 
#    0.000    0.000    0.000    2.571    0.000    0.000 
#    0.000    0.000    0.000    0.000    0.000    0.000 
#
# Total GULP energy -156520.016858 kJ/mol
# GULP energy per Si atom -5590.000602 kJ/mol
# Density = 1.997422 g / cm^3
# Si number density = 20.019786 Si / 1000 Ang^3
#
#
#
# Elastic Constant Matrix: (Units=GPa)
#
#
# Indices 1 2 3 4 5 6 
#
# 1 76.5241 10.3992 5.1307 0.0001 -6.9810 -0.0005
# 2 10.3992 65.3022 4.9540 -0.0002 -14.5574 -0.0010
# 3 5.1307 4.9540 39.7449 0.0001 -8.3829 -0.0014
# 4 0.0001 -0.0002 0.0001 32.0048 0.0000 -1.3785
# 5 -6.9810 -14.5574 -8.3829 0.0000 31.4230 0.0002
# 6 -0.0005 -0.0010 -0.0014 -1.3785 0.0002 65.2404
#
#
#
# Elastic Compliance Matrix: (Units=1/GPa)
#
#
# Indices 1 2 3 4 5 6 
#
# 1 0.013544 -0.001637 -0.001133 0.000000 0.001948 0.000000
# 2 -0.001637 0.017284 -0.000351 0.000000 0.007550 0.000000
# 3 -0.001133 -0.000351 0.026769 0.000000 0.006727 0.000001
# 4 0.000000 0.000000 0.000000 0.031274 0.000000 0.000661
# 5 0.001948 0.007550 0.006727 0.000000 0.037549 0.000000
# 6 0.000000 0.000000 0.000001 0.000661 0.000000 0.015342
#
#
# Mechanical properties :
#
#
# Convention : Reuss Voigt Hill
#
# Bulk Modulus (GPa) = 19.47205 24.72658 22.09932
# Shear Modulus (GPa) = 30.28077 36.47281 33.37679
#
# Velocity S-wave (km/s) = 3.89336 4.27293 4.08755
# Velocity P-wave (km/s) = 5.47344 6.05985 5.77409
#
# Compressibility (1/GPa) = 0.05135565
#
# Stress axis : x y z
#
# Youngs Moduli (GPa) = 73.83394 57.85802 37.35619
#
# Poissons Ratio (x) = 0.09468 0.04234
# Poissons Ratio (y) = 0.12083 0.01310
# Poissons Ratio (z) = 0.08369 0.02029
#
# Static dielectric constant tensor:
#      x y z
#    x 1.720880 0.000000 0.000480 
#    y 0.000000 1.704610 0.000000 
#    z 0.000480 0.000000 1.687850 
# 
# From -- ./inp_files/257134.got.cif
#   From: 2010.05.17/outbox.cif.g08.bks.cpg/sg12_129_cif.got.tgz:257134.got - 2010.06.03 13:09:07.
