data_PCOD9210326
_publ_section_title
;
Structure prediction by ZEFSAII (Michael W. Deem and Ramdas Pophale) SiO2 
 PCOD9210326
Probable space group: C 2/M
;
_chemical_formula_sum "Si O2"
_cell_formula_units_Z 56
_cell_length_a 10.403607
_cell_length_b 31.666692
_cell_length_c 7.282566
_cell_angle_alpha 90.000000
_cell_angle_beta 69.009133
_cell_angle_gamma 90.000000
_cell_volume 2240.006974
_symmetry_space_group_name_H-M "C 2/M"
_symmetry_group_IT_number 12
_symmetry_cell_setting 'monoclinic'
loop_
_space_group_symop_operation_xyz
x,y,z
-x,y,-z
-x,-y,-z
x,-y,z
1/2+x,1/2+y,z
1/2-x,1/2+y,-z
1/2-x,1/2-y,-z
1/2+x,1/2-y,z
loop_
_atom_site_type_symbol
_atom_site_label
_atom_site_fract_x
_atom_site_fract_y
_atom_site_fract_z
Si Si1 0.975832 0.675116 0.216537
Si Si2 0.187099 0.741972 0.233458
Si Si3 0.849748 0.047093 0.103855
Si Si4 0.956272 0.801513 0.236421
Si Si5 0.337973 0.545455 0.548448
Si Si6 0.599795 0.093279 0.296374
Si Si7 0.776797 0.136293 0.518440
O O1 0.814218 0.672609 0.340214
O O2 0.080728 0.702385 0.283330
O O3 0.016134 0.626039 0.217357
O O4 0.000000 0.690937 0.000000
O O5 0.319478 0.728772 0.289054
O O6 0.078009 0.780273 0.290598
O O7 0.250000 0.750000 0.000000
O O8 0.824707 0.044607 0.334755
O O9 0.707160 0.067896 0.117134
O O10 0.861756 0.000000 0.018530
O O11 0.000000 0.067785 0.000000
O O12 0.913332 0.844264 0.361011
O O13 0.000000 0.808726 0.000000
O O14 0.500000 0.544376 0.500000
O O15 0.278717 0.500000 0.645714
O O16 0.291046 0.592738 0.626247
O O17 0.500000 0.070625 0.500000
O O18 0.690940 0.122554 0.382650
#
# Coordination Sequence:
#
# PCOD9210326 Si02
#       7
#     8   8   8   8   8   8   8
#     4  11  22  39  59  83 124 164 205 264 316 373
#     4  10  21  41  63  91 126 168 208 258 326 381
#     4   9  18  33  56  86 115 149 197 251 311 377
#     4  10  21  40  66  93 128 168 211 267 317 385
#     4   9  19  38  59  85 126 162 197 260 321 377
#     4   9  19  36  57  79 114 155 202 247 312 375
#     4  10  21  39  61  93 119 162 214 255 314 385
#
# _framework density 24.999924
#
# number of rings (size 3 to 8) (size 9 to 14) (size 15 to 20)
#    0.000    2.286    1.429    1.286    0.000    4.286 
#    7.714    3.571    0.000    0.857    0.000    0.000 
#    0.000    0.000    0.000    0.000    0.000    0.000 
#
# Total GULP energy -156138.519640 kJ/mol
# GULP energy per Si atom -5576.375701 kJ/mol
# Density = 2.494302 g / cm^3
# Si number density = 24.999924 Si / 1000 Ang^3
#
#
#
# Elastic Constant Matrix: (Units=GPa)
#
#
# Indices 1 2 3 4 5 6 
#
# 1 123.7421 42.2489 15.7866 0.0000 -20.3842 0.0000
# 2 42.2489 107.8071 37.0695 0.0000 -31.8100 0.0000
# 3 15.7866 37.0695 93.7895 0.0000 -28.2583 0.0000
# 4 0.0000 0.0000 0.0000 16.9694 0.0000 -15.0074
# 5 -20.3842 -31.8100 -28.2583 0.0000 45.1805 0.0000
# 6 0.0000 0.0000 0.0000 -15.0074 0.0000 67.3529
#
#
#
# Elastic Compliance Matrix: (Units=1/GPa)
#
#
# Indices 1 2 3 4 5 6 
#
# 1 0.009493 -0.003168 0.000336 0.000000 0.002263 0.000000
# 2 -0.003168 0.013322 -0.002879 0.000000 0.006149 0.000000
# 3 0.000336 -0.002879 0.013774 0.000000 0.006739 0.000000
# 4 0.000000 0.000000 0.000000 0.073392 0.000000 0.016353
# 5 0.002263 0.006149 0.006739 0.000000 0.031699 0.000000
# 6 0.000000 0.000000 0.000000 0.016353 0.000000 0.018491
#
#
# Mechanical properties :
#
#
# Convention : Reuss Voigt Hill
#
# Bulk Modulus (GPa) = 39.73622 57.28320 48.50971
# Shear Modulus (GPa) = 27.78051 41.24948 34.51499
#
# Velocity S-wave (km/s) = 3.33712 4.06641 3.71968
# Velocity P-wave (km/s) = 5.54775 6.70900 6.15582
#
# Compressibility (1/GPa) = 0.02516596
#
# Stress axis : x y z
#
# Youngs Moduli (GPa) = 105.34245 75.06450 72.59927
#
# Poissons Ratio (x) = 0.23782 -0.02440
# Poissons Ratio (y) = 0.33374 0.20904
# Poissons Ratio (z) = -0.03540 0.21614
#
# Static dielectric constant tensor:
#      x y z
#    x 2.426350 0.000000 -0.192510 
#    y 0.000000 2.136250 0.000000 
#    z -0.192510 0.000000 2.067010 
# 
# From -- ./inp_files/54565.got.cif
#   From: 2010.05.17/outbox.cif.g08.bks.cpg/sg12_28_cif.got.tgz:54565.got - 2010.06.03 13:09:07.
