data_PCOD9210522
_publ_section_title
;
Structure prediction by ZEFSAII (Michael W. Deem and Ramdas Pophale) SiO2 
 PCOD9210522
Probable space group: C 2/M
;
_chemical_formula_sum "Si O2"
_cell_formula_units_Z 40
_cell_length_a 11.910630
_cell_length_b 26.647652
_cell_length_c 8.446481
_cell_angle_alpha 90.000000
_cell_angle_beta 45.642087
_cell_angle_gamma 90.000000
_cell_volume 1916.758024
_symmetry_space_group_name_H-M "C 2/M"
_symmetry_group_IT_number 12
_symmetry_cell_setting 'monoclinic'
loop_
_space_group_symop_operation_xyz
x,y,z
-x,y,-z
-x,-y,-z
x,-y,z
1/2+x,1/2+y,z
1/2-x,1/2+y,-z
1/2-x,1/2-y,-z
1/2+x,1/2-y,z
loop_
_atom_site_type_symbol
_atom_site_label
_atom_site_fract_x
_atom_site_fract_y
_atom_site_fract_z
Si Si1 0.000000 0.228894 0.500000
Si Si2 0.667245 0.559504 0.901401
Si Si3 0.500000 0.898924 0.500000
Si Si4 0.181034 0.057569 0.265794
Si Si5 0.729574 0.836144 0.724667
Si Si6 0.436452 0.187280 0.807450
O O1 0.112522 0.191019 0.482774
O O2 0.079421 0.267070 0.297566
O O3 0.655802 0.500000 0.894671
O O4 0.831035 0.573788 0.652928
O O5 0.500000 0.580950 0.000000
O O6 0.683153 0.568399 0.075018
O O7 0.533007 0.862823 0.320913
O O8 0.265967 0.103242 0.274726
O O9 0.000000 0.058487 0.500000
O O10 0.239851 0.000000 0.233773
O O11 0.592374 0.810831 0.760148
O O12 0.703891 0.820381 0.932526
#
# Coordination Sequence:
#
# PCOD9210522 Si02
#       6
#     4   8   4   8   8   8
#     4  11  22  40  66  86 118 164 212 257 328 366
#     4  10  22  39  61  90 125 170 218 262 313 377
#     4  11  21  40  61  88 133 164 209 263 322 368
#     4  10  21  39  62  93 125 163 213 259 308 382
#     4  11  21  41  63  88 126 162 202 262 320 364
#     4  10  24  39  59  92 125 156 208 264 304 397
#
# _framework density 20.868570999999999
#
# number of rings (size 3 to 8) (size 9 to 14) (size 15 to 20)
#    0.000    1.600    3.000    1.500    2.800    0.000 
#    0.000    3.000    0.000    0.000    0.000    0.000 
#    0.000    0.000    0.000    0.000    0.000    0.000 
#
# Total GULP energy -111398.747565 kJ/mol
# GULP energy per Si atom -5569.937378 kJ/mol
# Density = 2.082107 g / cm^3
# Si number density = 20.868571 Si / 1000 Ang^3
#
#
#
# Elastic Constant Matrix: (Units=GPa)
#
#
# Indices 1 2 3 4 5 6 
#
# 1 37.3624 21.6170 -0.3749 0.0000 -14.8331 0.0000
# 2 21.6170 91.4021 7.9937 0.0000 -2.1324 0.0000
# 3 -0.3749 7.9937 53.8514 0.0000 -5.8508 0.0000
# 4 0.0000 0.0000 0.0000 18.8839 0.0000 -20.6225
# 5 -14.8331 -2.1324 -5.8508 0.0000 30.4864 0.0000
# 6 0.0000 0.0000 0.0000 -20.6225 0.0000 5.2418
#
#
#
# Elastic Compliance Matrix: (Units=1/GPa)
#
#
# Indices 1 2 3 4 5 6 
#
# 1 0.039940 -0.009322 0.003781 0.000000 0.019507 0.000000
# 2 -0.009322 0.013267 -0.002478 0.000000 -0.004083 0.000000
# 3 0.003781 -0.002478 0.019553 0.000000 0.005419 0.000000
# 4 0.000000 0.000000 0.000000 -0.016064 0.000000 -0.063201
# 5 0.019507 -0.004083 0.005419 0.000000 0.043047 0.000000
# 6 0.000000 0.000000 0.000000 -0.063201 0.000000 -0.057873
#
#
# Mechanical properties :
#
#
# Convention : Reuss Voigt Hill
#
# Bulk Modulus (GPa) = 17.62959 26.78748 22.20854
# Shear Modulus (GPa) = 65.09262 21.14776 43.12019
#
# Velocity S-wave (km/s) = 5.59101 3.18681 4.55056
# Velocity P-wave (km/s) = 7.08135 5.13860 6.18671
#
# Compressibility (1/GPa) = 0.05672282
#
# Stress axis : x y z
#
# Youngs Moduli (GPa) = 25.03734 75.37662 51.14435
#
# Poissons Ratio (x) = 0.70263 -0.19338
# Poissons Ratio (y) = 0.23339 0.12673
# Poissons Ratio (z) = -0.09467 0.18677
#
# Static dielectric constant tensor:
#      x y z
#    x 2.208020 0.000000 -0.217280 
#    y 0.000000 1.738560 0.000000 
#    z -0.217280 0.000000 1.867870 
# 
# From -- ./inp_files/52372.got.cif
#   From: 2010.05.17/outbox.cif.g08.bks.cpg/sg12_27_cif.got.tgz:52372.got - 2010.06.03 13:09:07.
