data_PCOD9210194
_publ_section_title
;
Structure prediction by ZEFSAII (Michael W. Deem and Ramdas Pophale) SiO2 
 PCOD9210194
Probable space group: C 2/M
;
_chemical_formula_sum "Si O2"
_cell_formula_units_Z 34
_cell_length_a 21.280423
_cell_length_b 15.311892
_cell_length_c 17.385813
_cell_angle_alpha 90.000000
_cell_angle_beta 18.686450
_cell_angle_gamma 90.000000
_cell_volume 1815.021104
_symmetry_space_group_name_H-M "C 2/M"
_symmetry_group_IT_number 12
_symmetry_cell_setting 'monoclinic'
loop_
_space_group_symop_operation_xyz
x,y,z
-x,y,-z
-x,-y,-z
x,-y,z
1/2+x,1/2+y,z
1/2-x,1/2+y,-z
1/2-x,1/2-y,-z
1/2+x,1/2-y,z
loop_
_atom_site_type_symbol
_atom_site_label
_atom_site_fract_x
_atom_site_fract_y
_atom_site_fract_z
Si Si1 0.530766 0.646971 0.764937
Si Si2 0.026050 0.658720 0.707308
Si Si3 0.072549 0.500000 0.069123
Si Si4 0.381090 0.896996 0.712155
Si Si5 0.000000 0.000000 0.500000
Si Si6 0.373882 0.500000 0.466887
O O1 0.740252 0.641528 0.563588
O O2 0.496842 0.745748 0.776656
O O3 0.547014 0.583690 0.672294
O O4 0.351174 0.616786 0.025608
O O5 0.931251 0.585065 0.871428
O O6 0.944617 0.651141 0.716165
O O7 0.863369 0.500000 0.266719
O O8 0.261860 0.500000 0.796380
O O9 0.500000 0.866041 0.500000
O O10 0.421858 0.000000 0.675349
O O11 0.050332 0.000000 0.534763
#
# Coordination Sequence:
#
# PCOD9210194 Si02
#       6
#     8   8   4   8   2   4
#     4  10  21  41  64  83 112 156 196 233 285 342
#     4  10  21  41  64  83 112 156 196 233 285 342
#     4  10  21  39  61  84 114 150 194 237 280 343
#     4  11  22  36  59  91 120 148 188 237 291 343
#     4  12  22  36  60  86 118 154 186 236 296 326
#     4  10  21  39  61  84 114 150 194 237 280 343
#
# _framework density 18.732564
#
# number of rings (size 3 to 8) (size 9 to 14) (size 15 to 20)
#    0.000    1.647    2.353    2.471    0.000    0.941 
#    8.471    2.353    0.000    0.000    0.000    0.000 
#    0.000    0.000    0.000    0.000    0.000    0.000 
#
# Total GULP energy -94707.703683 kJ/mol
# GULP energy per Si atom -5571.041393 kJ/mol
# Density = 1.868993 g / cm^3
# Si number density = 18.732564 Si / 1000 Ang^3
#
#
#
# Elastic Constant Matrix: (Units=GPa)
#
#
# Indices 1 2 3 4 5 6 
#
# 1 36.4616 -3.6180 29.2892 -0.0325 -2.7763 0.0319
# 2 -3.6180 76.7292 22.7481 0.0043 2.5506 -0.0049
# 3 29.2892 22.7481 146.9659 -0.0613 21.7963 0.0677
# 4 -0.0325 0.0043 -0.0613 5.0310 0.0207 2.6363
# 5 -2.7763 2.5506 21.7963 0.0207 21.3612 -0.0184
# 6 0.0319 -0.0049 0.0677 2.6363 -0.0184 -2.4748
#
#
#
# Elastic Compliance Matrix: (Units=1/GPa)
#
#
# Indices 1 2 3 4 5 6 
#
# 1 0.037249 0.004314 -0.010290 0.000005 0.014826 0.000086
# 2 0.004314 0.014166 -0.003399 0.000005 0.002338 -0.000077
# 3 -0.010290 -0.003399 0.011217 -0.000012 -0.012376 0.000260
# 4 0.000005 0.000005 -0.000012 0.127562 0.000006 0.135887
# 5 0.014826 0.002338 -0.012376 0.000006 0.061089 -0.000601
# 6 0.000086 -0.000077 0.000260 0.135887 -0.000601 -0.259302
#
#
# Mechanical properties :
#
#
# Convention : Reuss Voigt Hill
#
# Bulk Modulus (GPa) = 22.78848 39.66615 31.22731
# Shear Modulus (GPa) = 197.17991 18.89930 108.03961
#
# Velocity S-wave (km/s) = 10.27078 3.17977 7.60263
# Velocity P-wave (km/s) = 12.36299 5.89085 9.68364
#
# Compressibility (1/GPa) = 0.04388182
#
# Stress axis : x y z
#
# Youngs Moduli (GPa) = 26.84648 70.58998 89.15399
#
# Poissons Ratio (x) = -0.30454 0.91740
# Poissons Ratio (y) = -0.11582 0.30305
# Poissons Ratio (z) = 0.27625 0.23995
#
# Static dielectric constant tensor:
#      x y z
#    x 1.605830 0.000000 -0.030550 
#    y 0.000000 1.640470 0.000000 
#    z -0.030550 0.000000 1.659060 
# 
# From -- ./inp_files/284209.got.cif
#   From: 2010.05.17/outbox.cif.g08.bks.cpg/sg12_143_cif.got.tgz:284209.got - 2010.06.03 13:09:07.
