data_PCOD9210169
_publ_section_title
;
Structure prediction by ZEFSAII (Michael W. Deem and Ramdas Pophale) SiO2 
 PCOD9210169
Probable space group: C 2/M
;
_chemical_formula_sum "Si O2"
_cell_formula_units_Z 42
_cell_length_a 11.117271
_cell_length_b 14.529994
_cell_length_c 10.253894
_cell_angle_alpha 90.000000
_cell_angle_beta 84.618963
_cell_angle_gamma 90.000000
_cell_volume 1649.051846
_symmetry_space_group_name_H-M "C 2/M"
_symmetry_group_IT_number 12
_symmetry_cell_setting 'monoclinic'
loop_
_space_group_symop_operation_xyz
x,y,z
-x,y,-z
-x,-y,-z
x,-y,z
1/2+x,1/2+y,z
1/2-x,1/2+y,-z
1/2-x,1/2-y,-z
1/2+x,1/2-y,z
loop_
_atom_site_type_symbol
_atom_site_label
_atom_site_fract_x
_atom_site_fract_y
_atom_site_fract_z
Si Si1 0.974859 0.171548 0.860058
Si Si2 0.232739 0.356389 0.798931
Si Si3 0.219289 0.855611 0.765614
Si Si4 0.500000 0.000000 0.500000
Si Si5 0.520438 0.872061 0.245048
Si Si6 0.857633 0.109958 0.507661
O O1 0.087023 0.107333 0.811787
O O2 0.973619 0.259602 0.761743
O O3 0.848020 0.118615 0.873160
O O4 0.000000 0.210110 0.000000
O O5 0.218270 0.247454 0.820896
O O6 0.099031 0.396161 0.825408
O O7 0.284099 0.371636 0.647344
O O8 0.342483 0.898985 0.804045
O O9 0.215570 0.850835 0.608402
O O10 0.498878 0.919636 0.385746
O O11 0.000000 0.138072 0.500000
O O12 0.856936 0.000000 0.488438
#
# Coordination Sequence:
#
# PCOD9210169 Si02
#       6
#     8   8   8   2   8   8
#     4  10  22  44  69  89 116 160 226 278 297 343
#     4  10  21  39  60  92 122 161 208 255 313 370
#     4  10  21  39  60  92 122 161 208 255 313 370
#     4  12  24  44  58  98 144 172 182 244 320 424
#     4  10  24  36  63  95 127 167 203 244 323 378
#     4  11  22  35  58  90 127 164 198 256 314 386
#
# _framework density 25.469180999999999
#
# number of rings (size 3 to 8) (size 9 to 14) (size 15 to 20)
#    0.000    1.714    1.905    1.714    5.333   11.429 
#    0.000    0.476    0.000    2.286    0.000    0.000 
#    0.000    0.000    0.000    0.000    0.000    0.000 
#
# Total GULP energy -116919.762046 kJ/mol
# GULP energy per Si atom -5567.607716 kJ/mol
# Density = 2.541121 g / cm^3
# Si number density = 25.469181 Si / 1000 Ang^3
#
#
#
# Elastic Constant Matrix: (Units=GPa)
#
#
# Indices 1 2 3 4 5 6 
#
# 1 273.6443 28.7389 15.8319 0.0000 26.6260 0.0000
# 2 28.7389 94.4938 22.2604 0.0000 1.8724 0.0000
# 3 15.8319 22.2604 74.4606 0.0000 7.9022 0.0000
# 4 0.0000 0.0000 0.0000 26.5922 0.0000 5.2962
# 5 26.6260 1.8724 7.9022 0.0000 21.2190 0.0000
# 6 0.0000 0.0000 0.0000 5.2962 0.0000 -19.7032
#
#
#
# Elastic Compliance Matrix: (Units=1/GPa)
#
#
# Indices 1 2 3 4 5 6 
#
# 1 0.004295 -0.001203 0.000008 0.000000 -0.005286 0.000000
# 2 -0.001203 0.011723 -0.003435 0.000000 0.001755 0.000000
# 3 0.000008 -0.003435 0.015018 0.000000 -0.005299 0.000000
# 4 0.000000 0.000000 0.000000 0.035694 0.000000 0.009594
# 5 -0.005286 0.001755 -0.005299 0.000000 0.055578 0.000000
# 6 0.000000 0.000000 0.000000 0.009594 0.000000 -0.048174
#
#
# Mechanical properties :
#
#
# Convention : Reuss Voigt Hill
#
# Bulk Modulus (GPa) = 45.92667 64.02900 54.97784
# Shear Modulus (GPa) = 55.15528 30.67277 42.91403
#
# Velocity S-wave (km/s) = 4.65862 3.47408 4.10925
# Velocity P-wave (km/s) = 6.85626 6.42547 6.64436
#
# Compressibility (1/GPa) = 0.02177384
#
# Stress axis : x y z
#
# Youngs Moduli (GPa) = 232.85070 85.30181 66.58844
#
# Poissons Ratio (x) = 0.10263 -0.00050
# Poissons Ratio (y) = 0.28016 0.22874
# Poissons Ratio (z) = -0.00175 0.29302
#
# Static dielectric constant tensor:
#      x y z
#    x 2.186290 0.000000 0.006240 
#    y 0.000000 1.944230 0.000000 
#    z 0.006240 0.000000 1.990260 
# 
# From -- ./inp_files/130479.got.cif
#   From: 2010.05.17/outbox.cif.g08.bks.cpg/sg12_66_cif.got.tgz:130479.got - 2010.06.03 13:09:07.
