data_PCOD9210156
_publ_section_title
;
Structure prediction by ZEFSAII (Michael W. Deem and Ramdas Pophale) SiO2 
 PCOD9210156
Probable space group: C 2/M
;
_chemical_formula_sum "Si O2"
_cell_formula_units_Z 58
_cell_length_a 18.503495
_cell_length_b 25.647643
_cell_length_c 14.678183
_cell_angle_alpha 90.000000
_cell_angle_beta 156.690702
_cell_angle_gamma 90.000000
_cell_volume 2756.345070
_symmetry_space_group_name_H-M "C 2/M"
_symmetry_group_IT_number 12
_symmetry_cell_setting 'monoclinic'
loop_
_space_group_symop_operation_xyz
x,y,z
-x,y,-z
-x,-y,-z
x,-y,z
1/2+x,1/2+y,z
1/2-x,1/2+y,-z
1/2-x,1/2-y,-z
1/2+x,1/2-y,z
loop_
_atom_site_type_symbol
_atom_site_label
_atom_site_fract_x
_atom_site_fract_y
_atom_site_fract_z
Si Si1 0.149165 0.396564 0.746337
Si Si2 0.000000 0.500000 0.000000
Si Si3 0.452927 0.439505 0.771828
Si Si4 0.248755 0.589858 0.363812
Si Si5 0.714873 0.200025 0.266826
Si Si6 0.264957 0.774492 0.159038
Si Si7 0.896347 0.378808 0.617314
Si Si8 0.953608 0.744249 0.672955
O O1 0.300079 0.402236 0.641178
O O2 0.189324 0.335109 0.775171
O O3 0.055043 0.401075 0.736790
O O4 0.000000 0.414252 0.500000
O O5 0.844575 0.545230 0.801225
O O6 0.411499 0.500000 0.742297
O O7 0.658361 0.425595 0.035158
O O8 0.416726 0.428608 0.621954
O O9 0.291813 0.641479 0.356638
O O10 0.102018 0.605449 0.274388
O O11 0.781348 0.240692 0.268386
O O12 0.778936 0.223704 0.437507
O O13 0.500000 0.195612 0.000000
O O14 0.399978 0.750764 0.240063
O O15 0.061384 0.768073 0.882901
O O16 0.912087 0.316903 0.628857
#
# Coordination Sequence:
#
# PCOD9210156 Si02
#       8
#     8   2   8   8   8   8   8   8
#     4  11  23  43  69  96 135 184 226 278 337 402
#     4  12  20  44  72  90 130 180 222 284 334 410
#     4  10  23  44  69 100 132 176 228 289 340 394
#     4  10  22  41  66  97 131 174 219 278 336 399
#     4  12  23  33  61  99 125 168 220 260 323 411
#     4  10  22  40  59  90 134 171 217 273 326 410
#     4   9  22  43  65  96 137 182 219 276 343 401
#     4  10  21  39  60  88 132 175 212 269 341 389
#
# _framework density 21.042358
#
# number of rings (size 3 to 8) (size 9 to 14) (size 15 to 20)
#    0.828    0.828    1.379    3.724    1.931    2.483 
#    0.000    2.069    0.000    0.828    0.000    0.000 
#    0.000    0.000    0.000    0.000    0.000    0.000 
#
# Total GULP energy -161608.097855 kJ/mol
# GULP energy per Si atom -5572.693029 kJ/mol
# Density = 2.099446 g / cm^3
# Si number density = 21.042358 Si / 1000 Ang^3
#
#
#
# Elastic Constant Matrix: (Units=GPa)
#
#
# Indices 1 2 3 4 5 6 
#
# 1 54.3586 0.5611 1.0076 0.0000 6.5984 0.0000
# 2 0.5611 40.8965 33.3827 0.0001 -2.6822 0.0000
# 3 1.0076 33.3827 142.1075 0.0000 1.0414 0.0000
# 4 0.0000 0.0001 0.0000 0.2957 0.0000 11.2812
# 5 6.5984 -2.6822 1.0414 0.0000 30.8745 0.0000
# 6 0.0000 0.0000 0.0000 11.2812 0.0000 1.2891
#
#
#
# Elastic Compliance Matrix: (Units=1/GPa)
#
#
# Indices 1 2 3 4 5 6 
#
# 1 0.018898 -0.000547 0.000025 0.000000 -0.004087 0.000000
# 2 -0.000547 0.030525 -0.007189 0.000000 0.003011 0.000000
# 3 0.000025 -0.007189 0.008732 0.000000 -0.000924 0.000000
# 4 0.000000 0.000000 0.000000 -0.010160 0.000000 0.088909
# 5 -0.004087 0.003011 -0.000924 0.000000 0.033555 0.000000
# 6 0.000000 0.000000 0.000000 0.088909 0.000000 -0.002330
#
#
# Mechanical properties :
#
#
# Convention : Reuss Voigt Hill
#
# Bulk Modulus (GPa) = 23.40188 34.14060 28.77124
# Shear Modulus (GPa) = 45.91900 19.98595 32.95247
#
# Velocity S-wave (km/s) = 4.67649 3.08522 3.96157
# Velocity P-wave (km/s) = 6.34861 5.38065 5.88457
#
# Compressibility (1/GPa) = 0.04273161
#
# Stress axis : x y z
#
# Youngs Moduli (GPa) = 52.91657 32.75996 114.51762
#
# Poissons Ratio (x) = 0.01793 -0.00281
# Poissons Ratio (y) = 0.02896 0.82325
# Poissons Ratio (z) = -0.00130 0.23551
#
# Static dielectric constant tensor:
#      x y z
#    x 1.799830 0.000000 -0.004800 
#    y 0.000000 1.713370 0.000000 
#    z -0.004800 0.000000 1.796690 
# 
# From -- ./inp_files/227820.got.cif
#   From: 2010.05.17/outbox.cif.g08.bks.cpg/sg12_114_cif.got.tgz:227820.got - 2010.06.03 13:09:07.
