data_PCOD9210544
_publ_section_title
;
Structure prediction by ZEFSAII (Michael W. Deem and Ramdas Pophale) SiO2 
 PCOD9210544
Probable space group: C 2/M
;
_chemical_formula_sum "Si O2"
_cell_formula_units_Z 58
_cell_length_a 20.783929
_cell_length_b 19.629309
_cell_length_c 12.141766
_cell_angle_alpha 90.000000
_cell_angle_beta 39.500812
_cell_angle_gamma 90.000000
_cell_volume 3150.884706
_symmetry_space_group_name_H-M "C 2/M"
_symmetry_group_IT_number 12
_symmetry_cell_setting 'monoclinic'
loop_
_space_group_symop_operation_xyz
x,y,z
-x,y,-z
-x,-y,-z
x,-y,z
1/2+x,1/2+y,z
1/2-x,1/2+y,-z
1/2-x,1/2-y,-z
1/2+x,1/2-y,z
loop_
_atom_site_type_symbol
_atom_site_label
_atom_site_fract_x
_atom_site_fract_y
_atom_site_fract_z
Si Si1 0.779220 0.815430 0.890105
Si Si2 0.000000 0.000000 0.500000
Si Si3 0.229340 0.349499 0.482778
Si Si4 0.210720 0.208178 0.376408
Si Si5 0.857698 0.582459 0.796241
Si Si6 0.910668 0.419511 0.487089
Si Si7 0.054778 0.079332 0.811695
Si Si8 0.497411 0.369088 0.662734
O O1 0.754138 0.800375 0.795524
O O2 0.897949 0.832472 0.747548
O O3 0.750000 0.750000 0.000000
O O4 0.718372 0.879010 0.022849
O O5 0.985532 0.060901 0.425946
O O6 0.212876 0.283198 0.427372
O O7 0.223687 0.332982 0.619732
O O8 0.147429 0.401569 0.546042
O O9 0.340749 0.379804 0.319674
O O10 0.096623 0.178352 0.526568
O O11 0.846599 0.500000 0.821343
O O12 0.849318 0.602908 0.677912
O O13 0.973456 0.604410 0.668617
O O14 0.918889 0.500000 0.490503
O O15 0.986560 0.110615 0.805003
O O16 0.076011 0.000000 0.759159
O O17 0.000000 0.083428 0.000000
#
# Coordination Sequence:
#
# PCOD9210544 Si02
#       8
#     8   2   8   8   8   8   8   8
#     4  12  25  38  61  94 120 157 203 253 308 361
#     4  12  20  44  66  88 124 168 202 252 308 374
#     4  10  21  39  63  78 118 163 195 241 291 365
#     4  10  23  42  57  87 117 159 203 234 304 368
#     4   9  21  37  60  88 121 151 200 252 297 346
#     4   9  18  38  61  87 112 156 199 239 294 347
#     4  10  22  37  59  94 123 152 198 250 304 362
#     4  11  24  41  64  89 123 163 200 254 312 365
#
# _framework density 18.407527999999999
#
# number of rings (size 3 to 8) (size 9 to 14) (size 15 to 20)
#    0.000    1.793    2.069    2.069    6.759    0.000 
#    0.000    0.690    0.000    1.655    0.000    0.000 
#    0.000    0.000    0.000    0.000    0.000    0.000 
#
# Total GULP energy -161451.717124 kJ/mol
# GULP energy per Si atom -5567.300590 kJ/mol
# Density = 1.836563 g / cm^3
# Si number density = 18.407528 Si / 1000 Ang^3
#
#
#
# Elastic Constant Matrix: (Units=GPa)
#
#
# Indices 1 2 3 4 5 6 
#
# 1 128.4654 30.8210 44.5416 0.0000 26.4311 0.0000
# 2 30.8210 59.0415 25.1399 0.0000 10.9519 0.0000
# 3 44.5416 25.1399 64.2365 0.0000 27.3261 0.0000
# 4 0.0000 0.0000 0.0000 10.6719 0.0000 8.7566
# 5 26.4311 10.9519 27.3261 0.0000 28.0265 0.0000
# 6 0.0000 0.0000 0.0000 8.7566 0.0000 35.0869
#
#
#
# Elastic Compliance Matrix: (Units=1/GPa)
#
#
# Indices 1 2 3 4 5 6 
#
# 1 0.011039 -0.002978 -0.004367 0.000000 -0.004990 0.000000
# 2 -0.002978 0.021129 -0.006641 0.000000 0.001027 0.000000
# 3 -0.004367 -0.006641 0.031336 0.000000 -0.023839 0.000000
# 4 0.000000 0.000000 0.000000 0.117834 0.000000 -0.029408
# 5 -0.004990 0.001027 -0.023839 0.000000 0.063229 0.000000
# 6 0.000000 0.000000 0.000000 -0.029408 0.000000 0.035840
#
#
# Mechanical properties :
#
#
# Convention : Reuss Voigt Hill
#
# Bulk Modulus (GPa) = 28.14312 50.30540 39.22426
# Shear Modulus (GPa) = 15.61416 24.83978 20.22697
#
# Velocity S-wave (km/s) = 2.91563 3.67745 3.31848
# Velocity P-wave (km/s) = 5.16301 6.73940 6.00318
#
# Compressibility (1/GPa) = 0.03553266
#
# Stress axis : x y z
#
# Youngs Moduli (GPa) = 90.58612 47.32817 31.91260
#
# Poissons Ratio (x) = 0.14094 0.13935
# Poissons Ratio (y) = 0.26975 0.21194
# Poissons Ratio (z) = 0.39555 0.31432
#
# Static dielectric constant tensor:
#      x y z
#    x 1.647040 0.000000 0.007780 
#    y 0.000000 1.658510 0.000000 
#    z 0.007780 0.000000 1.637900 
# 
# From -- ./inp_files/168961.got.cif
#   From: 2010.05.17/outbox.cif.g08.bks.cpg/sg12_85_cif.got.tgz:168961.got - 2010.06.03 13:09:07.
