data_PCOD9210782
_publ_section_title
;
Structure prediction by ZEFSAII (Michael W. Deem and Ramdas Pophale) SiO2 
 PCOD9210782
Probable space group: C 2/M
;
_chemical_formula_sum "Si O2"
_cell_formula_units_Z 48
_cell_length_a 9.916342
_cell_length_b 27.323566
_cell_length_c 11.778724
_cell_angle_alpha 90.000000
_cell_angle_beta 131.989738
_cell_angle_gamma 90.000000
_cell_volume 2372.086947
_symmetry_space_group_name_H-M "C 2/M"
_symmetry_group_IT_number 12
_symmetry_cell_setting 'monoclinic'
loop_
_space_group_symop_operation_xyz
x,y,z
-x,y,-z
-x,-y,-z
x,-y,z
1/2+x,1/2+y,z
1/2-x,1/2+y,-z
1/2-x,1/2-y,-z
1/2+x,1/2-y,z
loop_
_atom_site_type_symbol
_atom_site_label
_atom_site_fract_x
_atom_site_fract_y
_atom_site_fract_z
Si Si1 0.796185 0.942208 0.931762
Si Si2 0.787030 0.946005 0.401125
Si Si3 0.585191 0.227267 0.333629
Si Si4 0.488836 0.881224 0.627591
Si Si5 0.359050 0.306121 0.313519
Si Si6 0.794156 0.403379 0.872077
O O1 0.652934 0.909519 0.781426
O O2 0.752534 0.000000 0.896294
O O3 0.778858 0.926108 0.053118
O O4 0.000000 0.934825 0.000000
O O5 0.695147 0.904987 0.426201
O O6 0.700386 0.941917 0.227646
O O7 0.000000 0.939653 0.500000
O O8 0.755688 0.000000 0.432881
O O9 0.750000 0.250000 0.500000
O O10 0.515702 0.176280 0.346654
O O11 0.433376 0.268351 0.262341
O O12 0.672756 0.214326 0.262402
O O13 0.500000 0.888174 0.500000
O O14 0.500000 0.309494 0.500000
O O15 0.327094 0.358621 0.240440
O O16 0.000000 0.385185 0.000000
#
# Coordination Sequence:
#
# PCOD9210782 Si02
#       6
#     8   8   8   8   8   8
#     4  11  27  46  66  96 136 184 227 274 344 404
#     4  11  25  42  68 101 129 170 227 280 334 394
#     4  10  21  39  64 101 130 171 222 271 338 395
#     4  12  25  44  69  99 137 176 224 284 336 402
#     4  10  21  39  66  96 131 170 223 276 324 396
#     4  12  23  43  68  94 134 178 220 274 335 402
#
# _framework density 20.235346
#
# number of rings (size 3 to 8) (size 9 to 14) (size 15 to 20)
#    0.000    1.000    3.333    3.000    4.667    3.333 
#    0.000    4.167    0.000    0.000    0.000    0.000 
#    0.000    0.000    0.000    0.000    0.000    0.000 
#
# Total GULP energy -134155.970489 kJ/mol
# GULP energy per Si atom -5589.832104 kJ/mol
# Density = 2.018929 g / cm^3
# Si number density = 20.235346 Si / 1000 Ang^3
#
#
#
# Elastic Constant Matrix: (Units=GPa)
#
#
# Indices 1 2 3 4 5 6 
#
# 1 103.4719 32.5062 27.5849 0.0000 -8.3262 0.0000
# 2 32.5062 136.6097 22.3491 0.0000 14.8728 0.0000
# 3 27.5849 22.3491 44.4373 0.0000 5.9935 0.0000
# 4 0.0000 0.0000 0.0000 25.5290 0.0000 -10.6889
# 5 -8.3262 14.8728 5.9935 0.0000 23.9587 0.0000
# 6 0.0000 0.0000 0.0000 -10.6889 0.0000 -59.6687
#
#
#
# Elastic Compliance Matrix: (Units=1/GPa)
#
#
# Indices 1 2 3 4 5 6 
#
# 1 0.013347 -0.002775 -0.008018 0.000000 0.008367 0.000000
# 2 -0.002775 0.008960 -0.001970 0.000000 -0.006033 0.000000
# 3 -0.008018 -0.001970 0.029684 0.000000 -0.008990 0.000000
# 4 0.000000 0.000000 0.000000 0.036438 0.000000 -0.006527
# 5 0.008367 -0.006033 -0.008990 0.000000 0.050640 0.000000
# 6 0.000000 0.000000 0.000000 -0.006527 0.000000 -0.015590
#
#
# Mechanical properties :
#
#
# Convention : Reuss Voigt Hill
#
# Bulk Modulus (GPa) = 37.78584 49.93324 43.85954
# Shear Modulus (GPa) = 31.68029 11.43572 21.55800
#
# Velocity S-wave (km/s) = 3.96105 2.37984 3.26753
# Velocity P-wave (km/s) = 6.29552 5.68167 5.99645
#
# Compressibility (1/GPa) = 0.02646494
#
# Stress axis : x y z
#
# Youngs Moduli (GPa) = 74.92241 111.61266 33.68808
#
# Poissons Ratio (x) = 0.30974 0.27012
# Poissons Ratio (y) = 0.20792 0.06635
# Poissons Ratio (z) = 0.60074 0.21984
#
# Static dielectric constant tensor:
#      x y z
#    x 1.740900 0.000000 0.090300 
#    y 0.000000 1.705210 0.000000 
#    z 0.090300 0.000000 1.895720 
# 
# From -- ./inp_files/123876.got.cif
#   From: 2010.05.17/outbox.cif.g08.bks.cpg/sg12_62_cif.got.tgz:123876.got - 2010.06.03 13:09:07.
