data_PCOD9210364
_publ_section_title
;
Structure prediction by ZEFSAII (Michael W. Deem and Ramdas Pophale) SiO2 
 PCOD9210364
Probable space group: C 2/M
;
_chemical_formula_sum "Si O2"
_cell_formula_units_Z 56
_cell_length_a 10.194604
_cell_length_b 27.401135
_cell_length_c 18.704143
_cell_angle_alpha 90.000000
_cell_angle_beta 151.030176
_cell_angle_gamma 90.000000
_cell_volume 2530.667338
_symmetry_space_group_name_H-M "C 2/M"
_symmetry_group_IT_number 12
_symmetry_cell_setting 'monoclinic'
loop_
_space_group_symop_operation_xyz
x,y,z
-x,y,-z
-x,-y,-z
x,-y,z
1/2+x,1/2+y,z
1/2-x,1/2+y,-z
1/2-x,1/2-y,-z
1/2+x,1/2-y,z
loop_
_atom_site_type_symbol
_atom_site_label
_atom_site_fract_x
_atom_site_fract_y
_atom_site_fract_z
Si Si1 0.148803 0.324543 0.179458
Si Si2 0.000000 0.591408 0.000000
Si Si3 0.176894 0.158135 0.347525
Si Si4 0.485936 0.843400 0.721236
Si Si5 0.500000 0.280162 0.500000
Si Si6 0.335024 0.721782 0.784558
Si Si7 0.576393 0.447383 0.254978
Si Si8 0.253536 0.944440 0.174459
O O1 0.049172 0.370588 0.087196
O O2 0.469718 0.323135 0.309305
O O3 0.045689 0.336598 0.209535
O O4 0.039585 0.269154 0.116825
O O5 0.744852 0.558113 0.893822
O O6 0.500000 0.168764 0.500000
O O7 0.044145 0.181589 0.212215
O O8 0.173768 0.099766 0.343998
O O9 0.216102 0.816096 0.566894
O O10 0.710788 0.811543 0.787714
O O11 0.534137 0.900304 0.730619
O O12 0.643096 0.250057 0.632953
O O13 0.665643 0.500000 0.325760
O O14 0.659148 0.443557 0.211684
O O15 0.349189 0.000000 0.204267
O O16 0.000000 0.934641 0.000000
#
# Coordination Sequence:
#
# PCOD9210364 Si02
#       8
#     8   4   8   8   4   8   8   8
#     4  10  23  38  57  89 121 155 199 242 287 350
#     4  10  21  42  60  84 122 158 191 246 296 346
#     4  11  23  38  61  85 122 155 197 240 293 346
#     4  11  22  37  61  91 118 153 203 242 292 348
#     4  10  22  34  63  88 121 158 198 234 290 356
#     4  11  21  38  59  89 119 162 198 234 290 353
#     4  10  21  39  63  87 112 152 200 243 294 351
#     4  10  21  39  62  86 115 153 196 246 297 348
#
# _framework density 22.128550000000001
#
# number of rings (size 3 to 8) (size 9 to 14) (size 15 to 20)
#    0.000    1.571    2.143    3.214    4.000    0.286 
#    1.286    6.786    0.000    0.000    0.000    0.000 
#    0.000    0.000    0.000    0.000    0.000    0.000 
#
# Total GULP energy -155901.830438 kJ/mol
# GULP energy per Si atom -5567.922516 kJ/mol
# Density = 2.207818 g / cm^3
# Si number density = 22.128550 Si / 1000 Ang^3
#
#
#
# Elastic Constant Matrix: (Units=GPa)
#
#
# Indices 1 2 3 4 5 6 
#
# 1 141.5709 46.5296 10.4290 0.0032 -6.9808 -0.0003
# 2 46.5296 170.3980 3.4521 -0.0046 10.9043 -0.0024
# 3 10.4290 3.4521 16.9327 -0.0122 6.1724 -0.0182
# 4 0.0032 -0.0046 -0.0122 40.9735 0.0041 21.3815
# 5 -6.9808 10.9043 6.1724 0.0041 27.3687 0.0039
# 6 -0.0003 -0.0024 -0.0182 21.3815 0.0039 20.7051
#
#
#
# Elastic Compliance Matrix: (Units=1/GPa)
#
#
# Indices 1 2 3 4 5 6 
#
# 1 0.008597 -0.002514 -0.006479 0.000000 0.004656 -0.000007
# 2 -0.002514 0.006760 0.001510 0.000001 -0.003675 0.000002
# 3 -0.006479 0.001510 0.069255 -0.000023 -0.017873 0.000088
# 4 0.000000 0.000001 -0.000023 0.052928 0.000005 -0.054658
# 5 0.004656 -0.003675 -0.017873 0.000005 0.043221 -0.000029
# 6 -0.000007 0.000002 0.000088 -0.054658 -0.000029 0.104741
#
#
# Mechanical properties :
#
#
# Convention : Reuss Voigt Hill
#
# Bulk Modulus (GPa) = 14.35859 49.96922 32.16390
# Shear Modulus (GPa) = 15.44720 35.70886 25.57803
#
# Velocity S-wave (km/s) = 2.64496 4.02145 3.40352
# Velocity P-wave (km/s) = 3.97876 6.64779 5.47830
#
# Compressibility (1/GPa) = 0.06964474
#
# Stress axis : x y z
#
# Youngs Moduli (GPa) = 116.32248 147.93511 14.43934
#
# Poissons Ratio (x) = 0.37193 0.09356
# Poissons Ratio (y) = 0.29245 -0.02180
# Poissons Ratio (z) = 0.75369 -0.22338
#
# Static dielectric constant tensor:
#      x y z
#    x 1.696300 0.000000 0.009330 
#    y 0.000000 1.833560 0.000000 
#    z 0.009330 0.000000 2.035800 
# 
# From -- ./inp_files/259887.got.cif
#   From: 2010.05.17/outbox.cif.g08.bks.cpg/sg12_130_cif.got.tgz:259887.got - 2010.06.03 13:09:07.
