data_PCOD9210882
_publ_section_title
;
Structure prediction by ZEFSAII (Michael W. Deem and Ramdas Pophale) SiO2 
 PCOD9210882
Probable space group: C 2/M
;
_chemical_formula_sum "Si O2"
_cell_formula_units_Z 48
_cell_length_a 15.400959
_cell_length_b 8.593048
_cell_length_c 27.603797
_cell_angle_alpha 90.000000
_cell_angle_beta 42.528290
_cell_angle_gamma 90.000000
_cell_volume 2469.341024
_symmetry_space_group_name_H-M "C 2/M"
_symmetry_group_IT_number 12
_symmetry_cell_setting 'monoclinic'
loop_
_space_group_symop_operation_xyz
x,y,z
-x,y,-z
-x,-y,-z
x,-y,z
1/2+x,1/2+y,z
1/2-x,1/2+y,-z
1/2-x,1/2-y,-z
1/2+x,1/2-y,z
loop_
_atom_site_type_symbol
_atom_site_label
_atom_site_fract_x
_atom_site_fract_y
_atom_site_fract_z
Si Si1 0.330526 0.187705 0.921225
Si Si2 0.453502 0.185176 0.433229
Si Si3 0.310304 0.685543 0.403254
Si Si4 0.768782 0.815966 0.664220
Si Si5 0.884448 0.813080 0.182902
Si Si6 0.366906 0.310803 0.079561
O O1 0.471284 0.259922 0.864479
O O2 0.251786 0.232975 0.905512
O O3 0.337883 0.000000 0.920488
O O4 0.250000 0.250000 0.000000
O O5 0.415610 0.234350 0.394237
O O6 0.329382 0.227572 0.516641
O O7 0.582318 0.266349 0.398177
O O8 0.471467 0.000000 0.428672
O O9 0.325045 0.500000 0.400809
O O10 0.306856 0.738393 0.349340
O O11 0.710555 0.758318 0.738738
O O12 0.757207 0.000000 0.664834
O O13 0.856388 0.760359 0.139387
O O14 0.875792 0.000000 0.188277
O O15 0.372226 0.500000 0.077884
O O16 0.500000 0.257254 0.000000
#
# Coordination Sequence:
#
# PCOD9210882 Si02
#       6
#     8   8   8   8   8   8
#     4  11  21  37  61  88 116 148 192 242 297 361
#     4  10  21  39  64  93 124 160 204 253 306 360
#     4  10  21  39  64  93 123 160 207 253 301 363
#     4  12  25  40  59  87 126 165 206 253 305 366
#     4  11  23  41  61  84 117 157 200 249 306 363
#     4   9  18  36  61  85 111 148 190 233 292 359
#
# _framework density 19.438385
#
# number of rings (size 3 to 8) (size 9 to 14) (size 15 to 20)
#    0.000    1.500    1.667    4.000    0.000    5.333 
#    0.000    9.167    0.000    0.000    0.000    0.000 
#    0.000    0.000    0.000    0.000    0.000    0.000 
#
# Total GULP energy -134175.866961 kJ/mol
# GULP energy per Si atom -5590.661123 kJ/mol
# Density = 1.939414 g / cm^3
# Si number density = 19.438385 Si / 1000 Ang^3
#
#
#
# Elastic Constant Matrix: (Units=GPa)
#
#
# Indices 1 2 3 4 5 6 
#
# 1 98.1034 -5.8975 6.2161 0.0000 22.7961 0.0003
# 2 -5.8975 25.0523 2.0898 0.0002 -0.9519 0.0008
# 3 6.2161 2.0898 32.5680 -0.0001 19.5323 0.0000
# 4 0.0000 0.0002 -0.0001 30.2072 0.0000 -5.3317
# 5 22.7961 -0.9519 19.5323 0.0000 34.7050 0.0000
# 6 0.0003 0.0008 0.0000 -5.3317 0.0000 29.9718
#
#
#
# Elastic Compliance Matrix: (Units=1/GPa)
#
#
# Indices 1 2 3 4 5 6 
#
# 1 0.012454 0.002252 0.003544 0.000000 -0.010113 0.000000
# 2 0.002252 0.040882 -0.004285 0.000000 0.002054 -0.000001
# 3 0.003544 -0.004285 0.047958 0.000000 -0.029436 0.000000
# 4 0.000000 0.000000 0.000000 0.034178 0.000000 0.006080
# 5 -0.010113 0.002054 -0.029436 0.000000 0.052081 0.000000
# 6 0.000000 -0.000001 0.000000 0.006080 0.000000 0.034446
#
#
# Mechanical properties :
#
#
# Convention : Reuss Voigt Hill
#
# Bulk Modulus (GPa) = 9.58626 17.83782 13.71204
# Shear Modulus (GPa) = 19.70453 29.19783 24.45118
#
# Velocity S-wave (km/s) = 3.18731 3.87986 3.55051
# Velocity P-wave (km/s) = 4.29972 5.40995 4.88647
#
# Compressibility (1/GPa) = 0.10431592
#
# Stress axis : x y z
#
# Youngs Moduli (GPa) = 80.29439 24.46063 20.85166
#
# Poissons Ratio (x) = -0.05508 -0.07389
# Poissons Ratio (y) = -0.18082 0.08934
# Poissons Ratio (z) = -0.28455 0.10481
#
# Static dielectric constant tensor:
#      x y z
#    x 1.663220 0.000000 0.012790 
#    y 0.000000 1.651300 0.000000 
#    z 0.012790 0.000000 1.663140 
# 
# From -- ./inp_files/360229.got.cif
#   From: 2010.05.17/outbox.cif.g08.bks.cpg/sg12_181_cif.got.tgz:360229.got - 2010.06.03 13:09:07.
