data_PCOD9210158
_publ_section_title
;
Structure prediction by ZEFSAII (Michael W. Deem and Ramdas Pophale) SiO2 
 PCOD9210158
Probable space group: C 2/M
;
_chemical_formula_sum "Si O2"
_cell_formula_units_Z 56
_cell_length_a 8.745272
_cell_length_b 28.925592
_cell_length_c 11.121296
_cell_angle_alpha 90.000000
_cell_angle_beta 71.042992
_cell_angle_gamma 90.000000
_cell_volume 2660.682871
_symmetry_space_group_name_H-M "C 2/M"
_symmetry_group_IT_number 12
_symmetry_cell_setting 'monoclinic'
loop_
_space_group_symop_operation_xyz
x,y,z
-x,y,-z
-x,-y,-z
x,-y,z
1/2+x,1/2+y,z
1/2-x,1/2+y,-z
1/2-x,1/2-y,-z
1/2+x,1/2-y,z
loop_
_atom_site_type_symbol
_atom_site_label
_atom_site_fract_x
_atom_site_fract_y
_atom_site_fract_z
Si Si1 0.431624 0.185377 0.890775
Si Si2 0.806528 0.235028 0.204407
Si Si3 0.580871 0.086313 0.154958
Si Si4 0.498039 0.591056 0.361835
Si Si5 0.836145 0.552894 0.611831
Si Si6 0.482236 0.698041 0.644784
Si Si7 0.255258 0.946378 0.110890
O O1 0.255283 0.204962 0.894593
O O2 0.547362 0.229701 0.854311
O O3 0.450969 0.139969 0.803273
O O4 0.500000 0.165502 0.000000
O O5 0.659219 0.268823 0.273658
O O6 0.864584 0.206079 0.306006
O O7 0.630100 0.057110 0.256526
O O8 0.417439 0.064688 0.143997
O O9 0.720740 0.083280 0.017130
O O10 0.500000 0.574512 0.500000
O O11 0.310672 0.586747 0.377386
O O12 0.558750 0.643850 0.340693
O O13 0.605552 0.564332 0.236538
O O14 0.791571 0.500000 0.590510
O O15 0.000000 0.564767 0.500000
O O16 0.500000 0.709767 0.500000
O O17 0.252578 0.000000 0.076657
#
# Coordination Sequence:
#
# PCOD9210158 Si02
#       7
#     8   8   8   8   8   8   8
#     4  11  21  39  59  88 123 160 208 258 308 370
#     4  10  22  37  61  88 121 162 208 253 314 369
#     4  11  22  40  64  91 126 165 209 253 315 371
#     4  11  24  41  63  92 126 166 210 259 315 373
#     4  11  24  42  64  92 125 162 210 262 314 376
#     4  10  21  39  60  89 125 161 207 255 310 372
#     4  11  22  39  64  90 123 163 207 257 312 374
#
# _framework density 21.047228
#
# number of rings (size 3 to 8) (size 9 to 14) (size 15 to 20)
#    0.000    1.286    1.429    5.571    0.000    4.000 
#    0.000    5.000    0.000    0.000    0.000    0.000 
#    0.000    0.000    0.000    0.000    0.000    0.000 
#
# Total GULP energy -156096.832284 kJ/mol
# GULP energy per Si atom -5574.886867 kJ/mol
# Density = 2.099932 g / cm^3
# Si number density = 21.047228 Si / 1000 Ang^3
#
#
#
# Elastic Constant Matrix: (Units=GPa)
#
#
# Indices 1 2 3 4 5 6 
#
# 1 80.9340 3.1487 32.4208 0.0000 10.6995 0.0000
# 2 3.1487 58.4892 4.3285 0.0000 -2.1359 0.0000
# 3 32.4208 4.3285 88.0078 0.0000 3.8914 0.0000
# 4 0.0000 0.0000 0.0000 24.9564 0.0000 -5.4862
# 5 10.6995 -2.1359 3.8914 0.0000 27.7768 0.0000
# 6 0.0000 0.0000 0.0000 -5.4862 0.0000 25.7907
#
#
#
# Elastic Compliance Matrix: (Units=1/GPa)
#
#
# Indices 1 2 3 4 5 6 
#
# 1 0.015201 -0.000611 -0.005342 0.000000 -0.005154 0.000000
# 2 -0.000611 0.017242 -0.000696 0.000000 0.001659 0.000000
# 3 -0.005342 -0.000696 0.013359 0.000000 0.000133 0.000000
# 4 0.000000 0.000000 0.000000 0.042036 0.000000 0.008942
# 5 -0.005154 0.001659 0.000133 0.000000 0.038096 0.000000
# 6 0.000000 0.000000 0.000000 0.008942 0.000000 0.040676
#
#
# Mechanical properties :
#
#
# Convention : Reuss Voigt Hill
#
# Bulk Modulus (GPa) = 30.76608 34.13635 32.45122
# Shear Modulus (GPa) = 26.21347 28.20696 27.21021
#
# Velocity S-wave (km/s) = 3.53294 3.66481 3.59948
# Velocity P-wave (km/s) = 5.59389 5.84482 5.72073
#
# Compressibility (1/GPa) = 0.03250332
#
# Stress axis : x y z
#
# Youngs Moduli (GPa) = 65.78647 57.99736 74.85674
#
# Poissons Ratio (x) = 0.03545 0.39987
# Poissons Ratio (y) = 0.04021 0.05212
# Poissons Ratio (z) = 0.35142 0.04038
#
# Static dielectric constant tensor:
#      x y z
#    x 1.779480 0.000000 0.029350 
#    y 0.000000 1.730450 0.000000 
#    z 0.029350 0.000000 1.801730 
# 
# From -- ./inp_files/124263.got.cif
#   From: 2010.05.17/outbox.cif.g08.bks.cpg/sg12_63_cif.got.tgz:124263.got - 2010.06.03 13:09:07.
