data_PCOD9210230
_publ_section_title
;
Structure prediction by ZEFSAII (Michael W. Deem and Ramdas Pophale) SiO2 
 PCOD9210230
Probable space group: C 2/M
;
_chemical_formula_sum "Si O2"
_cell_formula_units_Z 50
_cell_length_a 30.066980
_cell_length_b 8.791751
_cell_length_c 12.569674
_cell_angle_alpha 90.000000
_cell_angle_beta 54.454075
_cell_angle_gamma 90.000000
_cell_volume 2703.502178
_symmetry_space_group_name_H-M "C 2/M"
_symmetry_group_IT_number 12
_symmetry_cell_setting 'monoclinic'
loop_
_space_group_symop_operation_xyz
x,y,z
-x,y,-z
-x,-y,-z
x,-y,z
1/2+x,1/2+y,z
1/2-x,1/2+y,-z
1/2-x,1/2-y,-z
1/2+x,1/2-y,z
loop_
_atom_site_type_symbol
_atom_site_label
_atom_site_fract_x
_atom_site_fract_y
_atom_site_fract_z
Si Si1 0.835777 0.315240 0.701392
Si Si2 0.890698 0.682045 0.403344
Si Si3 0.117112 0.682471 0.139459
Si Si4 0.006244 0.167906 0.211549
Si Si5 0.696507 0.318028 0.630936
Si Si6 0.710084 0.683607 0.860234
Si Si7 0.000000 0.000000 0.000000
O O1 0.835362 0.500000 0.700224
O O2 0.862510 0.266696 0.553063
O O3 0.869286 0.268269 0.758670
O O4 0.772436 0.268347 0.796562
O O5 0.886460 0.500000 0.402761
O O6 0.856653 0.755142 0.354382
O O7 0.953033 0.734462 0.312098
O O8 0.113381 0.500000 0.142317
O O9 0.061476 0.754342 0.173585
O O10 0.167106 0.737136 0.996657
O O11 0.000877 0.000000 0.270398
O O12 0.007408 0.130086 0.083995
O O13 0.698025 0.500000 0.619475
O O14 0.750000 0.250000 0.500000
O O15 0.697396 0.280752 0.754638
O O16 0.706140 0.500000 0.878211
#
# Coordination Sequence:
#
# PCOD9210230 Si02
#       7
#     8   8   8   8   8   8   2
#     4   9  20  40  61  86 124 164 199 246 312 367
#     4  11  22  40  64  91 124 161 203 253 306 363
#     4  11  23  39  62  91 120 158 209 255 299 363
#     4  10  23  43  63  87 117 163 202 243 308 366
#     4  11  22  37  60  89 123 160 201 248 304 362
#     4  10  21  39  61  85 123 166 200 246 311 364
#     4   8  24  44  66  74 128 160 198 236 314 364
#
# _framework density 18.494529
#
# number of rings (size 3 to 8) (size 9 to 14) (size 15 to 20)
#    0.480    1.280    1.600    2.400    2.240    1.920 
#    0.000    8.000    0.000    0.000    0.000    0.000 
#    0.000    0.000    0.000    0.000    0.000    0.000 
#
# Total GULP energy -139303.065270 kJ/mol
# GULP energy per Si atom -5572.122611 kJ/mol
# Density = 1.845244 g / cm^3
# Si number density = 18.494529 Si / 1000 Ang^3
#
#
#
# Elastic Constant Matrix: (Units=GPa)
#
#
# Indices 1 2 3 4 5 6 
#
# 1 138.7190 25.8189 48.7529 0.0000 -7.3481 0.0000
# 2 25.8189 38.8602 11.6030 0.0000 7.7889 0.0000
# 3 48.7529 11.6030 30.2244 0.0000 1.1416 0.0000
# 4 0.0000 0.0000 0.0000 31.2932 0.0000 -1.9741
# 5 -7.3481 7.7889 1.1416 0.0000 27.0866 0.0000
# 6 0.0000 0.0000 0.0000 -1.9741 0.0000 24.3420
#
#
#
# Elastic Compliance Matrix: (Units=1/GPa)
#
#
# Indices 1 2 3 4 5 6 
#
# 1 0.018480 -0.005475 -0.028001 0.000000 0.007768 0.000000
# 2 -0.005475 0.032478 -0.003234 0.000000 -0.010688 0.000000
# 3 -0.028001 -0.003234 0.079872 0.000000 -0.010033 0.000000
# 4 0.000000 0.000000 0.000000 0.032120 0.000000 0.002605
# 5 0.007768 -0.010688 -0.010033 0.000000 0.042522 0.000000
# 6 0.000000 0.000000 0.000000 0.002605 0.000000 0.041292
#
#
# Mechanical properties :
#
#
# Convention : Reuss Voigt Hill
#
# Bulk Modulus (GPa) = 17.41778 42.23923 29.82850
# Shear Modulus (GPa) = 14.73527 24.65295 19.69411
#
# Velocity S-wave (km/s) = 2.82571 3.65497 3.26676
# Velocity P-wave (km/s) = 4.48157 6.37966 5.51292
#
# Compressibility (1/GPa) = 0.05741259
#
# Stress axis : x y z
#
# Youngs Moduli (GPa) = 54.11207 30.78962 12.51996
#
# Poissons Ratio (x) = 0.16856 0.35057
# Poissons Ratio (y) = 0.29625 0.04049
# Poissons Ratio (z) = 1.51518 0.09957
#
# Static dielectric constant tensor:
#      x y z
#    x 1.624280 0.000000 0.001400 
#    y 0.000000 1.627440 0.000000 
#    z 0.001400 0.000000 1.619090 
# 
# From -- ./inp_files/180590.got.cif
#   From: 2010.05.17/outbox.cif.g08.bks.cpg/sg12_91_cif.got.tgz:180590.got - 2010.06.03 13:09:07.
