data_PCOD9210198
_publ_section_title
;
Structure prediction by ZEFSAII (Michael W. Deem and Ramdas Pophale) SiO2 
 PCOD9210198
Probable space group: C 2/M
;
_chemical_formula_sum "Si O2"
_cell_formula_units_Z 56
_cell_length_a 14.789019
_cell_length_b 10.740303
_cell_length_c 28.253500
_cell_angle_alpha 90.000000
_cell_angle_beta 40.033731
_cell_angle_gamma 90.000000
_cell_volume 2886.690174
_symmetry_space_group_name_H-M "C 2/M"
_symmetry_group_IT_number 12
_symmetry_cell_setting 'monoclinic'
loop_
_space_group_symop_operation_xyz
x,y,z
-x,y,-z
-x,-y,-z
x,-y,z
1/2+x,1/2+y,z
1/2-x,1/2+y,-z
1/2-x,1/2-y,-z
1/2+x,1/2-y,z
loop_
_atom_site_type_symbol
_atom_site_label
_atom_site_fract_x
_atom_site_fract_y
_atom_site_fract_z
Si Si1 0.136855 0.139398 0.637499
Si Si2 0.389600 0.285288 0.672815
Si Si3 0.203223 0.849973 0.823315
Si Si4 0.933779 0.353517 0.476771
Si Si5 0.574733 0.354909 0.022261
Si Si6 0.135372 0.359301 0.714894
Si Si7 0.658518 0.150043 0.132106
O O1 0.266665 0.160261 0.549528
O O2 0.140252 0.251574 0.673626
O O3 0.990504 0.143067 0.668387
O O4 0.158148 0.000000 0.649944
O O5 0.289042 0.197276 0.744313
O O6 0.493447 0.213039 0.595974
O O7 0.281582 0.360932 0.683896
O O8 0.287555 0.812972 0.837183
O O9 0.043198 0.802094 0.895207
O O10 0.198085 0.000000 0.824554
O O11 0.965093 0.500000 0.460310
O O12 0.000000 0.308598 0.500000
O O13 0.592337 0.500000 0.028704
O O14 0.500000 0.354212 0.000000
O O15 0.729385 0.298792 0.950940
O O16 0.106269 0.500000 0.707649
O O17 0.006669 0.325111 0.801649
O O18 0.673284 0.000000 0.123529
#
# Coordination Sequence:
#
# PCOD9210198 Si02
#       7
#     8   8   8   8   8   8   8
#     4  11  24  43  62  84 118 156 193 237 294 349
#     4  12  22  36  59  88 118 148 189 244 296 341
#     4   9  16  27  51  86 114 146 194 238 280 336
#     4  10  21  39  61  84 115 157 198 235 285 348
#     4   7  11  22  44  76 112 146 186 233 275 325
#     4  11  23  39  60  89 120 153 195 238 287 344
#     4   8  14  29  51  77 113 152 190 232 277 333
#
# _framework density 19.399381000000002
#
# number of rings (size 3 to 8) (size 9 to 14) (size 15 to 20)
#    0.000    2.286    2.857    3.000    0.000    1.143 
#    0.000    2.857    0.000    0.000    0.000    3.000 
#    0.000    0.000    0.000    0.000    0.000    0.000 
#
# Total GULP energy -155962.489390 kJ/mol
# GULP energy per Si atom -5570.088907 kJ/mol
# Density = 1.935523 g / cm^3
# Si number density = 19.399381 Si / 1000 Ang^3
#
#
#
# Elastic Constant Matrix: (Units=GPa)
#
#
# Indices 1 2 3 4 5 6 
#
# 1 67.1178 29.7073 30.0369 0.0000 -13.2393 0.0000
# 2 29.7073 66.6622 51.5583 0.0000 -0.1513 0.0000
# 3 30.0369 51.5583 140.2063 0.0000 -15.5850 0.0000
# 4 0.0000 0.0000 0.0000 23.6437 0.0000 2.2463
# 5 -13.2393 -0.1513 -15.5850 0.0000 33.7381 0.0000
# 6 0.0000 0.0000 0.0000 2.2463 0.0000 6.3724
#
#
#
# Elastic Compliance Matrix: (Units=1/GPa)
#
#
# Indices 1 2 3 4 5 6 
#
# 1 0.020523 -0.008954 -0.000225 0.000000 0.007910 0.000000
# 2 -0.008954 0.025306 -0.008186 0.000000 -0.007182 0.000000
# 3 -0.000225 -0.008186 0.010728 0.000000 0.004831 0.000000
# 4 0.000000 0.000000 0.000000 0.043760 0.000000 -0.015425
# 5 0.007910 -0.007182 0.004831 0.000000 0.034943 0.000000
# 6 0.000000 0.000000 0.000000 -0.015425 0.000000 0.162363
#
#
# Mechanical properties :
#
#
# Convention : Reuss Voigt Hill
#
# Bulk Modulus (GPa) = 45.81399 55.17681 50.49540
# Shear Modulus (GPa) = 14.72194 23.59644 19.15919
#
# Velocity S-wave (km/s) = 2.75778 3.49140 3.14605
# Velocity P-wave (km/s) = 5.81446 6.69011 6.26759
#
# Compressibility (1/GPa) = 0.02182740
#
# Stress axis : x y z
#
# Youngs Moduli (GPa) = 48.72527 39.51597 93.21665
#
# Poissons Ratio (x) = 0.35383 0.02096
# Poissons Ratio (y) = 0.43629 0.76306
# Poissons Ratio (z) = 0.01096 0.32347
#
# Static dielectric constant tensor:
#      x y z
#    x 1.719100 0.000000 -0.030900 
#    y 0.000000 1.654240 0.000000 
#    z -0.030900 0.000000 1.705400 
# 
# From -- ./inp_files/269367.got.cif
#   From: 2010.05.17/outbox.cif.g08.bks.cpg/sg12_135_cif.got.tgz:269367.got - 2010.06.03 13:09:07.
