data_PCOD9210980
_publ_section_title
;
Structure prediction by ZEFSAII (Michael W. Deem and Ramdas Pophale) SiO2 
 PCOD9210980
Probable space group: C 2/M
;
_chemical_formula_sum "Si O2"
_cell_formula_units_Z 56
_cell_length_a 17.668402
_cell_length_b 11.025587
_cell_length_c 16.080021
_cell_angle_alpha 90.000000
_cell_angle_beta 57.255994
_cell_angle_gamma 90.000000
_cell_volume 2634.698756
_symmetry_space_group_name_H-M "C 2/M"
_symmetry_group_IT_number 12
_symmetry_cell_setting 'monoclinic'
loop_
_space_group_symop_operation_xyz
x,y,z
-x,y,-z
-x,-y,-z
x,-y,z
1/2+x,1/2+y,z
1/2-x,1/2+y,-z
1/2-x,1/2-y,-z
1/2+x,1/2-y,z
loop_
_atom_site_type_symbol
_atom_site_label
_atom_site_fract_x
_atom_site_fract_y
_atom_site_fract_z
Si Si1 0.081067 0.637041 0.293760
Si Si2 0.617396 0.636213 0.389211
Si Si3 0.760722 0.208045 0.087780
Si Si4 0.823990 0.139856 0.461490
Si Si5 0.049170 0.756368 0.748531
Si Si6 0.047679 0.867416 0.050083
Si Si7 0.318849 0.866478 0.201507
O O1 0.081558 0.500000 0.328312
O O2 0.080674 0.748042 0.360333
O O3 0.171920 0.654607 0.184200
O O4 0.995149 0.656714 0.285151
O O5 0.581153 0.500000 0.389489
O O6 0.618890 0.653745 0.487376
O O7 0.723014 0.631604 0.304372
O O8 0.794572 0.317765 0.125513
O O9 0.750000 0.250000 0.000000
O O10 0.848283 0.124443 0.033603
O O11 0.750000 0.250000 0.500000
O O12 0.892612 0.155788 0.344262
O O13 0.787067 0.000000 0.483844
O O14 0.115884 0.711374 0.780424
O O15 0.967555 0.811399 0.850487
O O16 0.004211 0.000000 0.081839
O O17 0.000000 0.802495 0.000000
O O18 0.357882 0.000000 0.172965
#
# Coordination Sequence:
#
# PCOD9210980 Si02
#       7
#     8   8   8   8   8   8   8
#     4  11  25  42  67 101 135 174 223 281 338 393
#     4   9  21  44  67  92 130 176 220 267 333 401
#     4  11  22  43  63  92 130 175 220 270 329 396
#     4  11  24  43  71 103 134 176 225 276 335 397
#     4  12  23  42  64  98 135 168 220 274 335 397
#     4  11  23  40  61  88 128 173 219 270 325 390
#     4  10  21  39  65  91 124 170 218 268 323 392
#
# _framework density 21.254801
#
# number of rings (size 3 to 8) (size 9 to 14) (size 15 to 20)
#    0.000    1.286    4.286    1.286    0.000    4.000 
#    0.000    2.857    0.000    0.000    0.000    0.000 
#    0.000    0.000    0.000    0.000    0.000    0.000 
#
# Total GULP energy -156148.798303 kJ/mol
# GULP energy per Si atom -5576.742797 kJ/mol
# Density = 2.120642 g / cm^3
# Si number density = 21.254801 Si / 1000 Ang^3
#
#
#
# Elastic Constant Matrix: (Units=GPa)
#
#
# Indices 1 2 3 4 5 6 
#
# 1 81.2551 27.2576 31.1073 0.0000 11.7202 0.0000
# 2 27.2576 119.6926 47.6695 0.0000 15.2189 0.0000
# 3 31.1073 47.6695 110.1661 0.0000 16.8889 0.0000
# 4 0.0000 0.0000 0.0000 -1.7681 0.0000 -18.0048
# 5 11.7202 15.2189 16.8889 0.0000 43.9928 0.0000
# 6 0.0000 0.0000 0.0000 -18.0048 0.0000 -4.2542
#
#
#
# Elastic Compliance Matrix: (Units=1/GPa)
#
#
# Indices 1 2 3 4 5 6 
#
# 1 0.014345 -0.001834 -0.002942 0.000000 -0.002058 0.000000
# 2 -0.001834 0.010485 -0.003759 0.000000 -0.001696 0.000000
# 3 -0.002942 -0.003759 0.011916 0.000000 -0.002490 0.000000
# 4 0.000000 0.000000 0.000000 0.013435 0.000000 -0.056860
# 5 -0.002058 -0.001696 -0.002490 0.000000 0.024822 0.000000
# 6 0.000000 0.000000 0.000000 -0.056860 0.000000 0.005584
#
#
# Mechanical properties :
#
#
# Convention : Reuss Voigt Hill
#
# Bulk Modulus (GPa) = 50.81974 58.13142 54.47558
# Shear Modulus (GPa) = 47.97772 21.26607 34.62189
#
# Velocity S-wave (km/s) = 4.75622 3.16655 4.04034
# Velocity P-wave (km/s) = 7.35689 6.38581 6.88848
#
# Compressibility (1/GPa) = 0.01967739
#
# Stress axis : x y z
#
# Youngs Moduli (GPa) = 69.71058 95.37366 83.91861
#
# Poissons Ratio (x) = 0.17487 0.24686
# Poissons Ratio (y) = 0.12782 0.31547
# Poissons Ratio (z) = 0.20507 0.35854
#
# Static dielectric constant tensor:
#      x y z
#    x 1.795330 0.000000 -0.002190 
#    y 0.000000 1.807640 0.000000 
#    z -0.002190 0.000000 1.785400 
# 
# From -- ./inp_files/223749.got.cif
#   From: 2010.05.17/outbox.cif.g08.bks.cpg/sg12_112_cif.got.tgz:223749.got - 2010.06.03 13:09:07.
