data_PCOD9210056
_publ_section_title
;
Structure prediction by ZEFSAII (Michael W. Deem and Ramdas Pophale) SiO2 
 PCOD9210056
Probable space group: C 2/M
;
_chemical_formula_sum "Si O2"
_cell_formula_units_Z 26
_cell_length_a 14.003447
_cell_length_b 14.231467
_cell_length_c 14.362678
_cell_angle_alpha 90.000000
_cell_angle_beta 160.475683
_cell_angle_gamma 90.000000
_cell_volume 956.611185
_symmetry_space_group_name_H-M "C 2/M"
_symmetry_group_IT_number 12
_symmetry_cell_setting 'monoclinic'
loop_
_space_group_symop_operation_xyz
x,y,z
-x,y,-z
-x,-y,-z
x,-y,z
1/2+x,1/2+y,z
1/2-x,1/2+y,-z
1/2-x,1/2-y,-z
1/2+x,1/2-y,z
loop_
_atom_site_type_symbol
_atom_site_label
_atom_site_fract_x
_atom_site_fract_y
_atom_site_fract_z
Si Si1 0.783570 0.636805 0.535685
Si Si2 0.796833 0.629247 0.924674
Si Si3 0.500000 0.500000 0.500000
Si Si4 0.712619 0.162711 0.778550
O O1 0.750000 0.750000 0.500000
O O2 0.457827 0.605793 0.236275
O O3 0.004768 0.609582 0.659131
O O4 0.916893 0.604963 0.756657
O O5 0.689555 0.580038 0.732853
O O6 0.810756 0.740714 0.918474
O O7 0.500000 0.188843 0.500000
O O8 0.000000 0.118161 0.000000
#
# Coordination Sequence:
#
# PCOD9210056 Si02
#       4
#     8   8   2   8
#     4  10  21  39  59  86 124 168 208 272 323 365
#     4  11  23  39  57  88 133 170 212 248 318 391
#     4  12  28  42  64  94 136 186 212 242 310 408
#     4  11  19  34  60  91 117 154 207 266 322 364
#
# _framework density 27.179276999999999
#
# number of rings (size 3 to 8) (size 9 to 14) (size 15 to 20)
#    0.000    1.231    1.538    9.231    0.000    2.462 
#    0.000    0.000    0.000    0.000    0.000   21.538 
#    0.000    0.000    0.000    0.000    0.000    0.000 
#
# Total GULP energy -72528.190219 kJ/mol
# GULP energy per Si atom -5579.091555 kJ/mol
# Density = 2.711742 g / cm^3
# Si number density = 27.179277 Si / 1000 Ang^3
#
#
#
# Elastic Constant Matrix: (Units=GPa)
#
#
# Indices 1 2 3 4 5 6 
#
# 1 174.2780 0.1693 33.9001 -0.0085 36.6836 0.1700
# 2 0.1693 118.6227 -7.0393 0.0443 -12.2249 0.0259
# 3 33.9001 -7.0393 173.0353 -0.0011 1.3188 0.2038
# 4 -0.0085 0.0443 -0.0011 -0.7426 0.0203 -58.8250
# 5 36.6836 -12.2249 1.3188 0.0203 73.7376 -0.0124
# 6 0.1700 0.0259 0.2038 -58.8250 -0.0124 184.7549
#
#
#
# Elastic Compliance Matrix: (Units=1/GPa)
#
#
# Indices 1 2 3 4 5 6 
#
# 1 0.006705 -0.000436 -0.001305 0.000007 -0.003384 -0.000003
# 2 -0.000436 0.008625 0.000424 0.000025 0.001639 0.000007
# 3 -0.001305 0.000424 0.006048 0.000018 0.000612 0.000000
# 4 0.000007 0.000025 0.000018 -0.051355 0.000011 -0.016351
# 5 -0.003384 0.001639 0.000612 0.000011 0.015506 0.000007
# 6 -0.000003 0.000007 0.000000 -0.016351 0.000007 0.000206
#
#
# Mechanical properties :
#
#
# Convention : Reuss Voigt Hill
#
# Bulk Modulus (GPa) = 53.35648 57.77737 55.56693
# Shear Modulus (GPa) = -928.83294 80.81037 -424.01129
#
# Velocity S-wave (km/s) = -18.50635 5.45865 -12.50376
# Velocity P-wave (km/s) = 20.90389 7.81238 13.71021
#
# Compressibility (1/GPa) = 0.01874186
#
# Stress axis : x y z
#
# Youngs Moduli (GPa) = 149.14893 115.94514 165.35733
#
# Poissons Ratio (x) = 0.05053 0.21587
# Poissons Ratio (y) = 0.06500 -0.07007
# Poissons Ratio (z) = 0.19471 -0.04913
#
# Static dielectric constant tensor:
#      x y z
#    x 2.294540 -0.000010 0.093660 
#    y -0.000010 2.223740 0.000010 
#    z 0.093660 0.000010 1.986070 
# 
# From -- ./inp_files/217296.got.cif
#   From: 2010.05.17/outbox.cif.g08.bks.cpg/sg12_109_cif.got.tgz:217296.got - 2010.06.03 13:09:07.
