data_PCOD9210248
_publ_section_title
;
Structure prediction by ZEFSAII (Michael W. Deem and Ramdas Pophale) SiO2 
 PCOD9210248
Probable space group: C 2/M
;
_chemical_formula_sum "Si O2"
_cell_formula_units_Z 44
_cell_length_a 17.377572
_cell_length_b 26.323281
_cell_length_c 7.910782
_cell_angle_alpha 90.000000
_cell_angle_beta 145.377805
_cell_angle_gamma 90.000000
_cell_volume 2055.990716
_symmetry_space_group_name_H-M "C 2/M"
_symmetry_group_IT_number 12
_symmetry_cell_setting 'monoclinic'
loop_
_space_group_symop_operation_xyz
x,y,z
-x,y,-z
-x,-y,-z
x,-y,z
1/2+x,1/2+y,z
1/2-x,1/2+y,-z
1/2-x,1/2-y,-z
1/2+x,1/2-y,z
loop_
_atom_site_type_symbol
_atom_site_label
_atom_site_fract_x
_atom_site_fract_y
_atom_site_fract_z
Si Si1 0.482870 0.306700 0.748128
Si Si2 0.249761 0.129860 0.538182
Si Si3 0.350962 0.096798 0.070242
Si Si4 0.659174 0.940993 0.593437
Si Si5 0.500000 0.791179 0.000000
Si Si6 0.287142 0.308215 0.071597
O O1 0.390096 0.339524 0.706432
O O2 0.494005 0.248730 0.833784
O O3 0.389220 0.311518 0.413062
O O4 0.631065 0.322424 0.950115
O O5 0.265283 0.093162 0.407036
O O6 0.369716 0.172253 0.759218
O O7 0.271830 0.097042 0.750109
O O8 0.293889 0.065473 0.126692
O O9 0.503316 0.078723 0.312693
O O10 0.336664 0.154477 0.113493
O O11 0.662628 0.000000 0.553656
O O12 0.250000 0.250000 0.000000
#
# Coordination Sequence:
#
# PCOD9210248 Si02
#       6
#     8   8   8   8   4   8
#     4  10  23  36  57  89 128 162 209 238 304 369
#     4  11  23  40  60  92 129 161 201 256 309 367
#     4  10  21  39  61  86 121 156 201 252 309 366
#     4  11  24  40  65  94 117 156 212 266 317 363
#     4  12  22  38  57  92 125 168 196 244 298 376
#     4  10  22  37  59  89 124 169 203 246 299 373
#
# _framework density 21.400874999999999
#
# number of rings (size 3 to 8) (size 9 to 14) (size 15 to 20)
#    0.000    1.455    1.818    3.818    5.091    3.636 
#    0.000    0.000    0.000    3.273    0.000   12.727 
#    0.000    0.000    0.000    0.000    0.000    0.000 
#
# Total GULP energy -122864.392709 kJ/mol
# GULP energy per Si atom -5584.745123 kJ/mol
# Density = 2.135217 g / cm^3
# Si number density = 21.400875 Si / 1000 Ang^3
#
#
#
# Elastic Constant Matrix: (Units=GPa)
#
#
# Indices 1 2 3 4 5 6 
#
# 1 164.3314 78.7088 41.3599 0.0000 -6.8072 0.0000
# 2 78.7088 154.1426 38.8087 0.0000 6.3315 0.0000
# 3 41.3599 38.8087 69.6811 0.0000 -1.8945 0.0000
# 4 0.0000 0.0000 0.0000 19.1562 0.0000 -10.8122
# 5 -6.8072 6.3315 -1.8945 0.0000 25.4055 0.0000
# 6 0.0000 0.0000 0.0000 -10.8122 0.0000 20.7986
#
#
#
# Elastic Compliance Matrix: (Units=1/GPa)
#
#
# Indices 1 2 3 4 5 6 
#
# 1 0.008826 -0.003881 -0.002993 0.000000 0.003109 0.000000
# 2 -0.003881 0.009377 -0.003017 0.000000 -0.003602 0.000000
# 3 -0.002993 -0.003017 0.017842 0.000000 0.001280 0.000000
# 4 0.000000 0.000000 0.000000 0.073880 0.000000 0.038407
# 5 0.003109 -0.003602 0.001280 0.000000 0.041188 0.000000
# 6 0.000000 0.000000 0.000000 0.038407 0.000000 0.068046
#
#
# Mechanical properties :
#
#
# Convention : Reuss Voigt Hill
#
# Bulk Modulus (GPa) = 61.48416 78.43444 69.95930
# Shear Modulus (GPa) = 20.46150 28.35724 24.40937
#
# Velocity S-wave (km/s) = 3.09545 3.64407 3.38091
# Velocity P-wave (km/s) = 6.44731 7.37803 6.92832
#
# Compressibility (1/GPa) = 0.01626435
#
# Stress axis : x y z
#
# Youngs Moduli (GPa) = 113.29929 106.64738 56.04629
#
# Poissons Ratio (x) = 0.41390 0.16773
# Poissons Ratio (y) = 0.43972 0.16907
# Poissons Ratio (z) = 0.33908 0.32171
#
# Static dielectric constant tensor:
#      x y z
#    x 1.874330 0.000000 -0.070990 
#    y 0.000000 1.732480 0.000000 
#    z -0.070990 0.000000 1.806490 
# 
# From -- ./inp_files/79198.got.cif
#   From: 2010.05.17/outbox.cif.g08.bks.cpg/sg12_40_cif.got.tgz:79198.got - 2010.06.03 13:09:07.
