data_PCOD9210751
_publ_section_title
;
Structure prediction by ZEFSAII (Michael W. Deem and Ramdas Pophale) SiO2 
 PCOD9210751
Probable space group: C 2/M
;
_chemical_formula_sum "Si O2"
_cell_formula_units_Z 56
_cell_length_a 15.332874
_cell_length_b 8.415224
_cell_length_c 24.674334
_cell_angle_alpha 90.000000
_cell_angle_beta 63.031257
_cell_angle_gamma 90.000000
_cell_volume 2837.502208
_symmetry_space_group_name_H-M "C 2/M"
_symmetry_group_IT_number 12
_symmetry_cell_setting 'monoclinic'
loop_
_space_group_symop_operation_xyz
x,y,z
-x,y,-z
-x,-y,-z
x,-y,z
1/2+x,1/2+y,z
1/2-x,1/2+y,-z
1/2-x,1/2-y,-z
1/2+x,1/2-y,z
loop_
_atom_site_type_symbol
_atom_site_label
_atom_site_fract_x
_atom_site_fract_y
_atom_site_fract_z
Si Si1 0.819934 0.687399 0.228160
Si Si2 0.723011 0.183012 0.566368
Si Si3 0.064975 0.692137 0.909802
Si Si4 0.395856 0.309164 0.685853
Si Si5 0.916489 0.815569 0.305982
Si Si6 0.089667 0.685188 0.434203
Si Si7 0.148740 0.190273 0.000034
O O1 0.807741 0.500000 0.221787
O O2 0.879741 0.749211 0.159898
O O3 0.711176 0.752252 0.268439
O O4 0.876501 0.713581 0.268088
O O5 0.750000 0.250000 0.500000
O O6 0.641372 0.278019 0.622344
O O7 0.820622 0.203936 0.574359
O O8 0.693648 0.000000 0.569907
O O9 0.059570 0.500000 0.912560
O O10 0.127380 0.746804 0.944841
O O11 0.953232 0.755694 0.942576
O O12 0.392781 0.500000 0.675966
O O13 0.470853 0.284318 0.713262
O O14 0.433668 0.223636 0.621159
O O15 0.901781 0.000000 0.296596
O O16 0.118789 0.500000 0.431601
O O17 0.000000 0.713092 0.500000
O O18 0.152492 0.000000 0.998029
O O19 0.250000 0.250000 0.000000
#
# Coordination Sequence:
#
# PCOD9210751 Si02
#       7
#     8   8   8   8   8   8   8
#     4  10  22  41  63  89 125 167 206 253 309 367
#     4  12  24  39  59  83 115 152 196 251 311 372
#     4  10  21  39  63  94 131 170 212 260 312 371
#     4  10  22  40  60  85 118 157 198 246 305 367
#     4  11  23  39  61  89 120 158 204 251 305 367
#     4  11  23  38  58  86 115 147 194 250 308 372
#     4  11  22  39  64  95 131 170 215 263 312 367
#
# _framework density 19.735666999999999
#
# number of rings (size 3 to 8) (size 9 to 14) (size 15 to 20)
#    0.000    1.286    1.429    5.571    0.000    6.857 
#    0.000    1.429    0.000    0.000    0.000    0.000 
#    0.000    0.000    0.000    0.000    0.000    0.000 
#
# Total GULP energy -156412.239390 kJ/mol
# GULP energy per Si atom -5586.151407 kJ/mol
# Density = 1.969075 g / cm^3
# Si number density = 19.735667 Si / 1000 Ang^3
#
#
#
# Elastic Constant Matrix: (Units=GPa)
#
#
# Indices 1 2 3 4 5 6 
#
# 1 106.3366 16.8727 41.6817 0.0000 -10.8101 0.0000
# 2 16.8727 48.2237 5.6590 0.0000 -10.4143 0.0000
# 3 41.6817 5.6590 129.3400 0.0000 -11.2471 0.0000
# 4 0.0000 0.0000 0.0000 10.8367 0.0000 0.7205
# 5 -10.8101 -10.4143 -11.2471 0.0000 14.9375 0.0000
# 6 0.0000 0.0000 0.0000 0.7205 0.0000 32.6686
#
#
#
# Elastic Compliance Matrix: (Units=1/GPa)
#
#
# Indices 1 2 3 4 5 6 
#
# 1 0.011522 -0.002799 -0.003248 0.000000 0.003941 0.000000
# 2 -0.002799 0.025116 0.001230 0.000000 0.016411 0.000000
# 3 -0.003248 0.001230 0.009197 0.000000 0.005432 0.000000
# 4 0.000000 0.000000 0.000000 0.092414 0.000000 -0.002038
# 5 0.003941 0.016411 0.005432 0.000000 0.085330 0.000000
# 6 0.000000 0.000000 0.000000 -0.002038 0.000000 0.030655
#
#
# Mechanical properties :
#
#
# Convention : Reuss Voigt Hill
#
# Bulk Modulus (GPa) = 27.62348 45.81413 36.71880
# Shear Modulus (GPa) = 18.12023 26.33436 22.22729
#
# Velocity S-wave (km/s) = 3.03338 3.65684 3.35961
# Velocity P-wave (km/s) = 5.12793 6.41048 5.80474
#
# Compressibility (1/GPa) = 0.03620109
#
# Stress axis : x y z
#
# Youngs Moduli (GPa) = 86.79018 39.81554 108.73381
#
# Poissons Ratio (x) = 0.11145 0.35316
# Poissons Ratio (y) = 0.24293 -0.13377
# Poissons Ratio (z) = 0.28189 -0.04898
#
# Static dielectric constant tensor:
#      x y z
#    x 1.697840 0.000000 -0.000510 
#    y 0.000000 1.682980 0.000000 
#    z -0.000510 0.000000 1.709000 
# 
# From -- ./inp_files/338436.got.cif
#   From: 2010.05.17/outbox.cif.g08.bks.cpg/sg12_170_cif.got.tgz:338436.got - 2010.06.03 13:09:07.
