data_PCOD9210665
_publ_section_title
;
Structure prediction by ZEFSAII (Michael W. Deem and Ramdas Pophale) SiO2 
 PCOD9210665
Probable space group: C 2/M
;
_chemical_formula_sum "Si O2"
_cell_formula_units_Z 40
_cell_length_a 12.904579
_cell_length_b 17.061199
_cell_length_c 18.560660
_cell_angle_alpha 90.000000
_cell_angle_beta 27.268046
_cell_angle_gamma 90.000000
_cell_volume 1872.225652
_symmetry_space_group_name_H-M "C 2/M"
_symmetry_group_IT_number 12
_symmetry_cell_setting 'monoclinic'
loop_
_space_group_symop_operation_xyz
x,y,z
-x,y,-z
-x,-y,-z
x,-y,z
1/2+x,1/2+y,z
1/2-x,1/2+y,-z
1/2-x,1/2-y,-z
1/2+x,1/2-y,z
loop_
_atom_site_type_symbol
_atom_site_label
_atom_site_fract_x
_atom_site_fract_y
_atom_site_fract_z
Si Si1 0.572305 0.201138 0.560797
Si Si2 0.126700 0.594185 0.052432
Si Si3 0.055907 0.091396 0.695774
Si Si4 0.265976 0.092792 0.849882
Si Si5 0.110032 0.135734 0.357762
O O1 0.750000 0.250000 0.500000
O O2 0.416672 0.144525 0.704216
O O3 0.424552 0.270725 0.619918
O O4 0.731728 0.145200 0.414573
O O5 0.129233 0.500000 0.046706
O O6 0.179316 0.616237 0.102013
O O7 0.875361 0.619630 0.188167
O O8 0.328622 0.620907 0.875594
O O9 0.012205 0.099854 0.636932
O O10 0.093557 0.000000 0.690096
O O11 0.317821 0.000000 0.809026
O O12 0.000000 0.103186 0.000000
O O13 0.000000 0.104557 0.500000
#
# Coordination Sequence:
#
# PCOD9210665 Si02
#       5
#     8   8   8   8   8
#     4  10  22  38  56  85 122 159 196 238 292 353
#     4  10  21  39  64  92 120 153 198 253 305 352
#     4  10  21  39  63  91 122 157 201 249 297 353
#     4  10  22  42  66  89 116 156 205 251 298 356
#     4  11  23  38  58  91 127 160 198 243 301 360
#
# _framework density 21.364946
#
# number of rings (size 3 to 8) (size 9 to 14) (size 15 to 20)
#    0.000    1.800    0.000    4.200    0.000    9.600 
#    0.000    6.000    0.000    6.000    0.000    0.000 
#    0.000    0.000    0.000    0.000    0.000    0.600 
#
# Total GULP energy -111795.837592 kJ/mol
# GULP energy per Si atom -5589.791880 kJ/mol
# Density = 2.131632 g / cm^3
# Si number density = 21.364946 Si / 1000 Ang^3
#
#
#
# Elastic Constant Matrix: (Units=GPa)
#
#
# Indices 1 2 3 4 5 6 
#
# 1 15.2060 -10.6375 -15.3373 -0.0205 0.6658 -0.0083
# 2 -10.6375 47.6427 26.8694 0.0001 -0.3398 0.0055
# 3 -15.3373 26.8694 110.5481 -0.0201 14.3149 -0.0153
# 4 -0.0205 0.0001 -0.0201 69.7375 0.0025 2.2130
# 5 0.6658 -0.3398 14.3149 0.0025 30.2238 -0.0027
# 6 -0.0083 0.0055 -0.0153 2.2130 -0.0027 33.1681
#
#
#
# Elastic Compliance Matrix: (Units=1/GPa)
#
#
# Indices 1 2 3 4 5 6 
#
# 1 0.084943 0.013710 0.009242 0.000027 -0.006094 0.000021
# 2 0.013710 0.026845 -0.004925 0.000003 0.002332 -0.000003
# 3 0.009242 -0.004925 0.012314 0.000006 -0.006091 0.000008
# 4 0.000027 0.000003 0.000006 0.014370 -0.000005 -0.000959
# 5 -0.006094 0.002332 -0.006091 -0.000005 0.036132 -0.000001
# 6 0.000021 -0.000003 0.000008 -0.000959 -0.000001 0.030213
#
#
# Mechanical properties :
#
#
# Convention : Reuss Voigt Hill
#
# Bulk Modulus (GPa) = 6.24394 19.46513 12.85453
# Shear Modulus (GPa) = 22.50758 38.12603 30.31681
#
# Velocity S-wave (km/s) = 3.24926 4.22893 3.77105
# Velocity P-wave (km/s) = 4.12381 5.74245 4.99907
#
# Compressibility (1/GPa) = 0.16015533
#
# Stress axis : x y z
#
# Youngs Moduli (GPa) = 11.77264 37.25129 81.21012
#
# Poissons Ratio (x) = -0.51072 -0.75052
# Poissons Ratio (y) = -0.16140 0.39993
# Poissons Ratio (z) = -0.10880 0.18345
#
# Static dielectric constant tensor:
#      x y z
#    x 1.850750 -0.000070 -0.060870 
#    y -0.000070 1.772540 0.000120 
#    z -0.060870 0.000120 1.868790 
# 
# From -- ./inp_files/61391.got.cif
#   From: 2010.05.17/outbox.cif.g08.bks.cpg/sg12_31_cif.got.tgz:61391.got - 2010.06.03 13:09:07.
