data_PCOD9210383
_publ_section_title
;
Structure prediction by ZEFSAII (Michael W. Deem and Ramdas Pophale) SiO2 
 PCOD9210383
Probable space group: C 2/M
;
_chemical_formula_sum "Si O2"
_cell_formula_units_Z 48
_cell_length_a 31.291300
_cell_length_b 8.864110
_cell_length_c 18.302824
_cell_angle_alpha 90.000000
_cell_angle_beta 149.166271
_cell_angle_gamma 90.000000
_cell_volume 2602.026736
_symmetry_space_group_name_H-M "C 2/M"
_symmetry_group_IT_number 12
_symmetry_cell_setting 'monoclinic'
loop_
_space_group_symop_operation_xyz
x,y,z
-x,y,-z
-x,-y,-z
x,-y,z
1/2+x,1/2+y,z
1/2-x,1/2+y,-z
1/2-x,1/2-y,-z
1/2+x,1/2-y,z
loop_
_atom_site_type_symbol
_atom_site_label
_atom_site_fract_x
_atom_site_fract_y
_atom_site_fract_z
Si Si1 0.332300 0.178567 0.086426
Si Si2 0.078301 0.180283 0.918252
Si Si3 0.589633 0.819775 0.095138
Si Si4 0.594907 0.321665 0.419438
Si Si5 0.742633 0.320653 0.408740
Si Si6 0.483678 0.322265 0.390966
O O1 0.357102 0.251776 0.045292
O O2 0.408914 0.220954 0.251921
O O3 0.323401 0.000000 0.065683
O O4 0.250000 0.250000 0.000000
O O5 0.985401 0.210887 0.749747
O O6 0.087900 0.000000 0.935978
O O7 0.089553 0.253155 0.013628
O O8 0.662682 0.746371 0.250053
O O9 0.601239 0.000000 0.109768
O O10 0.500000 0.788074 0.000000
O O11 0.614466 0.500000 0.440651
O O12 0.674089 0.225833 0.512622
O O13 0.562974 0.294112 0.455084
O O14 0.735394 0.500000 0.403531
O O15 0.750000 0.250000 0.500000
O O16 0.500000 0.299084 0.500000
O O17 0.461595 0.500000 0.346960
#
# Coordination Sequence:
#
# PCOD9210383 Si02
#       6
#     8   8   8   8   8   8
#     4  11  22  37  58  84 118 156 196 241 288 342
#     4  10  21  39  62  87 116 151 192 238 291 344
#     4  11  24  41  62  88 117 151 192 236 286 345
#     4   9  19  37  60  85 116 151 189 236 288 343
#     4  12  25  40  60  85 116 152 192 238 287 342
#     4   9  19  37  60  85 115 152 192 236 288 342
#
# _framework density 18.44716
#
# number of rings (size 3 to 8) (size 9 to 14) (size 15 to 20)
#    0.000    1.667    0.000    6.000    0.000    9.000 
#    0.000    5.000    0.000    0.000    0.000    0.000 
#    0.000    0.000    0.000    0.000    0.000    0.000 
#
# Total GULP energy -134156.572016 kJ/mol
# GULP energy per Si atom -5589.857167 kJ/mol
# Density = 1.840517 g / cm^3
# Si number density = 18.447160 Si / 1000 Ang^3
#
#
#
# Elastic Constant Matrix: (Units=GPa)
#
#
# Indices 1 2 3 4 5 6 
#
# 1 162.6542 98.7981 102.1914 0.0000 -5.6740 0.0000
# 2 98.7981 131.7591 86.2850 0.0000 8.9669 0.0000
# 3 102.1914 86.2850 108.2091 0.0000 -0.9098 0.0000
# 4 0.0000 0.0000 0.0000 31.6068 0.0000 -1.7207
# 5 -5.6740 8.9669 -0.9098 0.0000 36.7427 0.0000
# 6 0.0000 0.0000 0.0000 -1.7207 0.0000 32.9343
#
#
#
# Elastic Compliance Matrix: (Units=1/GPa)
#
#
# Indices 1 2 3 4 5 6 
#
# 1 0.016723 -0.005145 -0.011661 0.000000 0.003549 0.000000
# 2 -0.005145 0.018139 -0.009651 0.000000 -0.005460 0.000000
# 3 -0.011661 -0.009651 0.027960 0.000000 0.001247 0.000000
# 4 0.000000 0.000000 0.000000 0.031729 0.000000 0.001658
# 5 0.003549 -0.005460 0.001247 0.000000 0.029128 0.000000
# 6 0.000000 0.000000 0.000000 0.001658 0.000000 0.030450
#
#
# Mechanical properties :
#
#
# Convention : Reuss Voigt Hill
#
# Bulk Modulus (GPa) = 100.92293 108.57458 104.74875
# Shear Modulus (GPa) = 23.77037 27.94662 25.85850
#
# Velocity S-wave (km/s) = 3.59355 3.89647 3.74807
# Velocity P-wave (km/s) = 8.48800 8.90102 8.69696
#
# Compressibility (1/GPa) = 0.00990855
#
# Stress axis : x y z
#
# Youngs Moduli (GPa) = 59.79804 55.12853 35.76545
#
# Poissons Ratio (x) = 0.28363 0.41705
# Poissons Ratio (y) = 0.30765 0.34519
# Poissons Ratio (z) = 0.69728 0.53207
#
# Static dielectric constant tensor:
#      x y z
#    x 1.619220 0.000000 0.002300 
#    y 0.000000 1.616600 0.000000 
#    z 0.002300 0.000000 1.605580 
# 
# From -- ./inp_files/295894.got.cif
#   From: 2010.05.17/outbox.cif.g08.bks.cpg/sg12_148_cif.got.tgz:295894.got - 2010.06.03 13:09:07.
