data_PCOD9210267
_publ_section_title
;
Structure prediction by ZEFSAII (Michael W. Deem and Ramdas Pophale) SiO2 
 PCOD9210267
Probable space group: C 2/M
;
_chemical_formula_sum "Si O2"
_cell_formula_units_Z 64
_cell_length_a 8.901460
_cell_length_b 13.736591
_cell_length_c 22.513637
_cell_angle_alpha 90.000000
_cell_angle_beta 86.532673
_cell_angle_gamma 90.000000
_cell_volume 2747.831798
_symmetry_space_group_name_H-M "C 2/M"
_symmetry_group_IT_number 12
_symmetry_cell_setting 'monoclinic'
loop_
_space_group_symop_operation_xyz
x,y,z
-x,y,-z
-x,-y,-z
x,-y,z
1/2+x,1/2+y,z
1/2-x,1/2+y,-z
1/2-x,1/2-y,-z
1/2+x,1/2-y,z
loop_
_atom_site_type_symbol
_atom_site_label
_atom_site_fract_x
_atom_site_fract_y
_atom_site_fract_z
Si Si1 0.704649 0.730681 0.866199
Si Si2 0.161962 0.112490 0.981090
Si Si3 0.573402 0.292737 0.559485
Si Si4 0.969092 0.612506 0.294387
Si Si5 0.104940 0.385551 0.416442
Si Si6 0.415267 0.893270 0.064390
Si Si7 0.975310 0.800438 0.784635
Si Si8 0.872817 0.112543 0.666129
O O1 0.737462 0.669875 0.925041
O O2 0.577253 0.808177 0.889496
O O3 0.835085 0.791577 0.832262
O O4 0.622428 0.668024 0.817612
O O5 0.147062 0.000000 0.962843
O O6 0.247284 0.112290 0.041492
O O7 0.000000 0.155415 0.000000
O O8 0.500000 0.330732 0.500000
O O9 0.743191 0.330753 0.565216
O O10 0.541728 0.176225 0.559492
O O11 0.470318 0.328872 0.616412
O O12 0.961908 0.500000 0.273483
O O13 0.090429 0.617252 0.344758
O O14 0.000640 0.692936 0.244235
O O15 0.804082 0.637451 0.325321
O O16 0.104179 0.500000 0.433273
O O17 0.449330 0.000000 0.088054
O O18 0.500000 0.883972 0.000000
O O19 0.938075 0.868062 0.729990
O O20 0.884159 0.000000 0.649737
#
# Coordination Sequence:
#
# PCOD9210267 Si02
#       8
#     8   8   8   8   8   8   8   8
#     4  12  24  37  63  94 129 166 220 280 335 407
#     4  10  21  39  61  87 124 167 211 268 335 403
#     4  12  26  47  77 112 150 188 239 307 360 429
#     4  10  23  46  71  94 130 185 234 280 346 423
#     4  11  25  45  75 109 145 192 240 291 360 431
#     4  10  21  39  63  89 124 169 215 267 332 402
#     4  12  25  41  63  96 131 175 224 286 343 409
#     4  11  25  47  72  95 136 189 234 288 363 431
#
# _framework density 23.291090000000001
#
# number of rings (size 3 to 8) (size 9 to 14) (size 15 to 20)
#    0.000    1.000    2.500    3.750    1.750    3.250 
#    0.000    1.875    0.000    0.000    0.000    0.000 
#    0.000    0.000    0.000    0.000    0.000    0.000 
#
# Total GULP energy -178892.263645 kJ/mol
# GULP energy per Si atom -5590.383239 kJ/mol
# Density = 2.323808 g / cm^3
# Si number density = 23.291090 Si / 1000 Ang^3
#
#
#
# Elastic Constant Matrix: (Units=GPa)
#
#
# Indices 1 2 3 4 5 6 
#
# 1 72.5862 17.0562 3.3090 0.0000 4.3698 0.0000
# 2 17.0562 111.0305 13.8227 0.0000 -10.7733 0.0000
# 3 3.3090 13.8227 85.7401 0.0000 2.7861 0.0000
# 4 0.0000 0.0000 0.0000 -3.3028 0.0000 7.3535
# 5 4.3698 -10.7733 2.7861 0.0000 43.9234 0.0000
# 6 0.0000 0.0000 0.0000 7.3535 0.0000 25.2473
#
#
#
# Elastic Compliance Matrix: (Units=1/GPa)
#
#
# Indices 1 2 3 4 5 6 
#
# 1 0.014469 -0.002406 -0.000105 0.000000 -0.002023 0.000000
# 2 -0.002406 0.009840 -0.001583 0.000000 0.002753 0.000000
# 3 -0.000105 -0.001583 0.011959 0.000000 -0.001136 0.000000
# 4 0.000000 0.000000 0.000000 -0.183668 0.000000 0.053495
# 5 -0.002023 0.002753 -0.001136 0.000000 0.023716 0.000000
# 6 0.000000 0.000000 0.000000 0.053495 0.000000 0.024027
#
#
# Mechanical properties :
#
#
# Convention : Reuss Voigt Hill
#
# Bulk Modulus (GPa) = 35.61140 37.52586 36.56863
# Shear Modulus (GPa) = -60.89442 28.85150 -16.02146
#
# Velocity S-wave (km/s) = -5.11876 3.52339 -2.62559
# Velocity P-wave (km/s) = 4.42862 5.71830 2.55796
#
# Compressibility (1/GPa) = 0.02808089
#
# Stress axis : x y z
#
# Youngs Moduli (GPa) = 69.11514 101.62236 83.61667
#
# Poissons Ratio (x) = 0.24449 0.00876
# Poissons Ratio (y) = 0.16628 0.13237
# Poissons Ratio (z) = 0.00724 0.16087
#
# Static dielectric constant tensor:
#      x y z
#    x 1.957400 0.000000 0.016540 
#    y 0.000000 1.888990 0.000000 
#    z 0.016540 0.000000 1.870990 
# 
# From -- ./inp_files/332938.got.cif
#   From: 2010.05.17/outbox.cif.g08.bks.cpg/sg12_167_cif.got.tgz:332938.got - 2010.06.03 13:09:07.
