data_PCOD9210404
_publ_section_title
;
Structure prediction by ZEFSAII (Michael W. Deem and Ramdas Pophale) SiO2 
 PCOD9210404
Probable space group: C 2/M
;
_chemical_formula_sum "Si O2"
_cell_formula_units_Z 50
_cell_length_a 9.770980
_cell_length_b 16.455009
_cell_length_c 28.706917
_cell_angle_alpha 90.000000
_cell_angle_beta 34.193955
_cell_angle_gamma 90.000000
_cell_volume 2593.917232
_symmetry_space_group_name_H-M "C 2/M"
_symmetry_group_IT_number 12
_symmetry_cell_setting 'monoclinic'
loop_
_space_group_symop_operation_xyz
x,y,z
-x,y,-z
-x,-y,-z
x,-y,z
1/2+x,1/2+y,z
1/2-x,1/2+y,-z
1/2-x,1/2-y,-z
1/2+x,1/2-y,z
loop_
_atom_site_type_symbol
_atom_site_label
_atom_site_fract_x
_atom_site_fract_y
_atom_site_fract_z
Si Si1 0.274414 0.271646 0.439680
Si Si2 0.841092 0.908079 0.672573
Si Si3 0.747613 0.362478 0.198893
Si Si4 0.755033 0.289425 0.947298
Si Si5 0.000000 0.500000 0.000000
Si Si6 0.087263 0.874430 0.143886
Si Si7 0.943713 0.683380 0.721264
O O1 0.250000 0.250000 0.500000
O O2 0.411370 0.357388 0.399737
O O3 0.429203 0.208553 0.363761
O O4 0.000000 0.276251 0.500000
O O5 0.784043 0.906865 0.743543
O O6 0.638700 0.858409 0.700369
O O7 0.857157 0.000000 0.650804
O O8 0.623582 0.396840 0.187783
O O9 0.642848 0.270705 0.234303
O O10 0.034959 0.355661 0.109648
O O11 0.830157 0.218270 0.889964
O O12 0.500000 0.321468 0.000000
O O13 0.750000 0.250000 0.000000
O O14 0.218987 0.429745 0.937818
O O15 0.798840 0.872167 0.214160
#
# Coordination Sequence:
#
# PCOD9210404 Si02
#       7
#     8   8   8   8   2   8   8
#     4  11  22  43  74 103 133 175 224 270 324 411
#     4  11  25  42  63  99 138 171 215 276 336 394
#     4  10  21  39  62  87 121 168 225 269 327 399
#     4  11  19  34  56  85 111 155 219 284 325 383
#     4  12  24  40  56  86 130 174 220 276 332 392
#     4  11  23  38  60  86 124 172 221 269 332 397
#     4  10  22  41  68  95 129 177 220 271 331 399
#
# _framework density 19.275866000000001
#
# number of rings (size 3 to 8) (size 9 to 14) (size 15 to 20)
#    0.000    1.280    4.000    2.880    6.720    0.320 
#    0.000    1.600    0.000    1.440    0.000    0.000 
#    0.000    0.000    0.000    0.000    0.000    0.000 
#
# Total GULP energy -139231.890144 kJ/mol
# GULP energy per Si atom -5569.275606 kJ/mol
# Density = 1.923199 g / cm^3
# Si number density = 19.275866 Si / 1000 Ang^3
#
#
#
# Elastic Constant Matrix: (Units=GPa)
#
#
# Indices 1 2 3 4 5 6 
#
# 1 125.2230 24.0468 47.5527 -0.0060 -14.0995 0.0020
# 2 24.0468 65.6957 20.2164 -0.0057 -10.4274 0.0010
# 3 47.5527 20.2164 107.1151 -0.0155 -17.2073 0.0098
# 4 -0.0060 -0.0057 -0.0155 6.9146 0.0014 -3.0300
# 5 -14.0995 -10.4274 -17.2073 0.0014 46.0844 0.0020
# 6 0.0020 0.0010 0.0098 -3.0300 0.0020 8.3255
#
#
#
# Elastic Compliance Matrix: (Units=1/GPa)
#
#
# Indices 1 2 3 4 5 6 
#
# 1 0.010008 -0.002309 -0.003829 -0.000001 0.001110 0.000002
# 2 -0.002309 0.017010 -0.001788 0.000009 0.002475 0.000003
# 3 -0.003829 -0.001788 0.011829 0.000018 0.002841 -0.000007
# 4 -0.000001 0.000009 0.000018 0.172063 0.000001 0.062621
# 5 0.001110 0.002475 0.002841 0.000001 0.023660 -0.000010
# 6 0.000002 0.000003 -0.000007 0.062621 -0.000010 0.142902
#
#
# Mechanical properties :
#
#
# Convention : Reuss Voigt Hill
#
# Bulk Modulus (GPa) = 43.48565 53.51838 48.50202
# Shear Modulus (GPa) = 12.46918 26.01276 19.24097
#
# Velocity S-wave (km/s) = 2.54614 3.67754 3.16284
# Velocity P-wave (km/s) = 5.59039 6.77179 6.20925
#
# Compressibility (1/GPa) = 0.02299609
#
# Stress axis : x y z
#
# Youngs Moduli (GPa) = 99.91892 58.78973 84.53536
#
# Poissons Ratio (x) = 0.13574 0.32368
# Poissons Ratio (y) = 0.23070 0.15113
# Poissons Ratio (z) = 0.38258 0.10510
#
# Static dielectric constant tensor:
#      x y z
#    x 1.405810 -0.000200 -0.153480 
#    y -0.000200 1.677080 -0.000130 
#    z -0.153480 -0.000130 1.580290 
# 
# From -- ./inp_files/256950.got.cif
#   From: 2010.05.17/outbox.cif.g08.bks.cpg/sg12_129_cif.got.tgz:256950.got - 2010.06.03 13:09:07.
