data_PCOD9210648
_publ_section_title
;
Structure prediction by ZEFSAII (Michael W. Deem and Ramdas Pophale) SiO2 
 PCOD9210648
Probable space group: C 2/M
;
_chemical_formula_sum "Si O2"
_cell_formula_units_Z 48
_cell_length_a 23.628063
_cell_length_b 11.724227
_cell_length_c 11.979995
_cell_angle_alpha 90.000000
_cell_angle_beta 130.668756
_cell_angle_gamma 90.000000
_cell_volume 2517.205845
_symmetry_space_group_name_H-M "C 2/M"
_symmetry_group_IT_number 12
_symmetry_cell_setting 'monoclinic'
loop_
_space_group_symop_operation_xyz
x,y,z
-x,y,-z
-x,-y,-z
x,-y,z
1/2+x,1/2+y,z
1/2-x,1/2+y,-z
1/2-x,1/2-y,-z
1/2+x,1/2-y,z
loop_
_atom_site_type_symbol
_atom_site_label
_atom_site_fract_x
_atom_site_fract_y
_atom_site_fract_z
Si Si1 0.217950 0.125831 0.916790
Si Si2 0.899094 0.132182 0.637365
Si Si3 0.144503 0.137112 0.166016
Si Si4 0.427882 0.134340 0.339477
Si Si5 0.430099 0.692553 0.156471
Si Si6 0.697155 0.748471 0.675037
O O1 0.134561 0.125143 0.860256
O O2 0.216262 0.142936 0.781555
O O3 0.251692 0.000000 0.988634
O O4 0.250000 0.250000 0.000000
O O5 0.885310 0.163103 0.748904
O O6 0.849059 0.207675 0.491144
O O7 0.986806 0.145016 0.724838
O O8 0.877753 0.000000 0.595956
O O9 0.227787 0.185277 0.259264
O O10 0.143679 0.000000 0.150033
O O11 0.094355 0.190117 0.003408
O O12 0.500000 0.179051 0.500000
O O13 0.428062 0.186439 0.216339
O O14 0.356266 0.173221 0.317442
O O15 0.432010 0.000000 0.339744
#
# Coordination Sequence:
#
# PCOD9210648 Si02
#       6
#     8   8   8   8   8   8
#     4  11  23  38  63  93 128 164 205 261 321 377
#     4  11  23  40  63  88 122 162 208 257 310 365
#     4  11  23  40  63  90 121 165 207 256 310 369
#     4  10  21  39  63  90 122 163 202 251 316 380
#     4  11  22  40  63  93 123 155 207 257 312 371
#     4  11  22  40  60  91 124 158 208 254 312 368
#
# _framework density 19.068762
#
# number of rings (size 3 to 8) (size 9 to 14) (size 15 to 20)
#    0.000    1.167    3.333    3.500    0.000    4.000 
#    0.000    2.500    0.000    5.000    0.000    0.000 
#    0.000    0.000    0.000    0.000    0.000    0.000 
#
# Total GULP energy -133962.537860 kJ/mol
# GULP energy per Si atom -5581.772411 kJ/mol
# Density = 1.902536 g / cm^3
# Si number density = 19.068762 Si / 1000 Ang^3
#
#
#
# Elastic Constant Matrix: (Units=GPa)
#
#
# Indices 1 2 3 4 5 6 
#
# 1 76.2573 31.4071 28.0107 0.0000 -11.5941 0.0000
# 2 31.4071 104.0105 52.7795 0.0000 -13.7013 0.0000
# 3 28.0107 52.7795 132.4782 0.0000 -15.8464 0.0000
# 4 0.0000 0.0000 0.0000 23.2640 0.0000 9.0692
# 5 -11.5941 -13.7013 -15.8464 0.0000 38.8404 0.0000
# 6 0.0000 0.0000 0.0000 9.0692 0.0000 -56.4150
#
#
#
# Elastic Compliance Matrix: (Units=1/GPa)
#
#
# Indices 1 2 3 4 5 6 
#
# 1 0.015564 -0.003552 -0.001545 0.000000 0.002763 0.000000
# 2 -0.003552 0.013080 -0.004242 0.000000 0.001823 0.000000
# 3 -0.001545 -0.004242 0.009810 0.000000 0.002045 0.000000
# 4 0.000000 0.000000 0.000000 0.040450 0.000000 0.006503
# 5 0.002763 0.001823 0.002045 0.000000 0.028048 0.000000
# 6 0.000000 0.000000 0.000000 0.006503 0.000000 -0.016680
#
#
# Mechanical properties :
#
#
# Convention : Reuss Voigt Hill
#
# Bulk Modulus (GPa) = 50.56779 59.68229 55.12504
# Shear Modulus (GPa) = 43.27489 14.50780 28.89134
#
# Velocity S-wave (km/s) = 4.76900 2.76128 3.89667
# Velocity P-wave (km/s) = 7.54326 6.44458 7.01546
#
# Compressibility (1/GPa) = 0.01977543
#
# Stress axis : x y z
#
# Youngs Moduli (GPa) = 64.25123 76.45531 101.93991
#
# Poissons Ratio (x) = 0.27154 0.15753
# Poissons Ratio (y) = 0.22819 0.43242
# Poissons Ratio (z) = 0.09929 0.32432
#
# Static dielectric constant tensor:
#      x y z
#    x 1.643200 0.000000 0.010080 
#    y 0.000000 1.669640 0.000000 
#    z 0.010080 0.000000 1.712870 
# 
# From -- ./inp_files/164722.got.cif
#   From: 2010.05.17/outbox.cif.g08.bks.cpg/sg12_83_cif.got.tgz:164722.got - 2010.06.03 13:09:07.
