data_PCOD9210839
_publ_section_title
;
Structure prediction by ZEFSAII (Michael W. Deem and Ramdas Pophale) SiO2 
 PCOD9210839
Probable space group: C 2/M
;
_chemical_formula_sum "Si O2"
_cell_formula_units_Z 42
_cell_length_a 31.774976
_cell_length_b 7.462983
_cell_length_c 8.243594
_cell_angle_alpha 90.000000
_cell_angle_beta 63.291525
_cell_angle_gamma 90.000000
_cell_volume 1746.280492
_symmetry_space_group_name_H-M "C 2/M"
_symmetry_group_IT_number 12
_symmetry_cell_setting 'monoclinic'
loop_
_space_group_symop_operation_xyz
x,y,z
-x,y,-z
-x,-y,-z
x,-y,z
1/2+x,1/2+y,z
1/2-x,1/2+y,-z
1/2-x,1/2-y,-z
1/2+x,1/2-y,z
loop_
_atom_site_type_symbol
_atom_site_label
_atom_site_fract_x
_atom_site_fract_y
_atom_site_fract_z
Si Si1 0.301899 0.713108 0.345229
Si Si2 0.900871 0.291473 0.657866
Si Si3 0.101005 0.294744 0.691813
Si Si4 0.000000 0.000000 0.000000
Si Si5 0.047027 0.718086 0.106050
Si Si6 0.802056 0.787137 0.976585
O O1 0.309236 0.500000 0.332334
O O2 0.250000 0.750000 0.500000
O O3 0.342614 0.793748 0.384902
O O4 0.306144 0.781478 0.153653
O O5 0.913980 0.500000 0.623067
O O6 0.908967 0.211080 0.466190
O O7 0.929639 0.226360 0.764462
O O8 0.845454 0.283294 0.796527
O O9 0.084223 0.500000 0.718621
O O10 0.081534 0.221780 0.896698
O O11 0.997081 0.839304 0.864357
O O12 0.040342 0.500000 0.116428
O O13 0.807798 0.000000 0.970770
O O14 0.750000 0.750000 0.000000
#
# Coordination Sequence:
#
# PCOD9210839 Si02
#       6
#     8   8   8   2   8   8
#     4  11  23  36  54  84 125 168 218 269 317 380
#     4  10  21  39  64  91 124 169 215 259 326 394
#     4  10  21  39  64  91 124 169 215 259 326 394
#     4  12  26  44  78 102 132 166 234 268 334 430
#     4  10  23  45  69  98 135 171 208 279 339 388
#     4  11  23  36  54  84 125 168 218 269 317 380
#
# _framework density 24.051119
#
# number of rings (size 3 to 8) (size 9 to 14) (size 15 to 20)
#    0.000    1.524    1.905    2.571    2.667    7.619 
#    0.000    1.905    0.000    4.571    0.000    0.000 
#    0.000    0.000    0.000    0.000    0.000    0.000 
#
# Total GULP energy -117116.134233 kJ/mol
# GULP energy per Si atom -5576.958773 kJ/mol
# Density = 2.399638 g / cm^3
# Si number density = 24.051119 Si / 1000 Ang^3
#
#
#
# Elastic Constant Matrix: (Units=GPa)
#
#
# Indices 1 2 3 4 5 6 
#
# 1 121.6982 5.3183 61.2929 0.0000 40.5049 0.0000
# 2 5.3183 107.6922 12.3269 0.0000 17.1231 0.0000
# 3 61.2929 12.3269 170.9801 0.0000 36.3433 0.0000
# 4 0.0000 0.0000 0.0000 0.9656 0.0000 3.4977
# 5 40.5049 17.1231 36.3433 0.0000 52.9387 0.0000
# 6 0.0000 0.0000 0.0000 3.4977 0.0000 -14.3198
#
#
#
# Elastic Compliance Matrix: (Units=1/GPa)
#
#
# Indices 1 2 3 4 5 6 
#
# 1 0.012134 0.000940 -0.002786 0.000000 -0.007675 0.000000
# 2 0.000940 0.009862 -0.000254 0.000000 -0.003735 0.000000
# 3 -0.002786 -0.000254 0.007488 0.000000 -0.002927 0.000000
# 4 0.000000 0.000000 0.000000 0.549453 0.000000 0.134209
# 5 -0.007675 -0.003735 -0.002927 0.000000 0.027979 0.000000
# 6 0.000000 0.000000 0.000000 0.134209 0.000000 -0.037052
#
#
# Mechanical properties :
#
#
# Convention : Reuss Voigt Hill
#
# Bulk Modulus (GPa) = 39.55163 62.02741 50.78952
# Shear Modulus (GPa) = 8.58380 29.34573 18.96476
#
# Velocity S-wave (km/s) = 1.89122 3.49684 2.81110
# Velocity P-wave (km/s) = 4.60972 6.49228 5.63024
#
# Compressibility (1/GPa) = 0.02528341
#
# Stress axis : x y z
#
# Youngs Moduli (GPa) = 82.41507 101.39713 133.55126
#
# Poissons Ratio (x) = -0.09532 0.37208
# Poissons Ratio (y) = -0.07747 0.03394
# Poissons Ratio (z) = 0.22961 0.02577
#
# Static dielectric constant tensor:
#      x y z
#    x 1.958010 0.000000 -0.025220 
#    y 0.000000 1.951970 0.000000 
#    z -0.025220 0.000000 1.942320 
# 
# From -- ./inp_files/107861.got.cif
#   From: 2010.05.17/outbox.cif.g08.bks.cpg/sg12_54_cif.got.tgz:107861.got - 2010.06.03 13:09:07.
