data_PCOD9210046
_publ_section_title
;
Structure prediction by ZEFSAII (Michael W. Deem and Ramdas Pophale) SiO2 
 PCOD9210046
Probable space group: C 2/M
;
_chemical_formula_sum "Si O2"
_cell_formula_units_Z 60
_cell_length_a 17.471378
_cell_length_b 17.607703
_cell_length_c 12.461502
_cell_angle_alpha 90.000000
_cell_angle_beta 55.822678
_cell_angle_gamma 90.000000
_cell_volume 3171.500959
_symmetry_space_group_name_H-M "C 2/M"
_symmetry_group_IT_number 12
_symmetry_cell_setting 'monoclinic'
loop_
_space_group_symop_operation_xyz
x,y,z
-x,y,-z
-x,-y,-z
x,-y,z
1/2+x,1/2+y,z
1/2-x,1/2+y,-z
1/2-x,1/2-y,-z
1/2+x,1/2-y,z
loop_
_atom_site_type_symbol
_atom_site_label
_atom_site_fract_x
_atom_site_fract_y
_atom_site_fract_z
Si Si1 0.463801 0.588222 0.914365
Si Si2 0.388703 0.910712 0.099991
Si Si3 0.684743 0.820602 0.644636
Si Si4 0.000000 0.270742 0.500000
Si Si5 0.991729 0.781872 0.269911
Si Si6 0.799083 0.680692 0.607935
Si Si7 0.243912 0.911991 0.848844
Si Si8 0.333286 0.189565 0.946031
O O1 0.490653 0.500000 0.886487
O O2 0.352977 0.593344 0.011293
O O3 0.500000 0.619149 0.000000
O O4 0.503282 0.635445 0.785196
O O5 0.353433 0.882910 0.243795
O O6 0.368227 0.000000 0.098378
O O7 0.500000 0.901182 0.000000
O O8 0.339742 0.855679 0.052249
O O9 0.602929 0.760392 0.684638
O O10 0.765705 0.768549 0.630675
O O11 0.711989 0.849431 0.504791
O O12 0.007670 0.222636 0.384656
O O13 0.093347 0.319624 0.442309
O O14 0.072942 0.734859 0.148291
O O15 0.741166 0.634252 0.740386
O O16 0.319532 0.872605 0.864154
O O17 0.263076 0.000000 0.813106
O O18 0.250000 0.250000 0.000000
#
# Coordination Sequence:
#
# PCOD9210046 Si02
#       8
#     8   8   8   4   8   8   8   8
#     4  10  22  37  58  90 121 149 190 248 301 350
#     4  11  24  40  59  91 128 157 193 247 307 362
#     4  10  22  38  62  85 115 155 203 241 286 348
#     4  10  22  38  58  86 116 150 200 244 288 344
#     4  11  21  37  61  84 115 154 198 240 289 347
#     4  10  21  39  59  86 114 152 202 244 285 349
#     4  11  22  37  58  87 120 152 189 240 301 352
#     4  12  22  37  60  87 117 156 197 244 293 351
#
# _framework density 18.918488
#
# number of rings (size 3 to 8) (size 9 to 14) (size 15 to 20)
#    0.000    1.333    4.000    2.000    1.867    0.533 
#    0.000    0.667    0.000    4.800    0.000    0.000 
#    0.000    0.000    0.000    0.000    0.000    0.000 
#
# Total GULP energy -167526.730208 kJ/mol
# GULP energy per Si atom -5584.224340 kJ/mol
# Density = 1.887543 g / cm^3
# Si number density = 18.918488 Si / 1000 Ang^3
#
#
#
# Elastic Constant Matrix: (Units=GPa)
#
#
# Indices 1 2 3 4 5 6 
#
# 1 53.3038 19.4631 -3.3330 0.0000 2.2663 0.0000
# 2 19.4631 68.4803 31.6434 0.0000 19.9585 0.0000
# 3 -3.3330 31.6434 86.3770 0.0000 25.6068 0.0000
# 4 0.0000 0.0000 0.0000 11.6971 0.0000 -1.6449
# 5 2.2663 19.9585 25.6068 0.0000 34.7200 0.0000
# 6 0.0000 0.0000 0.0000 -1.6449 0.0000 16.3308
#
#
#
# Elastic Compliance Matrix: (Units=1/GPa)
#
#
# Indices 1 2 3 4 5 6 
#
# 1 0.021910 -0.008062 0.003646 0.000000 0.000515 0.000000
# 2 -0.008062 0.021919 -0.006094 0.000000 -0.007579 0.000000
# 3 0.003646 -0.006094 0.016615 0.000000 -0.008989 0.000000
# 4 0.000000 0.000000 0.000000 0.086719 0.000000 0.008735
# 5 0.000515 -0.007579 -0.008989 0.000000 0.039755 0.000000
# 6 0.000000 0.000000 0.000000 0.008735 0.000000 0.062114
#
#
# Mechanical properties :
#
#
# Convention : Reuss Voigt Hill
#
# Bulk Modulus (GPa) = 25.36494 33.74534 29.55514
# Shear Modulus (GPa) = 17.65575 23.24210 20.44893
#
# Velocity S-wave (km/s) = 3.05823 3.50885 3.29127
# Velocity P-wave (km/s) = 5.08989 5.85594 5.48630
#
# Compressibility (1/GPa) = 0.03942450
#
# Stress axis : x y z
#
# Youngs Moduli (GPa) = 45.64063 45.62241 60.18599
#
# Poissons Ratio (x) = 0.36782 -0.21945
# Poissons Ratio (y) = 0.36797 0.36678
# Poissons Ratio (z) = -0.16642 0.27802
#
# Static dielectric constant tensor:
#      x y z
#    x 1.687340 0.000000 -0.010600 
#    y 0.000000 1.635010 0.000000 
#    z -0.010600 0.000000 1.667370 
# 
# From -- ./inp_files/158260.got.cif
#   From: 2010.05.17/outbox.cif.g08.bks.cpg/sg12_80_cif.got.tgz:158260.got - 2010.06.03 13:09:07.
