data_PCOD9210165
_publ_section_title
;
Structure prediction by ZEFSAII (Michael W. Deem and Ramdas Pophale) SiO2 
 PCOD9210165
Probable space group: C 2/M
;
_chemical_formula_sum "Si O2"
_cell_formula_units_Z 32
_cell_length_a 22.606824
_cell_length_b 13.044626
_cell_length_c 5.184913
_cell_angle_alpha 90.000000
_cell_angle_beta 83.448927
_cell_angle_gamma 90.000000
_cell_volume 1519.034570
_symmetry_space_group_name_H-M "C 2/M"
_symmetry_group_IT_number 12
_symmetry_cell_setting 'monoclinic'
loop_
_space_group_symop_operation_xyz
x,y,z
-x,y,-z
-x,-y,-z
x,-y,z
1/2+x,1/2+y,z
1/2-x,1/2+y,-z
1/2-x,1/2-y,-z
1/2+x,1/2-y,z
loop_
_atom_site_type_symbol
_atom_site_label
_atom_site_fract_x
_atom_site_fract_y
_atom_site_fract_z
Si Si1 0.230677 0.500000 0.056333
Si Si2 0.632764 0.776482 0.511045
Si Si3 0.057364 0.885168 0.802002
Si Si4 0.348398 0.000000 0.403703
Si Si5 0.675645 0.320465 0.979998
O O1 0.204597 0.500000 0.357971
O O2 0.179213 0.500000 0.867993
O O3 0.271804 0.399774 0.001640
O O4 0.576768 0.700535 0.585735
O O5 0.617193 0.894484 0.561757
O O6 0.662773 0.753652 0.224261
O O7 0.679194 0.743472 0.713134
O O8 0.051019 0.000000 0.696971
O O9 0.114696 0.883411 0.961756
O O10 0.000000 0.859708 0.000000
#
# Coordination Sequence:
#
# PCOD9210165 Si02
#       5
#     4   8   8   4   8
#     4  12  24  38  65  91 121 163 202 246 306 350
#     4  10  23  40  61  87 127 158 202 247 293 360
#     4   9  20  40  67  95 120 152 196 253 315 357
#     4  12  26  40  59  89 123 169 208 236 290 358
#     4  10  21  39  60  91 122 153 199 247 301 355
#
# _framework density 21.066009999999999
#
# number of rings (size 3 to 8) (size 9 to 14) (size 15 to 20)
#    1.500    0.250    1.250    3.000    1.750    7.000 
#    0.000    3.125    0.000    1.500    0.000    0.000 
#    0.000    0.000    0.000    0.000    0.000    0.000 
#
# Total GULP energy -89290.129039 kJ/mol
# GULP energy per Si atom -5580.633065 kJ/mol
# Density = 2.101806 g / cm^3
# Si number density = 21.066010 Si / 1000 Ang^3
#
#
#
# Elastic Constant Matrix: (Units=GPa)
#
#
# Indices 1 2 3 4 5 6 
#
# 1 56.2960 7.6813 -2.3047 0.0000 -12.7601 0.0000
# 2 7.6813 116.0761 13.6868 0.0000 -3.4990 0.0000
# 3 -2.3047 13.6868 91.6910 0.0000 9.8193 0.0000
# 4 0.0000 0.0000 0.0000 21.5812 0.0000 -9.3903
# 5 -12.7601 -3.4990 9.8193 0.0000 18.4244 0.0000
# 6 0.0000 0.0000 0.0000 -9.3903 0.0000 -1.7631
#
#
#
# Elastic Compliance Matrix: (Units=1/GPa)
#
#
# Indices 1 2 3 4 5 6 
#
# 1 0.021254 -0.000840 -0.000954 0.000000 0.015069 0.000000
# 2 -0.000840 0.008913 -0.001560 0.000000 0.001942 0.000000
# 3 -0.000954 -0.001560 0.011896 0.000000 -0.007297 0.000000
# 4 0.000000 0.000000 0.000000 0.013968 0.000000 -0.074391
# 5 0.015069 0.001942 -0.007297 0.000000 0.068970 0.000000
# 6 0.000000 0.000000 0.000000 -0.074391 0.000000 -0.170969
#
#
# Mechanical properties :
#
#
# Convention : Reuss Voigt Hill
#
# Bulk Modulus (GPa) = 28.28307 33.57667 30.92987
# Shear Modulus (GPa) = -181.98500 23.98180 -79.00160
#
# Velocity S-wave (km/s) = -9.30460 3.37770 -6.13053
# Velocity P-wave (km/s) = 10.09846 5.58437 5.94953
#
# Compressibility (1/GPa) = 0.03535685
#
# Stress axis : x y z
#
# Youngs Moduli (GPa) = 47.04929 112.19508 84.05845
#
# Poissons Ratio (x) = 0.09422 0.08021
# Poissons Ratio (y) = 0.03951 0.13110
# Poissons Ratio (z) = 0.04489 0.17498
#
# Static dielectric constant tensor:
#      x y z
#    x 1.732130 0.000000 0.018380 
#    y 0.000000 1.790340 0.000000 
#    z 0.018380 0.000000 1.735050 
# 
# From -- ./inp_files/14574.got.cif
#   From: 2010.05.17/outbox.cif.g08.bks.cpg/sg12_8_cif.got.tgz:14574.got - 2010.06.03 13:09:07.
