data_PCOD9210208
_publ_section_title
;
Structure prediction by ZEFSAII (Michael W. Deem and Ramdas Pophale) SiO2 
 PCOD9210208
Probable space group: C 2/M
;
_chemical_formula_sum "Si O2"
_cell_formula_units_Z 28
_cell_length_a 9.115828
_cell_length_b 24.300682
_cell_length_c 10.645817
_cell_angle_alpha 90.000000
_cell_angle_beta 151.182101
_cell_angle_gamma 90.000000
_cell_volume 1136.750913
_symmetry_space_group_name_H-M "C 2/M"
_symmetry_group_IT_number 12
_symmetry_cell_setting 'monoclinic'
loop_
_space_group_symop_operation_xyz
x,y,z
-x,y,-z
-x,-y,-z
x,-y,z
1/2+x,1/2+y,z
1/2-x,1/2+y,-z
1/2-x,1/2-y,-z
1/2+x,1/2-y,z
loop_
_atom_site_type_symbol
_atom_site_label
_atom_site_fract_x
_atom_site_fract_y
_atom_site_fract_z
Si Si1 0.866440 0.000000 0.259630
Si Si2 0.133684 0.346269 0.737030
Si Si3 0.635295 0.721986 0.737905
Si Si4 0.743686 0.111224 0.069916
O O1 0.934220 0.943958 0.235116
O O2 0.000000 0.000000 0.500000
O O3 0.500000 0.000000 0.000000
O O4 0.038353 0.283551 0.703395
O O5 0.000000 0.359162 0.500000
O O6 0.500000 0.348184 0.000000
O O7 0.072871 0.385993 0.808964
O O8 0.500000 0.710691 0.500000
O O9 0.577740 0.669063 0.781349
O O10 0.000000 0.726607 0.000000
O O11 0.500000 0.112738 0.000000
#
# Coordination Sequence:
#
# PCOD9210208 Si02
#       4
#     4   8   8   8
#     4  10  22  38  58  86 114 144 189 240 279 322
#     4  10  22  38  57  85 119 149 183 231 286 339
#     4   9  18  33  55  83 113 146 184 229 280 334
#     4  10  21  39  61  85 112 151 193 234 278 334
#
# _framework density 24.631606999999999
#
# number of rings (size 3 to 8) (size 9 to 14) (size 15 to 20)
#    0.000    2.286    0.000    1.714    0.000    9.143 
#    0.000   18.571    0.000    0.000    0.000    0.000 
#    0.000    0.000    0.000    0.000    0.000    0.000 
#
# Total GULP energy -78356.302283 kJ/mol
# GULP energy per Si atom -5596.878735 kJ/mol
# Density = 2.457554 g / cm^3
# Si number density = 24.631607 Si / 1000 Ang^3
#
#
#
# Elastic Constant Matrix: (Units=GPa)
#
#
# Indices 1 2 3 4 5 6 
#
# 1 96.1700 32.1725 52.0004 0.0000 -30.0112 0.0000
# 2 32.1725 139.4405 79.2369 0.0000 -40.3619 0.0000
# 3 52.0004 79.2369 235.9969 0.0000 -46.9680 0.0000
# 4 0.0000 0.0000 0.0000 27.7163 0.0000 -0.5711
# 5 -30.0112 -40.3619 -46.9680 0.0000 59.5807 0.0000
# 6 0.0000 0.0000 0.0000 -0.5711 0.0000 9.9547
#
#
#
# Elastic Compliance Matrix: (Units=1/GPa)
#
#
# Indices 1 2 3 4 5 6 
#
# 1 0.013028 -0.000658 -0.001699 0.000000 0.004777 0.000000
# 2 -0.000658 0.009954 -0.002279 0.000000 0.004616 0.000000
# 3 -0.001699 -0.002279 0.005811 0.000000 0.002181 0.000000
# 4 0.000000 0.000000 0.000000 0.036123 0.000000 0.002072
# 5 0.004777 0.004616 0.002181 0.000000 0.024037 0.000000
# 6 0.000000 0.000000 0.000000 0.002072 0.000000 0.100574
#
#
# Mechanical properties :
#
#
# Convention : Reuss Voigt Hill
#
# Bulk Modulus (GPa) = 51.22312 88.71412 69.96862
# Shear Modulus (GPa) = 24.35412 39.99684 32.17548
#
# Velocity S-wave (km/s) = 3.14783 4.03401 3.61815
# Velocity P-wave (km/s) = 5.83546 7.60212 6.77661
#
# Compressibility (1/GPa) = 0.01952243
#
# Stress axis : x y z
#
# Youngs Moduli (GPa) = 76.75918 100.46097 172.09027
#
# Poissons Ratio (x) = 0.06606 0.29239
# Poissons Ratio (y) = 0.05047 0.39213
# Poissons Ratio (z) = 0.13042 0.22891
#
# Static dielectric constant tensor:
#      x y z
#    x 1.998950 0.000000 0.084730 
#    y 0.000000 2.057300 0.000000 
#    z 0.084730 0.000000 2.000510 
# 
# From -- ./inp_files/6147.got.cif
#   From: 2010.05.17/outbox.cif.g08.bks.cpg/sg12_4_cif.got.tgz:6147.got - 2010.06.03 13:09:07.
