data_PCOD9210373
_publ_section_title
;
Structure prediction by ZEFSAII (Michael W. Deem and Ramdas Pophale) SiO2 
 PCOD9210373
Probable space group: C 2/M
;
_chemical_formula_sum "Si O2"
_cell_formula_units_Z 56
_cell_length_a 15.268172
_cell_length_b 8.622859
_cell_length_c 25.001352
_cell_angle_alpha 90.000000
_cell_angle_beta 117.492080
_cell_angle_gamma 90.000000
_cell_volume 2919.859759
_symmetry_space_group_name_H-M "C 2/M"
_symmetry_group_IT_number 12
_symmetry_cell_setting 'monoclinic'
loop_
_space_group_symop_operation_xyz
x,y,z
-x,y,-z
-x,-y,-z
x,-y,z
1/2+x,1/2+y,z
1/2-x,1/2+y,-z
1/2-x,1/2-y,-z
1/2+x,1/2-y,z
loop_
_atom_site_type_symbol
_atom_site_label
_atom_site_fract_x
_atom_site_fract_y
_atom_site_fract_z
Si Si1 0.883723 0.314012 0.208278
Si Si2 0.488093 0.187616 0.653717
Si Si3 0.724834 0.686187 0.434068
Si Si4 0.422173 0.811305 0.432935
Si Si5 0.538048 0.686687 0.881889
Si Si6 0.615174 0.322356 0.014065
Si Si7 0.171813 0.682910 0.138342
O O1 0.884300 0.500000 0.205221
O O2 0.955720 0.264582 0.276751
O O3 0.772448 0.257812 0.187796
O O4 0.922127 0.246001 0.163122
O O5 0.378417 0.251697 0.616484
O O6 0.546574 0.239326 0.617065
O O7 0.483906 0.000000 0.652060
O O8 0.722841 0.500000 0.436272
O O9 0.750000 0.750000 0.500000
O O10 0.813620 0.735662 0.420256
O O11 0.500000 0.759143 0.500000
O O12 0.424971 0.000000 0.433900
O O13 0.535596 0.500000 0.882382
O O14 0.427675 0.747511 0.863570
O O15 0.609074 0.735647 0.951479
O O16 0.652291 0.500000 0.026631
O O17 0.667950 0.220938 0.073671
O O18 0.500000 0.327065 0.000000
O O19 0.172538 0.500000 0.146766
#
# Coordination Sequence:
#
# PCOD9210373 Si02
#       7
#     8   8   8   8   8   8   8
#     4  11  24  40  59  84 118 160 203 248 298 357
#     4  10  22  41  60  83 115 151 194 240 287 345
#     4  11  21  35  60  89 116 149 187 232 285 342
#     4   9  17  34  60  84 112 149 183 220 277 345
#     4  10  21  39  62  86 118 157 200 249 300 358
#     4   8  16  33  57  85 115 151 196 247 300 353
#     4  11  22  37  60  88 120 156 198 248 302 359
#
# _framework density 19.179003999999999
#
# number of rings (size 3 to 8) (size 9 to 14) (size 15 to 20)
#    0.000    2.000    1.429    3.429    0.000    6.000 
#    0.000    3.571    0.000    0.000    0.000    0.000 
#    0.000    0.000    0.000    0.000    0.000    0.000 
#
# Total GULP energy -156388.990622 kJ/mol
# GULP energy per Si atom -5585.321094 kJ/mol
# Density = 1.913535 g / cm^3
# Si number density = 19.179004 Si / 1000 Ang^3
#
#
#
# Elastic Constant Matrix: (Units=GPa)
#
#
# Indices 1 2 3 4 5 6 
#
# 1 94.6813 11.9934 23.8349 0.0000 5.0554 0.0000
# 2 11.9934 41.2847 17.6714 0.0000 3.5096 0.0000
# 3 23.8349 17.6714 78.7671 0.0000 8.7410 0.0000
# 4 0.0000 0.0000 0.0000 25.0160 0.0000 3.3093
# 5 5.0554 3.5096 8.7410 0.0000 34.0121 0.0000
# 6 0.0000 0.0000 0.0000 3.3093 0.0000 30.3360
#
#
#
# Elastic Compliance Matrix: (Units=1/GPa)
#
#
# Indices 1 2 3 4 5 6 
#
# 1 0.011608 -0.002036 -0.002972 0.000000 -0.000751 0.000000
# 2 -0.002036 0.027204 -0.005362 0.000000 -0.001126 0.000000
# 3 -0.002972 -0.005362 0.015119 0.000000 -0.002890 0.000000
# 4 0.000000 0.000000 0.000000 0.040560 0.000000 -0.004425
# 5 -0.000751 -0.001126 -0.002890 0.000000 0.030372 0.000000
# 6 0.000000 0.000000 0.000000 -0.004425 0.000000 0.033447
#
#
# Mechanical properties :
#
#
# Convention : Reuss Voigt Hill
#
# Bulk Modulus (GPa) = 30.12947 35.74805 32.93876
# Shear Modulus (GPa) = 26.29991 28.62171 27.46081
#
# Velocity S-wave (km/s) = 3.70711 3.86728 3.78804
# Velocity P-wave (km/s) = 5.83671 6.21456 6.02860
#
# Compressibility (1/GPa) = 0.03319010
#
# Stress axis : x y z
#
# Youngs Moduli (GPa) = 86.14721 36.75863 66.14247
#
# Poissons Ratio (x) = 0.07484 0.19660
# Poissons Ratio (y) = 0.17540 0.35467
# Poissons Ratio (z) = 0.25607 0.19711
#
# Static dielectric constant tensor:
#      x y z
#    x 1.659630 0.000000 -0.006400 
#    y 0.000000 1.651440 0.000000 
#    z -0.006400 0.000000 1.658330 
# 
# From -- ./inp_files/338999.got.cif
#   From: 2010.05.17/outbox.cif.g08.bks.cpg/sg12_170_cif.got.tgz:338999.got - 2010.06.03 13:09:07.
