data_PCOD9210045
_publ_section_title
;
Structure prediction by ZEFSAII (Michael W. Deem and Ramdas Pophale) SiO2 
 PCOD9210045
Probable space group: C 2/M
;
_chemical_formula_sum "Si O2"
_cell_formula_units_Z 64
_cell_length_a 15.868751
_cell_length_b 29.722630
_cell_length_c 9.129309
_cell_angle_alpha 90.000000
_cell_angle_beta 49.472591
_cell_angle_gamma 90.000000
_cell_volume 3272.923664
_symmetry_space_group_name_H-M "C 2/M"
_symmetry_group_IT_number 12
_symmetry_cell_setting 'monoclinic'
loop_
_space_group_symop_operation_xyz
x,y,z
-x,y,-z
-x,-y,-z
x,-y,z
1/2+x,1/2+y,z
1/2-x,1/2+y,-z
1/2-x,1/2-y,-z
1/2+x,1/2-y,z
loop_
_atom_site_type_symbol
_atom_site_label
_atom_site_fract_x
_atom_site_fract_y
_atom_site_fract_z
Si Si1 0.803524 0.777962 0.070439
Si Si2 0.326837 0.052863 0.331381
Si Si3 0.849685 0.105501 0.298173
Si Si4 0.828593 0.316647 0.519566
Si Si5 0.880316 0.696926 0.143725
Si Si6 0.284606 0.886633 0.098555
Si Si7 0.499404 0.104544 0.663837
Si Si8 0.599368 0.622869 0.088882
O O1 0.708496 0.788920 0.297820
O O2 0.887302 0.742742 0.047359
O O3 0.750000 0.750000 0.000000
O O4 0.863829 0.824629 0.964223
O O5 0.217724 0.065614 0.549392
O O6 0.312664 0.077356 0.191622
O O7 0.429494 0.074869 0.303275
O O8 0.341091 0.000000 0.299399
O O9 0.771915 0.149155 0.400674
O O10 0.967882 0.115460 0.238459
O O11 0.863824 0.100165 0.106949
O O12 0.850438 0.291528 0.343577
O O13 0.934831 0.348306 0.425533
O O14 0.795100 0.662033 0.165965
O O15 0.000000 0.673087 0.000000
O O16 0.167653 0.894436 0.151193
O O17 0.377635 0.887896 0.866123
O O18 0.500000 0.084208 0.500000
#
# Coordination Sequence:
#
# PCOD9210045 Si02
#       8
#     8   8   8   8   8   8   8   8
#     4  11  23  37  57  91 125 166 226 275 304 364
#     4  11  24  43  68  97 126 158 207 267 325 393
#     4   9  20  42  66  88 119 173 209 260 321 379
#     4  10  21  39  59  85 128 171 209 258 319 379
#     4  12  22  37  59  88 130 172 210 263 322 374
#     4  12  21  41  64  93 128 168 203 258 331 387
#     4  11  22  39  67  94 126 167 205 249 319 394
#     4  10  22  41  65  86 126 173 216 259 316 378
#
# _framework density 19.554382
#
# number of rings (size 3 to 8) (size 9 to 14) (size 15 to 20)
#    0.000    1.250    5.000    3.000    3.500    1.750 
#    0.000    4.375    0.000    0.000    0.000    0.000 
#    0.000    0.000    0.000    0.000    0.000    0.000 
#
# Total GULP energy -178707.631152 kJ/mol
# GULP energy per Si atom -5584.613474 kJ/mol
# Density = 1.950988 g / cm^3
# Si number density = 19.554382 Si / 1000 Ang^3
#
#
#
# Elastic Constant Matrix: (Units=GPa)
#
#
# Indices 1 2 3 4 5 6 
#
# 1 120.2317 17.9638 13.5747 0.0000 16.9473 0.0000
# 2 17.9638 59.6921 3.1883 0.0000 18.0306 0.0000
# 3 13.5747 3.1883 48.4138 0.0000 9.5861 0.0000
# 4 0.0000 0.0000 0.0000 14.3399 0.0000 1.1509
# 5 16.9473 18.0306 9.5861 0.0000 29.9733 0.0000
# 6 0.0000 0.0000 0.0000 1.1509 0.0000 7.7983
#
#
#
# Elastic Compliance Matrix: (Units=1/GPa)
#
#
# Indices 1 2 3 4 5 6 
#
# 1 0.009277 -0.001568 -0.001757 0.000000 -0.003740 0.000000
# 2 -0.001568 0.020799 0.001465 0.000000 -0.012094 0.000000
# 3 -0.001757 0.001465 0.022451 0.000000 -0.007068 0.000000
# 4 0.000000 0.000000 0.000000 0.070571 0.000000 -0.010415
# 5 -0.003740 -0.012094 -0.007068 0.000000 0.045013 0.000000
# 6 0.000000 0.000000 0.000000 -0.010415 0.000000 0.129771
#
#
# Mechanical properties :
#
#
# Convention : Reuss Voigt Hill
#
# Bulk Modulus (GPa) = 20.48956 33.08790 26.78873
# Shear Modulus (GPa) = 15.72950 23.32966 19.52958
#
# Velocity S-wave (km/s) = 2.83927 3.45783 3.16370
# Velocity P-wave (km/s) = 4.60973 5.73583 5.20333
#
# Compressibility (1/GPa) = 0.04880534
#
# Stress axis : x y z
#
# Youngs Moduli (GPa) = 107.79134 48.07827 44.54136
#
# Poissons Ratio (x) = 0.07540 0.07828
# Poissons Ratio (y) = 0.16905 -0.06523
# Poissons Ratio (z) = 0.18943 -0.07042
#
# Static dielectric constant tensor:
#      x y z
#    x 1.716030 0.000000 0.012520 
#    y 0.000000 1.654500 0.000000 
#    z 0.012520 0.000000 1.714750 
# 
# From -- ./inp_files/68585.got.cif
#   From: 2010.05.17/outbox.cif.g08.bks.cpg/sg12_35_cif.got.tgz:68585.got - 2010.06.03 13:09:07.
