data_PCOD9210489
_publ_section_title
;
Structure prediction by ZEFSAII (Michael W. Deem and Ramdas Pophale) SiO2 
 PCOD9210489
Probable space group: C 2/M
;
_chemical_formula_sum "Si O2"
_cell_formula_units_Z 60
_cell_length_a 20.021232
_cell_length_b 9.577243
_cell_length_c 22.527612
_cell_angle_alpha 90.000000
_cell_angle_beta 41.782753
_cell_angle_gamma 90.000000
_cell_volume 2878.203623
_symmetry_space_group_name_H-M "C 2/M"
_symmetry_group_IT_number 12
_symmetry_cell_setting 'monoclinic'
loop_
_space_group_symop_operation_xyz
x,y,z
-x,y,-z
-x,-y,-z
x,-y,z
1/2+x,1/2+y,z
1/2-x,1/2+y,-z
1/2-x,1/2-y,-z
1/2+x,1/2-y,z
loop_
_atom_site_type_symbol
_atom_site_label
_atom_site_fract_x
_atom_site_fract_y
_atom_site_fract_z
Si Si1 0.529342 0.839515 0.294980
Si Si2 0.287992 0.500000 0.484600
Si Si3 0.381780 0.341719 0.089256
Si Si4 0.889445 0.158016 0.867649
Si Si5 0.925842 0.331530 0.600590
Si Si6 0.154403 0.342905 0.997347
Si Si7 0.180794 0.728257 0.615239
Si Si8 0.692060 0.666777 0.732609
O O1 0.573931 0.739342 0.214946
O O2 0.551088 0.785835 0.347112
O O3 0.410495 0.839657 0.361255
O O4 0.566509 0.000000 0.264532
O O5 0.272073 0.623496 0.545416
O O6 0.296981 0.377575 0.427690
O O7 0.340843 0.500000 0.108020
O O8 0.340152 0.236035 0.068589
O O9 0.357911 0.297252 0.171744
O O10 0.500000 0.347066 0.000000
O O11 0.769063 0.146278 0.943080
O O12 0.930854 0.000000 0.843804
O O13 0.906799 0.248906 0.915214
O O14 0.938994 0.500000 0.594181
O O15 0.810892 0.305109 0.660035
O O16 0.000000 0.278378 0.500000
O O17 0.113646 0.500000 0.019569
O O18 0.152094 0.751160 0.702387
O O19 0.678871 0.500000 0.732878
#
# Coordination Sequence:
#
# PCOD9210489 Si02
#       8
#     8   4   8   8   8   8   8   8
#     4  11  23  39  61  96 125 160 208 267 311 375
#     4  10  24  40  62  88 126 168 206 262 318 376
#     4  10  22  39  61  88 124 165 213 254 307 376
#     4  10  22  38  63  89 123 159 206 253 316 376
#     4   9  20  35  60  88 119 158 210 257 306 369
#     4  10  21  40  62  90 121 164 202 257 316 373
#     4  11  23  40  65  91 127 163 213 260 316 379
#     4  10  21  39  62  91 122 167 210 259 312 375
#
# _framework density 20.846336000000001
#
# number of rings (size 3 to 8) (size 9 to 14) (size 15 to 20)
#    0.000    1.867    1.333    1.600    6.533    2.933 
#    1.200    0.000    1.467    1.200    0.000    0.000 
#    0.000    0.000    0.000    0.000    0.000    0.000 
#
# Total GULP energy -167038.099109 kJ/mol
# GULP energy per Si atom -5567.936637 kJ/mol
# Density = 2.079889 g / cm^3
# Si number density = 20.846336 Si / 1000 Ang^3
#
#
#
# Elastic Constant Matrix: (Units=GPa)
#
#
# Indices 1 2 3 4 5 6 
#
# 1 50.7287 11.4206 6.8888 0.0000 14.3966 0.0000
# 2 11.4206 134.3887 42.9240 0.0000 23.8605 -0.0001
# 3 6.8888 42.9240 128.2793 0.0000 24.4299 0.0000
# 4 0.0000 0.0000 0.0000 28.8019 0.0000 7.4653
# 5 14.3966 23.8605 24.4299 0.0000 29.8589 0.0000
# 6 0.0000 -0.0001 0.0000 7.4653 0.0000 6.7272
#
#
#
# Elastic Compliance Matrix: (Units=1/GPa)
#
#
# Indices 1 2 3 4 5 6 
#
# 1 0.022958 -0.000203 0.001081 0.000000 -0.011791 0.000000
# 2 -0.000203 0.009071 -0.001969 0.000000 -0.005540 0.000000
# 3 0.001081 -0.001969 0.009709 0.000000 -0.006891 0.000000
# 4 0.000000 0.000000 0.000000 0.048739 0.000000 -0.054086
# 5 -0.011791 -0.005540 -0.006891 0.000000 0.049241 0.000000
# 6 0.000000 0.000000 0.000000 -0.054086 0.000000 0.208670
#
#
# Mechanical properties :
#
#
# Convention : Reuss Voigt Hill
#
# Bulk Modulus (GPa) = 25.28145 48.42927 36.85536
# Shear Modulus (GPa) = 13.74553 29.88849 21.81701
#
# Velocity S-wave (km/s) = 2.57061 3.79060 3.23857
# Velocity P-wave (km/s) = 4.57871 6.51461 5.63049
#
# Compressibility (1/GPa) = 0.03955470
#
# Stress axis : x y z
#
# Youngs Moduli (GPa) = 43.55793 110.24269 103.00002
#
# Poissons Ratio (x) = 0.02233 -0.11129
# Poissons Ratio (y) = 0.00882 0.20285
# Poissons Ratio (z) = -0.04707 0.21711
#
# Static dielectric constant tensor:
#      x y z
#    x 1.791530 0.000000 -0.041460 
#    y 0.000000 1.731240 0.000000 
#    z -0.041460 0.000000 1.775590 
# 
# From -- ./inp_files/320475.got.cif
#   From: 2010.05.17/outbox.cif.g08.bks.cpg/sg12_161_cif.got.tgz:320475.got - 2010.06.03 13:09:07.
