data_PCOD9210951
_publ_section_title
;
Structure prediction by ZEFSAII (Michael W. Deem and Ramdas Pophale) SiO2 
 PCOD9210951
Probable space group: C 2/M
;
_chemical_formula_sum "Si O2"
_cell_formula_units_Z 48
_cell_length_a 27.004211
_cell_length_b 19.574874
_cell_length_c 9.232356
_cell_angle_alpha 90.000000
_cell_angle_beta 27.912373
_cell_angle_gamma 90.000000
_cell_volume 2284.550760
_symmetry_space_group_name_H-M "C 2/M"
_symmetry_group_IT_number 12
_symmetry_cell_setting 'monoclinic'
loop_
_space_group_symop_operation_xyz
x,y,z
-x,y,-z
-x,-y,-z
x,-y,z
1/2+x,1/2+y,z
1/2-x,1/2+y,-z
1/2-x,1/2-y,-z
1/2+x,1/2-y,z
loop_
_atom_site_type_symbol
_atom_site_label
_atom_site_fract_x
_atom_site_fract_y
_atom_site_fract_z
Si Si1 0.809931 0.330215 0.648072
Si Si2 0.388598 0.071017 0.208691
Si Si3 0.112116 0.919477 0.787746
Si Si4 0.021584 0.359666 0.280479
Si Si5 0.237515 0.705711 0.678007
Si Si6 0.611829 0.419529 0.137904
O O1 0.836865 0.365778 0.423078
O O2 0.787294 0.251345 0.677052
O O3 0.911487 0.340877 0.487044
O O4 0.705048 0.372237 0.961198
O O5 0.328963 0.000000 0.386653
O O6 0.500000 0.066338 0.000000
O O7 0.421384 0.081619 0.959732
O O8 0.199877 0.865832 0.503504
O O9 0.135233 0.000000 0.697702
O O10 0.104042 0.910842 0.983224
O O11 0.000000 0.904239 0.000000
O O12 0.000000 0.378037 0.500000
O O13 0.112891 0.302443 0.033485
O O14 0.250000 0.750000 0.500000
O O15 0.500000 0.402393 0.500000
O O16 0.632953 0.500000 0.112508
#
# Coordination Sequence:
#
# PCOD9210951 Si02
#       6
#     8   8   8   8   8   8
#     4  11  23  41  68  92 130 178 222 278 334 411
#     4   9  18  36  63  91 123 169 217 258 317 396
#     4  10  23  43  69  97 131 176 227 282 335 396
#     4  11  26  43  61  96 133 169 222 276 347 400
#     4  12  24  41  67  99 127 173 225 284 331 408
#     4  10  21  39  64  98 136 174 223 273 331 401
#
# _framework density 21.010694999999998
#
# number of rings (size 3 to 8) (size 9 to 14) (size 15 to 20)
#    0.000    1.500    3.333    0.500    2.333    5.667 
#    0.000    0.000    0.000    0.000    0.000    0.000 
#    0.000    0.000    0.000    0.000    0.000    0.000 
#
# Total GULP energy -133917.638346 kJ/mol
# GULP energy per Si atom -5579.901598 kJ/mol
# Density = 2.096287 g / cm^3
# Si number density = 21.010695 Si / 1000 Ang^3
#
#
#
# Elastic Constant Matrix: (Units=GPa)
#
#
# Indices 1 2 3 4 5 6 
#
# 1 116.3417 46.0759 57.1256 0.0000 -24.0095 0.0000
# 2 46.0759 110.4443 57.4479 0.0000 -15.9292 0.0000
# 3 57.1256 57.4479 142.3978 0.0000 -21.5405 0.0000
# 4 0.0000 0.0000 0.0000 34.9216 0.0000 -10.4842
# 5 -24.0095 -15.9292 -21.5405 0.0000 46.8340 0.0000
# 6 0.0000 0.0000 0.0000 -10.4842 0.0000 2.5751
#
#
#
# Elastic Compliance Matrix: (Units=1/GPa)
#
#
# Indices 1 2 3 4 5 6 
#
# 1 0.012029 -0.002862 -0.003101 0.000000 0.003767 0.000000
# 2 -0.002862 0.012300 -0.003658 0.000000 0.001034 0.000000
# 3 -0.003101 -0.003658 0.010010 0.000000 0.001770 0.000000
# 4 0.000000 0.000000 0.000000 -0.128814 0.000000 -0.524448
# 5 0.003767 0.001034 0.001770 0.000000 0.024449 0.000000
# 6 0.000000 0.000000 0.000000 -0.524448 0.000000 -1.746879
#
#
# Mechanical properties :
#
#
# Convention : Reuss Voigt Hill
#
# Bulk Modulus (GPa) = 66.23679 76.72030 71.47855
# Shear Modulus (GPa) = -2.78920 30.76843 13.98962
#
# Velocity S-wave (km/s) = -1.15343 3.83092 2.58317
# Velocity P-wave (km/s) = 5.46076 7.49414 6.55675
#
# Compressibility (1/GPa) = 0.01509735
#
# Stress axis : x y z
#
# Youngs Moduli (GPa) = 83.13287 81.30090 99.89920
#
# Poissons Ratio (x) = 0.23268 0.30981
# Poissons Ratio (y) = 0.23792 0.36540
# Poissons Ratio (z) = 0.25781 0.29737
#
# Static dielectric constant tensor:
#      x y z
#    x 1.766720 0.000000 -0.013050 
#    y 0.000000 1.800310 0.000000 
#    z -0.013050 0.000000 1.747220 
# 
# From -- ./inp_files/106497.got.cif
#   From: 2010.05.17/outbox.cif.g08.bks.cpg/sg12_54_cif.got.tgz:106497.got - 2010.06.03 13:09:07.
