data_PCOD9210063
_publ_section_title
;
Structure prediction by ZEFSAII (Michael W. Deem and Ramdas Pophale) SiO2 
 PCOD9210063
Probable space group: C 2/M
;
_chemical_formula_sum "Si O2"
_cell_formula_units_Z 40
_cell_length_a 20.842311
_cell_length_b 16.507936
_cell_length_c 8.319672
_cell_angle_alpha 90.000000
_cell_angle_beta 146.737448
_cell_angle_gamma 90.000000
_cell_volume 1570.011444
_symmetry_space_group_name_H-M "C 2/M"
_symmetry_group_IT_number 12
_symmetry_cell_setting 'monoclinic'
loop_
_space_group_symop_operation_xyz
x,y,z
-x,y,-z
-x,-y,-z
x,-y,z
1/2+x,1/2+y,z
1/2-x,1/2+y,-z
1/2-x,1/2-y,-z
1/2+x,1/2-y,z
loop_
_atom_site_type_symbol
_atom_site_label
_atom_site_fract_x
_atom_site_fract_y
_atom_site_fract_z
Si Si1 0.649256 0.908645 0.630377
Si Si2 0.145231 0.095348 0.732534
Si Si3 0.356524 0.679171 0.943848
Si Si4 0.075397 0.639524 0.992879
Si Si5 0.339740 0.592960 0.583062
O O1 0.716806 0.838398 0.672970
O O2 0.683158 0.000000 0.643828
O O3 0.713555 0.900777 0.936848
O O4 0.512830 0.899408 0.321101
O O5 0.123112 0.130797 0.510535
O O6 0.116215 0.000000 0.671336
O O7 0.099418 0.137148 0.799402
O O8 0.391659 0.770995 0.998188
O O9 0.384497 0.635052 0.836597
O O10 0.198202 0.596237 0.283381
O O11 0.000000 0.640764 0.000000
O O12 0.375883 0.500000 0.659766
#
# Coordination Sequence:
#
# PCOD9210063 Si02
#       5
#     8   8   8   8   8
#     4   9  19  39  63  87 122 163 203 252 304 362
#     4   8  18  38  63  89 116 158 212 252 300 370
#     4  10  21  39  59  87 129 167 195 257 315 360
#     4  12  23  34  59  95 127 160 204 255 311 370
#     4  11  21  36  64  90 117 163 209 253 307 366
#
# _framework density 25.477520999999999
#
# number of rings (size 3 to 8) (size 9 to 14) (size 15 to 20)
#    1.200    0.800    2.000    2.400    0.000    2.400 
#    0.000    5.000    0.000    5.400    0.000    2.800 
#    0.000    0.000    0.000    0.000    0.000    0.000 
#
# Total GULP energy -111797.791523 kJ/mol
# GULP energy per Si atom -5589.889576 kJ/mol
# Density = 2.541953 g / cm^3
# Si number density = 25.477521 Si / 1000 Ang^3
#
#
#
# Elastic Constant Matrix: (Units=GPa)
#
#
# Indices 1 2 3 4 5 6 
#
# 1 137.9591 21.7539 59.9898 0.0000 -11.2162 0.0000
# 2 21.7539 102.8894 25.4984 0.0000 -21.7393 0.0000
# 3 59.9898 25.4984 177.6829 0.0000 -27.6388 0.0000
# 4 0.0000 0.0000 0.0000 50.4873 0.0000 -5.4983
# 5 -11.2162 -21.7393 -27.6388 0.0000 57.0257 0.0000
# 6 0.0000 0.0000 0.0000 -5.4983 0.0000 87.6470
#
#
#
# Elastic Compliance Matrix: (Units=1/GPa)
#
#
# Indices 1 2 3 4 5 6 
#
# 1 0.008624 -0.001157 -0.002758 0.000000 -0.000082 0.000000
# 2 -0.001157 0.010880 -0.000607 0.000000 0.003626 0.000000
# 3 -0.002758 -0.000607 0.007058 0.000000 0.002647 0.000000
# 4 0.000000 0.000000 0.000000 0.019943 0.000000 0.001251
# 5 -0.000082 0.003626 0.002647 0.000000 0.020185 0.000000
# 6 0.000000 0.000000 0.000000 0.001251 0.000000 0.011488
#
#
# Mechanical properties :
#
#
# Convention : Reuss Voigt Hill
#
# Bulk Modulus (GPa) = 57.08352 70.33507 63.70930
# Shear Modulus (GPa) = 53.72779 59.78461 56.75620
#
# Velocity S-wave (km/s) = 4.59718 4.84939 4.72497
# Velocity P-wave (km/s) = 7.11568 7.68258 7.40456
#
# Compressibility (1/GPa) = 0.01751819
#
# Stress axis : x y z
#
# Youngs Moduli (GPa) = 115.95934 91.90899 141.68190
#
# Poissons Ratio (x) = 0.10634 0.39079
# Poissons Ratio (y) = 0.13417 0.08596
# Poissons Ratio (z) = 0.31984 0.05576
#
# Static dielectric constant tensor:
#      x y z
#    x 2.081110 0.000000 0.024440 
#    y 0.000000 1.891270 0.000000 
#    z 0.024440 0.000000 2.064520 
# 
# From -- ./inp_files/105874.got.cif
#   From: 2010.05.17/outbox.cif.g08.bks.cpg/sg12_53_cif.got.tgz:105874.got - 2010.06.03 13:09:07.
