data_PCOD9210986
_publ_section_title
;
Structure prediction by ZEFSAII (Michael W. Deem and Ramdas Pophale) SiO2 
 PCOD9210986
Probable space group: C 2/M
;
_chemical_formula_sum "Si O2"
_cell_formula_units_Z 64
_cell_length_a 19.010593
_cell_length_b 30.599486
_cell_length_c 8.920178
_cell_angle_alpha 90.000000
_cell_angle_beta 39.086250
_cell_angle_gamma 90.000000
_cell_volume 3271.607612
_symmetry_space_group_name_H-M "C 2/M"
_symmetry_group_IT_number 12
_symmetry_cell_setting 'monoclinic'
loop_
_space_group_symop_operation_xyz
x,y,z
-x,y,-z
-x,-y,-z
x,-y,z
1/2+x,1/2+y,z
1/2-x,1/2+y,-z
1/2-x,1/2-y,-z
1/2+x,1/2-y,z
loop_
_atom_site_type_symbol
_atom_site_label
_atom_site_fract_x
_atom_site_fract_y
_atom_site_fract_z
Si Si1 0.782060 0.684959 0.539633
Si Si2 0.095787 0.950086 0.940520
Si Si3 0.168932 0.592634 0.938392
Si Si4 0.972683 0.677457 0.720466
Si Si5 0.618883 0.760259 0.889275
Si Si6 0.971867 0.450677 0.379383
Si Si7 0.374081 0.447796 0.769861
Si Si8 0.712394 0.090690 0.517394
O O1 0.697872 0.717885 0.760720
O O2 0.811182 0.705240 0.328323
O O3 0.731949 0.636676 0.617002
O O4 0.904691 0.678247 0.407194
O O5 0.201573 0.947630 0.657763
O O6 0.060222 0.000000 0.030106
O O7 0.126265 0.933275 0.055025
O O8 0.000000 0.928084 0.000000
O O9 0.286024 0.581209 0.823070
O O10 0.178465 0.595937 0.744647
O O11 0.103042 0.634930 0.113345
O O12 0.088941 0.551624 0.102438
O O13 0.000000 0.680573 0.500000
O O14 0.909399 0.718142 0.904354
O O15 0.500000 0.752204 0.000000
O O16 0.927421 0.500000 0.463384
O O17 0.000000 0.435187 0.500000
O O18 0.889242 0.420379 0.424072
O O19 0.500000 0.443302 0.500000
O O20 0.344873 0.500000 0.809372
#
# Coordination Sequence:
#
# PCOD9210986 Si02
#       8
#     8   8   8   8   8   8   8   8
#     4  10  21  39  65  92 122 165 208 256 315 382
#     4  10  22  40  61  87 121 165 214 264 315 369
#     4  12  23  37  60  92 127 167 212 262 320 377
#     4  11  23  39  66  95 127 166 203 259 326 381
#     4   9  20  42  67  91 123 162 209 255 318 389
#     4  11  24  39  57  88 130 172 214 262 316 376
#     4  10  22  41  63  86 124 173 216 263 320 374
#     4  12  23  36  61  91 125 164 214 263 311 374
#
# _framework density 19.562248
#
# number of rings (size 3 to 8) (size 9 to 14) (size 15 to 20)
#    0.000    1.375    2.500    3.000    1.750    6.500 
#    0.000    0.000    0.000    0.000    0.000    0.000 
#    0.000    0.000    0.000    0.000    0.000    0.000 
#
# Total GULP energy -178420.113559 kJ/mol
# GULP energy per Si atom -5575.628549 kJ/mol
# Density = 1.951772 g / cm^3
# Si number density = 19.562248 Si / 1000 Ang^3
#
#
#
# Elastic Constant Matrix: (Units=GPa)
#
#
# Indices 1 2 3 4 5 6 
#
# 1 125.5643 63.6419 51.5416 0.0000 11.3534 0.0000
# 2 63.6419 91.8323 47.8098 0.0000 6.3726 0.0000
# 3 51.5416 47.8098 107.0205 0.0000 13.5852 0.0000
# 4 0.0000 0.0000 0.0000 46.1590 0.0000 6.6415
# 5 11.3534 6.3726 13.5852 0.0000 44.0499 0.0000
# 6 0.0000 0.0000 0.0000 6.6415 0.0000 36.0381
#
#
#
# Elastic Compliance Matrix: (Units=1/GPa)
#
#
# Indices 1 2 3 4 5 6 
#
# 1 0.013017 -0.007496 -0.002739 0.000000 -0.001426 0.000000
# 2 -0.007496 0.018507 -0.004749 0.000000 0.000719 0.000000
# 3 -0.002739 -0.004749 0.013122 0.000000 -0.002654 0.000000
# 4 0.000000 0.000000 0.000000 0.022254 0.000000 -0.004101
# 5 -0.001426 0.000719 -0.002654 0.000000 0.023783 0.000000
# 6 0.000000 0.000000 0.000000 -0.004101 0.000000 0.028504
#
#
# Mechanical properties :
#
#
# Convention : Reuss Voigt Hill
#
# Bulk Modulus (GPa) = 68.13362 72.26710 70.20036
# Shear Modulus (GPa) = 32.45771 36.01099 34.23435
#
# Velocity S-wave (km/s) = 4.07775 4.29516 4.18786
# Velocity P-wave (km/s) = 7.55483 7.84985 7.70375
#
# Compressibility (1/GPa) = 0.01467704
#
# Stress axis : x y z
#
# Youngs Moduli (GPa) = 76.82529 54.03488 76.21036
#
# Poissons Ratio (x) = 0.40503 0.20876
# Poissons Ratio (y) = 0.57586 0.36191
# Poissons Ratio (z) = 0.21044 0.25660
#
# Static dielectric constant tensor:
#      x y z
#    x 2.702980 0.000000 0.218720 
#    y 0.000000 1.708280 0.000000 
#    z 0.218720 0.000000 1.751610 
# 
# From -- ./inp_files/80738.got.cif
#   From: 2010.05.17/outbox.cif.g08.bks.cpg/sg12_41_cif.got.tgz:80738.got - 2010.06.03 13:09:07.
