data_PCOD9210004
_publ_section_title
;
Structure prediction by ZEFSAII (Michael W. Deem and Ramdas Pophale) SiO2 
 PCOD9210004
Probable space group: C 2/M
;
_chemical_formula_sum "Si O2"
_cell_formula_units_Z 48
_cell_length_a 10.305555
_cell_length_b 15.155864
_cell_length_c 16.875869
_cell_angle_alpha 90.000000
_cell_angle_beta 97.734447
_cell_angle_gamma 90.000000
_cell_volume 2611.855462
_symmetry_space_group_name_H-M "C 2/M"
_symmetry_group_IT_number 12
_symmetry_cell_setting 'monoclinic'
loop_
_space_group_symop_operation_xyz
x,y,z
-x,y,-z
-x,-y,-z
x,-y,z
1/2+x,1/2+y,z
1/2-x,1/2+y,-z
1/2-x,1/2-y,-z
1/2+x,1/2-y,z
loop_
_atom_site_type_symbol
_atom_site_label
_atom_site_fract_x
_atom_site_fract_y
_atom_site_fract_z
Si Si1 0.870739 0.896000 0.540825
Si Si2 0.883248 0.602869 0.102127
Si Si3 0.688638 0.103117 0.082283
Si Si4 0.173484 0.237040 0.791607
Si Si5 0.403410 0.259721 0.684283
Si Si6 0.904281 0.397355 0.566662
O O1 0.868966 0.834130 0.617016
O O2 0.742653 0.880822 0.476792
O O3 0.000000 0.876783 0.500000
O O4 0.872145 0.000000 0.562351
O O5 0.860716 0.500000 0.119211
O O6 0.837023 0.669136 0.165268
O O7 0.039073 0.614369 0.100450
O O8 0.814957 0.622241 0.011931
O O9 0.781473 0.165740 0.139939
O O10 0.722176 0.000000 0.095170
O O11 0.282290 0.242294 0.732287
O O12 0.032705 0.214530 0.743365
O O13 0.434566 0.170100 0.638797
O O14 0.915397 0.500000 0.591889
O O15 0.000000 0.383340 0.500000
#
# Coordination Sequence:
#
# PCOD9210004 Si02
#       6
#     8   8   8   8   8   8
#     4  10  21  39  59  78 107 151 197 238 285 342
#     4   9  19  39  64  85 113 159 205 239 279 346
#     4   9  19  39  64  85 113 159 205 238 280 348
#     4  12  23  37  56  92 125 152 189 241 301 352
#     4  12  24  35  57  86 123 152 183 241 304 349
#     4  10  21  39  61  82 107 151 206 243 274 339
#
# _framework density 18.377739999999999
#
# number of rings (size 3 to 8) (size 9 to 14) (size 15 to 20)
#    0.000    1.667    1.667    4.500    0.000    2.667 
#    0.000    0.000    0.000    2.000    0.000    0.000 
#    0.000    0.000    0.000    0.000    0.000    0.000 
#
# Total GULP energy -134126.941439 kJ/mol
# GULP energy per Si atom -5588.622560 kJ/mol
# Density = 1.833591 g / cm^3
# Si number density = 18.377740 Si / 1000 Ang^3
#
#
#
# Elastic Constant Matrix: (Units=GPa)
#
#
# Indices 1 2 3 4 5 6 
#
# 1 43.5539 -9.8058 -14.7686 0.0000 5.4991 0.0000
# 2 -9.8058 51.1454 29.7320 0.0000 9.7867 0.0000
# 3 -14.7686 29.7320 39.7077 0.0000 6.3180 0.0000
# 4 0.0000 0.0000 0.0000 -11.9379 0.0000 -10.0076
# 5 5.4991 9.7867 6.3180 0.0000 27.9487 0.0000
# 6 0.0000 0.0000 0.0000 -10.0076 0.0000 3.7649
#
#
#
# Elastic Compliance Matrix: (Units=1/GPa)
#
#
# Indices 1 2 3 4 5 6 
#
# 1 0.027954 0.000221 0.011534 0.000000 -0.008185 0.000000
# 2 0.000221 0.035800 -0.025645 0.000000 -0.006782 0.000000
# 3 0.011534 -0.025645 0.049385 0.000000 -0.004453 0.000000
# 4 0.000000 0.000000 0.000000 -0.025947 0.000000 -0.068972
# 5 -0.008185 -0.006782 -0.004453 0.000000 0.040772 0.000000
# 6 0.000000 0.000000 0.000000 -0.068972 0.000000 0.082276
#
#
# Mechanical properties :
#
#
# Convention : Reuss Voigt Hill
#
# Bulk Modulus (GPa) = 11.71525 16.08025 13.89775
# Shear Modulus (GPa) = 18.76368 12.57176 15.66772
#
# Velocity S-wave (km/s) = 3.19878 2.61832 2.92299
# Velocity P-wave (km/s) = 4.47565 4.23198 4.35552
#
# Compressibility (1/GPa) = 0.08535883
#
# Stress axis : x y z
#
# Youngs Moduli (GPa) = 35.77275 27.93289 20.24920
#
# Poissons Ratio (x) = -0.00616 -0.23356
# Poissons Ratio (y) = -0.00789 0.51929
# Poissons Ratio (z) = -0.41261 0.71634
#
# Static dielectric constant tensor:
#      x y z
#    x 1.633110 0.000000 0.008540 
#    y 0.000000 1.620490 0.000000 
#    z 0.008540 0.000000 1.606610 
# 
# From -- ./inp_files/251416.got.cif
#   From: 2010.05.17/outbox.cif.g08.bks.cpg/sg12_126_cif.got.tgz:251416.got - 2010.06.03 13:09:07.
