data_PCOD9210236
_publ_section_title
;
Structure prediction by ZEFSAII (Michael W. Deem and Ramdas Pophale) SiO2 
 PCOD9210236
Probable space group: C 2/M
;
_chemical_formula_sum "Si O2"
_cell_formula_units_Z 36
_cell_length_a 14.410053
_cell_length_b 7.310095
_cell_length_c 14.808774
_cell_angle_alpha 90.000000
_cell_angle_beta 57.858259
_cell_angle_gamma 90.000000
_cell_volume 1320.854537
_symmetry_space_group_name_H-M "C 2/M"
_symmetry_group_IT_number 12
_symmetry_cell_setting 'monoclinic'
loop_
_space_group_symop_operation_xyz
x,y,z
-x,y,-z
-x,-y,-z
x,-y,z
1/2+x,1/2+y,z
1/2-x,1/2+y,-z
1/2-x,1/2-y,-z
1/2+x,1/2-y,z
loop_
_atom_site_type_symbol
_atom_site_label
_atom_site_fract_x
_atom_site_fract_y
_atom_site_fract_z
Si Si1 0.169154 0.786866 0.458219
Si Si2 0.330121 0.000000 0.703954
Si Si3 0.918477 0.780487 0.172687
Si Si4 0.837663 0.785083 0.031857
Si Si5 0.988418 0.218314 0.692159
O O1 0.250000 0.750000 0.500000
O O2 0.807508 0.659020 0.638046
O O3 0.050788 0.748367 0.565609
O O4 0.172521 0.000000 0.431404
O O5 0.381247 0.840457 0.745542
O O6 0.844063 0.704175 0.130099
O O7 0.929764 0.720078 0.269704
O O8 0.894083 0.000000 0.189185
O O9 0.042545 0.753707 0.072884
O O10 0.829594 0.000000 0.053259
O O11 0.750000 0.750000 0.000000
O O12 0.968885 0.000000 0.713267
#
# Coordination Sequence:
#
# PCOD9210236 Si02
#       5
#     8   4   8   8   8
#     4  11  22  38  60  87 120 158 199 250 302 350
#     4  12  23  40  64  85 117 161 202 243 304 368
#     4   8  17  37  59  80 117 157 190 239 297 355
#     4   9  17  35  60  84 115 154 190 234 298 358
#     4  10  21  39  61  86 117 157 204 247 297 356
#
# _framework density 27.255082999999999
#
# number of rings (size 3 to 8) (size 9 to 14) (size 15 to 20)
#    0.000    2.222    1.111    4.000    0.000    1.778 
#    8.000    1.111    0.000    0.000    0.000    0.000 
#    0.000    0.000    0.000    0.000    0.000    0.000 
#
# Total GULP energy -100314.201523 kJ/mol
# GULP energy per Si atom -5573.011196 kJ/mol
# Density = 2.719305 g / cm^3
# Si number density = 27.255083 Si / 1000 Ang^3
#
#
#
# Elastic Constant Matrix: (Units=GPa)
#
#
# Indices 1 2 3 4 5 6 
#
# 1 149.6355 34.2820 82.7681 0.0000 54.9034 0.0000
# 2 34.2820 127.6881 34.4568 0.0000 11.0241 0.0000
# 3 82.7681 34.4568 145.8227 0.0000 54.0582 0.0000
# 4 0.0000 0.0000 0.0000 10.8592 0.0000 14.4928
# 5 54.9034 11.0241 54.0582 0.0000 78.9853 0.0000
# 6 0.0000 0.0000 0.0000 14.4928 0.0000 36.0712
#
#
#
# Elastic Compliance Matrix: (Units=1/GPa)
#
#
# Indices 1 2 3 4 5 6 
#
# 1 0.011024 -0.001425 -0.004226 0.000000 -0.004572 0.000000
# 2 -0.001425 0.008553 -0.001523 0.000000 0.000839 0.000000
# 3 -0.004226 -0.001523 0.011321 0.000000 -0.004598 0.000000
# 4 0.000000 0.000000 0.000000 0.198561 0.000000 -0.079778
# 5 -0.004572 0.000839 -0.004598 0.000000 0.018868 0.000000
# 6 0.000000 0.000000 0.000000 -0.079778 0.000000 0.059777
#
#
# Mechanical properties :
#
#
# Convention : Reuss Voigt Hill
#
# Bulk Modulus (GPa) = 60.42335 80.68445 70.55390
# Shear Modulus (GPa) = 15.24541 43.29244 29.26892
#
# Velocity S-wave (km/s) = 2.36765 3.98982 3.28058
# Velocity P-wave (km/s) = 5.44904 7.13390 6.34762
#
# Compressibility (1/GPa) = 0.01654989
#
# Stress axis : x y z
#
# Youngs Moduli (GPa) = 90.70897 116.92169 88.33433
#
# Poissons Ratio (x) = 0.16659 0.37328
# Poissons Ratio (y) = 0.12924 0.13457
# Poissons Ratio (z) = 0.38331 0.17812
#
# Static dielectric constant tensor:
#      x y z
#    x 2.292910 0.000000 -0.178920 
#    y 0.000000 2.044150 0.000000 
#    z -0.178920 0.000000 2.145500 
# 
# From -- ./inp_files/266555.got.cif
#   From: 2010.05.17/outbox.cif.g08.bks.cpg/sg12_134_cif.got.tgz:266555.got - 2010.06.03 13:09:07.
