data_PCOD9210320
_publ_section_title
;
Structure prediction by ZEFSAII (Michael W. Deem and Ramdas Pophale) SiO2 
 PCOD9210320
Probable space group: C 2/M
;
_chemical_formula_sum "Si O2"
_cell_formula_units_Z 52
_cell_length_a 16.840314
_cell_length_b 18.173870
_cell_length_c 9.050990
_cell_angle_alpha 90.000000
_cell_angle_beta 99.888707
_cell_angle_gamma 90.000000
_cell_volume 2728.934103
_symmetry_space_group_name_H-M "C 2/M"
_symmetry_group_IT_number 12
_symmetry_cell_setting 'monoclinic'
loop_
_space_group_symop_operation_xyz
x,y,z
-x,y,-z
-x,-y,-z
x,-y,z
1/2+x,1/2+y,z
1/2-x,1/2+y,-z
1/2-x,1/2-y,-z
1/2+x,1/2-y,z
loop_
_atom_site_type_symbol
_atom_site_label
_atom_site_fract_x
_atom_site_fract_y
_atom_site_fract_z
Si Si1 0.800782 0.729638 0.370563
Si Si2 0.024154 0.259730 0.170231
Si Si3 0.846084 0.000000 0.676111
Si Si4 0.869843 0.000000 0.351673
Si Si5 0.877426 0.848942 0.196685
Si Si6 0.925862 0.371091 0.567494
Si Si7 0.301210 0.000000 0.574620
Si Si8 0.333076 0.648304 0.844677
O O1 0.750000 0.750000 0.500000
O O2 0.819754 0.803612 0.287509
O O3 0.881175 0.689256 0.451081
O O4 0.751784 0.674525 0.248831
O O5 0.038182 0.326599 0.283896
O O6 0.105417 0.212595 0.181117
O O7 0.955504 0.202573 0.200057
O O8 0.000000 0.286332 0.000000
O O9 0.859944 0.927085 0.774975
O O10 0.892240 0.000000 0.533219
O O11 0.752363 0.000000 0.592489
O O12 0.897098 0.073157 0.277037
O O13 0.770828 0.000000 0.327689
O O14 0.837611 0.859462 0.022758
O O15 0.858468 0.429291 0.594934
O O16 0.000000 0.405074 0.500000
#
# Coordination Sequence:
#
# PCOD9210320 Si02
#       8
#     8   8   4   4   8   8   4   8
#     4  12  21  37  64  93 120 168 216 264 313 373
#     4  10  24  41  63  94 131 167 210 262 326 381
#     4  10  21  39  61  92 120 163 215 252 325 366
#     4  10  23  41  63  90 132 163 216 265 307 393
#     4  11  23  41  60  96 128 167 214 260 324 380
#     4  12  22  40  67  90 129 162 216 264 315 380
#     4  10  23  42  63  95 123 166 211 264 317 364
#     4  11  22  39  64  89 131 168 207 271 318 382
#
# _framework density 19.055059
#
# number of rings (size 3 to 8) (size 9 to 14) (size 15 to 20)
#    0.462    0.615    4.615    3.000    0.000    0.615 
#    0.000    3.462    0.000    0.000    0.000    0.000 
#    0.000    0.000    0.000    0.000    0.000    0.000 
#
# Total GULP energy -145223.082810 kJ/mol
# GULP energy per Si atom -5585.503185 kJ/mol
# Density = 1.901169 g / cm^3
# Si number density = 19.055059 Si / 1000 Ang^3
#
#
#
# Elastic Constant Matrix: (Units=GPa)
#
#
# Indices 1 2 3 4 5 6 
#
# 1 40.7147 -17.1693 24.4725 0.0000 -2.4026 0.0000
# 2 -17.1693 72.8110 51.3400 0.0000 -2.9052 0.0000
# 3 24.4725 51.3400 125.0229 0.0000 -3.9932 0.0000
# 4 0.0000 0.0000 0.0000 27.7774 0.0000 -1.4062
# 5 -2.4026 -2.9052 -3.9932 0.0000 27.5509 0.0000
# 6 0.0000 0.0000 0.0000 -1.4062 0.0000 23.1937
#
#
#
# Elastic Compliance Matrix: (Units=1/GPa)
#
#
# Indices 1 2 3 4 5 6 
#
# 1 0.046704 0.024671 -0.019148 0.000000 0.003899 0.000000
# 2 0.024671 0.032385 -0.018034 0.000000 0.002953 0.000000
# 3 -0.019148 -0.018034 0.019127 0.000000 -0.000799 0.000000
# 4 0.000000 0.000000 0.000000 0.036111 0.000000 0.002189
# 5 0.003899 0.002953 -0.000799 0.000000 0.036832 0.000000
# 6 0.000000 0.000000 0.000000 0.002189 0.000000 0.043248
#
#
# Mechanical properties :
#
#
# Convention : Reuss Voigt Hill
#
# Bulk Modulus (GPa) = 13.66247 39.53722 26.59985
# Shear Modulus (GPa) = 18.95174 27.69809 23.32491
#
# Velocity S-wave (km/s) = 3.15711 3.81672 3.50248
# Velocity P-wave (km/s) = 4.52497 6.34170 5.50874
#
# Compressibility (1/GPa) = 0.07319319
#
# Stress axis : x y z
#
# Youngs Moduli (GPa) = 21.41130 30.87828 52.28319
#
# Poissons Ratio (x) = -0.76178 1.00114
# Poissons Ratio (y) = -0.52823 0.94286
# Poissons Ratio (z) = 0.40999 0.55685
#
# Static dielectric constant tensor:
#      x y z
#    x 1.685220 0.000000 -0.000390 
#    y 0.000000 1.628610 0.000000 
#    z -0.000390 0.000000 1.649900 
# 
# From -- ./inp_files/75342.got.cif
#   From: 2010.05.17/outbox.cif.g08.bks.cpg/sg12_38_cif.got.tgz:75342.got - 2010.06.03 13:09:07.
