data_PCOD9210637
_publ_section_title
;
Structure prediction by ZEFSAII (Michael W. Deem and Ramdas Pophale) SiO2 
 PCOD9210637
Probable space group: C 2/M
;
_chemical_formula_sum "Si O2"
_cell_formula_units_Z 36
_cell_length_a 14.613713
_cell_length_b 9.648919
_cell_length_c 22.156917
_cell_angle_alpha 90.000000
_cell_angle_beta 147.946364
_cell_angle_gamma 90.000000
_cell_volume 1658.090452
_symmetry_space_group_name_H-M "C 2/M"
_symmetry_group_IT_number 12
_symmetry_cell_setting 'monoclinic'
loop_
_space_group_symop_operation_xyz
x,y,z
-x,y,-z
-x,-y,-z
x,-y,z
1/2+x,1/2+y,z
1/2-x,1/2+y,-z
1/2-x,1/2-y,-z
1/2+x,1/2-y,z
loop_
_atom_site_type_symbol
_atom_site_label
_atom_site_fract_x
_atom_site_fract_y
_atom_site_fract_z
Si Si1 0.865220 0.655537 0.747006
Si Si2 0.000000 0.255932 0.500000
Si Si3 0.178270 0.836986 0.904109
Si Si4 0.772165 0.839708 0.200267
Si Si5 0.084824 0.344525 0.417593
O O1 0.930101 0.500000 0.770847
O O2 0.670261 0.669600 0.613531
O O3 0.856206 0.673663 0.814859
O O4 0.987129 0.773146 0.787859
O O5 0.046762 0.343559 0.467541
O O6 0.282508 0.820202 0.899614
O O7 0.171595 0.000000 0.914263
O O8 0.250000 0.750000 0.000000
O O9 0.922604 0.730633 0.296900
O O10 0.837020 0.000000 0.240090
O O11 0.110793 0.500000 0.409542
O O12 0.250000 0.250000 0.500000
#
# Coordination Sequence:
#
# PCOD9210637 Si02
#       5
#     8   4   8   8   8
#     4  10  21  39  63  90 120 156 198 242 289 347
#     4  10  22  38  60  90 124 160 194 236 292 352
#     4  11  24  42  63  87 117 155 198 246 298 351
#     4   9  21  40  59  82 115 153 193 238 293 351
#     4  11  22  35  55  83 118 157 196 239 288 345
#
# _framework density 21.711724
#
# number of rings (size 3 to 8) (size 9 to 14) (size 15 to 20)
#    0.000    1.778    0.000    3.333    0.000   13.333 
#    0.000    4.444    0.000    0.000    0.000    0.000 
#    0.000    0.000    0.000    0.000    0.000    0.000 
#
# Total GULP energy -100579.080123 kJ/mol
# GULP energy per Si atom -5587.726674 kJ/mol
# Density = 2.166231 g / cm^3
# Si number density = 21.711724 Si / 1000 Ang^3
#
#
#
# Elastic Constant Matrix: (Units=GPa)
#
#
# Indices 1 2 3 4 5 6 
#
# 1 94.5597 39.7742 28.1852 0.0000 -30.0531 0.0000
# 2 39.7742 127.3400 19.9586 0.0000 -11.5141 0.0000
# 3 28.1852 19.9586 75.2291 0.0000 -19.9971 0.0000
# 4 0.0000 0.0000 0.0000 19.7659 0.0000 5.7929
# 5 -30.0531 -11.5141 -19.9971 0.0000 39.5312 0.0000
# 6 0.0000 0.0000 0.0000 5.7929 0.0000 24.9537
#
#
#
# Elastic Compliance Matrix: (Units=1/GPa)
#
#
# Indices 1 2 3 4 5 6 
#
# 1 0.015988 -0.003729 -0.002378 0.000000 0.009866 0.000000
# 2 -0.003729 0.009140 -0.001240 0.000000 -0.000800 0.000000
# 3 -0.002378 -0.001240 0.016101 0.000000 0.005976 0.000000
# 4 0.000000 0.000000 0.000000 0.054285 0.000000 -0.012602
# 5 0.009866 -0.000800 0.005976 0.000000 0.035586 0.000000
# 6 0.000000 0.000000 0.000000 -0.012602 0.000000 0.043000
#
#
# Mechanical properties :
#
#
# Convention : Reuss Voigt Hill
#
# Bulk Modulus (GPa) = 37.68802 52.55164 45.11983
# Shear Modulus (GPa) = 25.29838 30.79755 28.04796
#
# Velocity S-wave (km/s) = 3.41720 3.77035 3.59811
# Velocity P-wave (km/s) = 5.74158 6.57350 6.17157
#
# Compressibility (1/GPa) = 0.02653363
#
# Stress axis : x y z
#
# Youngs Moduli (GPa) = 62.54581 109.41148 62.10688
#
# Poissons Ratio (x) = 0.40800 0.14771
# Poissons Ratio (y) = 0.23324 0.07704
# Poissons Ratio (z) = 0.14876 0.13572
#
# Static dielectric constant tensor:
#      x y z
#    x 1.815380 0.000000 -0.015930 
#    y 0.000000 1.743150 0.000000 
#    z -0.015930 0.000000 1.831290 
# 
# From -- ./inp_files/273919.got.cif
#   From: 2010.05.17/outbox.cif.g08.bks.cpg/sg12_137_cif.got.tgz:273919.got - 2010.06.03 13:09:07.
