data_PCOD9210064
_publ_section_title
;
Structure prediction by ZEFSAII (Michael W. Deem and Ramdas Pophale) SiO2 
 PCOD9210064
Probable space group: C 2/M
;
_chemical_formula_sum "Si O2"
_cell_formula_units_Z 48
_cell_length_a 13.935000
_cell_length_b 30.482847
_cell_length_c 11.353257
_cell_angle_alpha 90.000000
_cell_angle_beta 31.254433
_cell_angle_gamma 90.000000
_cell_volume 2502.164845
_symmetry_space_group_name_H-M "C 2/M"
_symmetry_group_IT_number 12
_symmetry_cell_setting 'monoclinic'
loop_
_space_group_symop_operation_xyz
x,y,z
-x,y,-z
-x,-y,-z
x,-y,z
1/2+x,1/2+y,z
1/2-x,1/2+y,-z
1/2-x,1/2-y,-z
1/2+x,1/2-y,z
loop_
_atom_site_type_symbol
_atom_site_label
_atom_site_fract_x
_atom_site_fract_y
_atom_site_fract_z
Si Si1 0.173925 0.425335 0.000449
Si Si2 0.262228 0.303302 0.505218
Si Si3 0.463025 0.856504 0.667438
Si Si4 0.474733 0.500000 0.666539
Si Si5 0.593578 0.000000 0.770862
Si Si6 0.721922 0.651680 0.261853
Si Si7 0.694439 0.299848 0.049043
O O1 0.134809 0.392205 0.147267
O O2 0.997013 0.456497 0.185445
O O3 0.352641 0.457035 0.826467
O O4 0.197617 0.396152 0.856589
O O5 0.250000 0.250000 0.500000
O O6 0.135032 0.331922 0.550698
O O7 0.217322 0.322778 0.683737
O O8 0.480405 0.310958 0.259661
O O9 0.500000 0.874460 0.500000
O O10 0.308664 0.818843 0.820750
O O11 0.500000 0.500000 0.500000
O O12 0.688154 0.500000 0.480373
O O13 0.500000 0.000000 0.000000
O O14 0.500000 0.646292 0.500000
O O15 0.759476 0.680278 0.106129
O O16 0.750000 0.250000 0.000000
#
# Coordination Sequence:
#
# PCOD9210064 Si02
#       7
#     8   8   8   4   4   8   8
#     4  10  23  41  63  96 128 167 203 259 339 382
#     4  11  23  38  61  90 120 171 220 276 323 369
#     4  11  26  43  61  87 131 178 225 265 313 387
#     4  11  21  38  67 102 131 153 193 263 329 403
#     4  11  23  36  67 102 131 151 199 259 325 413
#     4   9  21  36  61  89 126 162 206 265 320 386
#     4  10  21  39  59  88 119 164 218 271 325 370
#
# _framework density 19.183388000000001
#
# number of rings (size 3 to 8) (size 9 to 14) (size 15 to 20)
#    0.000    1.667    3.333    0.500    4.667    5.333 
#    0.000    1.667    0.000    1.000    0.000    0.000 
#    0.000    0.000    0.000    0.000    0.000    0.000 
#
# Total GULP energy -133737.234153 kJ/mol
# GULP energy per Si atom -5572.384756 kJ/mol
# Density = 1.913973 g / cm^3
# Si number density = 19.183388 Si / 1000 Ang^3
#
#
#
# Elastic Constant Matrix: (Units=GPa)
#
#
# Indices 1 2 3 4 5 6 
#
# 1 80.4027 35.2278 52.3514 0.0000 -6.1763 0.0000
# 2 35.2278 126.0048 47.2606 0.0000 -1.5252 0.0000
# 3 52.3514 47.2606 111.2437 0.0000 -12.9406 0.0000
# 4 0.0000 0.0000 0.0000 20.8604 0.0000 2.5293
# 5 -6.1763 -1.5252 -12.9406 0.0000 40.6050 0.0000
# 6 0.0000 0.0000 0.0000 2.5293 0.0000 15.5708
#
#
#
# Elastic Compliance Matrix: (Units=1/GPa)
#
#
# Indices 1 2 3 4 5 6 
#
# 1 0.018462 -0.002274 -0.007691 0.000000 0.000272 0.000000
# 2 -0.002274 0.009757 -0.003191 0.000000 -0.000996 0.000000
# 3 -0.007691 -0.003191 0.014346 0.000000 0.003282 0.000000
# 4 0.000000 0.000000 0.000000 0.048901 0.000000 -0.007943
# 5 0.000272 -0.000996 0.003282 0.000000 0.025677 0.000000
# 6 0.000000 0.000000 0.000000 -0.007943 0.000000 0.065513
#
#
# Mechanical properties :
#
#
# Convention : Reuss Voigt Hill
#
# Bulk Modulus (GPa) = 61.52302 65.25898 63.39100
# Shear Modulus (GPa) = 23.32260 27.59467 25.45864
#
# Velocity S-wave (km/s) = 3.49057 3.79683 3.64692
# Velocity P-wave (km/s) = 6.95601 7.30161 7.13091
#
# Compressibility (1/GPa) = 0.01625408
#
# Stress axis : x y z
#
# Youngs Moduli (GPa) = 54.16539 102.49462 69.70620
#
# Poissons Ratio (x) = 0.23304 0.53609
# Poissons Ratio (y) = 0.12316 0.22242
# Poissons Ratio (z) = 0.41657 0.32705
#
# Static dielectric constant tensor:
#      x y z
#    x 1.747200 0.000000 -0.037870 
#    y 0.000000 2.486270 0.000000 
#    z -0.037870 0.000000 1.722790 
# 
# From -- ./inp_files/150220.got.cif
#   From: 2010.05.17/outbox.cif.g08.bks.cpg/sg12_76_cif.got.tgz:150220.got - 2010.06.03 13:09:07.
