data_PCOD9210203
_publ_section_title
;
Structure prediction by ZEFSAII (Michael W. Deem and Ramdas Pophale) SiO2 
 PCOD9210203
Probable space group: C 2/M
;
_chemical_formula_sum "Si O2"
_cell_formula_units_Z 64
_cell_length_a 9.835699
_cell_length_b 14.951153
_cell_length_c 28.119821
_cell_angle_alpha 90.000000
_cell_angle_beta 125.942706
_cell_angle_gamma 90.000000
_cell_volume 3347.844701
_symmetry_space_group_name_H-M "C 2/M"
_symmetry_group_IT_number 12
_symmetry_cell_setting 'monoclinic'
loop_
_space_group_symop_operation_xyz
x,y,z
-x,y,-z
-x,-y,-z
x,-y,z
1/2+x,1/2+y,z
1/2-x,1/2+y,-z
1/2-x,1/2-y,-z
1/2+x,1/2-y,z
loop_
_atom_site_type_symbol
_atom_site_label
_atom_site_fract_x
_atom_site_fract_y
_atom_site_fract_z
Si Si1 0.300606 0.749005 0.171246
Si Si2 0.005104 0.851358 0.652979
Si Si3 0.860727 0.893111 0.014042
Si Si4 0.760045 0.902241 0.383816
Si Si5 0.454529 0.405220 0.748533
Si Si6 0.688557 0.769633 0.540392
Si Si7 0.917331 0.721033 0.091280
Si Si8 0.889478 0.660039 0.285651
O O1 0.443119 0.674840 0.207630
O O2 0.325930 0.782995 0.123277
O O3 0.334723 0.820445 0.220122
O O4 0.115758 0.707382 0.138696
O O5 0.120944 0.896053 0.637536
O O6 0.087675 0.755537 0.683394
O O7 0.986886 0.900653 0.699022
O O8 0.822380 0.832885 0.593555
O O9 0.680765 0.853538 0.959611
O O10 0.854628 0.000000 0.024931
O O11 0.904597 0.820374 0.064398
O O12 0.000000 0.884012 0.000000
O O13 0.810135 0.822623 0.429455
O O14 0.569392 0.886275 0.327336
O O15 0.774725 0.000000 0.409290
O O16 0.511600 0.500000 0.779863
O O17 0.259057 0.391722 0.719060
O O18 0.500000 0.805742 0.500000
O O19 0.750000 0.750000 0.500000
#
# Coordination Sequence:
#
# PCOD9210203 Si02
#       8
#     8   8   8   8   8   8   8   8
#     4  11  22  39  63  89 120 162 201 241 303 354
#     4  10  21  39  62  83 117 158 195 234 295 363
#     4  10  22  41  65  91 122 166 208 245 302 363
#     4  11  23  39  60  88 119 152 192 244 297 348
#     4  11  23  38  59  90 123 153 195 249 297 353
#     4  11  22  40  63  86 110 155 202 241 288 359
#     4  11  22  41  64  91 125 161 202 258 298 351
#     4  10  21  39  61  84 118 161 197 230 292 369
#
# _framework density 19.116776000000002
#
# number of rings (size 3 to 8) (size 9 to 14) (size 15 to 20)
#    0.000    1.375    3.750    3.000    3.500    1.250 
#    0.000    1.875    0.000    1.875    0.000    0.000 
#    0.000    0.000    0.000    0.000    0.000    0.000 
#
# Total GULP energy -178612.437913 kJ/mol
# GULP energy per Si atom -5581.638685 kJ/mol
# Density = 1.907327 g / cm^3
# Si number density = 19.116776 Si / 1000 Ang^3
#
#
#
# Elastic Constant Matrix: (Units=GPa)
#
#
# Indices 1 2 3 4 5 6 
#
# 1 85.4953 8.6295 11.8246 0.0000 6.6848 0.0000
# 2 8.6295 75.1895 1.6200 0.0000 1.8672 0.0000
# 3 11.8246 1.6200 64.9299 0.0000 7.8522 0.0000
# 4 0.0000 0.0000 0.0000 -8.2164 0.0000 -18.5185
# 5 6.6848 1.8672 7.8522 0.0000 36.0679 0.0000
# 6 0.0000 0.0000 0.0000 -18.5185 0.0000 -39.3061
#
#
#
# Elastic Compliance Matrix: (Units=1/GPa)
#
#
# Indices 1 2 3 4 5 6 
#
# 1 0.012242 -0.001318 -0.001983 0.000000 -0.001769 0.000000
# 2 -0.001318 0.013463 -0.000042 0.000000 -0.000443 0.000000
# 3 -0.001983 -0.000042 0.016144 0.000000 -0.003145 0.000000
# 4 0.000000 0.000000 0.000000 1.967159 0.000000 -0.926799
# 5 -0.001769 -0.000443 -0.003145 0.000000 0.028761 0.000000
# 6 0.000000 0.000000 0.000000 -0.926799 0.000000 0.411207
#
#
# Mechanical properties :
#
#
# Convention : Reuss Voigt Hill
#
# Bulk Modulus (GPa) = 28.43945 29.97365 29.20655
# Shear Modulus (GPa) = 2.02644 11.27845 6.65244
#
# Velocity S-wave (km/s) = 1.03070 2.43158 1.86747
# Velocity P-wave (km/s) = 4.04048 4.85764 4.46778
#
# Compressibility (1/GPa) = 0.03516242
#
# Stress axis : x y z
#
# Youngs Moduli (GPa) = 81.68498 74.27784 61.94375
#
# Poissons Ratio (x) = 0.09793 0.12281
# Poissons Ratio (y) = 0.10769 0.00261
# Poissons Ratio (z) = 0.16195 0.00313
#
# Static dielectric constant tensor:
#      x y z
#    x 1.643980 0.000000 -0.008510 
#    y 0.000000 1.621570 0.000000 
#    z -0.008510 0.000000 1.663600 
# 
# From -- ./inp_files/372569.got.cif
#   From: 2010.05.17/outbox.cif.g08.bks.cpg/sg12_187_cif.got.tgz:372569.got - 2010.06.03 13:09:07.
