data_PCOD9210184
_publ_section_title
;
Structure prediction by ZEFSAII (Michael W. Deem and Ramdas Pophale) SiO2 
 PCOD9210184
Probable space group: C 2/M
;
_chemical_formula_sum "Si O2"
_cell_formula_units_Z 56
_cell_length_a 23.305611
_cell_length_b 14.433010
_cell_length_c 25.128689
_cell_angle_alpha 90.000000
_cell_angle_beta 21.316267
_cell_angle_gamma 90.000000
_cell_volume 3072.631307
_symmetry_space_group_name_H-M "C 2/M"
_symmetry_group_IT_number 12
_symmetry_cell_setting 'monoclinic'
loop_
_space_group_symop_operation_xyz
x,y,z
-x,y,-z
-x,-y,-z
x,-y,z
1/2+x,1/2+y,z
1/2-x,1/2+y,-z
1/2-x,1/2-y,-z
1/2+x,1/2-y,z
loop_
_atom_site_type_symbol
_atom_site_label
_atom_site_fract_x
_atom_site_fract_y
_atom_site_fract_z
Si Si1 0.071429 0.392510 0.774038
Si Si2 0.160094 0.736544 0.205666
Si Si3 0.284279 0.109959 0.944526
Si Si4 0.062824 0.891568 0.778762
Si Si5 0.210034 0.749534 0.471985
Si Si6 0.413943 0.389390 0.020699
Si Si7 0.582627 0.889288 0.985317
O O1 0.108209 0.500000 0.737080
O O2 0.203339 0.334978 0.630601
O O3 0.902803 0.376922 0.890715
O O4 0.045706 0.370315 0.857794
O O5 0.174639 0.688294 0.134598
O O6 0.242813 0.656150 0.168610
O O7 0.267305 0.826090 0.127673
O O8 0.976939 0.751996 0.374116
O O9 0.302327 0.000000 0.910934
O O10 0.098168 0.120497 0.116509
O O11 0.205629 0.837256 0.629366
O O12 0.099058 0.000000 0.750317
O O13 0.008177 0.860793 0.885478
O O14 0.250000 0.750000 0.500000
O O15 0.402367 0.500000 0.028553
O O16 0.500000 0.361713 0.000000
O O17 0.621023 0.000000 0.953956
O O18 0.500000 0.869570 0.000000
#
# Coordination Sequence:
#
# PCOD9210184 Si02
#       7
#     8   8   8   8   8   8   8
#     4  10  21  39  61  82 113 152 194 242 290 337
#     4  11  21  35  59  85 121 151 186 232 290 343
#     4   9  18  35  60  88 112 147 192 237 287 342
#     4   9  20  36  56  82 115 151 188 233 279 330
#     4  12  25  36  51  85 125 158 182 224 286 357
#     4   9  18  37  64  89 112 146 193 236 277 333
#     4  10  23  43  65  85 106 146 206 256 285 320
#
# _framework density 18.225421999999998
#
# number of rings (size 3 to 8) (size 9 to 14) (size 15 to 20)
#    0.000    2.000    1.429    3.429    2.000    3.429 
#    0.000    2.857    0.000    5.143    0.000    0.000 
#    0.000    0.000    0.000    0.000    0.000    0.000 
#
# Total GULP energy -156136.772884 kJ/mol
# GULP energy per Si atom -5576.313317 kJ/mol
# Density = 1.818394 g / cm^3
# Si number density = 18.225422 Si / 1000 Ang^3
#
#
#
# Elastic Constant Matrix: (Units=GPa)
#
#
# Indices 1 2 3 4 5 6 
#
# 1 123.5610 47.4823 67.8512 0.0016 7.3233 -0.0014
# 2 47.4823 104.4007 65.9449 -0.0004 2.4873 -0.0016
# 3 67.8512 65.9449 135.1698 0.0012 -5.9049 -0.0020
# 4 0.0016 -0.0004 0.0012 -3.5391 -0.0012 13.8887
# 5 7.3233 2.4873 -5.9049 -0.0012 19.6452 0.0020
# 6 -0.0014 -0.0016 -0.0020 13.8887 0.0020 13.4590
#
#
#
# Elastic Compliance Matrix: (Units=1/GPa)
#
#
# Indices 1 2 3 4 5 6 
#
# 1 0.012171 -0.001984 -0.005400 0.000002 -0.005909 -0.000001
# 2 -0.001984 0.014459 -0.006187 0.000000 -0.002951 0.000001
# 3 -0.005400 -0.006187 0.013426 0.000000 0.006832 0.000000
# 4 0.000002 0.000000 0.000000 -0.055956 -0.000010 0.057743
# 5 -0.005909 -0.002951 0.006832 -0.000010 0.055533 0.000002
# 6 -0.000001 0.000001 0.000000 0.057743 0.000002 0.014714
#
#
# Mechanical properties :
#
#
# Convention : Reuss Voigt Hill
#
# Bulk Modulus (GPa) = 77.43497 80.63203 79.03350
# Shear Modulus (GPa) = 58.28020 18.03657 38.15838
#
# Velocity S-wave (km/s) = 5.66099 3.14926 4.58065
# Velocity P-wave (km/s) = 9.23627 7.58692 8.45193
#
# Compressibility (1/GPa) = 0.01291406
#
# Stress axis : x y z
#
# Youngs Moduli (GPa) = 82.16333 69.15983 74.48488
#
# Poissons Ratio (x) = 0.13721 0.40219
# Poissons Ratio (y) = 0.16301 0.46085
# Poissons Ratio (z) = 0.44365 0.42791
#
# Static dielectric constant tensor:
#      x y z
#    x 1.648360 0.000000 0.016370 
#    y 0.000000 1.688840 0.000000 
#    z 0.016370 0.000000 1.588660 
# 
# From -- ./inp_files/349731.got.cif
#   From: 2010.05.17/outbox.cif.g08.bks.cpg/sg12_175_cif.got.tgz:349731.got - 2010.06.03 13:09:07.
