data_PCOD9210660
_publ_section_title
;
Structure prediction by ZEFSAII (Michael W. Deem and Ramdas Pophale) SiO2 
 PCOD9210660
Probable space group: C 2/M
;
_chemical_formula_sum "Si O2"
_cell_formula_units_Z 56
_cell_length_a 22.579879
_cell_length_b 30.951383
_cell_length_c 9.636484
_cell_angle_alpha 90.000000
_cell_angle_beta 26.279295
_cell_angle_gamma 90.000000
_cell_volume 2981.783423
_symmetry_space_group_name_H-M "C 2/M"
_symmetry_group_IT_number 12
_symmetry_cell_setting 'monoclinic'
loop_
_space_group_symop_operation_xyz
x,y,z
-x,y,-z
-x,-y,-z
x,-y,z
1/2+x,1/2+y,z
1/2-x,1/2+y,-z
1/2-x,1/2-y,-z
1/2+x,1/2-y,z
loop_
_atom_site_type_symbol
_atom_site_label
_atom_site_fract_x
_atom_site_fract_y
_atom_site_fract_z
Si Si1 0.344539 0.182280 0.316186
Si Si2 0.718317 0.247535 0.779967
Si Si3 0.762752 0.948069 0.663323
Si Si4 0.035844 0.107396 0.587633
Si Si5 0.289095 0.595065 0.312049
Si Si6 0.033610 0.548768 0.765135
Si Si7 0.548978 0.290640 0.552936
O O1 0.311977 0.203222 0.237033
O O2 0.309753 0.220658 0.495732
O O3 0.251444 0.142001 0.546343
O O4 0.500000 0.169675 0.000000
O O5 0.813706 0.234541 0.706411
O O6 0.576808 0.271275 0.097907
O O7 0.806020 0.933891 0.415691
O O8 0.846151 0.922865 0.603501
O O9 0.774703 0.000000 0.648632
O O10 0.605405 0.936347 0.008797
O O11 0.067077 0.158308 0.541258
O O12 0.000000 0.100597 0.500000
O O13 0.913767 0.096954 0.948073
O O14 0.163461 0.577985 0.486100
O O15 0.063808 0.500000 0.654842
O O16 0.000000 0.546802 0.000000
O O17 0.500000 0.285512 0.500000
#
# Coordination Sequence:
#
# PCOD9210660 Si02
#       7
#     8   8   8   8   8   8   8
#     4  11  21  34  59  88 119 143 186 248 299 347
#     4  11  22  38  58  85 113 151 195 244 296 340
#     4  10  21  39  63  91 120 154 196 240 294 353
#     4  11  25  41  57  85 123 159 196 244 294 347
#     4  11  20  36  63  88 118 153 195 243 295 345
#     4   8  16  33  59  88 116 147 188 237 287 344
#     4  11  23  42  60  80 117 161 203 239 288 355
#
# _framework density 18.780705999999999
#
# number of rings (size 3 to 8) (size 9 to 14) (size 15 to 20)
#    0.000    1.571    2.857    4.286    0.000    2.000 
#    0.000    0.714    0.000    1.714    0.000    0.000 
#    0.000    0.000    0.000    0.000    0.000    0.000 
#
# Total GULP energy -156216.940096 kJ/mol
# GULP energy per Si atom -5579.176432 kJ/mol
# Density = 1.873796 g / cm^3
# Si number density = 18.780706 Si / 1000 Ang^3
#
#
#
# Elastic Constant Matrix: (Units=GPa)
#
#
# Indices 1 2 3 4 5 6 
#
# 1 102.3597 61.5072 25.0629 0.0003 -19.5881 -0.0003
# 2 61.5072 70.8297 16.4524 0.0002 -17.7980 -0.0002
# 3 25.0629 16.4524 32.2345 0.0008 -10.9655 -0.0008
# 4 0.0003 0.0002 0.0008 104.2718 -0.0002 -117.0430
# 5 -19.5881 -17.7980 -10.9655 -0.0002 23.0394 0.0002
# 6 -0.0003 -0.0002 -0.0008 -117.0430 0.0002 156.1003
#
#
#
# Elastic Compliance Matrix: (Units=1/GPa)
#
#
# Indices 1 2 3 4 5 6 
#
# 1 0.022361 -0.017050 -0.007991 0.000000 0.002037 0.000000
# 2 -0.017050 0.031274 0.000694 0.000000 0.009994 0.000000
# 3 -0.007991 0.000694 0.041467 0.000000 0.013478 0.000000
# 4 0.000000 0.000000 0.000000 0.060556 0.000000 0.045405
# 5 0.002037 0.009994 0.013478 0.000000 0.059271 0.000000
# 6 0.000000 0.000000 0.000000 0.045405 0.000000 0.040450
#
#
# Mechanical properties :
#
#
# Convention : Reuss Voigt Hill
#
# Bulk Modulus (GPa) = 21.54789 45.71877 33.63333
# Shear Modulus (GPa) = 15.64738 63.50904 39.57821
#
# Velocity S-wave (km/s) = 2.88959 5.82147 4.59561
# Velocity P-wave (km/s) = 4.75723 8.34160 6.79020
#
# Compressibility (1/GPa) = 0.04640826
#
# Stress axis : x y z
#
# Youngs Moduli (GPa) = 44.72062 31.97510 24.11582
#
# Poissons Ratio (x) = 0.54517 0.19271
# Poissons Ratio (y) = 0.76249 -0.01674
# Poissons Ratio (z) = 0.35736 -0.02219
#
# Static dielectric constant tensor:
#      x y z
#    x 1.659190 0.000000 -0.014920 
#    y 0.000000 1.645360 0.000000 
#    z -0.014920 0.000000 1.661520 
# 
# From -- ./inp_files/91532.got.cif
#   From: 2010.05.17/outbox.cif.g08.bks.cpg/sg12_46_cif.got.tgz:91532.got - 2010.06.03 13:09:07.
