data_PCOD9210048
_publ_section_title
;
Structure prediction by ZEFSAII (Michael W. Deem and Ramdas Pophale) SiO2 
 PCOD9210048
Probable space group: C 2/M
;
_chemical_formula_sum "Si O2"
_cell_formula_units_Z 56
_cell_length_a 8.262868
_cell_length_b 19.245366
_cell_length_c 23.835707
_cell_angle_alpha 90.000000
_cell_angle_beta 133.144822
_cell_angle_gamma 90.000000
_cell_volume 2765.580106
_symmetry_space_group_name_H-M "C 2/M"
_symmetry_group_IT_number 12
_symmetry_cell_setting 'monoclinic'
loop_
_space_group_symop_operation_xyz
x,y,z
-x,y,-z
-x,-y,-z
x,-y,z
1/2+x,1/2+y,z
1/2-x,1/2+y,-z
1/2-x,1/2-y,-z
1/2+x,1/2-y,z
loop_
_atom_site_type_symbol
_atom_site_label
_atom_site_fract_x
_atom_site_fract_y
_atom_site_fract_z
Si Si1 0.135997 0.350654 0.420101
Si Si2 0.480742 0.648403 0.401003
Si Si3 0.494408 0.000000 0.588185
Si Si4 0.250461 0.081684 0.083838
Si Si5 0.545345 0.196083 0.947739
Si Si6 0.259177 0.761050 0.297153
Si Si7 0.282904 0.193793 0.184927
Si Si8 0.118024 0.000000 0.402151
O O1 0.286925 0.341317 0.511241
O O2 0.294090 0.334379 0.404174
O O3 0.064395 0.430014 0.394144
O O4 0.906431 0.309483 0.372135
O O5 0.437029 0.697245 0.337325
O O6 0.478698 0.569115 0.380404
O O7 0.314827 0.000000 0.494979
O O8 0.742752 0.000000 0.622438
O O9 0.398078 0.131134 0.078531
O O10 0.257676 0.122980 0.144532
O O11 0.313513 0.000000 0.101769
O O12 0.000000 0.084867 0.000000
O O13 0.348857 0.244450 0.877650
O O14 0.500000 0.171738 0.000000
O O15 0.750000 0.250000 0.000000
O O16 0.206104 0.807998 0.230639
O O17 0.033282 0.719694 0.251293
#
# Coordination Sequence:
#
# PCOD9210048 Si02
#       8
#     8   8   4   8   8   8   8   4
#     4  10  21  39  60  82 120 163 218 266 320 382
#     4  10  21  39  59  86 115 166 217 266 318 384
#     4   9  19  35  59  85 113 153 205 269 321 379
#     4  11  24  44  70 102 133 170 216 263 311 381
#     4  12  20  40  74 101 128 172 213 253 309 383
#     4  12  24  39  59  91 123 165 210 264 322 379
#     4  12  23  41  65  94 130 170 208 259 324 387
#     4   9  19  35  59  85 113 151 207 267 323 378
#
# _framework density 20.248918
#
# number of rings (size 3 to 8) (size 9 to 14) (size 15 to 20)
#    0.000    1.143    5.714    0.857    2.000    2.000 
#    2.571    0.000    1.571    0.000    0.000    0.000 
#    0.000    0.000    0.000    0.000    0.000    0.000 
#
# Total GULP energy -156032.455841 kJ/mol
# GULP energy per Si atom -5572.587709 kJ/mol
# Density = 2.020283 g / cm^3
# Si number density = 20.248918 Si / 1000 Ang^3
#
#
#
# Elastic Constant Matrix: (Units=GPa)
#
#
# Indices 1 2 3 4 5 6 
#
# 1 19.7351 7.5212 2.2043 0.0008 1.5010 0.0001
# 2 7.5212 144.9297 39.8910 0.0005 6.2974 0.0000
# 3 2.2043 39.8910 96.1670 -0.0010 11.7236 -0.0001
# 4 0.0008 0.0005 -0.0010 -240.3668 -0.0002 -18.3317
# 5 1.5010 6.2974 11.7236 -0.0002 30.5897 0.0000
# 6 0.0001 0.0000 -0.0001 -18.3317 0.0000 26.7296
#
#
#
# Elastic Compliance Matrix: (Units=1/GPa)
#
#
# Indices 1 2 3 4 5 6 
#
# 1 0.051818 -0.002644 0.000160 0.000000 -0.002060 0.000000
# 2 -0.002644 0.007928 -0.003194 0.000000 -0.000278 0.000000
# 3 0.000160 -0.003194 0.012211 0.000000 -0.004030 0.000000
# 4 0.000000 0.000000 0.000000 -0.003954 0.000000 -0.002711
# 5 -0.002060 -0.000278 -0.004030 0.000000 0.034394 0.000000
# 6 0.000000 0.000000 0.000000 -0.002711 0.000000 0.035552
#
#
# Mechanical properties :
#
#
# Convention : Reuss Voigt Hill
#
# Bulk Modulus (GPa) = 16.50131 40.00719 28.25425
# Shear Modulus (GPa) = 29.49752 -22.52849 3.48452
#
# Velocity S-wave (km/s) = 3.82087 -3.33915 1.31323
# Velocity P-wave (km/s) = 5.25665 2.22126 4.03524
#
# Compressibility (1/GPa) = 0.06060125
#
# Stress axis : x y z
#
# Youngs Moduli (GPa) = 19.29850 126.12923 81.89178
#
# Poissons Ratio (x) = 0.33344 -0.01310
# Poissons Ratio (y) = 0.05102 0.26158
# Poissons Ratio (z) = -0.00309 0.40289
#
# Static dielectric constant tensor:
#      x y z
#    x 1.833400 0.000000 -0.008900 
#    y 0.000000 1.745050 0.000000 
#    z -0.008900 0.000000 1.719050 
# 
# From -- ./inp_files/356770.got.cif
#   From: 2010.05.17/outbox.cif.g08.bks.cpg/sg12_179_cif.got.tgz:356770.got - 2010.06.03 13:09:07.
