data_PCOD9210055
_publ_section_title
;
Structure prediction by ZEFSAII (Michael W. Deem and Ramdas Pophale) SiO2 
 PCOD9210055
Probable space group: C 2/M
;
_chemical_formula_sum "Si O2"
_cell_formula_units_Z 64
_cell_length_a 30.472707
_cell_length_b 9.028744
_cell_length_c 19.351066
_cell_angle_alpha 90.000000
_cell_angle_beta 37.289412
_cell_angle_gamma 90.000000
_cell_volume 3225.538348
_symmetry_space_group_name_H-M "C 2/M"
_symmetry_group_IT_number 12
_symmetry_cell_setting 'monoclinic'
loop_
_space_group_symop_operation_xyz
x,y,z
-x,y,-z
-x,-y,-z
x,-y,z
1/2+x,1/2+y,z
1/2-x,1/2+y,-z
1/2-x,1/2-y,-z
1/2+x,1/2-y,z
loop_
_atom_site_type_symbol
_atom_site_label
_atom_site_fract_x
_atom_site_fract_y
_atom_site_fract_z
Si Si1 0.082543 0.322176 0.918462
Si Si2 0.538740 0.829537 0.626947
Si Si3 0.804342 0.824309 0.329666
Si Si4 0.583234 0.167921 0.417606
Si Si5 0.888870 0.176351 0.824167
Si Si6 0.704213 0.673818 0.185963
Si Si7 0.147116 0.824209 0.971420
Si Si8 0.840855 0.825723 0.444618
O O1 0.089251 0.500000 0.909770
O O2 0.141405 0.253458 0.791790
O O3 0.101017 0.258738 0.970996
O O4 0.000000 0.284140 0.000000
O O5 0.583311 0.823060 0.499971
O O6 0.459411 0.765281 0.712801
O O7 0.581900 0.733962 0.628217
O O8 0.533550 0.000000 0.655338
O O9 0.831790 0.800924 0.374000
O O10 0.723350 0.757782 0.433996
O O11 0.801687 0.000000 0.319029
O O12 0.500000 0.186959 0.500000
O O13 0.634471 0.287751 0.319202
O O14 0.605124 0.000000 0.368984
O O15 0.821003 0.215138 0.860243
O O16 0.900708 0.000000 0.800382
O O17 0.877809 0.206248 0.918856
O O18 0.770610 0.766900 0.132145
O O19 0.778034 0.000000 0.834475
O O20 0.143736 0.000000 0.963581
O O21 0.834180 0.000000 0.466091
#
# Coordination Sequence:
#
# PCOD9210055 Si02
#       8
#     8   8   8   8   8   8   8   8
#     4  11  26  46  67  94 127 163 207 262 317 373
#     4  11  23  37  61  91 124 167 210 256 310 371
#     4  10  22  42  67  93 123 163 206 253 314 375
#     4  10  21  39  59  86 124 165 207 248 302 365
#     4  10  23  42  63  92 127 166 212 262 317 371
#     4  11  23  40  65  94 127 165 209 262 315 370
#     4  11  25  44  67  92 124 166 212 260 313 378
#     4  10  22  40  64  94 128 163 203 256 310 371
#
# _framework density 19.841649
#
# number of rings (size 3 to 8) (size 9 to 14) (size 15 to 20)
#    0.000    1.500    1.250    2.625    3.500    5.250 
#    0.000    0.000    0.000    0.000    0.000    0.000 
#    0.000    0.000    0.000    0.000    0.000    0.000 
#
# Total GULP energy -178848.977562 kJ/mol
# GULP energy per Si atom -5589.030549 kJ/mol
# Density = 1.979649 g / cm^3
# Si number density = 19.841649 Si / 1000 Ang^3
#
#
#
# Elastic Constant Matrix: (Units=GPa)
#
#
# Indices 1 2 3 4 5 6 
#
# 1 99.8527 34.9320 4.3984 -0.0041 -10.7130 0.0031
# 2 34.9320 37.3234 21.5671 0.0058 5.3592 0.0013
# 3 4.3984 21.5671 49.0389 -0.0052 -0.9844 0.0039
# 4 -0.0041 0.0058 -0.0052 26.1793 0.0001 4.3745
# 5 -10.7130 5.3592 -0.9844 0.0001 15.4812 -0.0009
# 6 0.0031 0.0013 0.0039 4.3745 -0.0009 19.6361
#
#
#
# Elastic Compliance Matrix: (Units=1/GPa)
#
#
# Indices 1 2 3 4 5 6 
#
# 1 0.025716 -0.037046 0.014619 0.000016 0.031549 -0.000007
# 2 -0.037046 0.092326 -0.038487 -0.000036 -0.060044 0.000013
# 3 0.014619 -0.038487 0.036524 0.000020 0.025763 -0.000010
# 4 0.000016 -0.000036 0.000020 0.039675 0.000024 -0.008839
# 5 0.031549 -0.060044 0.025763 0.000024 0.108850 -0.000006
# 6 -0.000007 0.000013 -0.000010 -0.008839 -0.000006 0.052896
#
#
# Mechanical properties :
#
#
# Convention : Reuss Voigt Hill
#
# Bulk Modulus (GPa) = 30.54465 34.22332 32.38399
# Shear Modulus (GPa) = 10.23066 20.61382 15.42224
#
# Velocity S-wave (km/s) = 2.27318 3.22672 2.79097
# Velocity P-wave (km/s) = 4.72413 5.58283 5.17133
#
# Compressibility (1/GPa) = 0.03273896
#
# Stress axis : x y z
#
# Youngs Moduli (GPa) = 38.88702 10.83119 27.37890
#
# Poissons Ratio (x) = 0.40125 -0.40026
# Poissons Ratio (y) = 1.44059 1.05374
# Poissons Ratio (z) = -0.56850 0.41686
#
# Static dielectric constant tensor:
#      x y z
#    x 1.699920 0.000000 0.014130 
#    y 0.000000 1.666260 0.000000 
#    z 0.014130 0.000000 1.685560 
# 
# From -- ./inp_files/295482.got.cif
#   From: 2010.05.17/outbox.cif.g08.bks.cpg/sg12_148_cif.got.tgz:295482.got - 2010.06.03 13:09:07.
