data_PCOD9210030
_publ_section_title
;
Structure prediction by ZEFSAII (Michael W. Deem and Ramdas Pophale) SiO2 
 PCOD9210030
Probable space group: C 2/M
;
_chemical_formula_sum "Si O2"
_cell_formula_units_Z 48
_cell_length_a 26.880051
_cell_length_b 8.282829
_cell_length_c 12.079676
_cell_angle_alpha 90.000000
_cell_angle_beta 132.026258
_cell_angle_gamma 90.000000
_cell_volume 1997.828645
_symmetry_space_group_name_H-M "C 2/M"
_symmetry_group_IT_number 12
_symmetry_cell_setting 'monoclinic'
loop_
_space_group_symop_operation_xyz
x,y,z
-x,y,-z
-x,-y,-z
x,-y,z
1/2+x,1/2+y,z
1/2-x,1/2+y,-z
1/2-x,1/2-y,-z
1/2+x,1/2-y,z
loop_
_atom_site_type_symbol
_atom_site_label
_atom_site_fract_x
_atom_site_fract_y
_atom_site_fract_z
Si Si1 0.333459 0.815076 0.664064
Si Si2 0.320594 0.307463 0.056982
Si Si3 0.388931 0.197439 0.507838
Si Si4 0.064112 0.817973 0.018786
Si Si5 0.962997 0.307151 0.266865
Si Si6 0.753717 0.192035 0.740034
O O1 0.370494 0.754942 0.607724
O O2 0.389473 0.800464 0.842655
O O3 0.273106 0.730837 0.642279
O O4 0.315113 0.000000 0.617882
O O5 0.324131 0.500000 0.068319
O O6 0.308831 0.253129 0.911035
O O7 0.250000 0.250000 0.000000
O O8 0.390785 0.242083 0.208663
O O9 0.463333 0.251141 0.582746
O O10 0.321274 0.254625 0.345657
O O11 0.390371 0.000000 0.505909
O O12 0.094427 0.000000 0.055144
O O13 0.042638 0.757016 0.866930
O O14 0.000000 0.833118 0.000000
O O15 0.964965 0.500000 0.272905
O O16 0.750002 0.000000 0.745436
#
# Coordination Sequence:
#
# PCOD9210030 Si02
#       6
#     8   8   8   8   8   8
#     4  11  20  32  54  85 120 159 198 235 278 334
#     4  11  24  42  65  88 111 145 192 246 299 351
#     4   9  20  36  56  86 122 159 193 230 282 344
#     4  11  21  32  50  80 119 159 198 237 278 334
#     4  11  21  37  61  86 116 150 191 242 292 345
#     4  10  21  39  59  83 118 156 196 238 286 343
#
# _framework density 24.026084000000001
#
# number of rings (size 3 to 8) (size 9 to 14) (size 15 to 20)
#    0.000    1.500    3.333    2.500    0.000    1.333 
#    0.000    3.333    0.000    5.000    0.000    0.000 
#    0.000    0.000    0.000    0.000    0.000    0.000 
#
# Total GULP energy -133910.155237 kJ/mol
# GULP energy per Si atom -5579.589802 kJ/mol
# Density = 2.397140 g / cm^3
# Si number density = 24.026084 Si / 1000 Ang^3
#
#
#
# Elastic Constant Matrix: (Units=GPa)
#
#
# Indices 1 2 3 4 5 6 
#
# 1 103.6675 9.2179 22.0435 0.0000 41.5025 0.0000
# 2 9.2179 46.7034 11.9322 0.0000 13.6636 0.0000
# 3 22.0435 11.9322 107.2194 0.0000 53.8936 0.0000
# 4 0.0000 0.0000 0.0000 19.5527 0.0000 12.4426
# 5 41.5025 13.6636 53.8936 0.0000 52.7725 0.0000
# 6 0.0000 0.0000 0.0000 12.4426 0.0000 29.3789
#
#
#
# Elastic Compliance Matrix: (Units=1/GPa)
#
#
# Indices 1 2 3 4 5 6 
#
# 1 0.015879 0.000853 0.006223 0.000000 -0.019064 0.000000
# 2 0.000853 0.023255 0.001234 0.000000 -0.007952 0.000000
# 3 0.006223 0.001234 0.021638 0.000000 -0.027311 0.000000
# 4 0.000000 0.000000 0.000000 0.070014 0.000000 -0.029652
# 5 -0.019064 -0.007952 -0.027311 0.000000 0.063892 0.000000
# 6 0.000000 0.000000 0.000000 -0.029652 0.000000 0.046596
#
#
# Mechanical properties :
#
#
# Convention : Reuss Voigt Hill
#
# Bulk Modulus (GPa) = 12.92126 38.21971 25.57049
# Shear Modulus (GPa) = 19.96400 34.63394 27.29897
#
# Velocity S-wave (km/s) = 2.88571 3.80085 3.37445
# Velocity P-wave (km/s) = 4.06113 5.93330 5.08413
#
# Compressibility (1/GPa) = 0.07739185
#
# Stress axis : x y z
#
# Youngs Moduli (GPa) = 62.97486 43.00238 46.21558
#
# Poissons Ratio (x) = -0.03670 -0.28760
# Poissons Ratio (y) = -0.05375 -0.05701
# Poissons Ratio (z) = -0.39189 -0.05305
#
# Static dielectric constant tensor:
#      x y z
#    x 2.048340 0.000000 0.045020 
#    y 0.000000 1.853590 0.000000 
#    z 0.045020 0.000000 1.987760 
# 
# From -- ./inp_files/249338.got.cif
#   From: 2010.05.17/outbox.cif.g08.bks.cpg/sg12_125_cif.got.tgz:249338.got - 2010.06.03 13:09:07.
