data_PCOD9210732
_publ_section_title
;
Structure prediction by ZEFSAII (Michael W. Deem and Ramdas Pophale) SiO2 
 PCOD9210732
Probable space group: C 2/M
;
_chemical_formula_sum "Si O2"
_cell_formula_units_Z 58
_cell_length_a 21.248279
_cell_length_b 23.490815
_cell_length_c 8.214723
_cell_angle_alpha 90.000000
_cell_angle_beta 42.369413
_cell_angle_gamma 90.000000
_cell_volume 2763.219764
_symmetry_space_group_name_H-M "C 2/M"
_symmetry_group_IT_number 12
_symmetry_cell_setting 'monoclinic'
loop_
_space_group_symop_operation_xyz
x,y,z
-x,y,-z
-x,-y,-z
x,-y,z
1/2+x,1/2+y,z
1/2-x,1/2+y,-z
1/2-x,1/2-y,-z
1/2+x,1/2-y,z
loop_
_atom_site_type_symbol
_atom_site_label
_atom_site_fract_x
_atom_site_fract_y
_atom_site_fract_z
Si Si1 0.733046 0.331704 0.991990
Si Si2 0.398439 0.434753 0.157287
Si Si3 0.781541 0.367999 0.377530
Si Si4 0.714253 0.255641 0.340358
Si Si5 0.940455 0.327065 0.276521
Si Si6 0.102861 0.062570 0.230396
Si Si7 0.500000 0.000000 0.500000
Si Si8 0.600852 0.111558 0.166136
O O1 0.723938 0.298878 0.837197
O O2 0.839645 0.351734 0.817819
O O3 0.704943 0.289790 0.190051
O O4 0.671819 0.386992 0.137836
O O5 0.395736 0.500000 0.226914
O O6 0.312541 0.400043 0.394773
O O7 0.500000 0.409333 0.000000
O O8 0.395658 0.438198 0.967921
O O9 0.758500 0.301474 0.379210
O O10 0.857913 0.369997 0.375972
O O11 0.831077 0.392752 0.121659
O O12 0.613992 0.230338 0.575959
O O13 0.010987 0.353547 0.272271
O O14 0.000000 0.317066 0.000000
O O15 0.000000 0.072411 0.500000
O O16 0.133394 0.000000 0.230910
O O17 0.431744 0.949016 0.705128
#
# Coordination Sequence:
#
# PCOD9210732 Si02
#       8
#     8   8   8   8   8   8   2   8
#     4  10  22  43  63  94 134 173 218 273 329 397
#     4  10  23  42  66  93 129 173 222 278 338 399
#     4  10  22  42  66  96 130 174 223 278 336 391
#     4  10  21  39  63  93 126 174 219 263 329 396
#     4  10  21  42  62  91 133 168 215 279 322 395
#     4  10  23  43  66  97 128 168 222 280 333 394
#     4  12  24  40  62 104 120 184 228 254 334 402
#     4  10  24  41  64  97 134 177 221 276 324 394
#
# _framework density 20.990005
#
# number of rings (size 3 to 8) (size 9 to 14) (size 15 to 20)
#    0.000    1.931    0.000    2.069    5.793    0.552 
#   13.655    1.034    0.000    0.000    0.000    0.000 
#    0.000    0.000    0.000    0.000    0.000    0.000 
#
# Total GULP energy -161639.403005 kJ/mol
# GULP energy per Si atom -5573.772517 kJ/mol
# Density = 2.094223 g / cm^3
# Si number density = 20.990005 Si / 1000 Ang^3
#
#
#
# Elastic Constant Matrix: (Units=GPa)
#
#
# Indices 1 2 3 4 5 6 
#
# 1 57.2505 38.7815 24.2160 0.0000 -16.5573 0.0000
# 2 38.7815 126.2872 74.2781 0.0000 -20.0201 0.0000
# 3 24.2160 74.2781 157.2462 0.0000 -24.7716 0.0000
# 4 0.0000 0.0000 0.0000 80.3241 0.0000 -10.8349
# 5 -16.5573 -20.0201 -24.7716 0.0000 27.8493 0.0000
# 6 0.0000 0.0000 0.0000 -10.8349 0.0000 21.9565
#
#
#
# Elastic Compliance Matrix: (Units=1/GPa)
#
#
# Indices 1 2 3 4 5 6 
#
# 1 0.024513 -0.006361 0.000936 0.000000 0.010834 0.000000
# 2 -0.006361 0.012974 -0.004972 0.000000 0.001122 0.000000
# 3 0.000936 -0.004972 0.009407 0.000000 0.005349 0.000000
# 4 0.000000 0.000000 0.000000 0.013337 0.000000 0.006582
# 5 0.010834 0.001122 0.005349 0.000000 0.047914 0.000000
# 6 0.000000 0.000000 0.000000 0.006582 0.000000 0.048792
#
#
# Mechanical properties :
#
#
# Convention : Reuss Voigt Hill
#
# Bulk Modulus (GPa) = 38.31338 68.37058 53.34198
# Shear Modulus (GPa) = 26.81946 39.59319 33.20633
#
# Velocity S-wave (km/s) = 3.57841 4.34785 3.98176
# Velocity P-wave (km/s) = 5.94694 7.60584 6.82696
#
# Compressibility (1/GPa) = 0.02610054
#
# Stress axis : x y z
#
# Youngs Moduli (GPa) = 40.79425 77.07552 106.30727
#
# Poissons Ratio (x) = 0.49028 -0.09955
# Poissons Ratio (y) = 0.25949 0.52859
# Poissons Ratio (z) = -0.03820 0.38324
#
# Static dielectric constant tensor:
#      x y z
#    x 1.802120 0.000000 0.038100 
#    y 0.000000 1.770800 0.000000 
#    z 0.038100 0.000000 1.778110 
# 
# From -- ./inp_files/90805.got.cif
#   From: 2010.05.17/outbox.cif.g08.bks.cpg/sg12_46_cif.got.tgz:90805.got - 2010.06.03 13:09:07.
