data_PCOD9210868
_publ_section_title
;
Structure prediction by ZEFSAII (Michael W. Deem and Ramdas Pophale) SiO2 
 PCOD9210868
Probable space group: C 2/M
;
_chemical_formula_sum "Si O2"
_cell_formula_units_Z 56
_cell_length_a 19.015775
_cell_length_b 8.661823
_cell_length_c 18.851807
_cell_angle_alpha 90.000000
_cell_angle_beta 119.290669
_cell_angle_gamma 90.000000
_cell_volume 2708.114279
_symmetry_space_group_name_H-M "C 2/M"
_symmetry_group_IT_number 12
_symmetry_cell_setting 'monoclinic'
loop_
_space_group_symop_operation_xyz
x,y,z
-x,y,-z
-x,-y,-z
x,-y,z
1/2+x,1/2+y,z
1/2-x,1/2+y,-z
1/2-x,1/2-y,-z
1/2+x,1/2-y,z
loop_
_atom_site_type_symbol
_atom_site_label
_atom_site_fract_x
_atom_site_fract_y
_atom_site_fract_z
Si Si1 0.418599 0.679018 0.919427
Si Si2 0.102266 0.316085 0.348925
Si Si3 0.918888 0.312331 0.499201
Si Si4 0.252158 0.179961 0.823074
Si Si5 0.323558 0.181469 0.081570
Si Si6 0.246264 0.685186 0.662419
Si Si7 0.507930 0.322254 0.818761
O O1 0.399024 0.500000 0.928646
O O2 0.342774 0.786344 0.895114
O O3 0.441174 0.683756 0.847644
O O4 0.500000 0.722558 0.000000
O O5 0.115033 0.500000 0.355263
O O6 0.088843 0.262063 0.422925
O O7 0.179360 0.237443 0.350042
O O8 0.024817 0.275649 0.262899
O O9 0.922693 0.500000 0.502426
O O10 0.837859 0.272009 0.416857
O O11 0.000000 0.257389 0.500000
O O12 0.194779 0.278857 0.845390
O O13 0.249500 0.235651 0.740815
O O14 0.232864 0.000000 0.819698
O O15 0.408792 0.260776 0.108072
O O16 0.328166 0.000000 0.072240
O O17 0.250000 0.250000 0.000000
O O18 0.249732 0.500000 0.673239
O O19 0.518167 0.500000 0.802545
#
# Coordination Sequence:
#
# PCOD9210868 Si02
#       7
#     8   8   8   8   8   8   8
#     4  10  21  39  64  92 125 165 211 262 317 375
#     4  11  22  39  65  95 129 168 213 265 322 385
#     4   9  21  40  64  95 126 164 214 265 320 385
#     4  12  25  41  64  95 131 168 217 267 319 384
#     4  12  26  45  67  93 130 173 219 268 325 384
#     4  11  22  40  66  93 128 171 214 264 322 382
#     4  11  23  40  64  95 132 169 214 265 321 383
#
# _framework density 20.678595999999999
#
# number of rings (size 3 to 8) (size 9 to 14) (size 15 to 20)
#    0.000    1.143    1.429    5.143    2.000    2.000 
#    0.000    2.143    0.000    3.429    0.000    0.000 
#    0.000    0.000    0.000    0.000    0.000    0.000 
#
# Total GULP energy -156654.268619 kJ/mol
# GULP energy per Si atom -5594.795308 kJ/mol
# Density = 2.063153 g / cm^3
# Si number density = 20.678596 Si / 1000 Ang^3
#
#
#
# Elastic Constant Matrix: (Units=GPa)
#
#
# Indices 1 2 3 4 5 6 
#
# 1 82.1665 4.7493 13.6697 0.0000 2.8075 0.0000
# 2 4.7493 43.0123 -5.0524 0.0000 4.6279 0.0000
# 3 13.6697 -5.0524 91.2307 0.0000 2.1873 0.0000
# 4 0.0000 0.0000 0.0000 23.1616 0.0000 0.2474
# 5 2.8075 4.6279 2.1873 0.0000 36.9762 0.0000
# 6 0.0000 0.0000 0.0000 0.2474 0.0000 30.3587
#
#
#
# Elastic Compliance Matrix: (Units=1/GPa)
#
#
# Indices 1 2 3 4 5 6 
#
# 1 0.012608 -0.001553 -0.001960 0.000000 -0.000647 0.000000
# 2 -0.001553 0.023932 0.001629 0.000000 -0.002974 0.000000
# 3 -0.001960 0.001629 0.011363 0.000000 -0.000727 0.000000
# 4 0.000000 0.000000 0.000000 0.043179 0.000000 -0.000352
# 5 -0.000647 -0.002974 -0.000727 0.000000 0.027509 0.000000
# 6 0.000000 0.000000 0.000000 -0.000352 0.000000 0.032942
#
#
# Mechanical properties :
#
#
# Convention : Reuss Voigt Hill
#
# Bulk Modulus (GPa) = 22.65695 27.01588 24.83642
# Shear Modulus (GPa) = 29.40984 31.63546 30.52265
#
# Velocity S-wave (km/s) = 3.77535 3.91559 3.84611
# Velocity P-wave (km/s) = 5.47584 5.79098 5.63562
#
# Compressibility (1/GPa) = 0.04413656
#
# Stress axis : x y z
#
# Youngs Moduli (GPa) = 79.31287 41.78510 88.00865
#
# Poissons Ratio (x) = 0.06488 0.17247
# Poissons Ratio (y) = 0.12315 -0.14339
# Poissons Ratio (z) = 0.15543 -0.06808
#
# Static dielectric constant tensor:
#      x y z
#    x 1.732220 0.000000 -0.011720 
#    y 0.000000 1.693680 0.000000 
#    z -0.011720 0.000000 1.741970 
# 
# From -- ./inp_files/281726.got.cif
#   From: 2010.05.17/outbox.cif.g08.bks.cpg/sg12_141_cif.got.tgz:281726.got - 2010.06.03 13:09:07.
