data_PCOD9210002
_publ_section_title
;
Structure prediction by ZEFSAII (Michael W. Deem and Ramdas Pophale) SiO2 
 PCOD9210002
Probable space group: C 2/M
;
_chemical_formula_sum "Si O2"
_cell_formula_units_Z 56
_cell_length_a 12.181537
_cell_length_b 14.263828
_cell_length_c 15.760732
_cell_angle_alpha 90.000000
_cell_angle_beta 89.999934
_cell_angle_gamma 90.000000
_cell_volume 2738.511482
_symmetry_space_group_name_H-M "C 2/M"
_symmetry_group_IT_number 12
_symmetry_cell_setting 'monoclinic'
loop_
_space_group_symop_operation_xyz
x,y,z
-x,y,-z
-x,-y,-z
x,-y,z
1/2+x,1/2+y,z
1/2-x,1/2+y,-z
1/2-x,1/2-y,-z
1/2+x,1/2-y,z
loop_
_atom_site_type_symbol
_atom_site_label
_atom_site_fract_x
_atom_site_fract_y
_atom_site_fract_z
Si Si1 0.879372 0.612515 0.683439
Si Si2 0.500000 0.614467 0.099262
Si Si3 0.733736 0.385461 0.163234
Si Si4 0.874240 0.385706 0.000001
Si Si5 0.766263 0.114539 0.163232
Si Si6 0.126725 0.294481 0.500000
Si Si7 0.120629 0.387485 0.683438
O O1 0.874556 0.500000 0.680702
O O2 0.786022 0.644681 0.748099
O O3 0.871963 0.648640 0.587895
O O4 0.000001 0.638748 0.717964
O O5 0.500000 0.500000 0.100460
O O6 0.610298 0.645833 0.145462
O O7 0.389702 0.645833 0.145462
O O8 0.500000 0.640013 0.000000
O O9 0.733171 0.500000 0.163137
O O10 0.786020 0.355318 0.251903
O O11 0.809524 0.356740 0.084191
O O12 0.874392 0.500000 0.000001
O O13 0.809523 0.356740 0.915812
O O14 0.000000 0.355246 0.000000
O O15 0.766828 0.000000 0.163135
O O16 0.250000 0.250000 0.500000
O O17 0.128037 0.351361 0.587893
O O18 0.000000 0.248599 0.500000
O O19 0.125446 0.500000 0.680701
#
# Coordination Sequence:
#
# PCOD9210002 Si02
#       7
#     8   8   8   8   8   8   8
#     4   9  17  31  53  78 101 129 168 212 254 295
#     4   9  14  22  34  53  93 143 171 186 226 292
#     4   9  15  23  37  61  95 129 163 199 239 290
#     4   9  14  19  31  55  90 126 155 192 239 285
#     4   9  15  23  37  61  95 129 163 199 239 290
#     4  10  21  39  59  77 101 132 168 210 258 314
#     4   9  17  31  53  78 101 129 168 212 254 295
#
# _framework density 20.449065999999998
#
# number of rings (size 3 to 8) (size 9 to 14) (size 15 to 20)
#    0.000    2.857    1.429    1.286    0.000    5.143 
#    2.571    0.000    0.000    0.857    0.000    1.000 
#    0.000    0.000    0.000    0.000    0.000    0.000 
#
# Total GULP energy -156178.084011 kJ/mol
# GULP energy per Si atom -5577.788715 kJ/mol
# Density = 2.040252 g / cm^3
# Si number density = 20.449066 Si / 1000 Ang^3
#
#
#
# Elastic Constant Matrix: (Units=GPa)
#
#
# Indices 1 2 3 4 5 6 
#
# 1 230.5545 30.9157 104.2464 0.0000 0.0082 0.0000
# 2 30.9157 51.2007 13.0332 0.0000 0.0030 0.0000
# 3 104.2464 13.0332 149.7212 0.0000 0.0052 0.0000
# 4 0.0000 0.0000 0.0000 -58.8018 0.0000 0.0010
# 5 0.0082 0.0030 0.0052 0.0000 14.6948 0.0000
# 6 0.0000 0.0000 0.0000 0.0010 0.0000 11.8196
#
#
#
# Elastic Compliance Matrix: (Units=1/GPa)
#
#
# Indices 1 2 3 4 5 6 
#
# 1 0.006737 -0.002939 -0.004435 0.000000 -0.000002 0.000000
# 2 -0.002939 0.021256 0.000196 0.000000 -0.000003 0.000000
# 3 -0.004435 0.000196 0.009750 0.000000 -0.000001 0.000000
# 4 0.000000 0.000000 0.000000 -0.017006 0.000000 0.000001
# 5 -0.000002 -0.000003 -0.000001 0.000000 0.068051 0.000000
# 6 0.000000 0.000000 0.000000 0.000001 0.000000 0.084605
#
#
# Mechanical properties :
#
#
# Convention : Reuss Voigt Hill
#
# Bulk Modulus (GPa) = 42.75916 80.87413 61.81664
# Shear Modulus (GPa) = 25.56983 12.42792 18.99887
#
# Velocity S-wave (km/s) = 3.53996 2.46793 3.05139
# Velocity P-wave (km/s) = 6.13709 6.91056 6.53528
#
# Compressibility (1/GPa) = 0.02338680
#
# Stress axis : x y z
#
# Youngs Moduli (GPa) = 148.44284 47.04644 102.56666
#
# Poissons Ratio (x) = 0.13826 0.45485
# Poissons Ratio (y) = 0.43624 -0.02009
# Poissons Ratio (z) = 0.65829 -0.00922
#
# Static dielectric constant tensor:
#      x y z
#    x 1.752660 0.000000 0.000000 
#    y 0.000000 1.752800 0.000000 
#    z 0.000000 0.000000 1.671770 
# 
# From -- ./inp_files/205000.got.cif
#   From: 2010.05.17/outbox.cif.g08.bks.cpg/sg12_103_cif.got.tgz:205000.got - 2010.06.03 13:09:07.
