data_PCOD9210289
_publ_section_title
;
Structure prediction by ZEFSAII (Michael W. Deem and Ramdas Pophale) SiO2 
 PCOD9210289
Probable space group: C 2/M
;
_chemical_formula_sum "Si O2"
_cell_formula_units_Z 50
_cell_length_a 29.624194
_cell_length_b 10.473206
_cell_length_c 9.408446
_cell_angle_alpha 90.000000
_cell_angle_beta 121.656929
_cell_angle_gamma 90.000000
_cell_volume 2484.727129
_symmetry_space_group_name_H-M "C 2/M"
_symmetry_group_IT_number 12
_symmetry_cell_setting 'monoclinic'
loop_
_space_group_symop_operation_xyz
x,y,z
-x,y,-z
-x,-y,-z
x,-y,z
1/2+x,1/2+y,z
1/2-x,1/2+y,-z
1/2-x,1/2-y,-z
1/2+x,1/2-y,z
loop_
_atom_site_type_symbol
_atom_site_label
_atom_site_fract_x
_atom_site_fract_y
_atom_site_fract_z
Si Si1 0.712240 0.647992 0.362351
Si Si2 0.120422 0.646028 0.665673
Si Si3 0.000000 0.000000 0.500000
Si Si4 0.911783 0.855996 0.841616
Si Si5 0.961636 0.354463 0.727906
Si Si6 0.258355 0.146048 0.134480
Si Si7 0.440285 0.290110 0.206221
O O1 0.726632 0.500000 0.420597
O O2 0.750000 0.750000 0.500000
O O3 0.650312 0.665218 0.294996
O O4 0.720758 0.663373 0.207504
O O5 0.114437 0.500000 0.706273
O O6 0.079366 0.664537 0.469832
O O7 0.180689 0.660207 0.714119
O O8 0.106522 0.740819 0.769978
O O9 0.974559 0.889779 0.352827
O O10 0.946271 0.750084 0.819408
O O11 0.926542 0.000000 0.819559
O O12 0.919827 0.845192 0.023728
O O13 0.956689 0.500000 0.770961
O O14 0.020139 0.325715 0.767033
O O15 0.251801 0.000000 0.070752
O O16 0.250000 0.250000 0.000000
#
# Coordination Sequence:
#
# PCOD9210289 Si02
#       7
#     8   8   2   8   8   8   8
#     4  10  22  42  63  90 123 162 203 254 308 366
#     4  10  21  39  63  87 117 160 202 251 306 365
#     4  12  24  40  64  96 124 172 200 256 308 368
#     4  11  25  40  62  90 125 163 205 254 308 364
#     4  11  24  41  62  90 123 164 207 254 302 361
#     4  10  21  39  61  89 121 155 201 253 309 364
#     4  12  23  41  63  91 126 160 209 249 306 364
#
# _framework density 20.122933
#
# number of rings (size 3 to 8) (size 9 to 14) (size 15 to 20)
#    0.000    1.280    2.400    2.880    1.120    6.400 
#    1.440    0.000    0.000    0.000    0.000    0.000 
#    0.000    0.000    0.000    0.000    0.000    0.000 
#
# Total GULP energy -139477.414228 kJ/mol
# GULP energy per Si atom -5579.096569 kJ/mol
# Density = 2.007713 g / cm^3
# Si number density = 20.122933 Si / 1000 Ang^3
#
#
#
# Elastic Constant Matrix: (Units=GPa)
#
#
# Indices 1 2 3 4 5 6 
#
# 1 61.6774 23.1031 -15.2135 0.0000 -3.8969 0.0000
# 2 23.1031 108.8713 31.2258 0.0000 -9.2434 0.0000
# 3 -15.2135 31.2258 54.2417 0.0000 6.4020 0.0000
# 4 0.0000 0.0000 0.0000 17.7844 0.0000 -20.6413
# 5 -3.8969 -9.2434 6.4020 0.0000 27.7548 0.0000
# 6 0.0000 0.0000 0.0000 -20.6413 0.0000 5.4834
#
#
#
# Elastic Compliance Matrix: (Units=1/GPa)
#
#
# Indices 1 2 3 4 5 6 
#
# 1 0.021736 -0.007918 0.010902 0.000000 -0.002100 0.000000
# 2 -0.007918 0.014690 -0.011435 0.000000 0.006418 0.000000
# 3 0.010902 -0.011435 0.029139 0.000000 -0.008999 0.000000
# 4 0.000000 0.000000 0.000000 -0.016690 0.000000 -0.062827
# 5 -0.002100 0.006418 -0.008999 0.000000 0.039948 0.000000
# 6 0.000000 0.000000 0.000000 -0.062827 0.000000 -0.054131
#
#
# Mechanical properties :
#
#
# Convention : Reuss Voigt Hill
#
# Bulk Modulus (GPa) = 20.54926 33.66905 27.10915
# Shear Modulus (GPa) = 73.73196 22.58286 48.15741
#
# Velocity S-wave (km/s) = 6.05973 3.35363 4.89730
# Velocity P-wave (km/s) = 7.69379 5.63593 6.74382
#
# Compressibility (1/GPa) = 0.04866356
#
# Stress axis : x y z
#
# Youngs Moduli (GPa) = 46.00740 68.07390 34.31864
#
# Poissons Ratio (x) = 0.53898 -0.37415
# Poissons Ratio (y) = 0.36427 0.39243
# Poissons Ratio (z) = -0.50158 0.77842
#
# Static dielectric constant tensor:
#      x y z
#    x 1.693490 0.000000 0.007190 
#    y 0.000000 1.703110 0.000000 
#    z 0.007190 0.000000 1.689600 
# 
# From -- ./inp_files/103331.got.cif
#   From: 2010.05.17/outbox.cif.g08.bks.cpg/sg12_52_cif.got.tgz:103331.got - 2010.06.03 13:09:07.
