data_PCOD9210280
_publ_section_title
;
Structure prediction by ZEFSAII (Michael W. Deem and Ramdas Pophale) SiO2 
 PCOD9210280
Probable space group: C 2/M
;
_chemical_formula_sum "Si O2"
_cell_formula_units_Z 48
_cell_length_a 17.051499
_cell_length_b 16.244179
_cell_length_c 16.575763
_cell_angle_alpha 90.000000
_cell_angle_beta 144.013220
_cell_angle_gamma 90.000000
_cell_volume 2697.830059
_symmetry_space_group_name_H-M "C 2/M"
_symmetry_group_IT_number 12
_symmetry_cell_setting 'monoclinic'
loop_
_space_group_symop_operation_xyz
x,y,z
-x,y,-z
-x,-y,-z
x,-y,z
1/2+x,1/2+y,z
1/2-x,1/2+y,-z
1/2-x,1/2-y,-z
1/2+x,1/2-y,z
loop_
_atom_site_type_symbol
_atom_site_label
_atom_site_fract_x
_atom_site_fract_y
_atom_site_fract_z
Si Si1 0.794395 0.500000 0.880956
Si Si2 0.119927 0.645341 0.350268
Si Si3 0.093346 0.500000 0.201884
Si Si4 0.673896 0.834267 0.837872
Si Si5 0.342142 0.641807 0.136725
Si Si6 0.648024 0.598623 0.155950
Si Si7 0.861465 0.161624 0.670883
O O1 0.819670 0.500000 0.806822
O O2 0.714074 0.579108 0.844859
O O3 0.939253 0.500000 0.044782
O O4 0.120793 0.579861 0.279179
O O5 0.129154 0.738811 0.324702
O O6 0.242223 0.634111 0.513253
O O7 0.978716 0.637982 0.278826
O O8 0.676300 0.735273 0.848134
O O9 0.743793 0.863658 0.814733
O O10 0.757877 0.867814 0.984119
O O11 0.496777 0.628946 0.243697
O O12 0.659965 0.500000 0.165763
O O13 0.661242 0.632047 0.257280
O O14 0.500000 0.620064 0.000000
#
# Coordination Sequence:
#
# PCOD9210280 Si02
#       7
#     4   8   4   8   8   8   8
#     4  11  24  37  65  96 122 151 208 259 296 356
#     4  10  23  43  64  88 124 163 200 245 311 363
#     4  11  24  39  63  96 121 158 200 257 305 351
#     4  10  21  39  61  88 122 161 200 247 301 355
#     4  10  21  39  62  89 118 163 200 246 306 351
#     4  11  24  36  61  95 122 154 206 254 296 351
#     4  10  23  43  64  88 123 165 200 247 303 366
#
# _framework density 17.792078
#
# number of rings (size 3 to 8) (size 9 to 14) (size 15 to 20)
#    0.000    1.667    3.333    0.000    7.000    0.667 
#    0.000    2.500    0.000    0.000    0.000    0.000 
#    0.000    0.000    0.000    0.000    0.000    0.000 
#
# Total GULP energy -134098.470684 kJ/mol
# GULP energy per Si atom -5587.436278 kJ/mol
# Density = 1.775158 g / cm^3
# Si number density = 17.792078 Si / 1000 Ang^3
#
#
#
# Elastic Constant Matrix: (Units=GPa)
#
#
# Indices 1 2 3 4 5 6 
#
# 1 204.4240 79.6182 95.0096 0.0000 -3.0209 0.0000
# 2 79.6182 55.2958 52.3176 0.0000 -4.3247 0.0000
# 3 95.0096 52.3176 132.2984 0.0001 10.9740 0.0000
# 4 0.0000 0.0000 0.0001 14.8093 0.0000 -1.5350
# 5 -3.0209 -4.3247 10.9740 0.0000 29.6799 0.0000
# 6 0.0000 0.0000 0.0000 -1.5350 0.0000 23.6232
#
#
#
# Elastic Compliance Matrix: (Units=1/GPa)
#
#
# Indices 1 2 3 4 5 6 
#
# 1 0.011751 -0.014235 -0.002823 0.000000 0.000166 0.000000
# 2 -0.014235 0.048498 -0.009720 0.000000 0.009212 0.000000
# 3 -0.002823 -0.009720 0.014000 0.000000 -0.006880 0.000000
# 4 0.000000 0.000000 0.000000 0.067983 0.000000 0.004417
# 5 0.000166 0.009212 -0.006880 0.000000 0.037596 0.000000
# 6 0.000000 0.000000 0.000000 0.004417 0.000000 0.042618
#
#
# Mechanical properties :
#
#
# Convention : Reuss Voigt Hill
#
# Bulk Modulus (GPa) = 48.32552 93.98990 71.15771
# Shear Modulus (GPa) = 17.67410 24.62733 21.15071
#
# Velocity S-wave (km/s) = 3.15519 3.72449 3.45160
# Velocity P-wave (km/s) = 6.36348 8.45205 7.48101
#
# Compressibility (1/GPa) = 0.02069300
#
# Stress axis : x y z
#
# Youngs Moduli (GPa) = 85.10219 20.61940 71.42669
#
# Poissons Ratio (x) = 0.29352 0.20164
# Poissons Ratio (y) = 1.21145 0.69425
# Poissons Ratio (z) = 0.24024 0.20041
#
# Static dielectric constant tensor:
#      x y z
#    x 1.564080 0.000000 0.016510 
#    y 0.000000 1.605370 0.000000 
#    z 0.016510 0.000000 1.590270 
# 
# From -- ./inp_files/216531.got.cif
#   From: 2010.05.17/outbox.cif.g08.bks.cpg/sg12_109_cif.got.tgz:216531.got - 2010.06.03 13:09:07.
