data_PCOD9210914
_publ_section_title
;
Structure prediction by ZEFSAII (Michael W. Deem and Ramdas Pophale) SiO2 
 PCOD9210914
Probable space group: C 2/M
;
_chemical_formula_sum "Si O2"
_cell_formula_units_Z 56
_cell_length_a 31.341261
_cell_length_b 8.074713
_cell_length_c 12.226826
_cell_angle_alpha 90.000000
_cell_angle_beta 51.841863
_cell_angle_gamma 90.000000
_cell_volume 2433.045751
_symmetry_space_group_name_H-M "C 2/M"
_symmetry_group_IT_number 12
_symmetry_cell_setting 'monoclinic'
loop_
_space_group_symop_operation_xyz
x,y,z
-x,y,-z
-x,-y,-z
x,-y,z
1/2+x,1/2+y,z
1/2-x,1/2+y,-z
1/2-x,1/2-y,-z
1/2+x,1/2-y,z
loop_
_atom_site_type_symbol
_atom_site_label
_atom_site_fract_x
_atom_site_fract_y
_atom_site_fract_z
Si Si1 0.098675 0.198163 0.903015
Si Si2 0.900597 0.811798 0.677661
Si Si3 0.928041 0.692418 0.281794
Si Si4 0.194135 0.311979 0.039296
Si Si5 0.215571 0.194500 0.770315
Si Si6 0.164121 0.808274 0.430043
Si Si7 0.961453 0.199993 0.782033
O O1 0.064968 0.276156 0.858001
O O2 0.162709 0.232395 0.781243
O O3 0.090695 0.000000 0.912428
O O4 0.078908 0.254144 0.055096
O O5 0.852035 0.808195 0.843111
O O6 0.871391 0.737385 0.616399
O O7 0.947306 0.736788 0.681911
O O8 0.916782 0.000000 0.621437
O O9 0.917943 0.500000 0.317227
O O10 0.875904 0.793122 0.405044
O O11 0.979571 0.749560 0.269850
O O12 0.181474 0.500000 0.092770
O O13 0.250000 0.250000 0.000000
O O14 0.203589 0.299894 0.896537
O O15 0.277498 0.227927 0.639073
O O16 0.211515 0.000000 0.804790
O O17 0.175186 0.000000 0.385189
O O18 0.958325 0.000000 0.780490
#
# Coordination Sequence:
#
# PCOD9210914 Si02
#       7
#     8   8   8   8   8   8   8
#     4  10  22  42  69  95 123 162 207 259 318 379
#     4  10  21  39  64  95 125 160 207 258 313 375
#     4  12  27  44  62  88 126 168 215 266 311 366
#     4  12  22  33  56  90 130 169 205 253 309 369
#     4  11  22  39  64  96 129 161 204 259 316 376
#     4  11  24  42  65  92 127 171 212 251 309 380
#     4  10  21  42  69  95 124 160 206 260 320 377
#
# _framework density 23.016417000000001
#
# number of rings (size 3 to 8) (size 9 to 14) (size 15 to 20)
#    0.000    1.143    2.857    3.857    0.000    5.714 
#    0.000    2.857    0.000    0.000    0.000    0.000 
#    0.000    0.000    0.000    0.000    0.000    0.000 
#
# Total GULP energy -156368.136483 kJ/mol
# GULP energy per Si atom -5584.576303 kJ/mol
# Density = 2.296403 g / cm^3
# Si number density = 23.016417 Si / 1000 Ang^3
#
#
#
# Elastic Constant Matrix: (Units=GPa)
#
#
# Indices 1 2 3 4 5 6 
#
# 1 95.6719 13.2878 14.9265 0.0000 -8.8777 0.0000
# 2 13.2878 54.7301 -6.0644 0.0000 -1.8407 0.0000
# 3 14.9265 -6.0644 59.8273 0.0000 -11.6585 0.0000
# 4 0.0000 0.0000 0.0000 19.4389 0.0000 -5.5879
# 5 -8.8777 -1.8407 -11.6585 0.0000 19.4103 0.0000
# 6 0.0000 0.0000 0.0000 -5.5879 0.0000 25.7446
#
#
#
# Elastic Compliance Matrix: (Units=1/GPa)
#
#
# Indices 1 2 3 4 5 6 
#
# 1 0.011582 -0.002972 -0.002507 0.000000 0.003510 0.000000
# 2 -0.002972 0.019425 0.003176 0.000000 0.002391 0.000000
# 3 -0.002507 0.003176 0.019817 0.000000 0.011057 0.000000
# 4 0.000000 0.000000 0.000000 0.054866 0.000000 0.011909
# 5 0.003510 0.002391 0.011057 0.000000 0.059992 0.000000
# 6 0.000000 0.000000 0.000000 0.011909 0.000000 0.041428
#
#
# Mechanical properties :
#
#
# Convention : Reuss Voigt Hill
#
# Bulk Modulus (GPa) = 21.63580 28.28103 24.95841
# Shear Modulus (GPa) = 22.01461 25.45740 23.73601
#
# Velocity S-wave (km/s) = 3.09605 3.32935 3.21481
# Velocity P-wave (km/s) = 4.71182 5.20513 4.96461
#
# Compressibility (1/GPa) = 0.04621970
#
# Stress axis : x y z
#
# Youngs Moduli (GPa) = 86.34142 51.47921 50.46181
#
# Poissons Ratio (x) = 0.15298 0.12650
# Poissons Ratio (y) = 0.25658 -0.16028
# Poissons Ratio (z) = 0.21645 -0.16352
#
# Static dielectric constant tensor:
#      x y z
#    x 1.912290 0.000000 0.000660 
#    y 0.000000 1.830160 0.000000 
#    z 0.000660 0.000000 1.814340 
# 
# From -- ./inp_files/187158.got.cif
#   From: 2010.05.17/outbox.cif.g08.bks.cpg/sg12_94_cif.got.tgz:187158.got - 2010.06.03 13:09:07.
