data_PCOD9210122
_publ_section_title
;
Structure prediction by ZEFSAII (Michael W. Deem and Ramdas Pophale) SiO2 
 PCOD9210122
Probable space group: C 2/M
;
_chemical_formula_sum "Si O2"
_cell_formula_units_Z 56
_cell_length_a 16.257516
_cell_length_b 23.230680
_cell_length_c 15.564980
_cell_angle_alpha 90.000000
_cell_angle_beta 26.204356
_cell_angle_gamma 90.000000
_cell_volume 2595.782137
_symmetry_space_group_name_H-M "C 2/M"
_symmetry_group_IT_number 12
_symmetry_cell_setting 'monoclinic'
loop_
_space_group_symop_operation_xyz
x,y,z
-x,y,-z
-x,-y,-z
x,-y,z
1/2+x,1/2+y,z
1/2-x,1/2+y,-z
1/2-x,1/2-y,-z
1/2+x,1/2-y,z
loop_
_atom_site_type_symbol
_atom_site_label
_atom_site_fract_x
_atom_site_fract_y
_atom_site_fract_z
Si Si1 0.651150 0.656472 0.719971
Si Si2 0.311589 0.776397 0.258123
Si Si3 0.616658 0.437407 0.977863
Si Si4 0.453975 0.063998 0.412703
Si Si5 0.649588 0.156687 0.957776
Si Si6 0.428723 0.661266 0.395732
Si Si7 0.376761 0.066415 0.282193
O O1 0.662243 0.708630 0.775884
O O2 0.822173 0.613213 0.571138
O O3 0.650553 0.678447 0.622748
O O4 0.468249 0.616840 0.894811
O O5 0.310475 0.815832 0.173913
O O6 0.127581 0.789692 0.483951
O O7 0.494633 0.798620 0.138945
O O8 0.592802 0.500000 0.044878
O O9 0.834101 0.430372 0.757734
O O10 0.500000 0.439317 0.000000
O O11 0.448214 0.067217 0.314081
O O12 0.385332 0.000000 0.501728
O O13 0.850460 0.152086 0.812491
O O14 0.534102 0.097276 0.076247
O O15 0.311836 0.604994 0.537659
O O16 0.343927 0.000000 0.288821
#
# Coordination Sequence:
#
# PCOD9210122 Si02
#       7
#     8   8   8   8   8   8   8
#     4  11  22  37  62  87 114 156 202 240 289 349
#     4  10  23  39  57  82 118 158 199 240 289 342
#     4  10  22  38  57  86 122 153 191 240 293 354
#     4   9  19  38  61  89 122 152 188 242 296 349
#     4  10  21  39  60  84 123 158 186 241 297 340
#     4  10  21  39  60  87 119 152 195 244 289 344
#     4   9  19  37  64  93 118 149 193 237 292 360
#
# _framework density 21.573457999999999
#
# number of rings (size 3 to 8) (size 9 to 14) (size 15 to 20)
#    0.000    2.143    0.000    2.143    2.000    3.429 
#    2.571    7.857    0.000    8.571    0.000    0.000 
#    0.000    0.000    0.000    0.000    0.000    0.000 
#
# Total GULP energy -156226.133920 kJ/mol
# GULP energy per Si atom -5579.504783 kJ/mol
# Density = 2.152436 g / cm^3
# Si number density = 21.573458 Si / 1000 Ang^3
#
#
#
# Elastic Constant Matrix: (Units=GPa)
#
#
# Indices 1 2 3 4 5 6 
#
# 1 56.3229 32.4219 22.4851 -0.0273 -12.2871 0.0505
# 2 32.4219 130.1626 38.5179 0.0233 -3.1488 0.0296
# 3 22.4851 38.5179 85.9748 0.0171 -26.7370 0.0674
# 4 -0.0273 0.0233 0.0171 32.1459 0.0054 -6.5962
# 5 -12.2871 -3.1488 -26.7370 0.0054 46.9273 -0.0464
# 6 0.0505 0.0296 0.0674 -6.5962 -0.0464 28.1725
#
#
#
# Elastic Compliance Matrix: (Units=1/GPa)
#
#
# Indices 1 2 3 4 5 6 
#
# 1 0.022366 -0.004752 -0.002429 0.000019 0.004153 -0.000018
# 2 -0.004752 0.010028 -0.004166 -0.000008 -0.002945 0.000001
# 3 -0.002429 -0.004166 0.016830 -0.000014 0.008674 -0.000020
# 4 0.000019 -0.000008 -0.000014 0.032678 0.000001 0.007651
# 5 0.004153 -0.002945 0.008674 0.000001 0.027141 0.000020
# 6 -0.000018 0.000001 -0.000020 0.007651 0.000020 0.037287
#
#
# Mechanical properties :
#
#
# Convention : Reuss Voigt Hill
#
# Bulk Modulus (GPa) = 37.69133 51.03447 44.36290
# Shear Modulus (GPa) = 28.11095 33.38483 30.74789
#
# Velocity S-wave (km/s) = 3.61367 3.93809 3.77936
# Velocity P-wave (km/s) = 5.90936 6.66225 6.29707
#
# Compressibility (1/GPa) = 0.02653130
#
# Stress axis : x y z
#
# Youngs Moduli (GPa) = 44.71098 99.72304 59.41720
#
# Poissons Ratio (x) = 0.47387 0.14431
# Poissons Ratio (y) = 0.21246 0.24751
# Poissons Ratio (z) = 0.10859 0.41540
#
# Static dielectric constant tensor:
#      x y z
#    x 1.837260 0.000100 0.044610 
#    y 0.000100 1.808020 -0.000090 
#    z 0.044610 -0.000090 1.806130 
# 
# From -- ./inp_files/218658.got.cif
#   From: 2010.05.17/outbox.cif.g08.bks.cpg/sg12_110_cif.got.tgz:218658.got - 2010.06.03 13:09:07.
