data_PCOD9210214
_publ_section_title
;
Structure prediction by ZEFSAII (Michael W. Deem and Ramdas Pophale) SiO2 
 PCOD9210214
Probable space group: C 2/M
;
_chemical_formula_sum "Si O2"
_cell_formula_units_Z 40
_cell_length_a 20.327285
_cell_length_b 13.072707
_cell_length_c 10.750282
_cell_angle_alpha 90.000000
_cell_angle_beta 37.487525
_cell_angle_gamma 90.000000
_cell_volume 1738.555779
_symmetry_space_group_name_H-M "C 2/M"
_symmetry_group_IT_number 12
_symmetry_cell_setting 'monoclinic'
loop_
_space_group_symop_operation_xyz
x,y,z
-x,y,-z
-x,-y,-z
x,-y,z
1/2+x,1/2+y,z
1/2-x,1/2+y,-z
1/2-x,1/2-y,-z
1/2+x,1/2-y,z
loop_
_atom_site_type_symbol
_atom_site_label
_atom_site_fract_x
_atom_site_fract_y
_atom_site_fract_z
Si Si1 0.478012 0.279566 0.831720
Si Si2 0.251827 0.174417 0.772636
Si Si3 0.674876 0.614410 0.416017
Si Si4 0.642080 0.114172 0.647408
Si Si5 0.904384 0.611930 0.746238
O O1 0.557070 0.360193 0.647409
O O2 0.555531 0.203787 0.792586
O O3 0.376393 0.329833 0.051080
O O4 0.425547 0.203470 0.808363
O O5 0.291898 0.292305 0.721821
O O6 0.310136 0.129144 0.563164
O O7 0.294894 0.121712 0.832016
O O8 0.680432 0.500000 0.356015
O O9 0.761100 0.622969 0.399545
O O10 0.596172 0.000000 0.728241
O O11 0.909802 0.500000 0.799253
O O12 0.000000 0.616663 0.500000
#
# Coordination Sequence:
#
# PCOD9210214 Si02
#       5
#     8   8   8   8   8
#     4  11  22  38  60  88 116 149 193 242 287 338
#     4  11  22  38  60  88 116 149 193 242 287 338
#     4  10  23  39  56  85 123 156 188 234 290 342
#     4  10  21  39  61  85 116 156 197 234 280 340
#     4  11  21  38  64  87 111 149 196 240 286 343
#
# _framework density 23.007601999999999
#
# number of rings (size 3 to 8) (size 9 to 14) (size 15 to 20)
#    0.000    1.400    4.000    4.200    0.000    6.400 
#    0.000    6.000    0.000    0.000    0.000    0.000 
#    0.000    0.000    0.000    0.000    0.000    0.000 
#
# Total GULP energy -111935.610727 kJ/mol
# GULP energy per Si atom -5596.780536 kJ/mol
# Density = 2.295524 g / cm^3
# Si number density = 23.007602 Si / 1000 Ang^3
#
#
#
# Elastic Constant Matrix: (Units=GPa)
#
#
# Indices 1 2 3 4 5 6 
#
# 1 57.2159 8.1870 0.2529 0.0000 -10.6109 0.0000
# 2 8.1870 84.9406 -6.1239 0.0000 -8.9230 0.0000
# 3 0.2529 -6.1239 119.2204 0.0000 -12.7657 0.0000
# 4 0.0000 0.0000 0.0000 -2.9238 0.0000 -11.4283
# 5 -10.6109 -8.9230 -12.7657 0.0000 25.6557 0.0000
# 6 0.0000 0.0000 0.0000 -11.4283 0.0000 14.8885
#
#
#
# Elastic Compliance Matrix: (Units=1/GPa)
#
#
# Indices 1 2 3 4 5 6 
#
# 1 0.019083 -0.000950 0.000761 0.000000 0.007941 0.000000
# 2 -0.000950 0.012416 0.001120 0.000000 0.004482 0.000000
# 3 0.000761 0.001120 0.008999 0.000000 0.005182 0.000000
# 4 0.000000 0.000000 0.000000 -0.085499 0.000000 -0.065628
# 5 0.007941 0.004482 0.005182 0.000000 0.046399 0.000000
# 6 0.000000 0.000000 0.000000 -0.065628 0.000000 0.016790
#
#
# Mechanical properties :
#
#
# Convention : Reuss Voigt Hill
#
# Bulk Modulus (GPa) = 23.60804 29.55654 26.58229
# Shear Modulus (GPa) = 164.22268 24.79482 94.50875
#
# Velocity S-wave (km/s) = 8.45769 3.28636 6.41610
# Velocity P-wave (km/s) = 10.27910 5.22251 8.15275
#
# Compressibility (1/GPa) = 0.04235846
#
# Stress axis : x y z
#
# Youngs Moduli (GPa) = 52.40296 80.54036 111.12889
#
# Poissons Ratio (x) = 0.07654 -0.08457
# Poissons Ratio (y) = 0.04980 -0.12444
# Poissons Ratio (z) = -0.03988 -0.09018
#
# Static dielectric constant tensor:
#      x y z
#    x 1.835290 0.000000 -0.006800 
#    y 0.000000 1.868910 0.000000 
#    z -0.006800 0.000000 1.873760 
# 
# From -- ./inp_files/176335.got.cif
#   From: 2010.05.17/outbox.cif.g08.bks.cpg/sg12_89_cif.got.tgz:176335.got - 2010.06.03 13:09:07.
