data_PCOD9210943
_publ_section_title
;
Structure prediction by ZEFSAII (Michael W. Deem and Ramdas Pophale) SiO2 
 PCOD9210943
Probable space group: C 2/M
;
_chemical_formula_sum "Si O2"
_cell_formula_units_Z 44
_cell_length_a 11.195282
_cell_length_b 23.999380
_cell_length_c 9.362805
_cell_angle_alpha 90.000000
_cell_angle_beta 63.732497
_cell_angle_gamma 90.000000
_cell_volume 2255.830229
_symmetry_space_group_name_H-M "C 2/M"
_symmetry_group_IT_number 12
_symmetry_cell_setting 'monoclinic'
loop_
_space_group_symop_operation_xyz
x,y,z
-x,y,-z
-x,-y,-z
x,-y,z
1/2+x,1/2+y,z
1/2-x,1/2+y,-z
1/2-x,1/2-y,-z
1/2+x,1/2-y,z
loop_
_atom_site_type_symbol
_atom_site_label
_atom_site_fract_x
_atom_site_fract_y
_atom_site_fract_z
Si Si1 0.000000 0.143719 0.000000
Si Si2 0.943656 0.500000 0.188792
Si Si3 0.183827 0.377213 0.680596
Si Si4 0.632031 0.000000 0.338547
Si Si5 0.310364 0.689964 0.858877
Si Si6 0.733747 0.615026 0.681340
Si Si7 0.590143 0.192829 0.205952
O O1 0.093745 0.113809 0.836256
O O2 0.902164 0.176216 0.946272
O O3 0.866191 0.441519 0.265981
O O4 0.079389 0.500000 0.207230
O O5 0.000000 0.500000 0.000000
O O6 0.280432 0.356537 0.756177
O O7 0.258739 0.370623 0.489391
O O8 0.054352 0.335603 0.739384
O O9 0.500000 0.000000 0.500000
O O10 0.710776 0.946098 0.335231
O O11 0.382832 0.744101 0.753914
O O12 0.166278 0.696451 0.012694
O O13 0.831641 0.654258 0.722309
#
# Coordination Sequence:
#
# PCOD9210943 Si02
#       7
#     4   4   8   4   8   8   8
#     4  10  26  47  60  90 132 183 220 256 344 400
#     4  12  24  38  69 106 134 157 217 276 328 383
#     4  12  23  41  68 103 129 169 225 279 328 382
#     4  12  20  43  69 100 131 163 211 281 333 377
#     4  10  24  40  64  91 137 175 215 270 318 405
#     4  11  23  42  66  94 133 172 212 273 333 395
#     4  10  21  39  64  97 129 172 216 267 334 380
#
# _framework density 19.505015
#
# number of rings (size 3 to 8) (size 9 to 14) (size 15 to 20)
#    0.000    1.091    3.636    2.182   10.182    1.818 
#    3.273    0.909    0.000    2.182    0.000    0.000 
#    0.000    0.000    0.000    0.000    0.000    0.000 
#
# Total GULP energy -122556.536068 kJ/mol
# GULP energy per Si atom -5570.751639 kJ/mol
# Density = 1.946062 g / cm^3
# Si number density = 19.505015 Si / 1000 Ang^3
#
#
#
# Elastic Constant Matrix: (Units=GPa)
#
#
# Indices 1 2 3 4 5 6 
#
# 1 78.4343 36.3603 42.3061 0.0000 4.1362 0.0000
# 2 36.3603 121.6934 39.0923 0.0000 -7.1119 0.0000
# 3 42.3061 39.0923 134.9460 0.0000 -2.8481 0.0000
# 4 0.0000 0.0000 0.0000 28.2081 0.0000 7.1973
# 5 4.1362 -7.1119 -2.8481 0.0000 42.0582 0.0000
# 6 0.0000 0.0000 0.0000 7.1973 0.0000 16.8715
#
#
#
# Elastic Compliance Matrix: (Units=1/GPa)
#
#
# Indices 1 2 3 4 5 6 
#
# 1 0.016971 -0.003855 -0.004259 0.000000 -0.002609 0.000000
# 2 -0.003855 0.010014 -0.001651 0.000000 0.001961 0.000000
# 3 -0.004259 -0.001651 0.009240 0.000000 0.000765 0.000000
# 4 0.000000 0.000000 0.000000 0.039781 0.000000 -0.016970
# 5 -0.002609 0.001961 0.000765 0.000000 0.024417 0.000000
# 6 0.000000 0.000000 0.000000 -0.016970 0.000000 0.066511
#
#
# Mechanical properties :
#
#
# Convention : Reuss Voigt Hill
#
# Bulk Modulus (GPa) = 59.89652 63.39901 61.64777
# Shear Modulus (GPa) = 26.03765 31.91521 28.97643
#
# Velocity S-wave (km/s) = 3.65762 4.04946 3.85851
# Velocity P-wave (km/s) = 6.97227 7.37825 7.17813
#
# Compressibility (1/GPa) = 0.01669546
#
# Stress axis : x y z
#
# Youngs Moduli (GPa) = 58.92234 99.85812 108.22542
#
# Poissons Ratio (x) = 0.38498 0.46092
# Poissons Ratio (y) = 0.22716 0.17868
# Poissons Ratio (z) = 0.25094 0.16486
#
# Static dielectric constant tensor:
#      x y z
#    x 1.561140 0.000000 0.294820 
#    y 0.000000 1.736900 0.000000 
#    z 0.294820 0.000000 0.158360 
# 
# From -- ./inp_files/51245.got.cif
#   From: 2010.05.17/outbox.cif.g08.bks.cpg/sg12_26_cif.got.tgz:51245.got - 2010.06.03 13:09:07.
