data_PCOD9210621
_publ_section_title
;
Structure prediction by ZEFSAII (Michael W. Deem and Ramdas Pophale) SiO2 
 PCOD9210621
Probable space group: C 2/M
;
_chemical_formula_sum "Si O2"
_cell_formula_units_Z 56
_cell_length_a 11.252552
_cell_length_b 27.341084
_cell_length_c 9.893808
_cell_angle_alpha 90.000000
_cell_angle_beta 59.275114
_cell_angle_gamma 90.000000
_cell_volume 2616.628224
_symmetry_space_group_name_H-M "C 2/M"
_symmetry_group_IT_number 12
_symmetry_cell_setting 'monoclinic'
loop_
_space_group_symop_operation_xyz
x,y,z
-x,y,-z
-x,-y,-z
x,-y,z
1/2+x,1/2+y,z
1/2-x,1/2+y,-z
1/2-x,1/2-y,-z
1/2+x,1/2-y,z
loop_
_atom_site_type_symbol
_atom_site_label
_atom_site_fract_x
_atom_site_fract_y
_atom_site_fract_z
Si Si1 0.230881 0.710143 0.329289
Si Si2 0.923111 0.121555 0.167436
Si Si3 0.970500 0.720426 0.296513
Si Si4 0.637833 0.055275 0.533979
Si Si5 0.014373 0.616604 0.148741
Si Si6 0.030308 0.055337 0.638890
Si Si7 0.212080 0.555917 0.188514
O O1 0.291453 0.655570 0.276363
O O2 0.131779 0.708716 0.518168
O O3 0.372726 0.740844 0.273486
O O4 0.123794 0.729822 0.275225
O O5 0.009969 0.101825 0.244276
O O6 0.864577 0.071371 0.138905
O O7 0.000000 0.147621 0.000000
O O8 0.996511 0.673643 0.188038
O O9 0.585627 0.090251 0.683599
O O10 0.804024 0.055030 0.448280
O O11 0.623799 0.063206 0.379107
O O12 0.592378 0.000000 0.592489
O O13 0.159787 0.594011 0.109688
O O14 0.000000 0.605379 0.000000
O O15 0.000000 0.063753 0.500000
O O16 0.979758 0.000000 0.704866
O O17 0.203628 0.500000 0.151300
#
# Coordination Sequence:
#
# PCOD9210621 Si02
#       7
#     8   8   8   8   8   8   8
#     4  10  22  45  73  99 123 169 218 276 326 391
#     4  11  22  39  62  95 130 171 215 264 328 396
#     4  10  22  45  72  97 128 162 222 273 327 391
#     4   9  19  36  60  86 116 167 225 264 309 381
#     4  12  24  37  58  93 133 167 202 269 334 389
#     4   9  19  37  58  85 123 169 218 267 317 368
#     4  10  21  39  63  89 122 174 227 263 315 385
#
# _framework density 21.401589000000001
#
# number of rings (size 3 to 8) (size 9 to 14) (size 15 to 20)
#    0.000    1.857    1.429    3.857    2.000    5.143 
#   10.286    2.857    0.000    0.000    0.000    0.000 
#    0.000    0.000    0.000    0.000    0.000    0.000 
#
# Total GULP energy -155872.557428 kJ/mol
# GULP energy per Si atom -5566.877051 kJ/mol
# Density = 2.135288 g / cm^3
# Si number density = 21.401589 Si / 1000 Ang^3
#
#
#
# Elastic Constant Matrix: (Units=GPa)
#
#
# Indices 1 2 3 4 5 6 
#
# 1 88.2548 42.4747 43.1817 0.0000 27.5963 0.0000
# 2 42.4747 96.1744 31.0001 0.0000 11.8901 0.0000
# 3 43.1817 31.0001 66.9991 0.0000 23.9505 0.0000
# 4 0.0000 0.0000 0.0000 7.4486 0.0000 6.6065
# 5 27.5963 11.8901 23.9505 0.0000 38.2316 0.0000
# 6 0.0000 0.0000 0.0000 6.6065 0.0000 28.0556
#
#
#
# Elastic Compliance Matrix: (Units=1/GPa)
#
#
# Indices 1 2 3 4 5 6 
#
# 1 0.020228 -0.005480 -0.007591 0.000000 -0.008141 0.000000
# 2 -0.005480 0.013708 -0.003480 0.000000 0.001873 0.000000
# 3 -0.007591 -0.003480 0.024590 0.000000 -0.008842 0.000000
# 4 0.000000 0.000000 0.000000 0.169694 0.000000 -0.039960
# 5 -0.008141 0.001873 -0.008842 0.000000 0.036990 0.000000
# 6 0.000000 0.000000 0.000000 -0.039960 0.000000 0.045053
#
#
# Mechanical properties :
#
#
# Convention : Reuss Voigt Hill
#
# Bulk Modulus (GPa) = 39.33512 53.86014 46.59763
# Shear Modulus (GPa) = 14.21095 23.73195 18.97145
#
# Velocity S-wave (km/s) = 2.57964 3.33361 2.98056
# Velocity P-wave (km/s) = 5.22419 6.32758 5.80218
#
# Compressibility (1/GPa) = 0.02542257
#
# Stress axis : x y z
#
# Youngs Moduli (GPa) = 49.43550 72.94836 40.66776
#
# Poissons Ratio (x) = 0.39977 0.30873
# Poissons Ratio (y) = 0.27092 0.14153
# Poissons Ratio (z) = 0.37529 0.25387
#
# Static dielectric constant tensor:
#      x y z
#    x 1.915570 0.000000 0.020260 
#    y 0.000000 1.783770 0.000000 
#    z 0.020260 0.000000 1.883070 
# 
# From -- ./inp_files/53144.got.cif
#   From: 2010.05.17/outbox.cif.g08.bks.cpg/sg12_27_cif.got.tgz:53144.got - 2010.06.03 13:09:07.
