data_PCOD9210878
_publ_section_title
;
Structure prediction by ZEFSAII (Michael W. Deem and Ramdas Pophale) SiO2 
 PCOD9210878
Probable space group: C 2/M
;
_chemical_formula_sum "Si O2"
_cell_formula_units_Z 56
_cell_length_a 26.045605
_cell_length_b 8.316756
_cell_length_c 13.744025
_cell_angle_alpha 90.000000
_cell_angle_beta 68.095987
_cell_angle_gamma 90.000000
_cell_volume 2762.240288
_symmetry_space_group_name_H-M "C 2/M"
_symmetry_group_IT_number 12
_symmetry_cell_setting 'monoclinic'
loop_
_space_group_symop_operation_xyz
x,y,z
-x,y,-z
-x,-y,-z
x,-y,z
1/2+x,1/2+y,z
1/2-x,1/2+y,-z
1/2-x,1/2-y,-z
1/2+x,1/2-y,z
loop_
_atom_site_type_symbol
_atom_site_label
_atom_site_fract_x
_atom_site_fract_y
_atom_site_fract_z
Si Si1 0.233858 0.808596 0.118250
Si Si2 0.311198 0.806594 0.430784
Si Si3 0.829645 0.304168 0.193702
Si Si4 0.113797 0.310507 0.266128
Si Si5 0.495096 0.194924 0.288676
Si Si6 0.407449 0.688776 0.503789
Si Si7 0.547473 0.196426 0.892918
O O1 0.279366 0.744566 0.163057
O O2 0.171761 0.763965 0.192856
O O3 0.237845 0.000000 0.116355
O O4 0.250000 0.750000 0.000000
O O5 0.250000 0.750000 0.500000
O O6 0.322480 0.759932 0.311337
O O7 0.355602 0.728603 0.471082
O O8 0.315956 0.000000 0.435168
O O9 0.828679 0.500000 0.190960
O O10 0.891112 0.252350 0.119351
O O11 0.118570 0.500000 0.245685
O O12 0.058994 0.252568 0.248088
O O13 0.101305 0.278524 0.388325
O O14 0.461308 0.258208 0.405141
O O15 0.466343 0.244954 0.208033
O O16 0.493595 0.000000 0.293767
O O17 0.409996 0.500000 0.522343
O O18 0.547060 0.000000 0.893554
O O19 0.500000 0.250888 0.000000
#
# Coordination Sequence:
#
# PCOD9210878 Si02
#       7
#     8   8   8   8   8   8   8
#     4  11  24  42  64  92 126 166 209 255 308 372
#     4  11  21  37  61  90 123 161 206 259 310 366
#     4   9  19  36  60  87 118 154 202 252 300 356
#     4  11  24  41  64  92 123 163 212 264 313 370
#     4  10  21  39  64  93 122 158 208 261 316 375
#     4  12  24  39  60  90 128 168 205 249 315 386
#     4   9  17  32  61  93 117 148 196 256 309 360
#
# _framework density 20.273399999999999
#
# number of rings (size 3 to 8) (size 9 to 14) (size 15 to 20)
#    0.000    1.571    1.429    3.857    2.000    4.000 
#    0.000    2.143    0.000    0.429    0.000    0.000 
#    0.000    0.000    0.000    0.000    0.000    0.000 
#
# Total GULP energy -156513.687059 kJ/mol
# GULP energy per Si atom -5589.774538 kJ/mol
# Density = 2.022726 g / cm^3
# Si number density = 20.273400 Si / 1000 Ang^3
#
#
#
# Elastic Constant Matrix: (Units=GPa)
#
#
# Indices 1 2 3 4 5 6 
#
# 1 152.2350 6.9821 28.9505 0.0000 -18.8269 0.0000
# 2 6.9821 15.1443 -4.4550 0.0000 -3.7253 0.0000
# 3 28.9505 -4.4550 65.9270 0.0000 -22.9394 0.0000
# 4 0.0000 0.0000 0.0000 25.2447 0.0000 -7.9536
# 5 -18.8269 -3.7253 -22.9394 0.0000 40.0955 0.0000
# 6 0.0000 0.0000 0.0000 -7.9536 0.0000 26.1394
#
#
#
# Elastic Compliance Matrix: (Units=1/GPa)
#
#
# Indices 1 2 3 4 5 6 
#
# 1 0.007513 -0.004032 -0.003089 0.000000 0.001385 0.000000
# 2 -0.004032 0.073711 0.010582 0.000000 0.011010 0.000000
# 3 -0.003089 0.010582 0.021322 0.000000 0.011731 0.000000
# 4 0.000000 0.000000 0.000000 0.043812 0.000000 0.013331
# 5 0.001385 0.011010 0.011731 0.000000 0.033326 0.000000
# 6 0.000000 0.000000 0.000000 0.013331 0.000000 0.042313
#
#
# Mechanical properties :
#
#
# Convention : Reuss Voigt Hill
#
# Bulk Modulus (GPa) = 9.13503 32.91793 21.02648
# Shear Modulus (GPa) = 19.87572 31.75118 25.81345
#
# Velocity S-wave (km/s) = 3.13451 3.96175 3.57216
# Velocity P-wave (km/s) = 4.19713 6.09915 5.23524
#
# Compressibility (1/GPa) = 0.10946871
#
# Stress axis : x y z
#
# Youngs Moduli (GPa) = 133.11095 13.56641 46.90016
#
# Poissons Ratio (x) = 0.05469 0.14489
# Poissons Ratio (y) = 0.53664 -0.49631
# Poissons Ratio (z) = 0.41122 -0.14356
#
# Static dielectric constant tensor:
#      x y z
#    x 1.718360 0.000000 0.008630 
#    y 0.000000 1.709230 0.000000 
#    z 0.008630 0.000000 1.673150 
# 
# From -- ./inp_files/180835.got.cif
#   From: 2010.05.17/outbox.cif.g08.bks.cpg/sg12_91_cif.got.tgz:180835.got - 2010.06.03 13:09:07.
