data_PCOD9210385
_publ_section_title
;
Structure prediction by ZEFSAII (Michael W. Deem and Ramdas Pophale) SiO2 
 PCOD9210385
Probable space group: C 2/M
;
_chemical_formula_sum "Si O2"
_cell_formula_units_Z 56
_cell_length_a 20.631499
_cell_length_b 7.841938
_cell_length_c 19.007664
_cell_angle_alpha 90.000000
_cell_angle_beta 120.269970
_cell_angle_gamma 90.000000
_cell_volume 2655.985333
_symmetry_space_group_name_H-M "C 2/M"
_symmetry_group_IT_number 12
_symmetry_cell_setting 'monoclinic'
loop_
_space_group_symop_operation_xyz
x,y,z
-x,y,-z
-x,-y,-z
x,-y,z
1/2+x,1/2+y,z
1/2-x,1/2+y,-z
1/2-x,1/2-y,-z
1/2+x,1/2-y,z
loop_
_atom_site_type_symbol
_atom_site_label
_atom_site_fract_x
_atom_site_fract_y
_atom_site_fract_z
Si Si1 0.919455 0.298685 0.933314
Si Si2 0.944549 0.198240 0.530918
Si Si3 0.686652 0.798119 0.632822
Si Si4 0.644185 0.790910 0.764973
Si Si5 0.858562 0.707462 0.749549
Si Si6 0.981419 0.699231 0.706543
Si Si7 0.278259 0.296548 0.938445
O O1 0.930740 0.500000 0.926848
O O2 0.883602 0.231469 0.840941
O O3 0.858660 0.276524 0.961314
O O4 0.000000 0.225628 0.000000
O O5 0.860512 0.214772 0.455370
O O6 0.955214 0.286408 0.611513
O O7 0.000000 0.267071 0.500000
O O8 0.963582 0.000000 0.551736
O O9 0.653023 0.736485 0.689079
O O10 0.775189 0.765283 0.683862
O O11 0.673908 0.000000 0.620877
O O12 0.565837 0.729348 0.754595
O O13 0.715933 0.734912 0.848611
O O14 0.643595 0.000000 0.764612
O O15 0.856654 0.500000 0.748464
O O16 0.919885 0.769550 0.726475
O O17 0.988258 0.500000 0.728704
O O18 0.283186 0.500000 0.935283
O O19 0.250000 0.250000 0.000000
#
# Coordination Sequence:
#
# PCOD9210385 Si02
#       7
#     8   8   8   8   8   8   8
#     4  10  22  40  63  89 122 163 202 246 303 363
#     4  11  23  38  58  89 123 152 191 250 304 348
#     4  11  21  38  64  87 115 159 200 242 293 355
#     4   9  19  36  61  87 115 153 201 245 288 348
#     4  10  22  39  61  89 121 156 198 246 296 352
#     4  10  21  39  62  87 116 157 202 243 290 354
#     4  11  23  40  62  92 125 159 202 252 300 356
#
# _framework density 21.084451999999999
#
# number of rings (size 3 to 8) (size 9 to 14) (size 15 to 20)
#    0.000    1.714    2.857    1.286    2.000    2.000 
#    0.000    1.429    0.000    0.000    0.000    0.000 
#    0.000    0.000    0.000    0.000    0.000    0.000 
#
# Total GULP energy -156463.556173 kJ/mol
# GULP energy per Si atom -5587.984149 kJ/mol
# Density = 2.103646 g / cm^3
# Si number density = 21.084452 Si / 1000 Ang^3
#
#
#
# Elastic Constant Matrix: (Units=GPa)
#
#
# Indices 1 2 3 4 5 6 
#
# 1 148.0293 -14.1991 31.2616 0.0000 12.9816 0.0000
# 2 -14.1991 27.1194 -12.9438 0.0000 1.7110 0.0000
# 3 31.2616 -12.9438 67.1832 0.0000 19.1627 0.0000
# 4 0.0000 0.0000 0.0000 11.6803 0.0000 -0.9320
# 5 12.9816 1.7110 19.1627 0.0000 41.1971 0.0000
# 6 0.0000 0.0000 0.0000 -0.9320 0.0000 20.0653
#
#
#
# Elastic Compliance Matrix: (Units=1/GPa)
#
#
# Indices 1 2 3 4 5 6 
#
# 1 0.007706 0.002845 -0.002665 0.000000 -0.001307 0.000000
# 2 0.002845 0.043052 0.008920 0.000000 -0.006834 0.000000
# 3 -0.002665 0.008920 0.020418 0.000000 -0.009028 0.000000
# 4 0.000000 0.000000 0.000000 0.085933 0.000000 0.003991
# 5 -0.001307 -0.006834 -0.009028 0.000000 0.029169 0.000000
# 6 0.000000 0.000000 0.000000 0.003991 0.000000 0.050023
#
#
# Mechanical properties :
#
#
# Convention : Reuss Voigt Hill
#
# Bulk Modulus (GPa) = 11.18859 27.84104 19.51481
# Shear Modulus (GPa) = 20.17007 30.46941 25.31974
#
# Velocity S-wave (km/s) = 3.09630 3.80559 3.46912
# Velocity P-wave (km/s) = 4.25451 5.70466 5.03210
#
# Compressibility (1/GPa) = 0.08937678
#
# Stress axis : x y z
#
# Youngs Moduli (GPa) = 129.77452 23.22763 48.97568
#
# Poissons Ratio (x) = -0.06609 0.13051
# Poissons Ratio (y) = -0.36923 -0.43686
# Poissons Ratio (z) = 0.34581 -0.20719
#
# Static dielectric constant tensor:
#      x y z
#    x 1.773060 0.000000 -0.018010 
#    y 0.000000 1.772210 0.000000 
#    z -0.018010 0.000000 1.764170 
# 
# From -- ./inp_files/281619.got.cif
#   From: 2010.05.17/outbox.cif.g08.bks.cpg/sg12_141_cif.got.tgz:281619.got - 2010.06.03 13:09:07.
