data_PCOD9210285
_publ_section_title
;
Structure prediction by ZEFSAII (Michael W. Deem and Ramdas Pophale) SiO2 
 PCOD9210285
Probable space group: C 2/M
;
_chemical_formula_sum "Si O2"
_cell_formula_units_Z 48
_cell_length_a 11.464476
_cell_length_b 24.887800
_cell_length_c 8.464496
_cell_angle_alpha 90.000000
_cell_angle_beta 71.464398
_cell_angle_gamma 90.000000
_cell_volume 2289.855192
_symmetry_space_group_name_H-M "C 2/M"
_symmetry_group_IT_number 12
_symmetry_cell_setting 'monoclinic'
loop_
_space_group_symop_operation_xyz
x,y,z
-x,y,-z
-x,-y,-z
x,-y,z
1/2+x,1/2+y,z
1/2-x,1/2+y,-z
1/2-x,1/2-y,-z
1/2+x,1/2-y,z
loop_
_atom_site_type_symbol
_atom_site_label
_atom_site_fract_x
_atom_site_fract_y
_atom_site_fract_z
Si Si1 0.852920 0.936568 0.060272
Si Si2 0.718531 0.656124 0.695767
Si Si3 0.574837 0.878614 0.611866
Si Si4 0.260550 0.126056 0.185169
Si Si5 0.880665 0.695387 0.879166
Si Si6 0.033097 0.797610 0.317164
O O1 0.792226 0.903973 0.230183
O O2 0.835176 0.000000 0.079975
O O3 0.790795 0.913366 0.928088
O O4 0.000000 0.925399 0.000000
O O5 0.825995 0.658905 0.520677
O O6 0.756425 0.692716 0.827634
O O7 0.588279 0.672313 0.685578
O O8 0.500000 0.907178 0.500000
O O9 0.661501 0.903539 0.711445
O O10 0.472622 0.845271 0.750242
O O11 0.143538 0.160224 0.294616
O O12 0.347947 0.170348 0.061549
O O13 0.931977 0.754411 0.830691
O O14 0.000000 0.770875 0.500000
#
# Coordination Sequence:
#
# PCOD9210285 Si02
#       6
#     8   8   8   8   8   8
#     4  10  21  41  66  93 125 160 202 261 326 375
#     4  10  21  39  61  88 128 160 207 258 308 365
#     4  10  21  41  62  86 125 169 205 256 308 360
#     4  11  22  40  62  92 124 162 209 265 306 366
#     4  10  24  37  58  88 130 174 209 243 302 374
#     4  12  22  35  60  92 129 170 206 252 312 370
#
# _framework density 20.962024
#
# number of rings (size 3 to 8) (size 9 to 14) (size 15 to 20)
#    0.000    1.500    3.333    2.500    2.333    1.333 
#    6.000    0.833    0.000   34.000    0.000    0.000 
#    0.000    0.000    0.000    0.000    0.000    0.000 
#
# Total GULP energy -133929.936447 kJ/mol
# GULP energy per Si atom -5580.414019 kJ/mol
# Density = 2.091431 g / cm^3
# Si number density = 20.962024 Si / 1000 Ang^3
#
#
#
# Elastic Constant Matrix: (Units=GPa)
#
#
# Indices 1 2 3 4 5 6 
#
# 1 139.7973 23.2843 50.4222 0.0000 20.5411 0.0000
# 2 23.2843 46.3873 9.3125 0.0000 0.3497 0.0000
# 3 50.4222 9.3125 83.0249 0.0000 5.4772 0.0000
# 4 0.0000 0.0000 0.0000 0.1801 0.0000 18.8971
# 5 20.5411 0.3497 5.4772 0.0000 49.9803 0.0000
# 6 0.0000 0.0000 0.0000 18.8971 0.0000 -47.3337
#
#
#
# Elastic Compliance Matrix: (Units=1/GPa)
#
#
# Indices 1 2 3 4 5 6 
#
# 1 0.010387 -0.004059 -0.005614 0.000000 -0.003625 0.000000
# 2 -0.004059 0.023641 -0.000288 0.000000 0.001534 0.000000
# 3 -0.005614 -0.000288 0.015445 0.000000 0.000616 0.000000
# 4 0.000000 0.000000 0.000000 0.129460 0.000000 0.051685
# 5 -0.003625 0.001534 0.000616 0.000000 0.021419 0.000000
# 6 0.000000 0.000000 0.000000 0.051685 0.000000 -0.000493
#
#
# Mechanical properties :
#
#
# Convention : Reuss Voigt Hill
#
# Bulk Modulus (GPa) = 33.83821 48.36083 41.09952
# Shear Modulus (GPa) = 21.77393 12.97805 17.37599
#
# Velocity S-wave (km/s) = 3.22643 2.49092 2.88223
# Velocity P-wave (km/s) = 5.48247 5.60300 5.54307
#
# Compressibility (1/GPa) = 0.02955239
#
# Stress axis : x y z
#
# Youngs Moduli (GPa) = 96.27717 42.29865 64.74448
#
# Poissons Ratio (x) = 0.17171 0.36344
# Poissons Ratio (y) = 0.39082 0.01862
# Poissons Ratio (z) = 0.54045 0.01217
#
# Static dielectric constant tensor:
#      x y z
#    x 1.799260 0.000000 0.022530 
#    y 0.000000 1.695480 0.000000 
#    z 0.022530 0.000000 1.796940 
# 
# From -- ./inp_files/51291.got.cif
#   From: 2010.05.17/outbox.cif.g08.bks.cpg/sg12_26_cif.got.tgz:51291.got - 2010.06.03 13:09:07.
