data_PCOD9210617
_publ_section_title
;
Structure prediction by ZEFSAII (Michael W. Deem and Ramdas Pophale) SiO2 
 PCOD9210617
Probable space group: C 2/M
;
_chemical_formula_sum "Si O2"
_cell_formula_units_Z 60
_cell_length_a 8.366957
_cell_length_b 20.668847
_cell_length_c 19.217214
_cell_angle_alpha 90.000000
_cell_angle_beta 59.600245
_cell_angle_gamma 90.000000
_cell_volume 2866.429666
_symmetry_space_group_name_H-M "C 2/M"
_symmetry_group_IT_number 12
_symmetry_cell_setting 'monoclinic'
loop_
_space_group_symop_operation_xyz
x,y,z
-x,y,-z
-x,-y,-z
x,-y,z
1/2+x,1/2+y,z
1/2-x,1/2+y,-z
1/2-x,1/2-y,-z
1/2+x,1/2-y,z
loop_
_atom_site_type_symbol
_atom_site_label
_atom_site_fract_x
_atom_site_fract_y
_atom_site_fract_z
Si Si1 0.913418 0.425266 0.650206
Si Si2 0.399861 0.694773 0.658569
Si Si3 0.689387 0.187054 0.415975
Si Si4 0.214012 0.076614 0.966370
Si Si5 0.679320 0.572245 0.412454
Si Si6 0.000000 0.346913 0.000000
Si Si7 0.345909 0.150600 0.807520
Si Si8 0.154178 0.722639 0.829466
O O1 0.858119 0.500000 0.668480
O O2 0.805153 0.384650 0.617013
O O3 0.894213 0.385991 0.726172
O O4 0.132445 0.422495 0.584696
O O5 0.314563 0.758784 0.643193
O O6 0.615561 0.697695 0.590591
O O7 0.322654 0.629489 0.642266
O O8 0.345712 0.697369 0.751693
O O9 0.500000 0.194212 0.500000
O O10 0.308771 0.096253 0.873092
O O11 0.216514 0.000000 0.978685
O O12 0.335442 0.111967 0.999201
O O13 0.000000 0.096777 0.000000
O O14 0.500000 0.577852 0.500000
O O15 0.681509 0.500000 0.380168
O O16 0.095463 0.305281 0.917365
O O17 0.177016 0.200286 0.831490
O O18 0.503010 0.196092 0.807796
#
# Coordination Sequence:
#
# PCOD9210617 Si02
#       8
#     8   8   8   8   8   4   8   8
#     4  11  23  41  62  88 125 168 211 262 324 386
#     4  12  22  41  63  91 127 165 215 263 326 385
#     4  12  25  39  63  94 128 169 215 269 323 387
#     4  10  23  42  66  94 131 174 218 269 333 402
#     4  10  21  39  63  89 121 162 208 257 313 381
#     4  10  25  42  66 100 129 172 224 280 338 388
#     4  11  23  41  64  93 125 166 217 264 328 387
#     4  11  24  40  66  95 126 166 212 275 329 388
#
# _framework density 20.931963
#
# number of rings (size 3 to 8) (size 9 to 14) (size 15 to 20)
#    0.000    1.067    2.667    3.800    2.800    1.867 
#    0.000    0.667    0.000    0.000    0.000    0.000 
#    0.000    0.000    0.000    0.000    0.000    0.000 
#
# Total GULP energy -167517.009238 kJ/mol
# GULP energy per Si atom -5583.900308 kJ/mol
# Density = 2.088432 g / cm^3
# Si number density = 20.931963 Si / 1000 Ang^3
#
#
#
# Elastic Constant Matrix: (Units=GPa)
#
#
# Indices 1 2 3 4 5 6 
#
# 1 59.4519 30.5355 -5.9703 0.0000 -5.6249 0.0000
# 2 30.5355 124.4699 27.5025 0.0000 7.5105 0.0000
# 3 -5.9703 27.5025 62.6273 0.0000 6.1094 0.0000
# 4 0.0000 0.0000 0.0000 24.6305 0.0000 1.6500
# 5 -5.6249 7.5105 6.1094 0.0000 24.0672 0.0000
# 6 0.0000 0.0000 0.0000 1.6500 0.0000 31.3462
#
#
#
# Elastic Compliance Matrix: (Units=1/GPa)
#
#
# Indices 1 2 3 4 5 6 
#
# 1 0.021140 -0.006489 0.004292 0.000000 0.005876 0.000000
# 2 -0.006489 0.010969 -0.005079 0.000000 -0.003650 0.000000
# 3 0.004292 -0.005079 0.018821 0.000000 -0.002190 0.000000
# 4 0.000000 0.000000 0.000000 0.040744 0.000000 -0.002145
# 5 0.005876 -0.003650 -0.002190 0.000000 0.044619 0.000000
# 6 0.000000 0.000000 0.000000 -0.002145 0.000000 0.032015
#
#
# Mechanical properties :
#
#
# Convention : Reuss Voigt Hill
#
# Bulk Modulus (GPa) = 27.49054 38.96493 33.22774
# Shear Modulus (GPa) = 25.64298 28.97422 27.30860
#
# Velocity S-wave (km/s) = 3.50389 3.72453 3.61589
# Velocity P-wave (km/s) = 5.43428 6.09521 5.77421
#
# Compressibility (1/GPa) = 0.03637614
#
# Stress axis : x y z
#
# Youngs Moduli (GPa) = 47.30331 91.16973 53.13278
#
# Poissons Ratio (x) = 0.59161 -0.22803
# Poissons Ratio (y) = 0.30695 0.26988
# Poissons Ratio (z) = -0.20301 0.46308
#
# Static dielectric constant tensor:
#      x y z
#    x 1.765780 0.000000 -0.029400 
#    y 0.000000 1.721570 0.000000 
#    z -0.029400 0.000000 1.763840 
# 
# From -- ./inp_files/301897.got.cif
#   From: 2010.05.17/outbox.cif.g08.bks.cpg/sg12_151_cif.got.tgz:301897.got - 2010.06.03 13:09:07.
