data_PCOD9210183
_publ_section_title
;
Structure prediction by ZEFSAII (Michael W. Deem and Ramdas Pophale) SiO2 
 PCOD9210183
Probable space group: C 2/M
;
_chemical_formula_sum "Si O2"
_cell_formula_units_Z 56
_cell_length_a 9.934040
_cell_length_b 14.620191
_cell_length_c 28.750561
_cell_angle_alpha 90.000000
_cell_angle_beta 137.171341
_cell_angle_gamma 90.000000
_cell_volume 2838.648965
_symmetry_space_group_name_H-M "C 2/M"
_symmetry_group_IT_number 12
_symmetry_cell_setting 'monoclinic'
loop_
_space_group_symop_operation_xyz
x,y,z
-x,y,-z
-x,-y,-z
x,-y,z
1/2+x,1/2+y,z
1/2-x,1/2+y,-z
1/2-x,1/2-y,-z
1/2+x,1/2-y,z
loop_
_atom_site_type_symbol
_atom_site_label
_atom_site_fract_x
_atom_site_fract_y
_atom_site_fract_z
Si Si1 0.130979 0.274733 0.748155
Si Si2 0.804048 0.766810 0.342720
Si Si3 0.121040 0.611497 0.985014
Si Si4 0.587347 0.608760 0.471975
Si Si5 0.749547 0.106320 0.162912
Si Si6 0.997773 0.892645 0.129131
Si Si7 0.035782 0.604716 0.564008
O O1 0.158941 0.266872 0.700061
O O2 0.157411 0.174296 0.776767
O O3 0.303002 0.336587 0.813853
O O4 0.913028 0.309545 0.706214
O O5 0.972892 0.835170 0.403709
O O6 0.813242 0.678362 0.378563
O O7 0.124911 0.500000 0.987653
O O8 0.347596 0.640478 0.050267
O O9 0.000000 0.642135 0.000000
O O10 0.979091 0.633807 0.906006
O O11 0.500000 0.634195 0.500000
O O12 0.560437 0.500000 0.457871
O O13 0.821394 0.626072 0.531655
O O14 0.872431 0.113398 0.145652
O O15 0.754259 0.000000 0.178051
O O16 0.040981 0.000000 0.132580
O O17 0.091556 0.500000 0.589094
O O18 0.000000 0.611415 0.500000
#
# Coordination Sequence:
#
# PCOD9210183 Si02
#       7
#     8   8   8   8   8   8   8
#     4  12  24  36  54  86 120 159 190 224 281 354
#     4  12  24  37  56  83 120 151 184 226 285 341
#     4   7  12  27  56  83 102 141 198 247 284 320
#     4  10  21  39  61  82 106 140 185 235 283 329
#     4   9  18  36  58  81 113 152 197 243 283 333
#     4   9  18  36  58  81 113 152 197 242 283 336
#     4  10  21  39  63  86 106 140 192 240 278 324
#
# _framework density 19.727694
#
# number of rings (size 3 to 8) (size 9 to 14) (size 15 to 20)
#    0.000    2.143    1.429    4.286    0.000    2.857 
#    0.000    0.000    0.000    0.000    0.000    3.000 
#    0.000    0.000    0.000    0.000    0.000    0.000 
#
# Total GULP energy -156284.421333 kJ/mol
# GULP energy per Si atom -5581.586476 kJ/mol
# Density = 1.968279 g / cm^3
# Si number density = 19.727694 Si / 1000 Ang^3
#
#
#
# Elastic Constant Matrix: (Units=GPa)
#
#
# Indices 1 2 3 4 5 6 
#
# 1 29.4911 -10.1558 -17.5591 0.0000 5.8168 0.0000
# 2 -10.1558 51.7065 24.0067 0.0000 9.6965 0.0000
# 3 -17.5591 24.0067 59.3924 0.0000 10.3045 0.0000
# 4 0.0000 0.0000 0.0000 18.7102 0.0000 -14.6430
# 5 5.8168 9.6965 10.3045 0.0000 22.2770 0.0000
# 6 0.0000 0.0000 0.0000 -14.6430 0.0000 -9.1378
#
#
#
# Elastic Compliance Matrix: (Units=1/GPa)
#
#
# Indices 1 2 3 4 5 6 
#
# 1 0.050679 0.006819 0.016349 0.000000 -0.023764 0.000000
# 2 0.006819 0.025603 -0.006622 0.000000 -0.009862 0.000000
# 3 0.016349 -0.006622 0.026733 0.000000 -0.013753 0.000000
# 4 0.000000 0.000000 0.000000 0.023711 0.000000 -0.037995
# 5 -0.023764 -0.009862 -0.013753 0.000000 0.061748 0.000000
# 6 0.000000 0.000000 0.000000 -0.037995 0.000000 -0.048549
#
#
# Mechanical properties :
#
#
# Convention : Reuss Voigt Hill
#
# Bulk Modulus (GPa) = 7.34703 14.79708 11.07205
# Shear Modulus (GPa) = 32.85138 15.98977 24.42057
#
# Velocity S-wave (km/s) = 4.08516 2.85006 3.52217
# Velocity P-wave (km/s) = 5.09742 4.28339 4.70803
#
# Compressibility (1/GPa) = 0.13610951
#
# Stress axis : x y z
#
# Youngs Moduli (GPa) = 19.73219 39.05775 37.40642
#
# Poissons Ratio (x) = -0.26635 -0.61157
# Poissons Ratio (y) = -0.13456 0.24769
# Poissons Ratio (z) = -0.32261 0.25863
#
# Static dielectric constant tensor:
#      x y z
#    x 1.569310 0.000000 -0.051060 
#    y 0.000000 1.689800 0.000000 
#    z -0.051060 0.000000 1.653430 
# 
# From -- ./inp_files/356733.got.cif
#   From: 2010.05.17/outbox.cif.g08.bks.cpg/sg12_179_cif.got.tgz:356733.got - 2010.06.03 13:09:07.
