data_PCOD9210993
_publ_section_title
;
Structure prediction by ZEFSAII (Michael W. Deem and Ramdas Pophale) SiO2 
 PCOD9210993
Probable space group: C 2/M
;
_chemical_formula_sum "Si O2"
_cell_formula_units_Z 40
_cell_length_a 25.299199
_cell_length_b 8.891452
_cell_length_c 19.284892
_cell_angle_alpha 90.000000
_cell_angle_beta 152.711920
_cell_angle_gamma 90.000000
_cell_volume 1988.852374
_symmetry_space_group_name_H-M "C 2/M"
_symmetry_group_IT_number 12
_symmetry_cell_setting 'monoclinic'
loop_
_space_group_symop_operation_xyz
x,y,z
-x,y,-z
-x,-y,-z
x,-y,z
1/2+x,1/2+y,z
1/2-x,1/2+y,-z
1/2-x,1/2-y,-z
1/2+x,1/2-y,z
loop_
_atom_site_type_symbol
_atom_site_label
_atom_site_fract_x
_atom_site_fract_y
_atom_site_fract_z
Si Si1 0.479057 0.678600 0.854935
Si Si2 0.656831 0.180113 0.839275
Si Si3 0.728715 0.821407 0.318222
Si Si4 0.917389 0.320050 0.635097
Si Si5 0.250071 0.179031 0.199356
O O1 0.458487 0.500000 0.829342
O O2 0.398026 0.751948 0.818399
O O3 0.443006 0.752548 0.740203
O O4 0.614630 0.702656 0.025084
O O5 0.529401 0.212755 0.718330
O O6 0.680306 0.228559 0.787684
O O7 0.672951 0.000000 0.859385
O O8 0.750000 0.250000 0.000000
O O9 0.807858 0.755032 0.471471
O O10 0.777552 0.765881 0.301625
O O11 0.724419 0.000000 0.316839
O O12 0.902154 0.500000 0.621893
O O13 0.268428 0.000000 0.231703
#
# Coordination Sequence:
#
# PCOD9210993 Si02
#       5
#     8   8   8   8   8
#     4  11  22  40  66  91 122 161 203 250 301 363
#     4  10  21  39  65  93 121 156 199 248 299 361
#     4  12  26  41  59  88 126 163 205 254 303 356
#     4  11  23  40  64  92 124 161 202 248 301 360
#     4  10  22  41  64  91 123 160 199 246 306 363
#
# _framework density 20.112100000000002
#
# number of rings (size 3 to 8) (size 9 to 14) (size 15 to 20)
#    0.000    1.200    2.000    4.200    0.000    6.400 
#    0.000    4.000    0.000    0.000    0.000    0.000 
#    0.000    0.000    0.000    0.000    0.000    0.000 
#
# Total GULP energy -111911.703989 kJ/mol
# GULP energy per Si atom -5595.585199 kJ/mol
# Density = 2.006632 g / cm^3
# Si number density = 20.112100 Si / 1000 Ang^3
#
#
#
# Elastic Constant Matrix: (Units=GPa)
#
#
# Indices 1 2 3 4 5 6 
#
# 1 90.4262 20.8017 -2.2969 0.0000 -9.6026 0.0000
# 2 20.8017 59.6585 29.3926 0.0000 1.5180 0.0000
# 3 -2.2969 29.3926 38.2982 0.0000 -6.8522 0.0000
# 4 0.0000 0.0000 0.0000 25.5123 0.0000 -7.8544
# 5 -9.6026 1.5180 -6.8522 0.0000 32.5947 0.0000
# 6 0.0000 0.0000 0.0000 -7.8544 0.0000 34.7688
#
#
#
# Elastic Compliance Matrix: (Units=1/GPa)
#
#
# Indices 1 2 3 4 5 6 
#
# 1 0.014299 -0.009922 0.009673 0.000000 0.006708 0.000000
# 2 -0.009922 0.034946 -0.029332 0.000000 -0.010717 0.000000
# 3 0.009673 -0.029332 0.051909 0.000000 0.015128 0.000000
# 4 0.000000 0.000000 0.000000 0.042127 0.000000 0.009517
# 5 0.006708 -0.010717 0.015128 0.000000 0.036336 0.000000
# 6 0.000000 0.000000 0.000000 0.009517 0.000000 0.030911
#
#
# Mechanical properties :
#
#
# Convention : Reuss Voigt Hill
#
# Bulk Modulus (GPa) = 23.81462 31.57528 27.69495
# Shear Modulus (GPa) = 17.62498 27.94087 22.78292
#
# Velocity S-wave (km/s) = 2.96351 3.73132 3.36936
# Velocity P-wave (km/s) = 4.85556 5.85639 5.37931
#
# Compressibility (1/GPa) = 0.04199101
#
# Stress axis : x y z
#
# Youngs Moduli (GPa) = 69.93361 28.61570 19.26436
#
# Poissons Ratio (x) = 0.28393 -0.18634
# Poissons Ratio (y) = 0.69389 0.56507
# Poissons Ratio (z) = -0.67645 0.83936
#
# Static dielectric constant tensor:
#      x y z
#    x 1.729480 0.000000 0.012720 
#    y 0.000000 1.666850 0.000000 
#    z 0.012720 0.000000 1.685470 
# 
# From -- ./inp_files/162366.got.cif
#   From: 2010.05.17/outbox.cif.g08.bks.cpg/sg12_82_cif.got.tgz:162366.got - 2010.06.03 13:09:07.
