data_PCOD9210098
_publ_section_title
;
Structure prediction by ZEFSAII (Michael W. Deem and Ramdas Pophale) SiO2 
 PCOD9210098
Probable space group: C 2/M
;
_chemical_formula_sum "Si O2"
_cell_formula_units_Z 64
_cell_length_a 18.877791
_cell_length_b 8.774199
_cell_length_c 31.538930
_cell_angle_alpha 90.000000
_cell_angle_beta 138.354915
_cell_angle_gamma 90.000000
_cell_volume 3471.442920
_symmetry_space_group_name_H-M "C 2/M"
_symmetry_group_IT_number 12
_symmetry_cell_setting 'monoclinic'
loop_
_space_group_symop_operation_xyz
x,y,z
-x,y,-z
-x,-y,-z
x,-y,z
1/2+x,1/2+y,z
1/2-x,1/2+y,-z
1/2-x,1/2-y,-z
1/2+x,1/2-y,z
loop_
_atom_site_type_symbol
_atom_site_label
_atom_site_fract_x
_atom_site_fract_y
_atom_site_fract_z
Si Si1 0.493507 0.680394 0.427332
Si Si2 0.562509 0.819298 0.686862
Si Si3 0.267888 0.317822 0.177451
Si Si4 0.095681 0.180864 0.315302
Si Si5 0.070913 0.317489 0.819315
Si Si6 0.868226 0.317384 0.056885
Si Si7 0.966498 0.182428 0.936621
Si Si8 0.674852 0.319554 0.571793
O O1 0.498819 0.500000 0.419289
O O2 0.463007 0.773443 0.372396
O O3 0.403845 0.698634 0.423400
O O4 0.605515 0.723873 0.499442
O O5 0.668698 0.740570 0.752819
O O6 0.467962 0.756607 0.674271
O O7 0.571686 0.000000 0.695821
O O8 0.269886 0.500000 0.176719
O O9 0.334348 0.251311 0.167213
O O10 0.148206 0.256440 0.123280
O O11 0.218391 0.226033 0.373788
O O12 0.038083 0.248019 0.247866
O O13 0.081062 0.000000 0.309855
O O14 0.070269 0.500000 0.813346
O O15 0.089242 0.283379 0.876755
O O16 0.864634 0.500000 0.050301
O O17 0.945812 0.246757 0.056441
O O18 0.750000 0.250000 0.000000
O O19 0.959299 0.000000 0.928873
O O20 0.000000 0.216413 0.000000
O O21 0.700246 0.500000 0.579816
#
# Coordination Sequence:
#
# PCOD9210098 Si02
#       8
#     8   8   8   8   8   8   8   8
#     4   9  19  37  59  82 110 146 188 231 280 337
#     4  11  22  37  58  83 114 150 187 231 282 333
#     4  11  22  38  61  86 114 148 188 233 280 334
#     4  11  22  36  57  84 113 147 188 233 279 331
#     4  10  21  39  60  83 114 149 186 229 281 336
#     4  11  24  40  61  88 117 152 190 232 281 334
#     4  11  24  41  61  86 117 152 190 233 280 331
#     4   9  19  37  59  81 110 148 185 229 284 337
#
# _framework density 18.436138
#
# number of rings (size 3 to 8) (size 9 to 14) (size 15 to 20)
#    0.000    1.625    0.000    7.500    0.000    8.500 
#    0.000    2.500    0.000    0.000    0.000    0.000 
#    0.000    0.000    0.000    0.000    0.000    0.000 
#
# Total GULP energy -178856.255694 kJ/mol
# GULP energy per Si atom -5589.257990 kJ/mol
# Density = 1.839418 g / cm^3
# Si number density = 18.436138 Si / 1000 Ang^3
#
#
#
# Elastic Constant Matrix: (Units=GPa)
#
#
# Indices 1 2 3 4 5 6 
#
# 1 83.7362 59.1222 83.7070 0.0000 0.0896 0.0000
# 2 59.1222 111.1585 81.1768 0.0000 -6.0420 0.0000
# 3 83.7070 81.1768 148.8543 0.0000 1.6535 0.0000
# 4 0.0000 0.0000 0.0000 33.6625 0.0000 0.0104
# 5 0.0896 -6.0420 1.6535 0.0000 40.0497 0.0000
# 6 0.0000 0.0000 0.0000 0.0104 0.0000 32.9498
#
#
#
# Elastic Compliance Matrix: (Units=1/GPa)
#
#
# Indices 1 2 3 4 5 6 
#
# 1 0.029462 -0.005978 -0.013303 0.000000 -0.000419 0.000000
# 2 -0.005978 0.016437 -0.005633 0.000000 0.002726 0.000000
# 3 -0.013303 -0.005633 0.017288 0.000000 -0.001534 0.000000
# 4 0.000000 0.000000 0.000000 0.029707 0.000000 -0.000009
# 5 -0.000419 0.002726 -0.001534 0.000000 0.025444 0.000000
# 6 0.000000 0.000000 0.000000 -0.000009 0.000000 0.030349
#
#
# Mechanical properties :
#
#
# Convention : Reuss Voigt Hill
#
# Bulk Modulus (GPa) = 74.85211 87.97345 81.41278
# Shear Modulus (GPa) = 24.63464 29.31526 26.97495
#
# Velocity S-wave (km/s) = 3.65939 3.99193 3.82927
# Velocity P-wave (km/s) = 7.65139 8.31077 7.98789
#
# Compressibility (1/GPa) = 0.01335968
#
# Stress axis : x y z
#
# Youngs Moduli (GPa) = 33.94254 60.83800 57.84515
#
# Poissons Ratio (x) = 0.36367 0.76951
# Poissons Ratio (y) = 0.20290 0.32582
# Poissons Ratio (z) = 0.45153 0.34268
#
# Static dielectric constant tensor:
#      x y z
#    x 1.604620 0.000000 -0.006640 
#    y 0.000000 1.616910 0.000000 
#    z -0.006640 0.000000 1.624930 
# 
# From -- ./inp_files/378416.got.cif
#   From: 2010.05.17/outbox.cif.g08.bks.cpg/sg12_190_cif.got.tgz:378416.got - 2010.06.03 13:09:07.
