data_PCOD9210777
_publ_section_title
;
Structure prediction by ZEFSAII (Michael W. Deem and Ramdas Pophale) SiO2 
 PCOD9210777
Probable space group: C 2/M
;
_chemical_formula_sum "Si O2"
_cell_formula_units_Z 56
_cell_length_a 24.315536
_cell_length_b 14.683659
_cell_length_c 8.369482
_cell_angle_alpha 90.000000
_cell_angle_beta 57.671318
_cell_angle_gamma 90.000000
_cell_volume 2525.052791
_symmetry_space_group_name_H-M "C 2/M"
_symmetry_group_IT_number 12
_symmetry_cell_setting 'monoclinic'
loop_
_space_group_symop_operation_xyz
x,y,z
-x,y,-z
-x,-y,-z
x,-y,z
1/2+x,1/2+y,z
1/2-x,1/2+y,-z
1/2-x,1/2-y,-z
1/2+x,1/2-y,z
loop_
_atom_site_type_symbol
_atom_site_label
_atom_site_fract_x
_atom_site_fract_y
_atom_site_fract_z
Si Si1 0.666738 0.395438 0.232858
Si Si2 0.611251 0.602011 0.681952
Si Si3 0.131647 0.608062 0.424961
Si Si4 0.190939 0.600603 0.858474
Si Si5 0.032667 0.282442 0.792692
Si Si6 0.600870 0.228346 0.166939
Si Si7 0.749964 0.646674 0.561571
O O1 0.657837 0.500000 0.194638
O O2 0.635032 0.387054 0.459964
O O3 0.743771 0.379761 0.140246
O O4 0.633252 0.322496 0.171150
O O5 0.584322 0.500000 0.742313
O O6 0.564421 0.685748 0.789285
O O7 0.676594 0.612093 0.685055
O O8 0.124018 0.500000 0.430514
O O9 0.086700 0.653383 0.630838
O O10 0.111116 0.657299 0.294915
O O11 0.206149 0.632983 0.351960
O O12 0.165934 0.500000 0.943255
O O13 0.214484 0.596294 0.639816
O O14 0.140238 0.681122 0.961976
O O15 0.974439 0.263490 0.759193
O O16 0.000000 0.324725 0.000000
O O17 0.750000 0.750000 0.500000
#
# Coordination Sequence:
#
# PCOD9210777 Si02
#       7
#     8   8   8   8   8   8   8
#     4   9  19  38  66  97 127 165 216 269 327 388
#     4  10  21  42  69  97 129 169 217 269 324 388
#     4  12  25  43  67 100 132 169 220 272 328 388
#     4  10  21  39  63  97 134 169 211 262 327 394
#     4  12  27  45  64  90 130 179 223 267 324 389
#     4  12  24  41  66  93 136 177 214 268 326 388
#     4  11  20  40  73  99 131 171 212 270 329 385
#
# _framework density 22.177755000000001
#
# number of rings (size 3 to 8) (size 9 to 14) (size 15 to 20)
#    0.000    1.143    2.857    5.143    0.000    2.857 
#    0.000    1.429    0.000    0.000    0.000    0.000 
#    0.000    0.000    0.000    0.000    0.000    0.000 
#
# Total GULP energy -156770.512706 kJ/mol
# GULP energy per Si atom -5598.946882 kJ/mol
# Density = 2.212728 g / cm^3
# Si number density = 22.177755 Si / 1000 Ang^3
#
#
#
# Elastic Constant Matrix: (Units=GPa)
#
#
# Indices 1 2 3 4 5 6 
#
# 1 136.8345 33.3296 6.9840 0.0000 -3.9233 0.0000
# 2 33.3296 128.6635 8.2885 0.0000 -12.2036 0.0000
# 3 6.9840 8.2885 40.8470 0.0000 -1.3537 0.0000
# 4 0.0000 0.0000 0.0000 15.9337 0.0000 12.0321
# 5 -3.9233 -12.2036 -1.3537 0.0000 21.6493 0.0000
# 6 0.0000 0.0000 0.0000 12.0321 0.0000 3.9217
#
#
#
# Elastic Compliance Matrix: (Units=1/GPa)
#
#
# Indices 1 2 3 4 5 6 
#
# 1 0.007837 -0.001945 -0.000937 0.000000 0.000266 0.000000
# 2 -0.001945 0.008789 -0.001301 0.000000 0.004520 0.000000
# 3 -0.000937 -0.001301 0.024927 0.000000 0.000656 0.000000
# 4 0.000000 0.000000 0.000000 -0.047662 0.000000 0.146228
# 5 0.000266 0.004520 0.000656 0.000000 0.048828 0.000000
# 6 0.000000 0.000000 0.000000 0.146228 0.000000 -0.193644
#
#
# Mechanical properties :
#
#
# Convention : Reuss Voigt Hill
#
# Bulk Modulus (GPa) = 30.13081 44.83881 37.48481
# Shear Modulus (GPa) = -38.02361 25.48380 -6.26991
#
# Velocity S-wave (km/s) = -4.14514 3.39347 -1.68323
# Velocity P-wave (km/s) = 3.04861 5.96792 3.62781
#
# Compressibility (1/GPa) = 0.03318862
#
# Stress axis : x y z
#
# Youngs Moduli (GPa) = 127.59682 113.78483 40.11638
#
# Poissons Ratio (x) = 0.22127 0.03757
# Poissons Ratio (y) = 0.24813 0.05219
# Poissons Ratio (z) = 0.11951 0.14804
#
# Static dielectric constant tensor:
#      x y z
#    x 1.814690 0.000000 0.016860 
#    y 0.000000 1.805640 0.000000 
#    z 0.016860 0.000000 1.840420 
# 
# From -- ./inp_files/96793.got.cif
#   From: 2010.05.17/outbox.cif.g08.bks.cpg/sg12_49_cif.got.tgz:96793.got - 2010.06.03 13:09:07.
