data_PCOD9210745
_publ_section_title
;
Structure prediction by ZEFSAII (Michael W. Deem and Ramdas Pophale) SiO2 
 PCOD9210745
Probable space group: C 2/M
;
_chemical_formula_sum "Si O2"
_cell_formula_units_Z 64
_cell_length_a 30.751479
_cell_length_b 16.690762
_cell_length_c 9.998205
_cell_angle_alpha 90.000000
_cell_angle_beta 142.048888
_cell_angle_gamma 90.000000
_cell_volume 3155.959853
_symmetry_space_group_name_H-M "C 2/M"
_symmetry_group_IT_number 12
_symmetry_cell_setting 'monoclinic'
loop_
_space_group_symop_operation_xyz
x,y,z
-x,y,-z
-x,-y,-z
x,-y,z
1/2+x,1/2+y,z
1/2-x,1/2+y,-z
1/2-x,1/2-y,-z
1/2+x,1/2-y,z
loop_
_atom_site_type_symbol
_atom_site_label
_atom_site_fract_x
_atom_site_fract_y
_atom_site_fract_z
Si Si1 0.375685 0.642759 0.897406
Si Si2 0.766974 0.091979 0.424598
Si Si3 0.996182 0.341515 0.337135
Si Si4 0.171228 0.903394 0.703280
Si Si5 0.123054 0.328965 0.154185
Si Si6 0.513205 0.648617 0.379247
Si Si7 0.608404 0.095352 0.397947
Si Si8 0.730499 0.403465 0.133590
O O1 0.335261 0.594179 0.685518
O O2 0.380610 0.733341 0.857011
O O3 0.324989 0.639123 0.903930
O O4 0.452550 0.615460 0.133943
O O5 0.789674 0.124890 0.335416
O O6 0.703502 0.142070 0.334193
O O7 0.742689 0.000000 0.353490
O O8 0.004523 0.244957 0.358474
O O9 0.057339 0.377284 0.392654
O O10 0.000000 0.369379 0.500000
O O11 0.922660 0.359382 0.083102
O O12 0.091510 0.872666 0.522853
O O13 0.168428 0.000000 0.688645
O O14 0.213257 0.881758 0.939401
O O15 0.092437 0.362488 0.218410
O O16 0.500000 0.620385 0.500000
O O17 0.689351 0.115183 0.632748
O O18 0.603220 0.000000 0.367525
O O19 0.720817 0.500000 0.125501
#
# Coordination Sequence:
#
# PCOD9210745 Si02
#       8
#     8   8   8   8   8   8   8   8
#     4  11  22  39  64  92 122 162 210 252 304 365
#     4  11  24  41  61  91 128 161 202 259 309 362
#     4  10  25  43  63  93 124 158 207 258 311 366
#     4  10  23  39  61  93 126 166 208 250 310 364
#     4  11  24  41  64  93 123 164 204 251 311 374
#     4  10  21  41  62  88 126 163 203 255 306 361
#     4  11  24  43  67  92 122 163 206 253 310 372
#     4  10  21  39  63  94 125 161 209 255 302 366
#
# _framework density 20.279091999999999
#
# number of rings (size 3 to 8) (size 9 to 14) (size 15 to 20)
#    0.000    1.500    2.500    1.500    3.500    3.500 
#    0.000    2.500    0.000    0.000    0.000    0.000 
#    0.000    0.000    0.000    0.000    0.000    0.000 
#
# Total GULP energy -178891.826850 kJ/mol
# GULP energy per Si atom -5590.369589 kJ/mol
# Density = 2.023294 g / cm^3
# Si number density = 20.279092 Si / 1000 Ang^3
#
#
#
# Elastic Constant Matrix: (Units=GPa)
#
#
# Indices 1 2 3 4 5 6 
#
# 1 103.6607 17.7117 35.2933 0.0000 -25.9177 0.0000
# 2 17.7117 14.7170 23.5474 0.0000 -3.9628 0.0000
# 3 35.2933 23.5474 122.6395 0.0000 -15.8330 0.0000
# 4 0.0000 0.0000 0.0000 18.0351 0.0000 -4.8120
# 5 -25.9177 -3.9628 -15.8330 0.0000 37.8330 0.0000
# 6 0.0000 0.0000 0.0000 -4.8120 0.0000 30.3652
#
#
#
# Elastic Compliance Matrix: (Units=1/GPa)
#
#
# Indices 1 2 3 4 5 6 
#
# 1 0.014255 -0.014552 -0.000258 0.000000 0.008133 0.000000
# 2 -0.014552 0.113165 -0.018285 0.000000 -0.005768 0.000000
# 3 -0.000258 -0.018285 0.012124 0.000000 0.002982 0.000000
# 4 0.000000 0.000000 0.000000 0.057896 0.000000 0.009175
# 5 0.008133 -0.005768 0.002982 0.000000 0.032647 0.000000
# 6 0.000000 0.000000 0.000000 0.009175 0.000000 0.034386
#
#
# Mechanical properties :
#
#
# Convention : Reuss Voigt Hill
#
# Bulk Modulus (GPa) = 13.63272 43.79136 28.71204
# Shear Modulus (GPa) = 14.07995 28.21098 21.14547
#
# Velocity S-wave (km/s) = 2.63783 3.73384 3.23262
# Velocity P-wave (km/s) = 4.00184 6.34271 5.30305
#
# Compressibility (1/GPa) = 0.07335294
#
# Stress axis : x y z
#
# Youngs Moduli (GPa) = 70.15291 8.83663 82.48069
#
# Poissons Ratio (x) = 0.12859 0.02129
# Poissons Ratio (y) = 1.02088 1.50817
# Poissons Ratio (z) = 0.01811 0.16158
#
# Static dielectric constant tensor:
#      x y z
#    x 1.678740 0.000000 -0.014930 
#    y 0.000000 1.713520 0.000000 
#    z -0.014930 0.000000 1.726930 
# 
# From -- ./inp_files/112832.got.cif
#   From: 2010.05.17/outbox.cif.g08.bks.cpg/sg12_57_cif.got.tgz:112832.got - 2010.06.03 13:09:07.
