data_PCOD9210981
_publ_section_title
;
Structure prediction by ZEFSAII (Michael W. Deem and Ramdas Pophale) SiO2 
 PCOD9210981
Probable space group: C 2/M
;
_chemical_formula_sum "Si O2"
_cell_formula_units_Z 34
_cell_length_a 19.222958
_cell_length_b 13.960836
_cell_length_c 11.917279
_cell_angle_alpha 90.000000
_cell_angle_beta 22.389558
_cell_angle_gamma 90.000000
_cell_volume 1218.209154
_symmetry_space_group_name_H-M "C 2/M"
_symmetry_group_IT_number 12
_symmetry_cell_setting 'monoclinic'
loop_
_space_group_symop_operation_xyz
x,y,z
-x,y,-z
-x,-y,-z
x,-y,z
1/2+x,1/2+y,z
1/2-x,1/2+y,-z
1/2-x,1/2-y,-z
1/2+x,1/2-y,z
loop_
_atom_site_type_symbol
_atom_site_label
_atom_site_fract_x
_atom_site_fract_y
_atom_site_fract_z
Si Si1 0.766153 0.136054 0.468806
Si Si2 0.000000 0.500000 0.000000
Si Si3 0.182686 0.683596 0.363627
Si Si4 0.399843 0.393551 0.498120
Si Si5 0.187908 0.609309 0.104136
O O1 0.750000 0.250000 0.500000
O O2 0.786466 0.125486 0.305333
O O3 0.916045 0.107338 0.337776
O O4 0.591802 0.082534 0.780238
O O5 0.966370 0.675359 0.719687
O O6 0.214012 0.797829 0.308025
O O7 0.193450 0.637691 0.226138
O O8 0.314796 0.500000 0.648512
O O9 0.602292 0.386575 0.247600
O O10 0.127012 0.500000 0.182095
#
# Coordination Sequence:
#
# PCOD9210981 Si02
#       5
#     8   2   8   8   8
#     4  10  24  41  68  95 132 171 222 275 341 399
#     4  12  24  44  72  96 140 174 224 276 340 402
#     4  10  21  39  65  91 124 171 216 264 332 394
#     4  10  21  40  60  90 131 163 214 274 318 395
#     4  10  22  38  64  90 126 168 219 264 322 401
#
# _framework density 27.90982
#
# number of rings (size 3 to 8) (size 9 to 14) (size 15 to 20)
#    0.000    1.882    1.176    2.118    3.294    8.471 
#    0.000    4.706    0.000    0.000    0.000    0.000 
#    0.000    0.000    0.000    0.000    0.000    0.000 
#
# Total GULP energy -94908.622928 kJ/mol
# GULP energy per Si atom -5582.860172 kJ/mol
# Density = 2.784630 g / cm^3
# Si number density = 27.909820 Si / 1000 Ang^3
#
#
#
# Elastic Constant Matrix: (Units=GPa)
#
#
# Indices 1 2 3 4 5 6 
#
# 1 112.5541 12.4472 38.7204 0.0018 0.8451 -0.0005
# 2 12.4472 217.1351 37.6131 0.0055 -2.0516 -0.0025
# 3 38.7204 37.6131 119.3012 0.0049 11.4565 -0.0022
# 4 0.0018 0.0055 0.0049 12.4367 -0.0020 -4.9773
# 5 0.8451 -2.0516 11.4565 -0.0020 46.2991 0.0006
# 6 -0.0005 -0.0025 -0.0022 -4.9773 0.0006 33.6700
#
#
#
# Elastic Compliance Matrix: (Units=1/GPa)
#
#
# Indices 1 2 3 4 5 6 
#
# 1 0.010020 0.000006 -0.003315 0.000000 0.000638 0.000000
# 2 0.000006 0.004888 -0.001602 -0.000001 0.000613 0.000000
# 3 -0.003315 -0.001602 0.010207 -0.000003 -0.002536 0.000000
# 4 0.000000 -0.000001 -0.000003 0.085463 0.000004 0.012634
# 5 0.000638 0.000613 -0.002536 0.000004 0.022242 0.000000
# 6 0.000000 0.000000 0.000000 0.012634 0.000000 0.031568
#
#
# Mechanical properties :
#
#
# Convention : Reuss Voigt Hill
#
# Bulk Modulus (GPa) = 65.39189 69.61686 67.50437
# Shear Modulus (GPa) = 27.88518 42.49516 35.19017
#
# Velocity S-wave (km/s) = 3.16431 3.90627 3.55470
# Velocity P-wave (km/s) = 6.06886 6.73371 6.40991
#
# Compressibility (1/GPa) = 0.01529242
#
# Stress axis : x y z
#
# Youngs Moduli (GPa) = 99.80432 204.56664 97.97498
#
# Poissons Ratio (x) = -0.00121 0.32479
# Poissons Ratio (y) = -0.00059 0.15695
# Poissons Ratio (z) = 0.33086 0.32771
#
# Static dielectric constant tensor:
#      x y z
#    x 2.559270 0.000000 -0.071600 
#    y 0.000000 2.054130 0.000000 
#    z -0.071600 0.000000 2.304180 
# 
# From -- ./inp_files/167006.got.cif
#   From: 2010.05.17/outbox.cif.g08.bks.cpg/sg12_84_cif.got.tgz:167006.got - 2010.06.03 13:09:07.
