data_PCOD9210767
_publ_section_title
;
Structure prediction by ZEFSAII (Michael W. Deem and Ramdas Pophale) SiO2 
 PCOD9210767
Probable space group: C 2/M
;
_chemical_formula_sum "Si O2"
_cell_formula_units_Z 46
_cell_length_a 17.184936
_cell_length_b 20.159878
_cell_length_c 16.668124
_cell_angle_alpha 90.000000
_cell_angle_beta 157.774879
_cell_angle_gamma 90.000000
_cell_volume 2184.226546
_symmetry_space_group_name_H-M "C 2/M"
_symmetry_group_IT_number 12
_symmetry_cell_setting 'monoclinic'
loop_
_space_group_symop_operation_xyz
x,y,z
-x,y,-z
-x,-y,-z
x,-y,z
1/2+x,1/2+y,z
1/2-x,1/2+y,-z
1/2-x,1/2-y,-z
1/2+x,1/2-y,z
loop_
_atom_site_type_symbol
_atom_site_label
_atom_site_fract_x
_atom_site_fract_y
_atom_site_fract_z
Si Si1 0.511653 0.815296 0.299036
Si Si2 0.138468 0.756127 0.264842
Si Si3 0.500000 0.500000 0.000000
Si Si4 0.130332 0.077741 0.705720
Si Si5 0.892821 0.114738 0.017006
Si Si6 0.852134 0.075993 0.586500
Si Si7 0.500000 0.840059 0.000000
O O1 0.639293 0.771340 0.484940
O O2 0.497721 0.770872 0.204947
O O3 0.662046 0.875717 0.418154
O O4 0.313486 0.849065 0.149161
O O5 0.130342 0.704131 0.185779
O O6 0.045915 0.824582 0.143393
O O7 0.377459 0.559335 0.933956
O O8 0.000000 0.083835 0.500000
O O9 0.988811 0.101158 0.643311
O O10 0.173275 0.000000 0.760219
O O11 0.342342 0.115966 0.899900
O O12 0.004465 0.079099 0.198558
O O13 0.788059 0.000000 0.509985
#
# Coordination Sequence:
#
# PCOD9210767 Si02
#       7
#     8   8   2   8   8   8   4
#     4  10  22  42  69  92 126 176 218 268 338 393
#     4  10  23  41  63  98 128 167 228 271 317 405
#     4  12  26  44  66 102 130 168 232 280 330 406
#     4  10  22  38  59  94 134 167 210 266 317 397
#     4  11  23  44  65  90 131 171 215 280 329 391
#     4  10  21  39  63  96 128 162 217 266 316 391
#     4  12  22  38  64  90 130 176 210 264 338 378
#
# _framework density 21.060085999999998
#
# number of rings (size 3 to 8) (size 9 to 14) (size 15 to 20)
#    0.000    1.565    0.870    3.391    1.217    4.174 
#    0.000   16.522    0.000    0.000    0.000    0.000 
#    0.000    0.000    0.000    0.000    0.000    0.000 
#
# Total GULP energy -128293.969081 kJ/mol
# GULP energy per Si atom -5577.998656 kJ/mol
# Density = 2.101215 g / cm^3
# Si number density = 21.060086 Si / 1000 Ang^3
#
#
#
# Elastic Constant Matrix: (Units=GPa)
#
#
# Indices 1 2 3 4 5 6 
#
# 1 51.2784 20.8154 11.8950 0.0027 3.4624 0.0022
# 2 20.8154 104.1658 34.4296 0.0013 1.6902 0.0010
# 3 11.8950 34.4296 29.5660 0.0061 6.4263 0.0024
# 4 0.0027 0.0013 0.0061 -15.6936 0.0016 -3.9944
# 5 3.4624 1.6902 6.4263 0.0016 11.6337 0.0010
# 6 0.0022 0.0010 0.0024 -3.9944 0.0010 29.5721
#
#
#
# Elastic Compliance Matrix: (Units=1/GPa)
#
#
# Indices 1 2 3 4 5 6 
#
# 1 0.021977 -0.002697 -0.004960 0.000001 -0.003409 -0.000001
# 2 -0.002697 0.016780 -0.020569 -0.000006 0.009727 0.000000
# 3 -0.004960 -0.020569 0.066824 0.000020 -0.032448 0.000000
# 4 0.000001 -0.000006 0.000020 -0.061602 -0.000001 -0.008321
# 5 -0.003409 0.009727 -0.032448 -0.000001 0.103483 -0.000001
# 6 -0.000001 0.000000 0.000000 -0.008321 -0.000001 0.032692
#
#
# Mechanical properties :
#
#
# Convention : Reuss Voigt Hill
#
# Bulk Modulus (GPa) = 20.35511 35.47667 27.91589
# Shear Modulus (GPa) = 19.76420 12.96043 16.36231
#
# Velocity S-wave (km/s) = 3.06676 2.48342 2.79038
# Velocity P-wave (km/s) = 4.71448 5.01051 4.86475
#
# Compressibility (1/GPa) = 0.04912772
#
# Stress axis : x y z
#
# Youngs Moduli (GPa) = 45.50226 59.59509 14.96462
#
# Poissons Ratio (x) = 0.16071 0.07423
# Poissons Ratio (y) = 0.12271 0.30781
# Poissons Ratio (z) = 0.22571 1.22584
#
# Static dielectric constant tensor:
#      x y z
#    x 1.759790 0.000000 -0.020000 
#    y 0.000000 1.742820 0.000000 
#    z -0.020000 0.000000 1.747310 
# 
# From -- ./inp_files/279272.got.cif
#   From: 2010.05.17/outbox.cif.g08.bks.cpg/sg12_140_cif.got.tgz:279272.got - 2010.06.03 13:09:07.
