data_PCOD9210656
_publ_section_title
;
Structure prediction by ZEFSAII (Michael W. Deem and Ramdas Pophale) SiO2 
 PCOD9210656
Probable space group: C 2/M
;
_chemical_formula_sum "Si O2"
_cell_formula_units_Z 44
_cell_length_a 11.121474
_cell_length_b 17.152530
_cell_length_c 13.016400
_cell_angle_alpha 90.000000
_cell_angle_beta 125.909652
_cell_angle_gamma 90.000000
_cell_volume 2011.109883
_symmetry_space_group_name_H-M "C 2/M"
_symmetry_group_IT_number 12
_symmetry_cell_setting 'monoclinic'
loop_
_space_group_symop_operation_xyz
x,y,z
-x,y,-z
-x,-y,-z
x,-y,z
1/2+x,1/2+y,z
1/2-x,1/2+y,-z
1/2-x,1/2-y,-z
1/2+x,1/2-y,z
loop_
_atom_site_type_symbol
_atom_site_label
_atom_site_fract_x
_atom_site_fract_y
_atom_site_fract_z
Si Si1 0.454010 0.410469 0.161491
Si Si2 0.357955 0.175230 0.476515
Si Si3 0.434275 0.655041 0.576575
Si Si4 0.635357 0.910219 0.891735
Si Si5 0.792179 0.809601 0.809972
Si Si6 0.000000 0.316631 0.000000
O O1 0.502440 0.500000 0.193420
O O2 0.464191 0.372506 0.278917
O O3 0.568268 0.365222 0.145950
O O4 0.291186 0.408763 0.032123
O O5 0.500000 0.131534 0.500000
O O6 0.419088 0.250854 0.566510
O O7 0.235095 0.129734 0.480711
O O8 0.270039 0.210244 0.333627
O O9 0.500000 0.630254 0.500000
O O10 0.668922 0.857647 0.809937
O O11 0.599391 0.000000 0.850040
O O12 0.520031 0.869396 0.909760
O O13 0.857844 0.738676 0.908581
#
# Coordination Sequence:
#
# PCOD9210656 Si02
#       6
#     8   8   8   8   8   4
#     4  10  21  39  63  90 125 167 212 255 312 385
#     4   9  20  36  59  87 120 158 207 263 312 363
#     4   9  19  34  56  84 118 157 202 253 311 362
#     4  11  24  42  61  91 134 169 202 257 328 387
#     4  11  22  39  67  93 123 163 217 265 310 373
#     4  12  25  36  63  96 128 162 208 262 319 378
#
# _framework density 21.878466
#
# number of rings (size 3 to 8) (size 9 to 14) (size 15 to 20)
#    0.000    1.818    1.818    1.364    5.091    6.182 
#    0.000    0.000    0.000   15.818    0.000    0.000 
#    0.000    0.000    0.000    0.000    0.000    0.000 
#
# Total GULP energy -122918.280052 kJ/mol
# GULP energy per Si atom -5587.194548 kJ/mol
# Density = 2.182867 g / cm^3
# Si number density = 21.878466 Si / 1000 Ang^3
#
#
#
# Elastic Constant Matrix: (Units=GPa)
#
#
# Indices 1 2 3 4 5 6 
#
# 1 124.5901 21.6871 11.0832 0.0000 -28.7690 0.0000
# 2 21.6871 79.9571 9.9207 0.0000 -4.2956 0.0000
# 3 11.0832 9.9207 45.8275 0.0000 -9.0568 0.0000
# 4 0.0000 0.0000 0.0000 -28.5357 0.0000 -2.7589
# 5 -28.7690 -4.2956 -9.0568 0.0000 35.2432 0.0000
# 6 0.0000 0.0000 0.0000 -2.7589 0.0000 9.3472
#
#
#
# Elastic Compliance Matrix: (Units=1/GPa)
#
#
# Indices 1 2 3 4 5 6 
#
# 1 0.010322 -0.002317 -0.000406 0.000000 0.008039 0.000000
# 2 -0.002317 0.013399 -0.002519 0.000000 -0.000906 0.000000
# 3 -0.000406 -0.002519 0.023534 0.000000 0.005409 0.000000
# 4 0.000000 0.000000 0.000000 -0.034072 0.000000 -0.010057
# 5 0.008039 -0.000906 0.005409 0.000000 0.036216 0.000000
# 6 0.000000 0.000000 0.000000 -0.010057 0.000000 0.104016
#
#
# Mechanical properties :
#
#
# Convention : Reuss Voigt Hill
#
# Bulk Modulus (GPa) = 27.19636 37.30631 32.25133
# Shear Modulus (GPa) = 28.38376 17.05652 22.72014
#
# Velocity S-wave (km/s) = 3.60576 2.79517 3.22603
# Velocity P-wave (km/s) = 5.45830 5.24461 5.35252
#
# Compressibility (1/GPa) = 0.03676963
#
# Stress axis : x y z
#
# Youngs Moduli (GPa) = 96.87905 74.63140 42.49260
#
# Poissons Ratio (x) = 0.17296 0.01725
# Poissons Ratio (y) = 0.22451 0.10705
# Poissons Ratio (z) = 0.03932 0.18801
#
# Static dielectric constant tensor:
#      x y z
#    x 1.866700 0.000000 0.021820 
#    y 0.000000 1.776110 0.000000 
#    z 0.021820 0.000000 1.799650 
# 
# From -- ./inp_files/204631.got.cif
#   From: 2010.05.17/outbox.cif.g08.bks.cpg/sg12_103_cif.got.tgz:204631.got - 2010.06.03 13:09:07.
