data_PCOD9210759
_publ_section_title
;
Structure prediction by ZEFSAII (Michael W. Deem and Ramdas Pophale) SiO2 
 PCOD9210759
Probable space group: C 2/M
;
_chemical_formula_sum "Si O2"
_cell_formula_units_Z 36
_cell_length_a 10.030627
_cell_length_b 18.156130
_cell_length_c 13.082764
_cell_angle_alpha 90.000000
_cell_angle_beta 128.349612
_cell_angle_gamma 90.000000
_cell_volume 1868.527686
_symmetry_space_group_name_H-M "C 2/M"
_symmetry_group_IT_number 12
_symmetry_cell_setting 'monoclinic'
loop_
_space_group_symop_operation_xyz
x,y,z
-x,y,-z
-x,-y,-z
x,-y,z
1/2+x,1/2+y,z
1/2-x,1/2+y,-z
1/2-x,1/2-y,-z
1/2+x,1/2-y,z
loop_
_atom_site_type_symbol
_atom_site_label
_atom_site_fract_x
_atom_site_fract_y
_atom_site_fract_z
Si Si1 0.811101 0.719290 0.707074
Si Si2 0.000000 0.680846 0.500000
Si Si3 0.161295 0.913160 0.010477
Si Si4 0.984057 0.587686 0.699206
Si Si5 0.173069 0.791441 0.865537
O O1 0.660870 0.764691 0.582749
O O2 0.837840 0.634749 0.686038
O O3 0.778803 0.720061 0.813282
O O4 0.985168 0.760087 0.760745
O O5 0.998879 0.627469 0.401689
O O6 0.337990 0.901222 0.154953
O O7 0.138967 0.000000 0.987535
O O8 0.165793 0.874491 0.902998
O O9 0.000000 0.884942 0.000000
O O10 0.953727 0.500000 0.677628
O O11 0.250000 0.750000 0.000000
#
# Coordination Sequence:
#
# PCOD9210759 Si02
#       5
#     8   4   8   8   8
#     4  12  25  41  67  95 130 169 221 266 320 381
#     4  12  23  46  67  90 128 178 226 262 309 396
#     4  10  21  39  63  95 131 165 209 264 328 395
#     4  11  24  42  66  96 130 172 216 269 326 379
#     4  12  22  39  65  97 126 165 212 265 324 388
#
# _framework density 19.266508000000002
#
# number of rings (size 3 to 8) (size 9 to 14) (size 15 to 20)
#    0.000    0.667    4.444    4.333    0.000    0.889 
#    0.000    3.889    0.000    0.000    0.000    0.000 
#    0.000    0.000    0.000    0.000    0.000    0.000 
#
# Total GULP energy -100597.264670 kJ/mol
# GULP energy per Si atom -5588.736926 kJ/mol
# Density = 1.922266 g / cm^3
# Si number density = 19.266508 Si / 1000 Ang^3
#
#
#
# Elastic Constant Matrix: (Units=GPa)
#
#
# Indices 1 2 3 4 5 6 
#
# 1 86.8302 48.8233 10.9184 0.0000 -10.5972 0.0000
# 2 48.8233 148.3459 58.6645 0.0000 3.0330 0.0000
# 3 10.9184 58.6645 58.6994 0.0000 9.1110 0.0000
# 4 0.0000 0.0000 0.0000 33.9285 0.0000 -4.6760
# 5 -10.5972 3.0330 9.1110 0.0000 26.8514 0.0000
# 6 0.0000 0.0000 0.0000 -4.6760 0.0000 37.4168
#
#
#
# Elastic Compliance Matrix: (Units=1/GPa)
#
#
# Indices 1 2 3 4 5 6 
#
# 1 0.015385 -0.006096 0.002303 0.000000 0.005979 0.000000
# 2 -0.006096 0.013745 -0.012655 0.000000 0.000335 0.000000
# 3 0.002303 -0.012655 0.030498 0.000000 -0.008010 0.000000
# 4 0.000000 0.000000 0.000000 0.029990 0.000000 0.003748
# 5 0.005979 0.000335 -0.008010 0.000000 0.042282 0.000000
# 6 0.000000 0.000000 0.000000 0.003748 0.000000 0.027194
#
#
# Mechanical properties :
#
#
# Convention : Reuss Voigt Hill
#
# Bulk Modulus (GPa) = 37.40894 58.96533 48.18713
# Shear Modulus (GPa) = 24.88779 31.33731 28.11255
#
# Velocity S-wave (km/s) = 3.59801 4.03739 3.82401
# Velocity P-wave (km/s) = 6.05967 7.23917 6.67552
#
# Compressibility (1/GPa) = 0.02673158
#
# Stress axis : x y z
#
# Youngs Moduli (GPa) = 64.99945 72.75303 32.78865
#
# Poissons Ratio (x) = 0.44353 -0.07552
# Poissons Ratio (y) = 0.39627 0.41494
# Poissons Ratio (z) = -0.14970 0.92069
#
# Static dielectric constant tensor:
#      x y z
#    x 1.686050 0.000000 -0.008290 
#    y 0.000000 1.719890 0.000000 
#    z -0.008290 0.000000 1.662570 
# 
# From -- ./inp_files/169913.got.cif
#   From: 2010.05.17/outbox.cif.g08.bks.cpg/sg12_85_cif.got.tgz:169913.got - 2010.06.03 13:09:07.
