data_PCOD9210949
_publ_section_title
;
Structure prediction by ZEFSAII (Michael W. Deem and Ramdas Pophale) SiO2 
 PCOD9210949
Probable space group: C 2/M
;
_chemical_formula_sum "Si O2"
_cell_formula_units_Z 40
_cell_length_a 9.171911
_cell_length_b 18.518193
_cell_length_c 14.617137
_cell_angle_alpha 90.000000
_cell_angle_beta 139.483897
_cell_angle_gamma 90.000000
_cell_volume 1612.902233
_symmetry_space_group_name_H-M "C 2/M"
_symmetry_group_IT_number 12
_symmetry_cell_setting 'monoclinic'
loop_
_space_group_symop_operation_xyz
x,y,z
-x,y,-z
-x,-y,-z
x,-y,z
1/2+x,1/2+y,z
1/2-x,1/2+y,-z
1/2-x,1/2-y,-z
1/2+x,1/2-y,z
loop_
_atom_site_type_symbol
_atom_site_label
_atom_site_fract_x
_atom_site_fract_y
_atom_site_fract_z
Si Si1 0.256197 0.586786 0.837362
Si Si2 0.518794 0.418166 0.409895
Si Si3 0.454155 0.136602 0.851953
Si Si4 0.741587 0.162929 0.634157
Si Si5 0.283777 0.295974 0.108356
O O1 0.225467 0.500000 0.826612
O O2 0.245443 0.615722 0.728784
O O3 0.062433 0.626622 0.803580
O O4 0.500000 0.603622 0.000000
O O5 0.500000 0.381246 0.500000
O O6 0.591484 0.500000 0.458291
O O7 0.264105 0.413812 0.251153
O O8 0.691335 0.384386 0.421739
O O9 0.345401 0.206399 0.855898
O O10 0.680774 0.127560 0.021701
O O11 0.500000 0.196211 0.500000
O O12 0.958373 0.212773 0.745198
O O13 0.250000 0.250000 0.000000
#
# Coordination Sequence:
#
# PCOD9210949 Si02
#       5
#     8   8   8   8   8
#     4  11  22  37  62 103 147 185 224 269 332 412
#     4  10  21  39  64  97 140 186 225 271 337 410
#     4  10  21  40  65  92 127 177 226 279 335 405
#     4  11  23  41  66 100 139 181 228 283 347 411
#     4  10  23  44  66  93 125 174 233 293 351 393
#
# _framework density 24.800017
#
# number of rings (size 3 to 8) (size 9 to 14) (size 15 to 20)
#    0.000    1.600    2.000    2.400    0.000    6.400 
#    0.000    6.000    0.000    9.600    0.000    0.000 
#    0.000    0.000    0.000    0.000    0.000    0.000 
#
# Total GULP energy -111360.592364 kJ/mol
# GULP energy per Si atom -5568.029618 kJ/mol
# Density = 2.474357 g / cm^3
# Si number density = 24.800017 Si / 1000 Ang^3
#
#
#
# Elastic Constant Matrix: (Units=GPa)
#
#
# Indices 1 2 3 4 5 6 
#
# 1 242.1679 48.1651 52.2650 -0.0001 -3.8603 0.0000
# 2 48.1651 61.8067 13.9558 -0.0003 -6.3017 -0.0001
# 3 52.2650 13.9558 122.8031 0.0001 13.4206 0.0002
# 4 -0.0001 -0.0003 0.0001 -7.6442 0.0001 -34.8987
# 5 -3.8603 -6.3017 13.4206 0.0001 60.4343 0.0002
# 6 0.0000 -0.0001 0.0002 -34.8987 0.0002 -27.2105
#
#
#
# Elastic Compliance Matrix: (Units=1/GPa)
#
#
# Indices 1 2 3 4 5 6 
#
# 1 0.005262 -0.003642 -0.001866 0.000000 0.000371 0.000000
# 2 -0.003642 0.019417 -0.000874 0.000000 0.001986 0.000000
# 3 -0.001866 -0.000874 0.009285 0.000000 -0.002272 0.000000
# 4 0.000000 0.000000 0.000000 0.026943 0.000000 -0.034556
# 5 0.000371 0.001986 -0.002272 0.000000 0.017282 0.000000
# 6 0.000000 0.000000 0.000000 -0.034556 0.000000 0.007569
#
#
# Mechanical properties :
#
#
# Convention : Reuss Voigt Hill
#
# Bulk Modulus (GPa) = 47.16759 72.83884 60.00322
# Shear Modulus (GPa) = 47.35297 25.94204 36.64751
#
# Velocity S-wave (km/s) = 4.37440 3.23778 3.84828
# Velocity P-wave (km/s) = 6.67640 6.58877 6.63273
#
# Compressibility (1/GPa) = 0.02120100
#
# Stress axis : x y z
#
# Youngs Moduli (GPa) = 190.02844 51.50072 107.69992
#
# Poissons Ratio (x) = 0.18755 0.20100
# Poissons Ratio (y) = 0.69202 0.09411
# Poissons Ratio (z) = 0.35466 0.04500
#
# Static dielectric constant tensor:
#      x y z
#    x 2.052810 0.000000 -0.000440 
#    y 0.000000 2.072000 0.000000 
#    z -0.000440 0.000000 2.117840 
# 
# From -- ./inp_files/198662.got.cif
#   From: 2010.05.17/outbox.cif.g08.bks.cpg/sg12_100_cif.got.tgz:198662.got - 2010.06.03 13:09:07.
