data_PCOD9210086
_publ_section_title
;
Structure prediction by ZEFSAII (Michael W. Deem and Ramdas Pophale) SiO2 
 PCOD9210086
Probable space group: C 2/M
;
_chemical_formula_sum "Si O2"
_cell_formula_units_Z 64
_cell_length_a 19.618015
_cell_length_b 7.813382
_cell_length_c 30.935328
_cell_angle_alpha 90.000000
_cell_angle_beta 142.214004
_cell_angle_gamma 90.000000
_cell_volume 2905.404362
_symmetry_space_group_name_H-M "C 2/M"
_symmetry_group_IT_number 12
_symmetry_cell_setting 'monoclinic'
loop_
_space_group_symop_operation_xyz
x,y,z
-x,y,-z
-x,-y,-z
x,-y,z
1/2+x,1/2+y,z
1/2-x,1/2+y,-z
1/2-x,1/2-y,-z
1/2+x,1/2-y,z
loop_
_atom_site_type_symbol
_atom_site_label
_atom_site_fract_x
_atom_site_fract_y
_atom_site_fract_z
Si Si1 0.286167 0.789712 0.681001
Si Si2 0.322925 0.708752 0.283487
Si Si3 0.634637 0.791721 0.121274
Si Si4 0.924232 0.191812 0.071183
Si Si5 0.723105 0.802669 0.075184
Si Si6 0.726271 0.296769 0.557985
Si Si7 0.462150 0.805895 0.183698
Si Si8 0.924099 0.207920 0.595943
O O1 0.224397 0.735621 0.693709
O O2 0.227858 0.730974 0.607646
O O3 0.415252 0.734467 0.745890
O O4 0.287778 0.000000 0.682288
O O5 0.324180 0.500000 0.284561
O O6 0.237112 0.759707 0.203275
O O7 0.448805 0.765639 0.338381
O O8 0.523032 0.723133 0.086724
O O9 0.658794 0.733581 0.084712
O O10 0.628682 0.000000 0.117864
O O11 0.945550 0.306793 0.123493
O O12 0.927012 0.000000 0.089972
O O13 0.813410 0.215930 0.987594
O O14 0.854760 0.788597 0.148518
O O15 0.691261 0.000000 0.054101
O O16 0.707540 0.500000 0.551476
O O17 0.846210 0.266664 0.596129
O O18 0.635920 0.230358 0.478341
O O19 0.458499 0.000000 0.198259
O O20 0.922498 0.000000 0.595116
#
# Coordination Sequence:
#
# PCOD9210086 Si02
#       8
#     8   8   8   8   8   8   8   8
#     4   9  18  33  56  80 109 145 184 230 276 324
#     4   9  17  33  56  81 108 143 185 227 273 321
#     4  10  21  39  60  82 113 150 187 231 283 338
#     4  12  24  40  61  84 113 146 186 235 283 340
#     4  11  24  39  59  86 113 146 188 234 283 339
#     4   9  18  33  53  83 115 146 182 223 273 323
#     4  11  22  39  60  82 113 151 189 234 286 337
#     4   9  18  32  55  83 113 147 183 224 269 323
#
# _framework density 22.027913999999999
#
# number of rings (size 3 to 8) (size 9 to 14) (size 15 to 20)
#    0.000    2.000    1.250    2.625    1.750    3.000 
#    0.000    3.750    0.000    0.000    0.000    3.500 
#    0.000    0.000    0.000    0.000    0.000    0.000 
#
# Total GULP energy -178843.709253 kJ/mol
# GULP energy per Si atom -5588.865914 kJ/mol
# Density = 2.197778 g / cm^3
# Si number density = 22.027914 Si / 1000 Ang^3
#
#
#
# Elastic Constant Matrix: (Units=GPa)
#
#
# Indices 1 2 3 4 5 6 
#
# 1 41.9092 -11.7217 7.0492 0.0001 -5.4138 -0.0001
# 2 -11.7217 32.8183 -2.2257 -0.0001 -3.1070 -0.0004
# 3 7.0492 -2.2257 62.7816 0.0000 -1.9463 0.0001
# 4 0.0001 -0.0001 0.0000 13.1892 0.0000 7.7083
# 5 -5.4138 -3.1070 -1.9463 0.0000 39.6909 0.0000
# 6 -0.0001 -0.0004 0.0001 7.7083 0.0000 17.4283
#
#
#
# Elastic Compliance Matrix: (Units=1/GPa)
#
#
# Indices 1 2 3 4 5 6 
#
# 1 0.027712 0.010141 -0.002614 0.000000 0.004445 0.000001
# 2 0.010141 0.034495 0.000211 -0.000001 0.004094 0.000001
# 3 -0.002614 0.000211 0.016243 0.000000 0.000457 0.000000
# 4 0.000000 -0.000001 0.000000 0.102251 0.000000 -0.045224
# 5 0.004445 0.004094 0.000457 0.000000 0.026144 0.000000
# 6 0.000001 0.000001 0.000000 -0.045224 0.000000 0.077380
#
#
# Mechanical properties :
#
#
# Convention : Reuss Voigt Hill
#
# Bulk Modulus (GPa) = 10.64662 13.74584 12.19623
# Shear Modulus (GPa) = 16.66352 23.68882 20.17617
#
# Velocity S-wave (km/s) = 2.75339 3.28289 3.02973
# Velocity P-wave (km/s) = 3.86677 4.54131 4.21755
#
# Compressibility (1/GPa) = 0.09392648
#
# Stress axis : x y z
#
# Youngs Moduli (GPa) = 36.08604 28.98978 61.56349
#
# Poissons Ratio (x) = -0.29399 0.16094
# Poissons Ratio (y) = -0.36596 -0.01300
# Poissons Ratio (z) = 0.09433 -0.00612
#
# Static dielectric constant tensor:
#      x y z
#    x 1.773260 0.000000 -0.000230 
#    y 0.000000 1.808250 0.000000 
#    z -0.000230 0.000000 1.787890 
# 
# From -- ./inp_files/378524.got.cif
#   From: 2010.05.17/outbox.cif.g08.bks.cpg/sg12_190_cif.got.tgz:378524.got - 2010.06.03 13:09:07.
