data_PCOD9210502
_publ_section_title
;
Structure prediction by ZEFSAII (Michael W. Deem and Ramdas Pophale) SiO2 
 PCOD9210502
Probable space group: C 2/M
;
_chemical_formula_sum "Si O2"
_cell_formula_units_Z 64
_cell_length_a 24.200138
_cell_length_b 26.347079
_cell_length_c 9.199712
_cell_angle_alpha 90.000000
_cell_angle_beta 33.178075
_cell_angle_gamma 90.000000
_cell_volume 3209.997917
_symmetry_space_group_name_H-M "C 2/M"
_symmetry_group_IT_number 12
_symmetry_cell_setting 'monoclinic'
loop_
_space_group_symop_operation_xyz
x,y,z
-x,y,-z
-x,-y,-z
x,-y,z
1/2+x,1/2+y,z
1/2-x,1/2+y,-z
1/2-x,1/2-y,-z
1/2+x,1/2-y,z
loop_
_atom_site_type_symbol
_atom_site_label
_atom_site_fract_x
_atom_site_fract_y
_atom_site_fract_z
Si Si1 0.051492 0.773017 0.039071
Si Si2 0.353832 0.223166 0.589318
Si Si3 0.556576 0.559166 0.733763
Si Si4 0.214813 0.153496 0.707393
Si Si5 0.216997 0.304551 0.735226
Si Si6 0.642393 0.556954 0.009446
Si Si7 0.382057 0.146547 0.785105
Si Si8 0.279699 0.439432 0.847914
O O1 0.967182 0.743264 0.315381
O O2 0.108211 0.820126 0.988879
O O3 0.145675 0.735327 0.807481
O O4 0.000000 0.786669 0.000000
O O5 0.308474 0.180953 0.579612
O O6 0.287006 0.272352 0.691861
O O7 0.349374 0.193756 0.752500
O O8 0.578839 0.500000 0.723044
O O9 0.657779 0.578624 0.432393
O O10 0.500000 0.582104 0.000000
O O11 0.471173 0.559651 0.798380
O O12 0.224322 0.163783 0.515224
O O13 0.207653 0.096283 0.773619
O O14 0.143149 0.337657 0.995483
O O15 0.679358 0.500000 0.901624
O O16 0.651361 0.566716 0.160600
O O17 0.500000 0.137877 0.500000
O O18 0.315922 0.095978 0.908611
O O19 0.258002 0.500000 0.880667
#
# Coordination Sequence:
#
# PCOD9210502 Si02
#       8
#     8   8   8   8   8   8   8   8
#     4  11  19  37  63  89 121 160 200 255 310 375
#     4  11  21  42  59  86 125 158 204 256 309 381
#     4   9  19  36  61  92 124 157 201 258 312 362
#     4  11  22  36  64  94 119 165 216 245 316 381
#     4  11  23  37  61  91 122 162 204 257 316 372
#     4  10  21  39  62  91 131 170 206 252 309 383
#     4  12  25  40  62  90 122 164 210 259 317 364
#     4  10  22  42  64  87 124 172 212 256 314 375
#
# _framework density 19.937709000000002
#
# number of rings (size 3 to 8) (size 9 to 14) (size 15 to 20)
#    0.000    1.375    5.000    1.500    1.750    3.250 
#    0.000    0.000    0.000    0.000    0.000    2.625 
#    0.000    0.000    0.000    0.000    0.000    0.000 
#
# Total GULP energy -178470.020981 kJ/mol
# GULP energy per Si atom -5577.188156 kJ/mol
# Density = 1.989233 g / cm^3
# Si number density = 19.937709 Si / 1000 Ang^3
#
#
#
# Elastic Constant Matrix: (Units=GPa)
#
#
# Indices 1 2 3 4 5 6 
#
# 1 69.2089 26.7647 40.1339 0.0000 2.6589 0.0000
# 2 26.7647 75.1829 56.7868 0.0000 13.3981 0.0000
# 3 40.1339 56.7868 139.6686 -0.0001 6.4544 0.0000
# 4 0.0000 0.0000 -0.0001 13.8410 0.0000 -0.7934
# 5 2.6589 13.3981 6.4544 0.0000 27.8373 0.0000
# 6 0.0000 0.0000 0.0000 -0.7934 0.0000 25.4988
#
#
#
# Elastic Compliance Matrix: (Units=1/GPa)
#
#
# Indices 1 2 3 4 5 6 
#
# 1 0.018015 -0.003812 -0.003671 0.000000 0.000965 0.000000
# 2 -0.003812 0.021693 -0.007337 0.000000 -0.008375 0.000000
# 3 -0.003671 -0.007337 0.011138 0.000000 0.001300 0.000000
# 4 0.000000 0.000000 0.000000 0.072378 0.000000 0.002252
# 5 0.000965 -0.008375 0.001300 0.000000 0.039560 0.000000
# 6 0.000000 0.000000 0.000000 0.002252 0.000000 0.039288
#
#
# Mechanical properties :
#
#
# Convention : Reuss Voigt Hill
#
# Bulk Modulus (GPa) = 47.16132 59.04792 53.10462
# Shear Modulus (GPa) = 20.93962 24.12708 22.53335
#
# Velocity S-wave (km/s) = 3.24428 3.48246 3.36547
# Velocity P-wave (km/s) = 6.14324 6.77130 6.46490
#
# Compressibility (1/GPa) = 0.02120382
#
# Stress axis : x y z
#
# Youngs Moduli (GPa) = 55.50864 46.09861 89.78361
#
# Poissons Ratio (x) = 0.17575 0.32962
# Poissons Ratio (y) = 0.21162 0.65877
# Poissons Ratio (z) = 0.20378 0.33824
#
# Static dielectric constant tensor:
#      x y z
#    x 1.720130 0.000000 0.011990 
#    y 0.000000 1.745450 0.000000 
#    z 0.011990 0.000000 1.708980 
# 
# From -- ./inp_files/100222.got.cif
#   From: 2010.05.17/outbox.cif.g08.bks.cpg/sg12_51_cif.got.tgz:100222.got - 2010.06.03 13:09:07.
