data_PCOD9210402
_publ_section_title
;
Structure prediction by ZEFSAII (Michael W. Deem and Ramdas Pophale) SiO2 
 PCOD9210402
Probable space group: C 2/M
;
_chemical_formula_sum "Si O2"
_cell_formula_units_Z 60
_cell_length_a 8.243728
_cell_length_b 31.325894
_cell_length_c 11.246402
_cell_angle_alpha 90.000000
_cell_angle_beta 108.085120
_cell_angle_gamma 90.000000
_cell_volume 2760.812350
_symmetry_space_group_name_H-M "C 2/M"
_symmetry_group_IT_number 12
_symmetry_cell_setting 'monoclinic'
loop_
_space_group_symop_operation_xyz
x,y,z
-x,y,-z
-x,-y,-z
x,-y,z
1/2+x,1/2+y,z
1/2-x,1/2+y,-z
1/2-x,1/2-y,-z
1/2+x,1/2-y,z
loop_
_atom_site_type_symbol
_atom_site_label
_atom_site_fract_x
_atom_site_fract_y
_atom_site_fract_z
Si Si1 0.000000 0.766319 0.500000
Si Si2 0.845154 0.124385 0.116608
Si Si3 0.336672 0.111121 0.685162
Si Si4 0.101758 0.566877 0.915311
Si Si5 0.599603 0.546552 0.182350
Si Si6 0.354640 0.794365 0.660454
Si Si7 0.195111 0.711818 0.074324
Si Si8 0.296231 0.047483 0.476423
O O1 0.830190 0.793511 0.444365
O O2 0.972277 0.736449 0.609136
O O3 0.801395 0.121070 0.245699
O O4 0.838096 0.174725 0.090067
O O5 0.993895 0.089697 0.133829
O O6 0.689396 0.106691 0.002159
O O7 0.473732 0.081448 0.783090
O O8 0.418229 0.156829 0.672731
O O9 0.259126 0.085342 0.558577
O O10 0.256025 0.544140 0.885141
O O11 0.000000 0.545229 0.000000
O O12 0.507088 0.500000 0.162846
O O13 0.693630 0.551197 0.330519
O O14 0.323586 0.779050 0.788685
O O15 0.250000 0.750000 0.000000
O O16 0.000000 0.697706 0.000000
O O17 0.500000 0.049583 0.500000
O O18 0.259952 0.000000 0.518536
#
# Coordination Sequence:
#
# PCOD9210402 Si02
#       8
#     4   8   8   8   8   8   8   8
#     4  10  22  40  58  88 130 164 206 266 318 388
#     4  10  23  41  61  94 134 166 213 273 325 404
#     4  10  21  39  64  91 123 168 215 265 331 391
#     4  10  21  39  62  87 121 165 215 272 328 389
#     4  11  24  41  63  93 130 172 220 274 334 398
#     4  10  22  39  62  92 127 167 213 261 323 396
#     4  11  23  43  69  98 132 172 220 273 334 399
#     4  10  21  39  63  92 126 164 222 280 325 391
#
# _framework density 21.732735000000002
#
# number of rings (size 3 to 8) (size 9 to 14) (size 15 to 20)
#    0.000    1.733    1.333    3.200    0.933    5.600 
#    0.000    9.333    0.000    2.800    0.000    0.000 
#    0.000    0.000    0.000    0.000    0.000    0.000 
#
# Total GULP energy -167383.030533 kJ/mol
# GULP energy per Si atom -5579.434351 kJ/mol
# Density = 2.168327 g / cm^3
# Si number density = 21.732735 Si / 1000 Ang^3
#
#
#
# Elastic Constant Matrix: (Units=GPa)
#
#
# Indices 1 2 3 4 5 6 
#
# 1 59.2569 41.9096 10.7287 0.0000 4.8413 0.0000
# 2 41.9096 140.6848 51.3920 0.0000 -14.1826 0.0000
# 3 10.7287 51.3920 116.1497 0.0000 -11.2998 0.0000
# 4 0.0000 0.0000 0.0000 56.7942 0.0000 -25.9151
# 5 4.8413 -14.1826 -11.2998 0.0000 33.5559 0.0000
# 6 0.0000 0.0000 0.0000 -25.9151 0.0000 24.0793
#
#
#
# Elastic Compliance Matrix: (Units=1/GPa)
#
#
# Indices 1 2 3 4 5 6 
#
# 1 0.022661 -0.007628 0.000672 0.000000 -0.006267 0.000000
# 2 -0.007628 0.011237 -0.003824 0.000000 0.004562 0.000000
# 3 0.000672 -0.003824 0.010414 0.000000 0.001794 0.000000
# 4 0.000000 0.000000 0.000000 0.034598 0.000000 0.037236
# 5 -0.006267 0.004562 0.001794 0.000000 0.033238 0.000000
# 6 0.000000 0.000000 0.000000 0.037236 0.000000 0.081605
#
#
# Mechanical properties :
#
#
# Convention : Reuss Voigt Hill
#
# Bulk Modulus (GPa) = 43.94991 58.23911 51.09451
# Shear Modulus (GPa) = 22.43208 37.02329 29.72768
#
# Velocity S-wave (km/s) = 3.21624 4.13191 3.70249
# Velocity P-wave (km/s) = 5.83602 7.04412 6.46834
#
# Compressibility (1/GPa) = 0.02275317
#
# Stress axis : x y z
#
# Youngs Moduli (GPa) = 44.12891 88.99084 96.02659
#
# Poissons Ratio (x) = 0.67882 -0.06455
# Poissons Ratio (y) = 0.33661 0.36716
# Poissons Ratio (z) = -0.02966 0.34026
#
# Static dielectric constant tensor:
#      x y z
#    x 1.833930 0.000000 0.000230 
#    y 0.000000 1.829940 0.000000 
#    z 0.000230 0.000000 1.778650 
# 
# From -- ./inp_files/125780.got.cif
#   From: 2010.05.17/outbox.cif.g08.bks.cpg/sg12_63_cif.got.tgz:125780.got - 2010.06.03 13:09:07.
