data_PCOD9210359
_publ_section_title
;
Structure prediction by ZEFSAII (Michael W. Deem and Ramdas Pophale) SiO2 
 PCOD9210359
Probable space group: C 2/M
;
_chemical_formula_sum "Si O2"
_cell_formula_units_Z 48
_cell_length_a 19.814935
_cell_length_b 8.554876
_cell_length_c 12.180036
_cell_angle_alpha 90.000000
_cell_angle_beta 97.281163
_cell_angle_gamma 90.000000
_cell_volume 2048.041096
_symmetry_space_group_name_H-M "C 2/M"
_symmetry_group_IT_number 12
_symmetry_cell_setting 'monoclinic'
loop_
_space_group_symop_operation_xyz
x,y,z
-x,y,-z
-x,-y,-z
x,-y,z
1/2+x,1/2+y,z
1/2-x,1/2+y,-z
1/2-x,1/2-y,-z
1/2+x,1/2-y,z
loop_
_atom_site_type_symbol
_atom_site_label
_atom_site_fract_x
_atom_site_fract_y
_atom_site_fract_z
Si Si1 0.129111 0.816225 0.129320
Si Si2 0.229201 0.818393 0.826457
Si Si3 0.907651 0.685788 0.097087
Si Si4 0.019653 0.317400 0.673962
Si Si5 0.619047 0.683502 0.376587
Si Si6 0.829498 0.681238 0.398021
O O1 0.208393 0.785168 0.118892
O O2 0.123753 0.755849 0.252861
O O3 0.113830 0.000000 0.124466
O O4 0.084953 0.731260 0.027756
O O5 0.159704 0.772147 0.872714
O O6 0.215559 0.780371 0.695277
O O7 0.244937 0.000000 0.845759
O O8 0.897462 0.500000 0.105724
O O9 0.966519 0.727291 0.195957
O O10 0.999194 0.500000 0.662339
O O11 0.092821 0.304038 0.631101
O O12 0.959905 0.215246 0.611604
O O13 0.633941 0.500000 0.379873
O O14 0.666375 0.764677 0.475959
O O15 0.809512 0.500000 0.384573
#
# Coordination Sequence:
#
# PCOD9210359 Si02
#       6
#     8   8   8   8   8   8
#     4  11  24  40  56  81 118 155 191 232 282 338
#     4  11  22  38  62  88 113 146 189 236 285 335
#     4  10  21  39  62  87 114 148 190 234 283 336
#     4   9  20  38  60  85 113 147 187 233 284 338
#     4  11  24  38  56  84 117 153 191 234 283 334
#     4  10  21  39  62  86 114 149 189 234 283 337
#
# _framework density 23.437028999999999
#
# number of rings (size 3 to 8) (size 9 to 14) (size 15 to 20)
#    0.000    1.667    0.000    5.500    0.000   10.000 
#    0.000    3.333    0.000    0.000    0.000    0.000 
#    0.000    0.000    0.000    0.000    0.000    0.000 
#
# Total GULP energy -134351.868420 kJ/mol
# GULP energy per Si atom -5597.994518 kJ/mol
# Density = 2.338369 g / cm^3
# Si number density = 23.437029 Si / 1000 Ang^3
#
#
#
# Elastic Constant Matrix: (Units=GPa)
#
#
# Indices 1 2 3 4 5 6 
#
# 1 52.0916 -7.8064 6.2909 0.0000 7.8417 0.0000
# 2 -7.8064 32.0853 21.7685 0.0000 3.1390 0.0000
# 3 6.2909 21.7685 160.2207 0.0000 9.2638 0.0000
# 4 0.0000 0.0000 0.0000 36.9838 0.0000 0.1988
# 5 7.8417 3.1390 9.2638 0.0000 31.3226 0.0000
# 6 0.0000 0.0000 0.0000 0.1988 0.0000 10.1399
#
#
#
# Elastic Compliance Matrix: (Units=1/GPa)
#
#
# Indices 1 2 3 4 5 6 
#
# 1 0.021203 0.006663 -0.001417 0.000000 -0.005557 0.000000
# 2 0.006663 0.036562 -0.005006 0.000000 -0.003852 0.000000
# 3 -0.001417 -0.005006 0.007048 0.000000 -0.001228 0.000000
# 4 0.000000 0.000000 0.000000 0.027042 0.000000 -0.000530
# 5 -0.005557 -0.003852 -0.001228 0.000000 0.034066 0.000000
# 6 0.000000 0.000000 0.000000 -0.000530 0.000000 0.098631
#
#
# Mechanical properties :
#
#
# Convention : Reuss Voigt Hill
#
# Bulk Modulus (GPa) = 15.31535 31.65596 23.48566
# Shear Modulus (GPa) = 20.33878 30.63221 25.48550
#
# Velocity S-wave (km/s) = 2.94905 3.61917 3.30116
# Velocity P-wave (km/s) = 4.25966 5.56782 4.95708
#
# Compressibility (1/GPa) = 0.06529397
#
# Stress axis : x y z
#
# Youngs Moduli (GPa) = 47.16278 27.35114 141.87981
#
# Poissons Ratio (x) = -0.18225 0.20098
# Poissons Ratio (y) = -0.31427 0.71031
# Poissons Ratio (z) = 0.06681 0.13693
#
# Static dielectric constant tensor:
#      x y z
#    x 1.911860 0.000000 -0.063420 
#    y 0.000000 1.775980 0.000000 
#    z -0.063420 0.000000 1.935970 
# 
# From -- ./inp_files/172407.got.cif
#   From: 2010.05.17/outbox.cif.g08.bks.cpg/sg12_87_cif.got.tgz:172407.got - 2010.06.03 13:09:07.
