data_PCOD9210155
_publ_section_title
;
Structure prediction by ZEFSAII (Michael W. Deem and Ramdas Pophale) SiO2 
 PCOD9210155
Probable space group: C 2/M
;
_chemical_formula_sum "Si O2"
_cell_formula_units_Z 48
_cell_length_a 11.887978
_cell_length_b 13.896204
_cell_length_c 16.910135
_cell_angle_alpha 90.000000
_cell_angle_beta 141.037457
_cell_angle_gamma 90.000000
_cell_volume 1756.597284
_symmetry_space_group_name_H-M "C 2/M"
_symmetry_group_IT_number 12
_symmetry_cell_setting 'monoclinic'
loop_
_space_group_symop_operation_xyz
x,y,z
-x,y,-z
-x,-y,-z
x,-y,z
1/2+x,1/2+y,z
1/2-x,1/2+y,-z
1/2-x,1/2-y,-z
1/2+x,1/2-y,z
loop_
_atom_site_type_symbol
_atom_site_label
_atom_site_fract_x
_atom_site_fract_y
_atom_site_fract_z
Si Si1 0.105424 0.896068 0.751560
Si Si2 0.315161 0.892888 0.303183
Si Si3 0.793961 0.185929 0.358443
Si Si4 0.285234 0.863119 0.521060
Si Si5 0.774954 0.891076 0.932702
Si Si6 0.124516 0.686750 0.998828
O O1 0.200575 0.867046 0.721998
O O2 0.175243 0.822382 0.854735
O O3 0.896776 0.900563 0.616299
O O4 0.163791 0.000000 0.812389
O O5 0.248589 0.798108 0.313928
O O6 0.532974 0.890165 0.422753
O O7 0.274596 0.884517 0.186812
O O8 0.255281 0.000000 0.296630
O O9 0.699298 0.124664 0.375727
O O10 0.000000 0.188571 0.500000
O O11 0.250000 0.750000 0.500000
O O12 0.905225 0.801335 0.023173
O O13 0.842299 0.000000 0.982862
O O14 0.622615 0.868550 0.915262
O O15 0.000000 0.647639 0.000000
#
# Coordination Sequence:
#
# PCOD9210155 Si02
#       6
#     8   8   8   8   8   8
#     4  11  23  40  62  92 126 161 208 259 313 373
#     4  11  22  40  66  95 126 166 209 253 316 379
#     4  10  21  39  60  88 130 162 203 259 305 368
#     4  11  21  40  63  90 129 169 205 253 313 378
#     4  10  23  43  67  97 127 162 213 265 313 378
#     4  11  24  44  67  91 128 169 210 266 319 368
#
# _framework density 27.325557
#
# number of rings (size 3 to 8) (size 9 to 14) (size 15 to 20)
#    0.000    1.333    5.000    1.000    2.333    5.667 
#    0.000    0.000    0.000    2.000    0.000    0.000 
#    0.000    0.000    0.000    0.000    0.000    0.000 
#
# Total GULP energy -134314.884829 kJ/mol
# GULP energy per Si atom -5596.453535 kJ/mol
# Density = 2.726336 g / cm^3
# Si number density = 27.325557 Si / 1000 Ang^3
#
#
#
# Elastic Constant Matrix: (Units=GPa)
#
#
# Indices 1 2 3 4 5 6 
#
# 1 142.4874 6.9349 36.5611 0.0000 -19.5467 0.0000
# 2 6.9349 148.9677 10.5608 0.0000 2.9248 0.0000
# 3 36.5611 10.5608 139.5298 0.0000 -9.1320 0.0000
# 4 0.0000 0.0000 0.0000 20.1566 0.0000 -3.1209
# 5 -19.5467 2.9248 -9.1320 0.0000 44.3291 0.0000
# 6 0.0000 0.0000 0.0000 -3.1209 0.0000 -17.5548
#
#
#
# Elastic Compliance Matrix: (Units=1/GPa)
#
#
# Indices 1 2 3 4 5 6 
#
# 1 0.007939 -0.000300 -0.001852 0.000000 0.003139 0.000000
# 2 -0.000300 0.006774 -0.000478 0.000000 -0.000678 0.000000
# 3 -0.001852 -0.000478 0.007741 0.000000 0.000810 0.000000
# 4 0.000000 0.000000 0.000000 0.048283 0.000000 -0.008584
# 5 0.003139 -0.000678 0.000810 0.000000 0.024154 0.000000
# 6 0.000000 0.000000 0.000000 -0.008584 0.000000 -0.055439
#
#
# Mechanical properties :
#
#
# Convention : Reuss Voigt Hill
#
# Bulk Modulus (GPa) = 58.16249 59.89984 59.03116
# Shear Modulus (GPa) = 99.11979 34.51472 66.81725
#
# Velocity S-wave (km/s) = 6.02930 3.55786 4.95029
# Velocity P-wave (km/s) = 8.35470 6.23267 7.37046
#
# Compressibility (1/GPa) = 0.01719321
#
# Stress axis : x y z
#
# Youngs Moduli (GPa) = 125.96757 147.62210 129.17513
#
# Poissons Ratio (x) = 0.04427 0.23924
# Poissons Ratio (y) = 0.03778 0.06181
# Poissons Ratio (z) = 0.23329 0.07064
#
# Static dielectric constant tensor:
#      x y z
#    x 2.244410 0.000000 0.005510 
#    y 0.000000 2.004130 0.000000 
#    z 0.005510 0.000000 2.159030 
# 
# From -- ./inp_files/270447.got.cif
#   From: 2010.05.17/outbox.cif.g08.bks.cpg/sg12_136_cif.got.tgz:270447.got - 2010.06.03 13:09:07.
