data_PCOD9210133
_publ_section_title
;
Structure prediction by ZEFSAII (Michael W. Deem and Ramdas Pophale) SiO2 
 PCOD9210133
Probable space group: C 2/M
;
_chemical_formula_sum "Si O2"
_cell_formula_units_Z 48
_cell_length_a 30.119623
_cell_length_b 8.349960
_cell_length_c 19.095673
_cell_angle_alpha 90.000000
_cell_angle_beta 30.429696
_cell_angle_gamma 90.000000
_cell_volume 2432.382235
_symmetry_space_group_name_H-M "C 2/M"
_symmetry_group_IT_number 12
_symmetry_cell_setting 'monoclinic'
loop_
_space_group_symop_operation_xyz
x,y,z
-x,y,-z
-x,-y,-z
x,-y,z
1/2+x,1/2+y,z
1/2-x,1/2+y,-z
1/2-x,1/2-y,-z
1/2+x,1/2-y,z
loop_
_atom_site_type_symbol
_atom_site_label
_atom_site_fract_x
_atom_site_fract_y
_atom_site_fract_z
Si Si1 0.801077 0.306031 0.644529
Si Si2 0.494881 0.806383 0.425620
Si Si3 0.012204 0.683143 0.900537
Si Si4 0.846057 0.809986 0.047998
Si Si5 0.291413 0.192671 0.371827
Si Si6 0.153094 0.192511 0.111733
O O1 0.800653 0.500000 0.646244
O O2 0.737029 0.247416 0.794387
O O3 0.760023 0.252701 0.626614
O O4 0.901318 0.253385 0.520597
O O5 0.500000 0.753821 0.500000
O O6 0.577509 0.751963 0.267022
O O7 0.495435 0.000000 0.425147
O O8 0.009511 0.500000 0.876854
O O9 0.108660 0.752840 0.760363
O O10 0.000000 0.676424 0.000000
O O11 0.933599 0.777276 0.972378
O O12 0.832112 0.000000 0.060724
O O13 0.859308 0.747981 0.951351
O O14 0.250000 0.250000 0.500000
O O15 0.294144 0.000000 0.364082
O O16 0.150507 0.000000 0.116268
O O17 0.250000 0.250000 0.000000
#
# Coordination Sequence:
#
# PCOD9210133 Si02
#       6
#     8   8   8   8   8   8
#     4  10  21  39  62  88 119 160 202 243 302 359
#     4  10  22  42  66  90 123 162 200 248 304 362
#     4  10  21  39  60  86 119 158 202 247 297 351
#     4  10  22  39  62  90 121 157 201 250 296 354
#     4  11  24  40  59  85 121 160 202 251 300 356
#     4  11  24  42  64  94 125 157 201 249 301 361
#
# _framework density 19.733740999999998
#
# number of rings (size 3 to 8) (size 9 to 14) (size 15 to 20)
#    0.000    1.667    1.667    2.000    2.333    6.667 
#    0.000    1.667    0.000    0.000    0.000    0.000 
#    0.000    0.000    0.000    0.000    0.000    0.000 
#
# Total GULP energy -134011.023130 kJ/mol
# GULP energy per Si atom -5583.792630 kJ/mol
# Density = 1.968883 g / cm^3
# Si number density = 19.733741 Si / 1000 Ang^3
#
#
#
# Elastic Constant Matrix: (Units=GPa)
#
#
# Indices 1 2 3 4 5 6 
#
# 1 126.2966 12.1136 96.0502 -0.0029 2.4174 0.0024
# 2 12.1136 14.2063 18.8754 -0.0035 1.9226 0.0039
# 3 96.0502 18.8754 214.6059 -0.0034 -5.3048 0.0025
# 4 -0.0029 -0.0035 -0.0034 28.8113 0.0019 -2.5719
# 5 2.4174 1.9226 -5.3048 0.0019 38.9766 -0.0013
# 6 0.0024 0.0039 0.0025 -2.5719 -0.0013 26.5088
#
#
#
# Elastic Compliance Matrix: (Units=1/GPa)
#
#
# Indices 1 2 3 4 5 6 
#
# 1 0.012225 -0.003324 -0.005211 0.000000 -0.001304 0.000000
# 2 -0.003324 0.081554 -0.005799 0.000008 -0.004606 -0.000010
# 3 -0.005211 -0.005799 0.007543 0.000000 0.001636 0.000001
# 4 0.000000 0.000008 0.000000 0.035012 -0.000002 0.003397
# 5 -0.001304 -0.004606 0.001636 -0.000002 0.026187 0.000002
# 6 0.000000 -0.000010 0.000001 0.003397 0.000002 0.038053
#
#
# Mechanical properties :
#
#
# Convention : Reuss Voigt Hill
#
# Bulk Modulus (GPa) = 13.76404 67.68745 40.72574
# Shear Modulus (GPa) = 19.72703 34.06399 26.89551
#
# Velocity S-wave (km/s) = 3.16517 4.15924 3.69578
# Velocity P-wave (km/s) = 4.51085 7.57895 6.23652
#
# Compressibility (1/GPa) = 0.07265311
#
# Stress axis : x y z
#
# Youngs Moduli (GPa) = 81.80035 12.26182 132.57976
#
# Poissons Ratio (x) = 0.04075 0.69092
# Poissons Ratio (y) = 0.27186 0.76887
# Poissons Ratio (z) = 0.42629 0.07111
#
# Static dielectric constant tensor:
#      x y z
#    x 1.637910 0.000000 -0.004000 
#    y 0.000000 1.705030 0.000000 
#    z -0.004000 0.000000 1.661480 
# 
# From -- ./inp_files/244770.got.cif
#   From: 2010.05.17/outbox.cif.g08.bks.cpg/sg12_123_cif.got.tgz:244770.got - 2010.06.03 13:09:07.
