data_PCOD9210923
_publ_section_title
;
Structure prediction by ZEFSAII (Michael W. Deem and Ramdas Pophale) SiO2 
 PCOD9210923
Probable space group: C 2/M
;
_chemical_formula_sum "Si O2"
_cell_formula_units_Z 64
_cell_length_a 28.971757
_cell_length_b 13.784119
_cell_length_c 11.925723
_cell_angle_alpha 90.000000
_cell_angle_beta 38.475310
_cell_angle_gamma 90.000000
_cell_volume 2963.143966
_symmetry_space_group_name_H-M "C 2/M"
_symmetry_group_IT_number 12
_symmetry_cell_setting 'monoclinic'
loop_
_space_group_symop_operation_xyz
x,y,z
-x,y,-z
-x,-y,-z
x,-y,z
1/2+x,1/2+y,z
1/2-x,1/2+y,-z
1/2-x,1/2-y,-z
1/2+x,1/2-y,z
loop_
_atom_site_type_symbol
_atom_site_label
_atom_site_fract_x
_atom_site_fract_y
_atom_site_fract_z
Si Si1 0.320529 0.714020 0.435200
Si Si2 0.783253 0.886133 0.964501
Si Si3 0.260054 0.115600 0.211230
Si Si4 0.077391 0.697457 0.052587
Si Si5 0.073501 0.390807 0.722191
Si Si6 0.368793 0.890477 0.642612
Si Si7 0.920580 0.893437 0.089647
Si Si8 0.432066 0.732741 0.686694
O O1 0.250000 0.750000 0.500000
O O2 0.295027 0.679163 0.606644
O O3 0.379662 0.802043 0.316393
O O4 0.358061 0.623388 0.301955
O O5 0.752830 0.865116 0.896656
O O6 0.858015 0.828743 0.843413
O O7 0.799132 0.000000 0.939257
O O8 0.718108 0.865221 0.177135
O O9 0.248833 0.000000 0.250402
O O10 0.343863 0.144217 0.086108
O O11 0.048516 0.719939 0.232152
O O12 0.013480 0.636129 0.112591
O O13 0.086339 0.802639 0.979333
O O14 0.086093 0.500000 0.743071
O O15 0.103000 0.391023 0.537520
O O16 0.412938 0.817209 0.635743
O O17 0.376714 0.000000 0.673128
O O18 0.913215 0.000000 0.050582
O O19 0.000000 0.888603 0.000000
O O20 0.500000 0.676096 0.500000
#
# Coordination Sequence:
#
# PCOD9210923 Si02
#       8
#     8   8   8   8   8   8   8   8
#     4  12  25  45  68  97 132 167 219 271 334 400
#     4  10  23  41  63  93 132 177 220 262 319 387
#     4  11  24  42  68  98 130 172 220 276 329 387
#     4  12  24  43  69 101 132 169 226 274 328 395
#     4  11  25  43  68 102 138 171 216 276 333 388
#     4  10  21  39  64  95 133 176 215 256 319 389
#     4  11  25  48  71  91 126 175 220 271 332 396
#     4  12  24  38  64  96 137 176 215 263 320 384
#
# _framework density 21.598680999999999
#
# number of rings (size 3 to 8) (size 9 to 14) (size 15 to 20)
#    0.000    0.875    5.000    1.875    1.750    2.500 
#    0.000    0.625    0.000    0.000    0.000    0.000 
#    0.000    0.000    0.000    0.000    0.000    0.000 
#
# Total GULP energy -179032.960500 kJ/mol
# GULP energy per Si atom -5594.780016 kJ/mol
# Density = 2.154952 g / cm^3
# Si number density = 21.598681 Si / 1000 Ang^3
#
#
#
# Elastic Constant Matrix: (Units=GPa)
#
#
# Indices 1 2 3 4 5 6 
#
# 1 36.8168 14.3501 -5.4219 0.0000 -21.3137 0.0000
# 2 14.3501 112.8729 13.4805 0.0000 -9.8431 0.0000
# 3 -5.4219 13.4805 91.3812 0.0000 -18.2263 0.0000
# 4 0.0000 0.0000 0.0000 33.9727 0.0000 4.6600
# 5 -21.3137 -9.8431 -18.2263 0.0000 33.6599 0.0000
# 6 0.0000 0.0000 0.0000 4.6600 0.0000 17.4767
#
#
#
# Elastic Compliance Matrix: (Units=1/GPa)
#
#
# Indices 1 2 3 4 5 6 
#
# 1 0.052886 -0.004754 0.011481 0.000000 0.038315 0.000000
# 2 -0.004754 0.009587 -0.001948 0.000000 -0.001261 0.000000
# 3 0.011481 -0.001948 0.014852 0.000000 0.014743 0.000000
# 4 0.000000 0.000000 0.000000 0.030553 0.000000 -0.008147
# 5 0.038315 -0.001261 0.014743 0.000000 0.061584 0.000000
# 6 0.000000 0.000000 0.000000 -0.008147 0.000000 0.059391
#
#
# Mechanical properties :
#
#
# Convention : Reuss Voigt Hill
#
# Bulk Modulus (GPa) = 11.50959 31.76536 21.63747
# Shear Modulus (GPa) = 20.14058 31.59935 25.86996
#
# Velocity S-wave (km/s) = 3.05698 3.82910 3.46462
# Velocity P-wave (km/s) = 4.21908 5.85562 5.10338
#
# Compressibility (1/GPa) = 0.08688408
#
# Stress axis : x y z
#
# Youngs Moduli (GPa) = 18.90857 104.31329 67.33013
#
# Poissons Ratio (x) = 0.49587 -0.77303
# Poissons Ratio (y) = 0.08989 0.13115
# Poissons Ratio (z) = -0.21709 0.20319
#
# Static dielectric constant tensor:
#      x y z
#    x 1.758360 0.000000 0.010520 
#    y 0.000000 1.772380 0.000000 
#    z 0.010520 0.000000 1.801540 
# 
# From -- ./inp_files/183774.got.cif
#   From: 2010.05.17/outbox.cif.g08.bks.cpg/sg12_92_cif.got.tgz:183774.got - 2010.06.03 13:09:07.
