data_PCOD9210629
_publ_section_title
;
Structure prediction by ZEFSAII (Michael W. Deem and Ramdas Pophale) SiO2 
 PCOD9210629
Probable space group: C 2/M
;
_chemical_formula_sum "Si O2"
_cell_formula_units_Z 56
_cell_length_a 9.737305
_cell_length_b 13.989324
_cell_length_c 29.299929
_cell_angle_alpha 90.000000
_cell_angle_beta 138.752813
_cell_angle_gamma 90.000000
_cell_volume 2631.425081
_symmetry_space_group_name_H-M "C 2/M"
_symmetry_group_IT_number 12
_symmetry_cell_setting 'monoclinic'
loop_
_space_group_symop_operation_xyz
x,y,z
-x,y,-z
-x,-y,-z
x,-y,z
1/2+x,1/2+y,z
1/2-x,1/2+y,-z
1/2-x,1/2-y,-z
1/2+x,1/2-y,z
loop_
_atom_site_type_symbol
_atom_site_label
_atom_site_fract_x
_atom_site_fract_y
_atom_site_fract_z
Si Si1 0.184327 0.222621 0.755785
Si Si2 0.766326 0.724393 0.337056
Si Si3 0.186470 0.616313 0.013926
Si Si4 0.445384 0.610027 0.433069
Si Si5 0.400977 0.114969 0.111209
Si Si6 0.162741 0.885815 0.143332
Si Si7 0.906411 0.614566 0.524616
O O1 0.204747 0.242649 0.707363
O O2 0.376223 0.157605 0.819667
O O3 0.206653 0.321611 0.789348
O O4 0.960013 0.178643 0.711875
O O5 0.776455 0.816774 0.372794
O O6 0.954613 0.657777 0.400656
O O7 0.174177 0.500000 0.010334
O O8 0.418990 0.637694 0.089070
O O9 0.000000 0.650838 0.000000
O O10 0.161550 0.647468 0.955164
O O11 0.500000 0.615037 0.500000
O O12 0.394334 0.500000 0.409391
O O13 0.663859 0.639249 0.464602
O O14 0.236741 0.138085 0.110295
O O15 0.413983 0.000000 0.113250
O O16 0.191389 0.000000 0.157001
O O17 0.917306 0.500000 0.530244
O O18 0.000000 0.647201 0.500000
#
# Coordination Sequence:
#
# PCOD9210629 Si02
#       7
#     8   8   8   8   8   8   8
#     4  12  26  40  58  92 128 171 214 248 303 382
#     4  12  24  39  60  87 128 165 202 252 311 369
#     4   9  19  36  67 100 120 154 210 270 319 354
#     4  10  21  39  65  92 117 154 207 259 308 366
#     4  10  22  43  65  88 125 168 211 258 311 371
#     4  10  22  43  65  88 125 168 211 259 310 370
#     4  10  21  39  63  90 117 152 202 258 313 363
#
# _framework density 21.281244999999998
#
# number of rings (size 3 to 8) (size 9 to 14) (size 15 to 20)
#    0.000    1.571    1.429    3.000    2.000    4.571 
#    0.000    0.000    0.000    0.000    0.000    0.000 
#    0.000    0.000    0.000    0.000    0.000    0.000 
#
# Total GULP energy -156614.337223 kJ/mol
# GULP energy per Si atom -5593.369187 kJ/mol
# Density = 2.123281 g / cm^3
# Si number density = 21.281245 Si / 1000 Ang^3
#
#
#
# Elastic Constant Matrix: (Units=GPa)
#
#
# Indices 1 2 3 4 5 6 
#
# 1 73.6202 -1.4687 1.7241 -0.0001 1.3179 -0.0001
# 2 -1.4687 46.2009 9.3314 0.0000 3.8920 0.0001
# 3 1.7241 9.3314 76.2667 0.0003 -4.4418 0.0007
# 4 -0.0001 0.0000 0.0003 -236.7324 0.0001 -710.7155
# 5 1.3179 3.8920 -4.4418 0.0001 37.7536 0.0002
# 6 -0.0001 0.0001 0.0007 -710.7155 0.0002-1866.3252
#
#
#
# Elastic Compliance Matrix: (Units=1/GPa)
#
#
# Indices 1 2 3 4 5 6 
#
# 1 0.013615 0.000565 -0.000411 0.000000 -0.000582 0.000000
# 2 0.000565 0.022478 -0.002919 0.000000 -0.002680 0.000000
# 3 -0.000411 -0.002919 0.013590 0.000000 0.001914 0.000000
# 4 0.000000 0.000000 0.000000 0.029485 0.000000 -0.011228
# 5 -0.000582 -0.002680 0.001914 0.000000 0.027009 0.000000
# 6 0.000000 0.000000 0.000000 -0.011228 0.000000 0.003740
#
#
# Mechanical properties :
#
#
# Convention : Reuss Voigt Hill
#
# Bulk Modulus (GPa) = 22.64896 23.91792 23.28344
# Shear Modulus (GPa) = 38.41291 -400.62740 -181.10724
#
# Velocity S-wave (km/s) = 4.25315 -13.73544 -9.23507
# Velocity P-wave (km/s) = 5.89787 15.50118 10.13661
#
# Compressibility (1/GPa) = 0.04415213
#
# Stress axis : x y z
#
# Youngs Moduli (GPa) = 73.45092 44.48801 73.58454
#
# Poissons Ratio (x) = -0.02513 0.03023
# Poissons Ratio (y) = -0.04148 0.21480
# Poissons Ratio (z) = 0.03017 0.12987
#
# Static dielectric constant tensor:
#      x y z
#    x 1.734960 0.000000 -0.043000 
#    y 0.000000 1.773640 0.000000 
#    z -0.043000 0.000000 1.663370 
# 
# From -- ./inp_files/300133.got.cif
#   From: 2010.05.17/outbox.cif.g08.bks.cpg/sg12_151_cif.got.tgz:300133.got - 2010.06.03 13:09:07.
