data_PCOD9210175
_publ_section_title
;
Structure prediction by ZEFSAII (Michael W. Deem and Ramdas Pophale) SiO2 
 PCOD9210175
Probable space group: C 2/M
;
_chemical_formula_sum "Si O2"
_cell_formula_units_Z 42
_cell_length_a 23.530783
_cell_length_b 14.374166
_cell_length_c 6.367420
_cell_angle_alpha 90.000000
_cell_angle_beta 65.603559
_cell_angle_gamma 90.000000
_cell_volume 1961.382576
_symmetry_space_group_name_H-M "C 2/M"
_symmetry_group_IT_number 12
_symmetry_cell_setting 'monoclinic'
loop_
_space_group_symop_operation_xyz
x,y,z
-x,y,-z
-x,-y,-z
x,-y,z
1/2+x,1/2+y,z
1/2-x,1/2+y,-z
1/2-x,1/2-y,-z
1/2+x,1/2-y,z
loop_
_atom_site_type_symbol
_atom_site_label
_atom_site_fract_x
_atom_site_fract_y
_atom_site_fract_z
Si Si1 0.823797 0.896500 0.578532
Si Si2 0.374981 0.245883 0.820425
Si Si3 0.934220 0.848279 0.110440
Si Si4 0.818118 0.392788 0.239690
Si Si5 0.500000 0.000000 0.000000
Si Si6 0.432546 0.157711 0.355767
O O1 0.837766 0.812550 0.717223
O O2 0.876353 0.893887 0.319115
O O3 0.754384 0.884191 0.592369
O O4 0.825323 0.000000 0.676637
O O5 0.420627 0.179381 0.616749
O O6 0.412149 0.314305 0.917230
O O7 0.333701 0.179177 0.030511
O O8 0.947912 0.756181 0.227444
O O9 0.000000 0.899620 0.000000
O O10 0.830527 0.500000 0.154855
O O11 0.865525 0.371563 0.356134
O O12 0.479993 0.081108 0.201854
#
# Coordination Sequence:
#
# PCOD9210175 Si02
#       6
#     8   8   8   8   2   8
#     4  10  23  41  64  90 124 163 210 268 318 365
#     4  10  23  40  65  91 122 166 209 259 307 375
#     4  10  22  43  60  88 122 162 205 259 318 373
#     4  10  21  39  60  94 130 166 208 253 309 370
#     4  12  20  40  62  96 136 168 202 242 304 376
#     4  10  22  38  61  91 129 165 204 248 298 372
#
# _framework density 21.413468000000002
#
# number of rings (size 3 to 8) (size 9 to 14) (size 15 to 20)
#    0.000    1.905    1.905    0.571    1.333   12.571 
#    0.000    8.571    0.000    0.000    0.000    0.000 
#    0.000    0.000    0.000    0.000    0.000    0.000 
#
# Total GULP energy -117023.289859 kJ/mol
# GULP energy per Si atom -5572.537612 kJ/mol
# Density = 2.136473 g / cm^3
# Si number density = 21.413468 Si / 1000 Ang^3
#
#
#
# Elastic Constant Matrix: (Units=GPa)
#
#
# Indices 1 2 3 4 5 6 
#
# 1 80.9584 26.4634 40.9007 0.0000 -10.9070 0.0000
# 2 26.4634 117.3500 24.5782 0.0000 -3.7455 0.0000
# 3 40.9007 24.5782 88.1369 0.0000 -5.8925 0.0000
# 4 0.0000 0.0000 0.0000 60.8713 0.0000 19.9618
# 5 -10.9070 -3.7455 -5.8925 0.0000 26.6738 0.0000
# 6 0.0000 0.0000 0.0000 19.9618 0.0000 39.6979
#
#
#
# Elastic Compliance Matrix: (Units=1/GPa)
#
#
# Indices 1 2 3 4 5 6 
#
# 1 0.017374 -0.002268 -0.007081 0.000000 0.005222 0.000000
# 2 -0.002268 0.009360 -0.001555 0.000000 0.000043 0.000000
# 3 -0.007081 -0.001555 0.015080 0.000000 0.000218 0.000000
# 4 0.000000 0.000000 0.000000 0.019672 0.000000 -0.009892
# 5 0.005222 0.000043 0.000218 0.000000 0.039679 0.000000
# 6 0.000000 0.000000 0.000000 -0.009892 0.000000 0.030164
#
#
# Mechanical properties :
#
#
# Convention : Reuss Voigt Hill
#
# Bulk Modulus (GPa) = 49.98395 52.25889 51.12142
# Shear Modulus (GPa) = 31.28773 38.41546 34.85159
#
# Velocity S-wave (km/s) = 3.82661 4.24014 4.03867
# Velocity P-wave (km/s) = 6.55110 6.95912 6.75819
#
# Compressibility (1/GPa) = 0.02000642
#
# Stress axis : x y z
#
# Youngs Moduli (GPa) = 57.55605 106.83714 66.31257
#
# Poissons Ratio (x) = 0.24234 0.46956
# Poissons Ratio (y) = 0.13056 0.10309
# Poissons Ratio (z) = 0.40756 0.16609
#
# Static dielectric constant tensor:
#      x y z
#    x 1.835990 0.000000 -0.022610 
#    y 0.000000 1.762150 0.000000 
#    z -0.022610 0.000000 1.775600 
# 
# From -- ./inp_files/24335.got.cif
#   From: 2010.05.17/outbox.cif.g08.bks.cpg/sg12_13_cif.got.tgz:24335.got - 2010.06.03 13:09:07.
