data_PCOD9210391
_publ_section_title
;
Structure prediction by ZEFSAII (Michael W. Deem and Ramdas Pophale) SiO2 
 PCOD9210391
Probable space group: C 2/M
;
_chemical_formula_sum "Si O2"
_cell_formula_units_Z 48
_cell_length_a 29.980159
_cell_length_b 8.409013
_cell_length_c 8.528717
_cell_angle_alpha 90.000000
_cell_angle_beta 89.633702
_cell_angle_gamma 90.000000
_cell_volume 2150.075866
_symmetry_space_group_name_H-M "C 2/M"
_symmetry_group_IT_number 12
_symmetry_cell_setting 'monoclinic'
loop_
_space_group_symop_operation_xyz
x,y,z
-x,y,-z
-x,-y,-z
x,-y,z
1/2+x,1/2+y,z
1/2-x,1/2+y,-z
1/2-x,1/2-y,-z
1/2+x,1/2-y,z
loop_
_atom_site_type_symbol
_atom_site_label
_atom_site_fract_x
_atom_site_fract_y
_atom_site_fract_z
Si Si1 0.150004 0.811823 0.649159
Si Si2 0.691030 0.188603 0.330140
Si Si3 0.103654 0.688110 0.158471
Si Si4 0.478359 0.308911 0.668788
Si Si5 0.227397 0.685993 0.842492
Si Si6 0.565122 0.308911 0.833944
O O1 0.170364 0.722135 0.500331
O O2 0.100920 0.756776 0.702218
O O3 0.148729 0.000000 0.614925
O O4 0.183024 0.778617 0.793794
O O5 0.653004 0.241003 0.207007
O O6 0.736064 0.282780 0.293974
O O7 0.699610 0.000000 0.311792
O O8 0.105675 0.500000 0.137908
O O9 0.068844 0.730527 0.296329
O O10 0.083882 0.762244 0.001675
O O11 0.500000 0.275852 0.500000
O O12 0.472376 0.500000 0.680964
O O13 0.515321 0.254195 0.794699
O O14 0.217337 0.500000 0.858168
O O15 0.250000 0.750000 0.000000
O O16 0.563778 0.500000 0.826134
#
# Coordination Sequence:
#
# PCOD9210391 Si02
#       6
#     8   8   8   8   8   8
#     4  11  23  41  65  92 121 157 201 248 301 356
#     4  11  24  42  62  88 122 160 202 247 300 359
#     4  11  24  39  59  88 121 157 197 245 299 352
#     4  10  21  39  62  87 117 155 199 245 294 353
#     4  12  25  42  64  91 123 159 201 248 299 356
#     4  10  22  39  61  88 118 156 200 244 294 356
#
# _framework density 22.324793
#
# number of rings (size 3 to 8) (size 9 to 14) (size 15 to 20)
#    0.000    1.167    0.000    6.000    0.000   11.000 
#    0.000    0.000    0.000    0.000    0.000    0.000 
#    0.000    0.000    0.000    0.000    0.000    0.000 
#
# Total GULP energy -134381.138212 kJ/mol
# GULP energy per Si atom -5599.214092 kJ/mol
# Density = 2.227398 g / cm^3
# Si number density = 22.324793 Si / 1000 Ang^3
#
#
#
# Elastic Constant Matrix: (Units=GPa)
#
#
# Indices 1 2 3 4 5 6 
#
# 1 80.5841 3.1937 -17.5249 0.0000 0.5603 0.0000
# 2 3.1937 18.1619 -10.2118 0.0000 -0.9839 0.0000
# 3 -17.5249 -10.2118 51.2328 0.0000 4.1045 0.0000
# 4 0.0000 0.0000 0.0000 27.1679 0.0000 -0.1847
# 5 0.5603 -0.9839 4.1045 0.0000 39.0261 0.0000
# 6 0.0000 0.0000 0.0000 -0.1847 0.0000 25.5934
#
#
#
# Elastic Compliance Matrix: (Units=1/GPa)
#
#
# Indices 1 2 3 4 5 6 
#
# 1 0.013426 0.000242 0.004695 0.000000 -0.000680 0.000000
# 2 0.000242 0.062017 0.012424 0.000000 0.000253 0.000000
# 3 0.004695 0.012424 0.023782 0.000000 -0.002255 0.000000
# 4 0.000000 0.000000 0.000000 0.036810 0.000000 0.000266
# 5 -0.000680 0.000253 -0.002255 0.000000 0.025877 0.000000
# 6 0.000000 0.000000 0.000000 0.000266 0.000000 0.039075
#
#
# Mechanical properties :
#
#
# Convention : Reuss Voigt Hill
#
# Bulk Modulus (GPa) = 7.46560 11.21029 9.33794
# Shear Modulus (GPa) = 23.70650 29.99227 26.84939
#
# Velocity S-wave (km/s) = 3.26220 3.66929 3.47172
# Velocity P-wave (km/s) = 4.18815 4.79415 4.50136
#
# Compressibility (1/GPa) = 0.13394769
#
# Stress axis : x y z
#
# Youngs Moduli (GPa) = 74.48446 16.12457 42.04883
#
# Poissons Ratio (x) = -0.00391 -0.19743
# Poissons Ratio (y) = -0.01805 -0.52241
# Poissons Ratio (z) = -0.34972 -0.20033
#
# Static dielectric constant tensor:
#      x y z
#    x 1.814800 0.000000 0.011340 
#    y 0.000000 1.761560 0.000000 
#    z 0.011340 0.000000 1.854500 
# 
# From -- ./inp_files/108774.got.cif
#   From: 2010.05.17/outbox.cif.g08.bks.cpg/sg12_55_cif.got.tgz:108774.got - 2010.06.03 13:09:07.
