data_PCOD9210334
_publ_section_title
;
Structure prediction by ZEFSAII (Michael W. Deem and Ramdas Pophale) SiO2 
 PCOD9210334
Probable space group: C 2/M
;
_chemical_formula_sum "Si O2"
_cell_formula_units_Z 58
_cell_length_a 21.153206
_cell_length_b 12.612793
_cell_length_c 16.931347
_cell_angle_alpha 90.000000
_cell_angle_beta 145.843606
_cell_angle_gamma 90.000000
_cell_volume 2536.255282
_symmetry_space_group_name_H-M "C 2/M"
_symmetry_group_IT_number 12
_symmetry_cell_setting 'monoclinic'
loop_
_space_group_symop_operation_xyz
x,y,z
-x,y,-z
-x,-y,-z
x,-y,z
1/2+x,1/2+y,z
1/2-x,1/2+y,-z
1/2-x,1/2-y,-z
1/2+x,1/2-y,z
loop_
_atom_site_type_symbol
_atom_site_label
_atom_site_fract_x
_atom_site_fract_y
_atom_site_fract_z
Si Si1 0.839766 0.156959 0.422620
Si Si2 0.624311 0.620365 0.914826
Si Si3 0.865496 0.292655 0.200669
Si Si4 0.500000 0.500000 0.500000
Si Si5 0.269342 0.882018 0.845573
Si Si6 0.167748 0.380614 0.363173
Si Si7 0.012967 0.741759 0.919592
Si Si8 0.399088 0.882625 0.523353
O O1 0.947276 0.092220 0.504432
O O2 0.743897 0.119803 0.262101
O O3 0.795410 0.130791 0.463998
O O4 0.854542 0.282339 0.429811
O O5 0.599889 0.500000 0.867172
O O6 0.586088 0.713000 0.815800
O O7 0.566799 0.652690 0.937715
O O8 0.759556 0.639467 0.059827
O O9 0.811998 0.209169 0.206505
O O10 0.966441 0.365289 0.333567
O O11 0.234258 0.000000 0.835481
O O12 0.393904 0.850455 0.998889
O O13 0.129333 0.500000 0.302343
O O14 0.149438 0.372118 0.437689
O O15 0.096745 0.293871 0.241556
O O16 0.000000 0.751486 0.000000
O O17 0.371736 0.000000 0.465114
#
# Coordination Sequence:
#
# PCOD9210334 Si02
#       8
#     8   8   8   2   8   8   8   8
#     4  12  24  43  65  97 132 171 225 275 340 388
#     4  10  21  39  61  94 133 174 213 267 333 401
#     4  10  21  40  64  93 129 169 222 271 325 402
#     4  12  24  44  70  98 132 176 214 296 340 380
#     4  11  22  38  64  99 133 166 211 278 334 390
#     4  11  22  43  69  97 131 171 217 281 337 400
#     4  11  22  38  65  98 131 169 214 266 333 413
#     4  11  25  44  68  93 132 180 229 273 327 401
#
# _framework density 22.868359999999999
#
# number of rings (size 3 to 8) (size 9 to 14) (size 15 to 20)
#    0.000    1.103    4.138    2.483    0.000    0.828 
#    1.241    6.552    0.000    0.000    0.000    0.000 
#    0.000    0.000    0.000    0.000    0.000    0.000 
#
# Total GULP energy -161865.217636 kJ/mol
# GULP energy per Si atom -5581.559229 kJ/mol
# Density = 2.281631 g / cm^3
# Si number density = 22.868360 Si / 1000 Ang^3
#
#
#
# Elastic Constant Matrix: (Units=GPa)
#
#
# Indices 1 2 3 4 5 6 
#
# 1 116.2304 36.0689 -2.5637 0.0000 12.3672 0.0000
# 2 36.0689 158.1229 12.3148 0.0000 -0.9616 0.0000
# 3 -2.5637 12.3148 26.6422 0.0000 5.9204 0.0000
# 4 0.0000 0.0000 0.0000 23.7137 0.0000 -1.6363
# 5 12.3672 -0.9616 5.9204 0.0000 22.3957 0.0000
# 6 0.0000 0.0000 0.0000 -1.6363 0.0000 24.5289
#
#
#
# Elastic Compliance Matrix: (Units=1/GPa)
#
#
# Indices 1 2 3 4 5 6 
#
# 1 0.010230 -0.002664 0.003715 0.000000 -0.006745 0.000000
# 2 -0.002664 0.007282 -0.004270 0.000000 0.002912 0.000000
# 3 0.003715 -0.004270 0.042881 0.000000 -0.013570 0.000000
# 4 0.000000 0.000000 0.000000 0.042365 0.000000 0.002826
# 5 -0.006745 0.002912 -0.013570 0.000000 0.052089 0.000000
# 6 0.000000 0.000000 0.000000 0.002826 0.000000 0.040957
#
#
# Mechanical properties :
#
#
# Convention : Reuss Voigt Hill
#
# Bulk Modulus (GPa) = 18.53372 43.62618 31.07995
# Shear Modulus (GPa) = 22.70395 31.13936 26.92166
#
# Velocity S-wave (km/s) = 3.15431 3.69410 3.43482
# Velocity P-wave (km/s) = 4.62475 6.10849 5.41765
#
# Compressibility (1/GPa) = 0.05395571
#
# Stress axis : x y z
#
# Youngs Moduli (GPa) = 97.75255 137.32381 23.32031
#
# Poissons Ratio (x) = 0.36581 -0.08663
# Poissons Ratio (y) = 0.26040 0.09957
# Poissons Ratio (z) = -0.36312 0.58631
#
# Static dielectric constant tensor:
#      x y z
#    x 1.908290 0.000000 -0.001740 
#    y 0.000000 1.819040 0.000000 
#    z -0.001740 0.000000 1.881240 
# 
# From -- ./inp_files/283539.got.cif
#   From: 2010.05.17/outbox.cif.g08.bks.cpg/sg12_142_cif.got.tgz:283539.got - 2010.06.03 13:09:07.
