data_PCOD9210029
_publ_section_title
;
Structure prediction by ZEFSAII (Michael W. Deem and Ramdas Pophale) SiO2 
 PCOD9210029
Probable space group: C 2/M
;
_chemical_formula_sum "Si O2"
_cell_formula_units_Z 50
_cell_length_a 8.982379
_cell_length_b 13.804550
_cell_length_c 26.116224
_cell_angle_alpha 90.000000
_cell_angle_beta 46.363730
_cell_angle_gamma 90.000000
_cell_volume 2343.709012
_symmetry_space_group_name_H-M "C 2/M"
_symmetry_group_IT_number 12
_symmetry_cell_setting 'monoclinic'
loop_
_space_group_symop_operation_xyz
x,y,z
-x,y,-z
-x,-y,-z
x,-y,z
1/2+x,1/2+y,z
1/2-x,1/2+y,-z
1/2-x,1/2-y,-z
1/2+x,1/2-y,z
loop_
_atom_site_type_symbol
_atom_site_label
_atom_site_fract_x
_atom_site_fract_y
_atom_site_fract_z
Si Si1 0.630398 0.778094 0.157138
Si Si2 0.799933 0.297471 0.748823
Si Si3 0.496868 0.615400 0.337316
Si Si4 0.000000 0.500000 0.000000
Si Si5 0.886679 0.881677 0.475511
Si Si6 0.073307 0.675952 0.059184
Si Si7 0.937473 0.383804 0.610517
O O1 0.446544 0.698618 0.197525
O O2 0.619259 0.829797 0.215066
O O3 0.606991 0.841555 0.111792
O O4 0.851266 0.726735 0.105322
O O5 0.908917 0.348283 0.675321
O O6 0.851716 0.183189 0.730293
O O7 0.529937 0.500000 0.323429
O O8 0.503314 0.643237 0.395632
O O9 0.266919 0.640098 0.372623
O O10 0.073923 0.583930 0.023177
O O11 0.649116 0.849917 0.534534
O O12 0.000000 0.849852 0.500000
O O13 0.884151 0.000000 0.476087
O O14 0.250000 0.750000 0.000000
O O15 0.947404 0.500000 0.609314
#
# Coordination Sequence:
#
# PCOD9210029 Si02
#       7
#     8   8   8   2   8   8   8
#     4  10  23  43  67  95 145 174 206 279 336 384
#     4  11  22  41  60  92 131 175 214 262 334 404
#     4  10  21  39  61  84 116 168 225 275 328 400
#     4  12  24  44  86 110 132 192 230 268 348 402
#     4   9  19  34  57  86 118 154 212 292 347 378
#     4  11  22  48  76 106 142 177 224 284 326 398
#     4  10  21  39  59  83 117 165 220 270 333 398
#
# _framework density 21.333708000000001
#
# number of rings (size 3 to 8) (size 9 to 14) (size 15 to 20)
#    0.000    1.760    3.200    0.480    2.240    2.560 
#    8.640    1.600    0.000    0.000    0.000    0.000 
#    0.000    0.000    0.000    0.000    0.000    0.000 
#
# Total GULP energy -139449.784603 kJ/mol
# GULP energy per Si atom -5577.991384 kJ/mol
# Density = 2.128515 g / cm^3
# Si number density = 21.333708 Si / 1000 Ang^3
#
#
#
# Elastic Constant Matrix: (Units=GPa)
#
#
# Indices 1 2 3 4 5 6 
#
# 1 127.1053 31.1983 47.1830 0.0000 27.6265 0.0000
# 2 31.1983 63.6593 27.0755 0.0001 3.9098 0.0000
# 3 47.1830 27.0755 95.2466 0.0001 14.1723 -0.0001
# 4 0.0000 0.0001 0.0001 8.3319 -0.0001 16.8784
# 5 27.6265 3.9098 14.1723 -0.0001 54.4453 0.0000
# 6 0.0000 0.0000 -0.0001 16.8784 0.0000 23.6970
#
#
#
# Elastic Compliance Matrix: (Units=1/GPa)
#
#
# Indices 1 2 3 4 5 6 
#
# 1 0.011119 -0.003543 -0.003848 0.000000 -0.004386 0.000000
# 2 -0.003543 0.018998 -0.003859 0.000000 0.001438 0.000000
# 3 -0.003848 -0.003859 0.013701 0.000001 -0.001337 0.000000
# 4 0.000000 0.000000 0.000001 -0.271006 -0.000001 0.193027
# 5 -0.004386 0.001438 -0.001337 -0.000001 0.020837 0.000000
# 6 0.000000 0.000000 0.000000 0.193027 0.000000 -0.095286
#
#
# Mechanical properties :
#
#
# Convention : Reuss Voigt Hill
#
# Bulk Modulus (GPa) = 46.91099 55.21389 51.06244
# Shear Modulus (GPa) = -18.38037 29.33180 5.47572
#
# Velocity S-wave (km/s) = -2.93843 3.71199 1.60383
# Velocity P-wave (km/s) = 3.24413 6.65651 5.23610
#
# Compressibility (1/GPa) = 0.02131697
#
# Stress axis : x y z
#
# Youngs Moduli (GPa) = 89.93657 52.63666 72.98520
#
# Poissons Ratio (x) = 0.18650 0.28087
# Poissons Ratio (y) = 0.31865 0.28168
# Poissons Ratio (z) = 0.34610 0.20315
#
# Static dielectric constant tensor:
#      x y z
#    x 1.781880 0.000000 0.006770 
#    y 0.000000 1.756460 0.000000 
#    z 0.006770 0.000000 1.783130 
# 
# From -- ./inp_files/356109.got.cif
#   From: 2010.05.17/outbox.cif.g08.bks.cpg/sg12_179_cif.got.tgz:356109.got - 2010.06.03 13:09:07.
