data_PCOD9210336
_publ_section_title
;
Structure prediction by ZEFSAII (Michael W. Deem and Ramdas Pophale) SiO2 
 PCOD9210336
Probable space group: C 2/M
;
_chemical_formula_sum "Si O2"
_cell_formula_units_Z 52
_cell_length_a 27.225326
_cell_length_b 18.621694
_cell_length_c 5.592655
_cell_angle_alpha 90.000000
_cell_angle_beta 52.312920
_cell_angle_gamma 90.000000
_cell_volume 2243.805315
_symmetry_space_group_name_H-M "C 2/M"
_symmetry_group_IT_number 12
_symmetry_cell_setting 'monoclinic'
loop_
_space_group_symop_operation_xyz
x,y,z
-x,y,-z
-x,-y,-z
x,-y,z
1/2+x,1/2+y,z
1/2-x,1/2+y,-z
1/2-x,1/2-y,-z
1/2+x,1/2-y,z
loop_
_atom_site_type_symbol
_atom_site_label
_atom_site_fract_x
_atom_site_fract_y
_atom_site_fract_z
Si Si1 0.962116 0.695145 0.361539
Si Si2 0.189860 0.197315 0.938956
Si Si3 0.803113 0.347007 0.268964
Si Si4 0.258154 0.576737 0.928093
Si Si5 0.568899 0.347843 0.403711
Si Si6 0.460968 0.500000 0.363194
Si Si7 0.875190 0.581245 0.422825
O O1 0.928676 0.773496 0.455389
O O2 0.916791 0.626878 0.478492
O O3 0.000000 0.692401 0.500000
O O4 0.000000 0.691630 0.000000
O O5 0.184439 0.283034 0.956572
O O6 0.250758 0.182713 0.602779
O O7 0.202779 0.148348 0.133066
O O8 0.124393 0.163984 0.047391
O O9 0.769764 0.414747 0.250912
O O10 0.865468 0.371559 0.213403
O O11 0.289874 0.500000 0.871007
O O12 0.195324 0.576539 0.271581
O O13 0.500000 0.348263 0.500000
O O14 0.574735 0.423931 0.519091
O O15 0.500000 0.500000 0.500000
O O16 0.500000 0.500000 0.000000
O O17 0.897762 0.500000 0.316524
#
# Coordination Sequence:
#
# PCOD9210336 Si02
#       7
#     8   8   8   8   8   4   8
#     4  11  26  45  69 102 140 182 235 287 344 417
#     4  10  22  39  63  98 134 170 239 286 353 422
#     4  10  21  40  67  96 131 182 226 292 350 426
#     4  10  21  39  61  95 133 174 223 284 354 413
#     4  10  23  43  67  96 136 185 233 294 352 428
#     4  10  22  46  68  96 136 182 234 290 351 415
#     4  10  23  41  68  97 137 179 226 283 346 421
#
# _framework density 23.174918000000002
#
# number of rings (size 3 to 8) (size 9 to 14) (size 15 to 20)
#    0.000    1.846    0.000    2.308    7.538    3.692 
#    5.538    0.000    0.000    0.000    0.000    0.000 
#    0.000    0.000    0.000    0.000    0.000    0.000 
#
# Total GULP energy -144878.071141 kJ/mol
# GULP energy per Si atom -5572.233505 kJ/mol
# Density = 2.312217 g / cm^3
# Si number density = 23.174918 Si / 1000 Ang^3
#
#
#
# Elastic Constant Matrix: (Units=GPa)
#
#
# Indices 1 2 3 4 5 6 
#
# 1 95.3627 70.8125 27.0091 0.0000 4.1717 0.0000
# 2 70.8125 216.5363 42.5154 0.0000 -9.8092 0.0000
# 3 27.0091 42.5154 42.7534 0.0000 3.6333 0.0000
# 4 0.0000 0.0000 0.0000 24.9807 0.0000 -10.1493
# 5 4.1717 -9.8092 3.6333 0.0000 26.9687 0.0000
# 6 0.0000 0.0000 0.0000 -10.1493 0.0000 32.6358
#
#
#
# Elastic Compliance Matrix: (Units=1/GPa)
#
#
# Indices 1 2 3 4 5 6 
#
# 1 0.015121 -0.004053 -0.005258 0.000000 -0.003105 0.000000
# 2 -0.004053 0.007057 -0.004783 0.000000 0.003838 0.000000
# 3 -0.005258 -0.004783 0.031912 0.000000 -0.005226 0.000000
# 4 0.000000 0.000000 0.000000 0.045820 0.000000 0.014249
# 5 -0.003105 0.003838 -0.005226 0.000000 0.039660 0.000000
# 6 0.000000 0.000000 0.000000 0.014249 0.000000 0.035073
#
#
# Mechanical properties :
#
#
# Convention : Reuss Voigt Hill
#
# Bulk Modulus (GPa) = 38.60804 70.59180 54.59992
# Shear Modulus (GPa) = 23.64458 31.20475 27.42467
#
# Velocity S-wave (km/s) = 3.19763 3.67343 3.44376
# Velocity P-wave (km/s) = 5.50715 6.96554 6.27883
#
# Compressibility (1/GPa) = 0.02590134
#
# Stress axis : x y z
#
# Youngs Moduli (GPa) = 66.13280 141.71100 31.33609
#
# Poissons Ratio (x) = 0.57439 0.16477
# Poissons Ratio (y) = 0.26805 0.14988
# Poissons Ratio (z) = 0.34773 0.67779
#
# Static dielectric constant tensor:
#      x y z
#    x 1.940700 0.000000 -0.010850 
#    y 0.000000 1.906790 0.000000 
#    z -0.010850 0.000000 1.956040 
# 
# From -- ./inp_files/29286.got.cif
#   From: 2010.05.17/outbox.cif.g08.bks.cpg/sg12_15_cif.got.tgz:29286.got - 2010.06.03 13:09:07.
