data_PCOD9210851
_publ_section_title
;
Structure prediction by ZEFSAII (Michael W. Deem and Ramdas Pophale) SiO2 
 PCOD9210851
Probable space group: C 2/M
;
_chemical_formula_sum "Si O2"
_cell_formula_units_Z 56
_cell_length_a 22.717155
_cell_length_b 13.795814
_cell_length_c 19.224386
_cell_angle_alpha 90.000000
_cell_angle_beta 153.909741
_cell_angle_gamma 90.000000
_cell_volume 2649.693444
_symmetry_space_group_name_H-M "C 2/M"
_symmetry_group_IT_number 12
_symmetry_cell_setting 'monoclinic'
loop_
_space_group_symop_operation_xyz
x,y,z
-x,y,-z
-x,-y,-z
x,-y,z
1/2+x,1/2+y,z
1/2-x,1/2+y,-z
1/2-x,1/2-y,-z
1/2+x,1/2-y,z
loop_
_atom_site_type_symbol
_atom_site_label
_atom_site_fract_x
_atom_site_fract_y
_atom_site_fract_z
Si Si1 0.625770 0.725514 0.043163
Si Si2 0.905552 0.883509 0.465246
Si Si3 0.543591 0.383380 0.329762
Si Si4 0.690045 0.725118 0.268994
Si Si5 0.697209 0.882515 0.479617
Si Si6 0.081209 0.384886 0.892420
Si Si7 0.276056 0.615693 0.973516
O O1 0.669723 0.696406 0.166998
O O2 0.463198 0.712772 0.866564
O O3 0.629553 0.833535 0.014326
O O4 0.729716 0.666838 0.105835
O O5 0.983435 0.859245 0.619168
O O6 0.764925 0.828695 0.333048
O O7 0.000000 0.854953 0.500000
O O8 0.883591 0.000000 0.436868
O O9 0.547821 0.500000 0.332477
O O10 0.681821 0.351466 0.442628
O O11 0.422711 0.353121 0.153918
O O12 0.780527 0.666991 0.421202
O O13 0.564298 0.860821 0.294079
O O14 0.700823 0.000000 0.493402
O O15 0.085368 0.500000 0.907819
O O16 0.178156 0.358996 0.931619
O O17 0.269782 0.500000 0.958366
#
# Coordination Sequence:
#
# PCOD9210851 Si02
#       7
#     8   8   8   8   8   8   8
#     4  11  24  40  60  92 126 165 207 252 313 378
#     4  10  23  40  60  89 125 164 207 256 310 367
#     4   9  18  35  63  90 113 154 208 251 299 361
#     4  11  25  39  60  92 126 166 209 252 312 375
#     4  10  21  41  66  94 123 161 212 262 309 368
#     4  10  23  40  64  92 123 162 209 260 314 370
#     4  10  21  39  64  92 120 157 206 259 311 369
#
# _framework density 21.134519000000001
#
# number of rings (size 3 to 8) (size 9 to 14) (size 15 to 20)
#    0.000    1.857    1.429    1.286    4.000    5.143 
#    0.000    2.857    0.000    3.000    0.000    0.000 
#    0.000    0.000    0.000    0.000    0.000    0.000 
#
# Total GULP energy -155948.353923 kJ/mol
# GULP energy per Si atom -5569.584069 kJ/mol
# Density = 2.108642 g / cm^3
# Si number density = 21.134519 Si / 1000 Ang^3
#
#
#
# Elastic Constant Matrix: (Units=GPa)
#
#
# Indices 1 2 3 4 5 6 
#
# 1 119.1372 27.0116 26.7692 -0.0001 -13.9837 -0.0001
# 2 27.0116 71.9149 3.3869 -0.0001 -4.3928 -0.0001
# 3 26.7692 3.3869 27.0744 -0.0001 -2.0470 -0.0001
# 4 -0.0001 -0.0001 -0.0001 17.2616 -0.0001 10.2581
# 5 -13.9837 -4.3928 -2.0470 -0.0001 38.5249 -0.0001
# 6 -0.0001 -0.0001 -0.0001 10.2581 -0.0001 19.3005
#
#
#
# Elastic Compliance Matrix: (Units=1/GPa)
#
#
# Indices 1 2 3 4 5 6 
#
# 1 0.012211 -0.003845 -0.011335 0.000000 0.003391 0.000000
# 2 -0.003845 0.015287 0.001924 0.000000 0.000449 0.000000
# 3 -0.011335 0.001924 0.047800 0.000000 -0.001355 0.000000
# 4 0.000000 0.000000 0.000000 0.084677 0.000000 -0.045005
# 5 0.003391 0.000449 -0.001355 0.000000 0.027167 0.000000
# 6 0.000000 0.000000 0.000000 -0.045005 0.000000 0.075732
#
#
# Mechanical properties :
#
#
# Convention : Reuss Voigt Hill
#
# Bulk Modulus (GPa) = 20.49908 36.94020 28.71964
# Shear Modulus (GPa) = 16.35865 25.74799 21.05332
#
# Velocity S-wave (km/s) = 2.78515 3.49419 3.15962
# Velocity P-wave (km/s) = 4.47919 5.81341 5.18936
#
# Compressibility (1/GPa) = 0.04878267
#
# Stress axis : x y z
#
# Youngs Moduli (GPa) = 81.89614 65.41717 20.92057
#
# Poissons Ratio (x) = 0.25155 0.23714
# Poissons Ratio (y) = 0.31492 -0.04024
# Poissons Ratio (z) = 0.92833 -0.12584
#
# Static dielectric constant tensor:
#      x y z
#    x 1.842290 0.000000 -0.023750 
#    y 0.000000 1.801590 0.000000 
#    z -0.023750 0.000000 1.812180 
# 
# From -- ./inp_files/284485.got.cif
#   From: 2010.05.17/outbox.cif.g08.bks.cpg/sg12_143_cif.got.tgz:284485.got - 2010.06.03 13:09:07.
