data_PCOD9210586
_publ_section_title
;
Structure prediction by ZEFSAII (Michael W. Deem and Ramdas Pophale) SiO2 
 PCOD9210586
Probable space group: C 2/M
;
_chemical_formula_sum "Si O2"
_cell_formula_units_Z 58
_cell_length_a 25.769222
_cell_length_b 9.496403
_cell_length_c 12.101523
_cell_angle_alpha 90.000000
_cell_angle_beta 93.243893
_cell_angle_gamma 90.000000
_cell_volume 2956.678132
_symmetry_space_group_name_H-M "C 2/M"
_symmetry_group_IT_number 12
_symmetry_cell_setting 'monoclinic'
loop_
_space_group_symop_operation_xyz
x,y,z
-x,y,-z
-x,-y,-z
x,-y,z
1/2+x,1/2+y,z
1/2-x,1/2+y,-z
1/2-x,1/2-y,-z
1/2+x,1/2-y,z
loop_
_atom_site_type_symbol
_atom_site_label
_atom_site_fract_x
_atom_site_fract_y
_atom_site_fract_z
Si Si1 0.809001 0.169705 0.251731
Si Si2 0.807516 0.669981 0.793999
Si Si3 0.345353 0.168851 0.036743
Si Si4 0.114470 0.660034 0.588092
Si Si5 0.500000 0.500000 0.500000
Si Si6 0.020001 0.772967 0.696235
Si Si7 0.405973 0.168801 0.668552
Si Si8 0.554273 0.341530 0.944014
O O1 0.748425 0.207911 0.261508
O O2 0.826151 0.244959 0.140366
O O3 0.845434 0.233372 0.350822
O O4 0.814182 0.000000 0.244822
O O5 0.810275 0.500000 0.789268
O O6 0.857512 0.725104 0.733710
O O7 0.812135 0.705256 0.923848
O O8 0.403678 0.223730 0.021209
O O9 0.344083 0.000000 0.054867
O O10 0.135075 0.500000 0.589143
O O11 0.102001 0.704639 0.461329
O O12 0.061783 0.662860 0.653749
O O13 0.513296 0.380443 0.595324
O O14 0.962250 0.718342 0.714441
O O15 0.043543 0.833769 0.811728
O O16 0.405727 0.000000 0.675197
O O17 0.573325 0.500000 0.973522
O O18 0.500000 0.319815 0.000000
#
# Coordination Sequence:
#
# PCOD9210586 Si02
#       8
#     8   8   8   8   2   8   8   8
#     4  11  23  39  64  88 120 162 203 250 307 361
#     4   9  21  41  62  89 119 156 200 250 308 363
#     4  11  22  39  64  89 119 156 205 255 299 360
#     4  11  23  38  62  93 123 157 205 253 300 359
#     4  12  24  36  60  92 120 172 206 242 300 366
#     4  12  22  38  62  85 126 159 204 247 299 363
#     4  10  21  39  63  88 120 156 198 251 305 359
#     4  11  24  39  58  89 127 164 198 244 304 362
#
# _framework density 19.616609
#
# number of rings (size 3 to 8) (size 9 to 14) (size 15 to 20)
#    0.000    1.241    3.448    2.483    0.966    2.483 
#    0.000    2.069    3.034    0.000    0.000    0.000 
#    0.000    0.000    0.000    0.000    0.000    0.000 
#
# Total GULP energy -161668.585202 kJ/mol
# GULP energy per Si atom -5574.778800 kJ/mol
# Density = 1.957196 g / cm^3
# Si number density = 19.616609 Si / 1000 Ang^3
#
#
#
# Elastic Constant Matrix: (Units=GPa)
#
#
# Indices 1 2 3 4 5 6 
#
# 1 97.9266 27.3416 1.0009 0.0000 11.6595 0.0000
# 2 27.3416 64.6731 17.9870 0.0000 11.3306 0.0000
# 3 1.0009 17.9870 25.6032 0.0000 2.9428 0.0000
# 4 0.0000 0.0000 0.0000 12.5330 0.0000 -27.2178
# 5 11.6595 11.3306 2.9428 0.0000 23.2004 0.0000
# 6 0.0000 0.0000 0.0000 -27.2178 0.0000 -133.0195
#
#
#
# Elastic Compliance Matrix: (Units=1/GPa)
#
#
# Indices 1 2 3 4 5 6 
#
# 1 0.012185 -0.005542 0.003866 0.000000 -0.003907 0.000000
# 2 -0.005542 0.023232 -0.015344 0.000000 -0.006614 0.000000
# 3 0.003866 -0.015344 0.049774 0.000000 -0.000763 0.000000
# 4 0.000000 0.000000 0.000000 0.055242 0.000000 -0.011303
# 5 -0.003907 -0.006614 -0.000763 0.000000 0.048393 0.000000
# 6 0.000000 0.000000 0.000000 -0.011303 0.000000 -0.005205
#
#
# Mechanical properties :
#
#
# Convention : Reuss Voigt Hill
#
# Bulk Modulus (GPa) = 19.55013 31.20689 25.37851
# Shear Modulus (GPa) = 21.30279 -9.99900 5.65189
#
# Velocity S-wave (km/s) = 3.29896 -2.26015 1.69924
# Velocity P-wave (km/s) = 4.94961 3.02190 4.10064
#
# Compressibility (1/GPa) = 0.05115055
#
# Stress axis : x y z
#
# Youngs Moduli (GPa) = 82.06939 43.04448 20.09084
#
# Poissons Ratio (x) = 0.23856 -0.07768
# Poissons Ratio (y) = 0.45483 0.30828
# Poissons Ratio (z) = -0.31730 0.66048
#
# Static dielectric constant tensor:
#      x y z
#    x 1.709110 0.000000 -0.017510 
#    y 0.000000 1.668650 0.000000 
#    z -0.017510 0.000000 1.670380 
# 
# From -- ./inp_files/180914.got.cif
#   From: 2010.05.17/outbox.cif.g08.bks.cpg/sg12_91_cif.got.tgz:180914.got - 2010.06.03 13:09:07.
