data_PCOD9210841
_publ_section_title
;
Structure prediction by ZEFSAII (Michael W. Deem and Ramdas Pophale) SiO2 
 PCOD9210841
Probable space group: C 2/M
;
_chemical_formula_sum "Si O2"
_cell_formula_units_Z 40
_cell_length_a 28.180126
_cell_length_b 14.694994
_cell_length_c 7.895990
_cell_angle_alpha 90.000000
_cell_angle_beta 145.435619
_cell_angle_gamma 90.000000
_cell_volume 1855.052266
_symmetry_space_group_name_H-M "C 2/M"
_symmetry_group_IT_number 12
_symmetry_cell_setting 'monoclinic'
loop_
_space_group_symop_operation_xyz
x,y,z
-x,y,-z
-x,-y,-z
x,-y,z
1/2+x,1/2+y,z
1/2-x,1/2+y,-z
1/2-x,1/2-y,-z
1/2+x,1/2-y,z
loop_
_atom_site_type_symbol
_atom_site_label
_atom_site_fract_x
_atom_site_fract_y
_atom_site_fract_z
Si Si1 0.579913 0.099332 0.856439
Si Si2 0.201376 0.602478 0.901530
Si Si3 0.136868 0.792320 0.701473
Si Si4 0.158535 0.772020 0.166717
Si Si5 0.522519 0.398231 0.869459
O O1 0.500000 0.115549 0.500000
O O2 0.659160 0.094975 0.962121
O O3 0.568457 0.000000 0.903283
O O4 0.599425 0.184650 0.029893
O O5 0.195641 0.500000 0.809839
O O6 0.152249 0.689635 0.676752
O O7 0.296490 0.638208 0.184873
O O8 0.044483 0.831013 0.411958
O O9 0.158005 0.787473 0.962990
O O10 0.250000 0.750000 0.500000
O O11 0.115012 0.859156 0.119444
O O12 0.515083 0.500000 0.777122
O O13 0.500000 0.400402 0.000000
#
# Coordination Sequence:
#
# PCOD9210841 Si02
#       5
#     8   8   8   8   8
#     4   9  18  36  61  86 116 161 208 251 308 375
#     4   9  18  32  61  93 121 159 211 262 317 377
#     4  10  21  39  64  91 125 172 212 265 319 379
#     4  11  24  40  62  94 128 164 205 262 316 379
#     4  11  26  44  67  93 126 171 218 267 324 388
#
# _framework density 21.562735
#
# number of rings (size 3 to 8) (size 9 to 14) (size 15 to 20)
#    0.000    2.000    0.000    3.600    8.400    3.200 
#    0.000    0.000    0.000    1.200    0.000    0.000 
#    0.000    0.000    0.000    0.000    0.000    0.000 
#
# Total GULP energy -111597.768469 kJ/mol
# GULP energy per Si atom -5579.888423 kJ/mol
# Density = 2.151366 g / cm^3
# Si number density = 21.562735 Si / 1000 Ang^3
#
#
#
# Elastic Constant Matrix: (Units=GPa)
#
#
# Indices 1 2 3 4 5 6 
#
# 1 48.3821 15.4575 19.1278 0.0000 12.3274 0.0000
# 2 15.4575 176.8124 54.0883 0.0000 14.5497 0.0000
# 3 19.1278 54.0883 115.9647 0.0000 11.3822 0.0000
# 4 0.0000 0.0000 0.0000 -24.8757 0.0000 -12.0624
# 5 12.3274 14.5497 11.3822 0.0000 29.1029 0.0000
# 6 0.0000 0.0000 0.0000 -12.0624 0.0000 14.0816
#
#
#
# Elastic Compliance Matrix: (Units=1/GPa)
#
#
# Indices 1 2 3 4 5 6 
#
# 1 0.024236 -0.000503 -0.002891 0.000000 -0.008884 0.000000
# 2 -0.000503 0.006743 -0.002862 0.000000 -0.002039 0.000000
# 3 -0.002891 -0.002862 0.010581 0.000000 -0.001483 0.000000
# 4 0.000000 0.000000 0.000000 -0.028402 0.000000 -0.024330
# 5 -0.008884 -0.002039 -0.001483 0.000000 0.039723 0.000000
# 6 0.000000 0.000000 0.000000 -0.024330 0.000000 0.050174
#
#
# Mechanical properties :
#
#
# Convention : Reuss Voigt Hill
#
# Bulk Modulus (GPa) = 34.42691 57.61182 46.01937
# Shear Modulus (GPa) = 39.92068 20.49413 30.20741
#
# Velocity S-wave (km/s) = 4.30743 3.08627 3.74693
# Velocity P-wave (km/s) = 6.38272 6.28302 6.33307
#
# Compressibility (1/GPa) = 0.02904705
#
# Stress axis : x y z
#
# Youngs Moduli (GPa) = 41.26100 148.30286 94.51312
#
# Poissons Ratio (x) = 0.07466 0.27322
# Poissons Ratio (y) = 0.02077 0.27049
# Poissons Ratio (z) = 0.11928 0.42443
#
# Static dielectric constant tensor:
#      x y z
#    x 1.805630 0.000000 0.015710 
#    y 0.000000 1.882330 0.000000 
#    z 0.015710 0.000000 1.774930 
# 
# From -- ./inp_files/111852.got.cif
#   From: 2010.05.17/outbox.cif.g08.bks.cpg/sg12_56_cif.got.tgz:111852.got - 2010.06.03 13:09:07.
