data_PCOD9210859
_publ_section_title
;
Structure prediction by ZEFSAII (Michael W. Deem and Ramdas Pophale) SiO2 
 PCOD9210859
Probable space group: C 2/M
;
_chemical_formula_sum "Si O2"
_cell_formula_units_Z 56
_cell_length_a 15.220419
_cell_length_b 22.090177
_cell_length_c 16.838705
_cell_angle_alpha 90.000000
_cell_angle_beta 27.180369
_cell_angle_gamma 90.000000
_cell_volume 2586.152245
_symmetry_space_group_name_H-M "C 2/M"
_symmetry_group_IT_number 12
_symmetry_cell_setting 'monoclinic'
loop_
_space_group_symop_operation_xyz
x,y,z
-x,y,-z
-x,-y,-z
x,-y,z
1/2+x,1/2+y,z
1/2-x,1/2+y,-z
1/2-x,1/2-y,-z
1/2+x,1/2-y,z
loop_
_atom_site_type_symbol
_atom_site_label
_atom_site_fract_x
_atom_site_fract_y
_atom_site_fract_z
Si Si1 0.339683 0.431019 0.196440
Si Si2 0.600668 0.430408 0.528613
Si Si3 0.872036 0.869813 0.331184
Si Si4 0.808345 0.612152 0.109586
Si Si5 0.570352 0.146856 0.303950
Si Si6 0.028229 0.429286 0.179211
Si Si7 0.677655 0.728072 0.143496
O O1 0.275565 0.500000 0.267295
O O2 0.428423 0.398240 0.201991
O O3 0.176204 0.389445 0.288331
O O4 0.500000 0.434996 0.000000
O O5 0.581006 0.500000 0.522127
O O6 0.626131 0.421258 0.602781
O O7 0.391559 0.400055 0.683177
O O8 0.810251 0.408458 0.329167
O O9 0.654073 0.848715 0.496761
O O10 0.995916 0.814749 0.267321
O O11 0.816957 0.682321 0.077800
O O12 0.000000 0.592498 0.000000
O O13 0.823049 0.578973 0.012348
O O14 0.587652 0.108806 0.208062
O O15 0.642252 0.213963 0.226414
O O16 0.014186 0.500000 0.211158
O O17 0.750000 0.750000 0.000000
#
# Coordination Sequence:
#
# PCOD9210859 Si02
#       7
#     8   8   8   8   8   8   8
#     4  11  24  39  62  98 134 166 207 264 325 384
#     4   9  20  38  62  90 124 162 204 254 309 376
#     4  10  22  39  63  91 125 165 211 258 313 376
#     4  11  24  40  61  91 121 161 205 259 313 368
#     4  11  22  41  63  90 124 166 214 256 314 375
#     4  10  21  39  64  92 123 162 204 252 313 377
#     4  11  22  41  65  87 120 164 209 258 308 374
#
# _framework density 21.653790999999998
#
# number of rings (size 3 to 8) (size 9 to 14) (size 15 to 20)
#    0.000    1.571    1.429    3.000    2.000    5.714 
#    0.000    1.429    0.000    0.000    0.000    0.000 
#    0.000    0.000    0.000    0.000    0.000    0.000 
#
# Total GULP energy -156341.395019 kJ/mol
# GULP energy per Si atom -5583.621251 kJ/mol
# Density = 2.160451 g / cm^3
# Si number density = 21.653791 Si / 1000 Ang^3
#
#
#
# Elastic Constant Matrix: (Units=GPa)
#
#
# Indices 1 2 3 4 5 6 
#
# 1 66.3255 15.8296 -7.4157 -0.0433 -8.5012 -0.1068
# 2 15.8296 100.8160 3.0494 -0.2137 -1.1167 -0.6606
# 3 -7.4157 3.0494 68.2499 -0.0692 -7.1849 0.0507
# 4 -0.0433 -0.2137 -0.0692 12.8628 -0.0190 -59.4694
# 5 -8.5012 -1.1167 -7.1849 -0.0190 29.8811 -0.0140
# 6 -0.1068 -0.6606 0.0507 -59.4694 -0.0140 -188.6114
#
#
#
# Elastic Compliance Matrix: (Units=1/GPa)
#
#
# Indices 1 2 3 4 5 6 
#
# 1 0.016653 -0.002632 0.002478 0.000014 0.005235 -0.000004
# 2 -0.002632 0.010350 -0.000807 -0.000001 -0.000556 -0.000034
# 3 0.002478 -0.000807 0.015419 0.000044 0.004382 -0.000009
# 4 0.000014 -0.000001 0.000044 0.031632 0.000030 -0.009974
# 5 0.005235 -0.000556 0.004382 0.000030 0.035988 -0.000012
# 6 -0.000004 -0.000034 -0.000009 -0.009974 -0.000012 -0.002157
#
#
# Mechanical properties :
#
#
# Convention : Reuss Voigt Hill
#
# Bulk Modulus (GPa) = 24.69043 28.70200 26.69621
# Shear Modulus (GPa) = 40.54906 -14.24495 13.15206
#
# Velocity S-wave (km/s) = 4.33206 -2.56764 2.46718
# Velocity P-wave (km/s) = 6.03734 2.11975 4.52453
#
# Compressibility (1/GPa) = 0.04050153
#
# Stress axis : x y z
#
# Youngs Moduli (GPa) = 60.04778 96.61549 64.85607
#
# Poissons Ratio (x) = 0.25427 -0.16073
# Poissons Ratio (y) = 0.15803 0.05233
# Poissons Ratio (z) = -0.14881 0.07796
#
# Static dielectric constant tensor:
#      x y z
#    x 1.808500 0.000000 -0.023790 
#    y 0.000000 1.785680 0.000030 
#    z -0.023790 0.000030 1.837450 
# 
# From -- ./inp_files/272335.got.cif
#   From: 2010.05.17/outbox.cif.g08.bks.cpg/sg12_137_cif.got.tgz:272335.got - 2010.06.03 13:09:07.
