data_PCOD9210380
_publ_section_title
;
Structure prediction by ZEFSAII (Michael W. Deem and Ramdas Pophale) SiO2 
 PCOD9210380
Probable space group: C 2/M
;
_chemical_formula_sum "Si O2"
_cell_formula_units_Z 64
_cell_length_a 30.959058
_cell_length_b 9.352009
_cell_length_c 10.602071
_cell_angle_alpha 90.000000
_cell_angle_beta 104.159470
_cell_angle_gamma 90.000000
_cell_volume 2976.352158
_symmetry_space_group_name_H-M "C 2/M"
_symmetry_group_IT_number 12
_symmetry_cell_setting 'monoclinic'
loop_
_space_group_symop_operation_xyz
x,y,z
-x,y,-z
-x,-y,-z
x,-y,z
1/2+x,1/2+y,z
1/2-x,1/2+y,-z
1/2-x,1/2-y,-z
1/2+x,1/2-y,z
loop_
_atom_site_type_symbol
_atom_site_label
_atom_site_fract_x
_atom_site_fract_y
_atom_site_fract_z
Si Si1 0.160742 0.343028 0.367768
Si Si2 0.372047 0.834729 0.946758
Si Si3 0.352723 0.664434 0.407656
Si Si4 0.450813 0.336676 0.907407
Si Si5 0.023111 0.330479 0.319861
Si Si6 0.568346 0.167853 0.627449
Si Si7 0.752969 0.337112 0.700825
Si Si8 0.712536 0.668310 0.051923
O O1 0.147718 0.500000 0.408219
O O2 0.143752 0.333674 0.212213
O O3 0.142356 0.225608 0.447773
O O4 0.214637 0.336757 0.397221
O O5 0.418643 0.753983 0.974621
O O6 0.334937 0.746257 0.995824
O O7 0.374886 0.000000 0.988461
O O8 0.365286 0.500000 0.410741
O O9 0.385109 0.750386 0.338234
O O10 0.299857 0.676782 0.345194
O O11 0.434458 0.500000 0.883334
O O12 0.454900 0.259530 0.775251
O O13 0.500000 0.338595 0.000000
O O14 0.024167 0.500000 0.288951
O O15 0.048080 0.314356 0.471565
O O16 0.971651 0.286763 0.308352
O O17 0.575630 0.000000 0.653171
O O18 0.761373 0.500000 0.761643
O O19 0.771455 0.206351 0.795692
O O20 0.710259 0.500000 0.025356
O O21 0.750000 0.750000 0.000000
#
# Coordination Sequence:
#
# PCOD9210380 Si02
#       8
#     8   8   8   8   8   8   8   8
#     4   9  18  33  54  77 108 147 186 230 276 328
#     4  10  21  39  62  87 113 148 195 237 282 340
#     4  11  21  31  49  81 116 148 183 224 279 336
#     4  11  24  40  58  86 121 154 191 242 300 346
#     4   9  19  38  61  81 106 147 193 239 288 344
#     4   9  19  36  57  81 110 145 189 236 288 347
#     4   9  20  37  52  75 112 150 187 229 276 331
#     4  11  22  39  63  87 112 147 190 236 285 338
#
# _framework density 21.502831
#
# number of rings (size 3 to 8) (size 9 to 14) (size 15 to 20)
#    0.000    2.125    0.000    4.875    0.000    8.500 
#    2.250    1.250    0.000    0.000    0.000    0.000 
#    0.000    0.000    0.000    0.000    0.000    0.000 
#
# Total GULP energy -178709.238174 kJ/mol
# GULP energy per Si atom -5584.663693 kJ/mol
# Density = 2.145389 g / cm^3
# Si number density = 21.502831 Si / 1000 Ang^3
#
#
#
# Elastic Constant Matrix: (Units=GPa)
#
#
# Indices 1 2 3 4 5 6 
#
# 1 149.7463 73.6765 6.0395 0.0000 -25.3532 0.0000
# 2 73.6765 132.6221 16.8234 0.0000 -19.2766 0.0000
# 3 6.0395 16.8234 19.6303 0.0000 -5.8426 0.0000
# 4 0.0000 0.0000 0.0000 18.1563 0.0000 -4.7436
# 5 -25.3532 -19.2766 -5.8426 0.0000 28.8845 0.0000
# 6 0.0000 0.0000 0.0000 -4.7436 0.0000 34.5791
#
#
#
# Elastic Compliance Matrix: (Units=1/GPa)
#
#
# Indices 1 2 3 4 5 6 
#
# 1 0.010101 -0.005120 0.003088 0.000000 0.006074 0.000000
# 2 -0.005120 0.011629 -0.007894 0.000000 0.001670 0.000000
# 3 0.003088 -0.007894 0.059582 0.000000 0.009495 0.000000
# 4 0.000000 0.000000 0.000000 0.057125 0.000000 0.007836
# 5 0.006074 0.001670 0.009495 0.000000 0.042986 0.000000
# 6 0.000000 0.000000 0.000000 0.007836 0.000000 0.029994
#
#
# Mechanical properties :
#
#
# Convention : Reuss Voigt Hill
#
# Bulk Modulus (GPa) = 16.27063 55.00861 35.63962
# Shear Modulus (GPa) = 19.86047 30.02126 24.94087
#
# Velocity S-wave (km/s) = 3.04241 3.74057 3.40941
# Velocity P-wave (km/s) = 4.46373 6.65533 5.66649
#
# Compressibility (1/GPa) = 0.06146043
#
# Stress axis : x y z
#
# Youngs Moduli (GPa) = 99.00010 85.99323 16.78346
#
# Poissons Ratio (x) = 0.44032 -0.05183
# Poissons Ratio (y) = 0.50692 0.13248
# Poissons Ratio (z) = -0.30574 0.67881
#
# Static dielectric constant tensor:
#      x y z
#    x 1.836070 0.000000 0.002220 
#    y 0.000000 1.758690 0.000000 
#    z 0.002220 0.000000 1.868200 
# 
# From -- ./inp_files/187486.got.cif
#   From: 2010.05.17/outbox.cif.g08.bks.cpg/sg12_94_cif.got.tgz:187486.got - 2010.06.03 13:09:07.
