data_PCOD9210825
_publ_section_title
;
Structure prediction by ZEFSAII (Michael W. Deem and Ramdas Pophale) SiO2 
 PCOD9210825
Probable space group: C 2/M
;
_chemical_formula_sum "Si O2"
_cell_formula_units_Z 42
_cell_length_a 9.664105
_cell_length_b 15.661990
_cell_length_c 14.764392
_cell_angle_alpha 90.000000
_cell_angle_beta 129.059980
_cell_angle_gamma 90.000000
_cell_volume 1735.234562
_symmetry_space_group_name_H-M "C 2/M"
_symmetry_group_IT_number 12
_symmetry_cell_setting 'monoclinic'
loop_
_space_group_symop_operation_xyz
x,y,z
-x,y,-z
-x,-y,-z
x,-y,z
1/2+x,1/2+y,z
1/2-x,1/2+y,-z
1/2-x,1/2-y,-z
1/2+x,1/2-y,z
loop_
_atom_site_type_symbol
_atom_site_label
_atom_site_fract_x
_atom_site_fract_y
_atom_site_fract_z
Si Si1 0.312069 0.593216 0.239402
Si Si2 0.354663 0.660725 0.064517
Si Si3 0.770899 0.876545 0.584960
Si Si4 0.606528 0.775360 0.273989
Si Si5 0.449735 0.908446 0.325123
Si Si6 0.500000 0.500000 0.000000
O O1 0.240842 0.500000 0.229625
O O2 0.268347 0.620967 0.119388
O O3 0.526438 0.593174 0.337948
O O4 0.229828 0.659404 0.273885
O O5 0.537888 0.703625 0.176392
O O6 0.398620 0.579580 0.017793
O O7 0.250000 0.750000 0.000000
O O8 0.785195 0.775452 0.605846
O O9 0.646576 0.904170 0.451291
O O10 0.676965 0.905679 0.639665
O O11 0.447641 0.828958 0.256102
O O12 0.415698 0.000000 0.265449
#
# Coordination Sequence:
#
# PCOD9210825 Si02
#       6
#     8   8   8   8   8   2
#     4  11  22  42  64  98 134 175 225 287 355 425
#     4  11  25  48  70 105 137 179 240 298 362 450
#     4  10  21  39  64  90 138 184 232 284 331 416
#     4  11  24  42  65  97 141 175 224 295 358 415
#     4  11  22  40  62  99 134 186 237 279 342 417
#     4  12  24  48  80 104 136 196 240 294 392 440
#
# _framework density 24.204218999999998
#
# number of rings (size 3 to 8) (size 9 to 14) (size 15 to 20)
#    0.000    1.143    0.952    6.857    0.000    3.810 
#   10.286    2.857    0.000    0.000    0.000    0.000 
#    0.000    0.000    0.000    0.000    0.000    0.000 
#
# Total GULP energy -117033.348020 kJ/mol
# GULP energy per Si atom -5573.016572 kJ/mol
# Density = 2.414913 g / cm^3
# Si number density = 24.204219 Si / 1000 Ang^3
#
#
#
# Elastic Constant Matrix: (Units=GPa)
#
#
# Indices 1 2 3 4 5 6 
#
# 1 80.6686 48.5611 12.1920 0.0000 -15.9059 0.0000
# 2 48.5611 225.6690 37.5984 0.0000 -20.2432 0.0000
# 3 12.1920 37.5984 65.5149 0.0000 -3.9724 0.0000
# 4 0.0000 0.0000 0.0000 -20.3077 0.0000 10.6706
# 5 -15.9059 -20.2432 -3.9724 0.0000 18.2373 0.0000
# 6 0.0000 0.0000 0.0000 10.6706 0.0000 78.8815
#
#
#
# Elastic Compliance Matrix: (Units=1/GPa)
#
#
# Indices 1 2 3 4 5 6 
#
# 1 0.016164 -0.002294 -0.001004 0.000000 0.011332 0.000000
# 2 -0.002294 0.005697 -0.002615 0.000000 0.003753 0.000000
# 3 -0.001004 -0.002615 0.016946 0.000000 -0.000087 0.000000
# 4 0.000000 0.000000 0.000000 -0.045974 0.000000 0.006219
# 5 0.011332 0.003753 -0.000087 0.000000 0.068863 0.000000
# 6 0.000000 0.000000 0.000000 0.006219 0.000000 0.011836
#
#
# Mechanical properties :
#
#
# Convention : Reuss Voigt Hill
#
# Bulk Modulus (GPa) = 37.06473 63.17284 50.11879
# Shear Modulus (GPa) = 52.99284 33.59562 43.29423
#
# Velocity S-wave (km/s) = 4.68418 3.72964 4.23390
# Velocity P-wave (km/s) = 6.67847 6.68607 6.68227
#
# Compressibility (1/GPa) = 0.02697983
#
# Stress axis : x y z
#
# Youngs Moduli (GPa) = 61.86686 175.51916 59.01077
#
# Poissons Ratio (x) = 0.40272 0.05926
# Poissons Ratio (y) = 0.14195 0.15432
# Poissons Ratio (z) = 0.06212 0.45900
#
# Static dielectric constant tensor:
#      x y z
#    x 1.904650 0.000000 0.029310 
#    y 0.000000 1.944890 0.000000 
#    z 0.029310 0.000000 2.027380 
# 
# From -- ./inp_files/255881.got.cif
#   From: 2010.05.17/outbox.cif.g08.bks.cpg/sg12_128_cif.got.tgz:255881.got - 2010.06.03 13:09:07.
