data_PCOD9210425
_publ_section_title
;
Structure prediction by ZEFSAII (Michael W. Deem and Ramdas Pophale) SiO2 
 PCOD9210425
Probable space group: C 2/M
;
_chemical_formula_sum "Si O2"
_cell_formula_units_Z 56
_cell_length_a 25.027282
_cell_length_b 20.902547
_cell_length_c 5.040943
_cell_angle_alpha 90.000000
_cell_angle_beta 99.891731
_cell_angle_gamma 90.000000
_cell_volume 2597.885749
_symmetry_space_group_name_H-M "C 2/M"
_symmetry_group_IT_number 12
_symmetry_cell_setting 'monoclinic'
loop_
_space_group_symop_operation_xyz
x,y,z
-x,y,-z
-x,-y,-z
x,-y,z
1/2+x,1/2+y,z
1/2-x,1/2+y,-z
1/2-x,1/2-y,-z
1/2+x,1/2-y,z
loop_
_atom_site_type_symbol
_atom_site_label
_atom_site_fract_x
_atom_site_fract_y
_atom_site_fract_z
Si Si1 0.881755 0.305948 0.778548
Si Si2 0.685006 0.068890 0.252582
Si Si3 0.740649 0.570544 0.183988
Si Si4 0.801762 0.205042 0.970193
Si Si5 0.435508 0.574692 0.916893
Si Si6 0.055898 0.722357 0.673821
Si Si7 0.605445 0.354365 0.629103
O O1 0.853736 0.372198 0.823075
O O2 0.841128 0.249343 0.828795
O O3 0.897559 0.303482 0.484972
O O4 0.932943 0.296437 0.015537
O O5 0.710089 0.071056 0.566372
O O6 0.658053 0.000000 0.187822
O O7 0.734892 0.072324 0.090437
O O8 0.713045 0.500000 0.196361
O O9 0.712624 0.639109 0.191999
O O10 0.750000 0.250000 0.000000
O O11 0.837027 0.178762 0.250560
O O12 0.431039 0.500000 0.843322
O O13 0.407211 0.618171 0.669762
O O14 0.500000 0.588977 0.000000
O O15 0.405915 0.590032 0.167835
O O16 0.062145 0.798685 0.655766
O O17 0.000000 0.700844 0.500000
#
# Coordination Sequence:
#
# PCOD9210425 Si02
#       7
#     8   8   8   8   8   8   8
#     4  11  23  39  65  95 123 167 214 258 328 382
#     4  10  21  39  62  88 122 165 210 253 307 386
#     4  10  22  39  60  87 126 174 211 253 313 368
#     4  11  24  42  63  96 134 174 216 276 314 384
#     4  11  23  42  67  92 125 169 217 270 331 398
#     4  11  23  41  64  92 125 159 207 271 326 388
#     4  11  24  40  61  93 124 170 211 263 329 382
#
# _framework density 21.555992
#
# number of rings (size 3 to 8) (size 9 to 14) (size 15 to 20)
#    0.000    1.286    1.429    4.714    2.000    6.286 
#    0.000    1.429    0.000    2.571    0.000    0.000 
#    0.000    0.000    0.000    0.000    0.000    0.000 
#
# Total GULP energy -156495.887984 kJ/mol
# GULP energy per Si atom -5589.138857 kJ/mol
# Density = 2.150693 g / cm^3
# Si number density = 21.555992 Si / 1000 Ang^3
#
#
#
# Elastic Constant Matrix: (Units=GPa)
#
#
# Indices 1 2 3 4 5 6 
#
# 1 73.5261 34.9204 7.0537 0.0000 13.4797 0.0000
# 2 34.9204 160.7864 12.9546 0.0000 13.5287 0.0000
# 3 7.0537 12.9546 61.1261 0.0000 1.6791 0.0000
# 4 0.0000 0.0000 0.0000 33.9351 0.0000 7.7689
# 5 13.4797 13.5287 1.6791 0.0000 24.9611 0.0000
# 6 0.0000 0.0000 0.0000 7.7689 0.0000 35.4867
#
#
#
# Elastic Compliance Matrix: (Units=1/GPa)
#
#
# Indices 1 2 3 4 5 6 
#
# 1 0.016390 -0.002864 -0.001086 0.000000 -0.007226 0.000000
# 2 -0.002864 0.007120 -0.001117 0.000000 -0.002237 0.000000
# 3 -0.001086 -0.001117 0.016720 0.000000 0.000067 0.000000
# 4 0.000000 0.000000 0.000000 0.031023 0.000000 -0.006792
# 5 -0.007226 -0.002237 0.000067 0.000000 0.045172 0.000000
# 6 0.000000 0.000000 0.000000 -0.006792 0.000000 0.029666
#
#
# Mechanical properties :
#
#
# Convention : Reuss Voigt Hill
#
# Bulk Modulus (GPa) = 33.22768 45.03289 39.13028
# Shear Modulus (GPa) = 30.07403 34.91057 32.49230
#
# Velocity S-wave (km/s) = 3.73923 4.02870 3.88667
# Velocity P-wave (km/s) = 5.83871 6.52511 6.19143
#
# Compressibility (1/GPa) = 0.03009539
#
# Stress axis : x y z
#
# Youngs Moduli (GPa) = 61.01372 140.45539 59.80938
#
# Poissons Ratio (x) = 0.40229 0.06494
# Poissons Ratio (y) = 0.17475 0.06680
# Poissons Ratio (z) = 0.06625 0.15688
#
# Static dielectric constant tensor:
#      x y z
#    x 1.820940 0.000000 -0.000390 
#    y 0.000000 1.793940 0.000000 
#    z -0.000390 0.000000 1.773310 
# 
# From -- ./inp_files/25434.got.cif
#   From: 2010.05.17/outbox.cif.g08.bks.cpg/sg12_13_cif.got.tgz:25434.got - 2010.06.03 13:09:07.
