data_PCOD9210547
_publ_section_title
;
Structure prediction by ZEFSAII (Michael W. Deem and Ramdas Pophale) SiO2 
 PCOD9210547
Probable space group: C 2/M
;
_chemical_formula_sum "Si O2"
_cell_formula_units_Z 44
_cell_length_a 13.465492
_cell_length_b 20.047030
_cell_length_c 9.623658
_cell_angle_alpha 90.000000
_cell_angle_beta 129.669206
_cell_angle_gamma 90.000000
_cell_volume 1999.668736
_symmetry_space_group_name_H-M "C 2/M"
_symmetry_group_IT_number 12
_symmetry_cell_setting 'monoclinic'
loop_
_space_group_symop_operation_xyz
x,y,z
-x,y,-z
-x,-y,-z
x,-y,z
1/2+x,1/2+y,z
1/2-x,1/2+y,-z
1/2-x,1/2-y,-z
1/2+x,1/2-y,z
loop_
_atom_site_type_symbol
_atom_site_label
_atom_site_fract_x
_atom_site_fract_y
_atom_site_fract_z
Si Si1 0.837070 0.500000 0.062973
Si Si2 0.029221 0.645673 0.863296
Si Si3 0.843648 0.500000 0.384606
Si Si4 0.863958 0.727676 0.288392
Si Si5 0.146470 0.857783 0.589309
Si Si6 0.775155 0.640121 0.447539
Si Si7 0.846142 0.000000 0.341316
O O1 0.915926 0.569087 0.102297
O O2 0.797299 0.500000 0.186541
O O3 0.704540 0.500000 0.859529
O O4 0.115122 0.696745 0.845003
O O5 0.895504 0.652247 0.658384
O O6 0.000000 0.659150 0.000000
O O7 0.792607 0.564136 0.418193
O O8 0.000000 0.500000 0.500000
O O9 0.808676 0.801966 0.262418
O O10 0.778532 0.679890 0.307549
O O11 0.000000 0.727942 0.500000
O O12 0.157186 0.837120 0.438760
O O13 0.000000 0.868529 0.500000
O O14 0.209489 0.930828 0.650225
O O15 0.000000 0.000000 0.500000
#
# Coordination Sequence:
#
# PCOD9210547 Si02
#       7
#     4   8   4   8   8   8   4
#     4  12  21  38  63  96 132 161 202 259 324 389
#     4  11  21  34  59  99 136 160 197 258 332 391
#     4  12  19  36  63  98 132 163 197 258 332 393
#     4   9  19  36  60  90 129 164 209 263 318 384
#     4  10  21  39  63  84 116 174 232 260 304 369
#     4  11  19  35  60  94 129 169 201 257 322 386
#     4  10  23  42  62  84 115 166 218 262 307 363
#
# _framework density 22.003644999999999
#
# number of rings (size 3 to 8) (size 9 to 14) (size 15 to 20)
#    0.000    1.455    3.636    3.000    0.000    0.000 
#    0.000    3.636    8.000    7.636    0.000    0.000 
#    0.000    0.000    0.000    0.000    0.000    0.000 
#
# Total GULP energy -122622.800318 kJ/mol
# GULP energy per Si atom -5573.763651 kJ/mol
# Density = 2.195356 g / cm^3
# Si number density = 22.003645 Si / 1000 Ang^3
#
#
#
# Elastic Constant Matrix: (Units=GPa)
#
#
# Indices 1 2 3 4 5 6 
#
# 1 124.0655 47.1950 44.1128 0.0000 -48.9855 0.0000
# 2 47.1950 178.5305 21.3830 0.0000 -40.5066 0.0000
# 3 44.1128 21.3830 119.7554 0.0000 -42.7341 0.0000
# 4 0.0000 0.0000 0.0000 9.8472 0.0000 -30.6595
# 5 -48.9855 -40.5066 -42.7341 0.0000 52.9794 0.0000
# 6 0.0000 0.0000 0.0000 -30.6595 0.0000 7.6748
#
#
#
# Elastic Compliance Matrix: (Units=1/GPa)
#
#
# Indices 1 2 3 4 5 6 
#
# 1 0.012855 -0.000911 -0.000814 0.000000 0.010533 0.000000
# 2 -0.000911 0.006911 0.000964 0.000000 0.005219 0.000000
# 3 -0.000814 0.000964 0.011897 0.000000 0.009581 0.000000
# 4 0.000000 0.000000 0.000000 -0.008878 0.000000 -0.035468
# 5 0.010533 0.005219 0.009581 0.000000 0.040332 0.000000
# 6 0.000000 0.000000 0.000000 -0.035468 0.000000 -0.011392
#
#
# Mechanical properties :
#
#
# Convention : Reuss Voigt Hill
#
# Bulk Modulus (GPa) = 33.17772 71.97033 52.57403
# Shear Modulus (GPa) = 78.99673 34.74432 56.87052
#
# Velocity S-wave (km/s) = 5.99830 3.97801 5.08941
# Velocity P-wave (km/s) = 7.94253 7.34021 7.64731
#
# Compressibility (1/GPa) = 0.03014071
#
# Stress axis : x y z
#
# Youngs Moduli (GPa) = 77.79115 144.70119 84.05574
#
# Poissons Ratio (x) = 0.13182 0.06842
# Poissons Ratio (y) = 0.07087 -0.08103
# Poissons Ratio (z) = 0.06332 -0.13949
#
# Static dielectric constant tensor:
#      x y z
#    x 1.888030 0.000000 0.034990 
#    y 0.000000 1.935740 0.000000 
#    z 0.034990 0.000000 1.840350 
# 
# From -- ./inp_files/63734.got.cif
#   From: 2010.05.17/outbox.cif.g08.bks.cpg/sg12_32_cif.got.tgz:63734.got - 2010.06.03 13:09:07.
