data_PCOD9210888
_publ_section_title
;
Structure prediction by ZEFSAII (Michael W. Deem and Ramdas Pophale) SiO2 
 PCOD9210888
Probable space group: C 2/M
;
_chemical_formula_sum "Si O2"
_cell_formula_units_Z 60
_cell_length_a 17.139350
_cell_length_b 14.914898
_cell_length_c 11.733728
_cell_angle_alpha 90.000000
_cell_angle_beta 115.070399
_cell_angle_gamma 90.000000
_cell_volume 2716.921779
_symmetry_space_group_name_H-M "C 2/M"
_symmetry_group_IT_number 12
_symmetry_cell_setting 'monoclinic'
loop_
_space_group_symop_operation_xyz
x,y,z
-x,y,-z
-x,-y,-z
x,-y,z
1/2+x,1/2+y,z
1/2-x,1/2+y,-z
1/2-x,1/2-y,-z
1/2+x,1/2-y,z
loop_
_atom_site_type_symbol
_atom_site_label
_atom_site_fract_x
_atom_site_fract_y
_atom_site_fract_z
Si Si1 0.700229 0.349522 0.184111
Si Si2 0.718775 0.191879 0.368825
Si Si3 0.933887 0.765229 0.059410
Si Si4 0.887304 0.901569 0.438928
Si Si5 0.054042 0.902609 0.261832
Si Si6 0.000000 0.748107 0.500000
Si Si7 0.370784 0.098739 0.159082
Si Si8 0.438023 0.101737 0.619596
O O1 0.717553 0.257224 0.260951
O O2 0.641584 0.400592 0.240811
O O3 0.790002 0.388218 0.193930
O O4 0.636364 0.331137 0.039415
O O5 0.750000 0.250000 0.500000
O O6 0.787302 0.115346 0.385756
O O7 0.627802 0.143097 0.330687
O O8 0.883017 0.682134 0.082031
O O9 0.993704 0.821529 0.183470
O O10 0.000000 0.736016 0.000000
O O11 0.918878 0.895101 0.589888
O O12 0.932759 0.818866 0.403421
O O13 0.907940 0.000000 0.406118
O O14 0.012338 0.000000 0.216993
O O15 0.061808 0.679323 0.474011
O O16 0.462973 0.098434 0.280042
O O17 0.361307 0.000000 0.098601
O O18 0.413338 0.000000 0.569990
#
# Coordination Sequence:
#
# PCOD9210888 Si02
#       8
#     8   8   8   8   8   4   8   8
#     4  11  22  40  65  95 124 169 213 264 328 385
#     4  12  22  42  65  88 127 170 209 262 321 377
#     4  10  22  41  66  93 126 166 217 262 321 387
#     4  11  23  38  61  90 125 170 216 259 319 386
#     4  10  21  39  64  93 124 162 210 267 323 382
#     4  12  20  38  58  86 128 166 208 262 316 362
#     4  11  24  41  62  94 130 165 211 266 319 379
#     4  11  24  39  61  92 126 167 214 258 316 386
#
# _framework density 22.083815999999999
#
# number of rings (size 3 to 8) (size 9 to 14) (size 15 to 20)
#    0.000    1.067    2.667    4.800    0.000    3.200 
#    0.000    1.333    0.000    0.800    0.000    0.000 
#    0.000    0.000    0.000    0.000    0.000    0.000 
#
# Total GULP energy -167503.588437 kJ/mol
# GULP energy per Si atom -5583.452948 kJ/mol
# Density = 2.203355 g / cm^3
# Si number density = 22.083816 Si / 1000 Ang^3
#
#
#
# Elastic Constant Matrix: (Units=GPa)
#
#
# Indices 1 2 3 4 5 6 
#
# 1 147.9553 38.8360 15.8932 0.0000 2.6355 0.0000
# 2 38.8360 141.5363 16.7550 0.0000 -10.8854 0.0000
# 3 15.8932 16.7550 36.8049 0.0000 0.6598 0.0000
# 4 0.0000 0.0000 0.0000 0.3228 0.0000 0.4076
# 5 2.6355 -10.8854 0.6598 0.0000 27.7621 0.0000
# 6 0.0000 0.0000 0.0000 0.4076 0.0000 27.0280
#
#
#
# Elastic Compliance Matrix: (Units=1/GPa)
#
#
# Indices 1 2 3 4 5 6 
#
# 1 0.007535 -0.001895 -0.002366 0.000000 -0.001402 0.000000
# 2 -0.001895 0.008205 -0.002979 0.000000 0.003468 0.000000
# 3 -0.002366 -0.002979 0.029578 0.000000 -0.001646 0.000000
# 4 0.000000 0.000000 0.000000 3.157918 0.000000 -0.047620
# 5 -0.001402 0.003468 -0.001646 0.000000 0.037552 0.000000
# 6 0.000000 0.000000 0.000000 -0.047620 0.000000 0.037717
#
#
# Mechanical properties :
#
#
# Convention : Reuss Voigt Hill
#
# Bulk Modulus (GPa) = 32.42818 52.14054 42.28436
# Shear Modulus (GPa) = 1.51365 28.01007 14.76186
#
# Velocity S-wave (km/s) = 0.82880 3.56526 2.58824
# Velocity P-wave (km/s) = 3.95372 6.37257 5.30290
#
# Compressibility (1/GPa) = 0.03083738
#
# Stress axis : x y z
#
# Youngs Moduli (GPa) = 132.70623 121.88086 33.80945
#
# Poissons Ratio (x) = 0.23101 0.07999
# Poissons Ratio (y) = 0.25153 0.10071
# Poissons Ratio (z) = 0.31398 0.36306
#
# Static dielectric constant tensor:
#      x y z
#    x 1.849850 0.000000 -0.016250 
#    y 0.000000 1.858150 0.000000 
#    z -0.016250 0.000000 1.843170 
# 
# From -- ./inp_files/156664.got.cif
#   From: 2010.05.17/outbox.cif.g08.bks.cpg/sg12_79_cif.got.tgz:156664.got - 2010.06.03 13:09:07.
