data_PCOD9210747
_publ_section_title
;
Structure prediction by ZEFSAII (Michael W. Deem and Ramdas Pophale) SiO2 
 PCOD9210747
Probable space group: C 2/M
;
_chemical_formula_sum "Si O2"
_cell_formula_units_Z 40
_cell_length_a 24.183087
_cell_length_b 8.554398
_cell_length_c 9.754219
_cell_angle_alpha 90.000000
_cell_angle_beta 104.753871
_cell_angle_gamma 90.000000
_cell_volume 1951.340561
_symmetry_space_group_name_H-M "C 2/M"
_symmetry_group_IT_number 12
_symmetry_cell_setting 'monoclinic'
loop_
_space_group_symop_operation_xyz
x,y,z
-x,y,-z
-x,-y,-z
x,-y,z
1/2+x,1/2+y,z
1/2-x,1/2+y,-z
1/2-x,1/2-y,-z
1/2+x,1/2-y,z
loop_
_atom_site_type_symbol
_atom_site_label
_atom_site_fract_x
_atom_site_fract_y
_atom_site_fract_z
Si Si1 0.642788 0.312326 0.779857
Si Si2 0.051663 0.312076 0.128445
Si Si3 0.512333 0.688218 0.662507
Si Si4 0.232090 0.686238 0.637747
Si Si5 0.825150 0.688271 0.910421
O O1 0.645058 0.500000 0.783810
O O2 0.576413 0.261046 0.745119
O O3 0.672595 0.252845 0.659913
O O4 0.675594 0.246718 0.933616
O O5 0.050934 0.500000 0.126029
O O6 0.112930 0.263298 0.110506
O O7 0.035762 0.254081 0.268281
O O8 0.000000 0.253712 0.000000
O O9 0.500000 0.736643 0.500000
O O10 0.511177 0.500000 0.668534
O O11 0.229297 0.500000 0.629870
O O12 0.250000 0.750000 0.500000
O O13 0.278182 0.740460 0.780225
O O14 0.820143 0.500000 0.905818
#
# Coordination Sequence:
#
# PCOD9210747 Si02
#       5
#     8   8   8   8   8
#     4  11  23  42  66  94 128 169 215 260 313 375
#     4  10  21  39  63  94 128 164 207 255 308 371
#     4  10  23  40  61  93 130 168 208 256 312 372
#     4  12  27  46  67  93 126 164 209 263 320 377
#     4  11  23  42  67  95 128 167 213 261 313 374
#
# _framework density 20.498728
#
# number of rings (size 3 to 8) (size 9 to 14) (size 15 to 20)
#    0.000    1.200    2.000    3.600    2.800    3.200 
#    0.000    0.000    0.000    0.000    0.000    0.000 
#    0.000    0.000    0.000    0.000    0.000    0.000 
#
# Total GULP energy -111870.512143 kJ/mol
# GULP energy per Si atom -5593.525607 kJ/mol
# Density = 2.045207 g / cm^3
# Si number density = 20.498728 Si / 1000 Ang^3
#
#
#
# Elastic Constant Matrix: (Units=GPa)
#
#
# Indices 1 2 3 4 5 6 
#
# 1 84.4752 16.3928 19.7759 0.0000 -24.0763 0.0000
# 2 16.3928 52.8480 10.5278 0.0000 -4.8146 0.0000
# 3 19.7759 10.5278 103.3757 0.0000 -23.9117 0.0000
# 4 0.0000 0.0000 0.0000 32.9080 0.0000 -0.4148
# 5 -24.0763 -4.8146 -23.9117 0.0000 44.5322 0.0000
# 6 0.0000 0.0000 0.0000 -0.4148 0.0000 8.2320
#
#
#
# Elastic Compliance Matrix: (Units=1/GPa)
#
#
# Indices 1 2 3 4 5 6 
#
# 1 0.014799 -0.003780 -0.000788 0.000000 0.007169 0.000000
# 2 -0.003780 0.020334 -0.001498 0.000000 -0.000650 0.000000
# 3 -0.000788 -0.001498 0.011236 0.000000 0.005446 0.000000
# 4 0.000000 0.000000 0.000000 0.030407 0.000000 0.001532
# 5 0.007169 -0.000650 0.005446 0.000000 0.029186 0.000000
# 6 0.000000 0.000000 0.000000 0.001532 0.000000 0.121554
#
#
# Mechanical properties :
#
#
# Convention : Reuss Voigt Hill
#
# Bulk Modulus (GPa) = 29.20794 37.12135 33.16464
# Shear Modulus (GPa) = 19.91550 30.06792 24.99171
#
# Velocity S-wave (km/s) = 3.12035 3.83406 3.49547
# Velocity P-wave (km/s) = 5.22127 6.14398 5.70132
#
# Compressibility (1/GPa) = 0.03423727
#
# Stress axis : x y z
#
# Youngs Moduli (GPa) = 67.57128 49.17857 88.99735
#
# Poissons Ratio (x) = 0.18592 0.07011
# Poissons Ratio (y) = 0.25545 0.13331
# Poissons Ratio (z) = 0.05323 0.07367
#
# Static dielectric constant tensor:
#      x y z
#    x 1.742180 0.000000 0.004610 
#    y 0.000000 1.691330 0.000000 
#    z 0.004610 0.000000 1.711720 
# 
# From -- ./inp_files/92765.got.cif
#   From: 2010.05.17/outbox.cif.g08.bks.cpg/sg12_47_cif.got.tgz:92765.got - 2010.06.03 13:09:07.
