data_PCOD9210130
_publ_section_title
;
Structure prediction by ZEFSAII (Michael W. Deem and Ramdas Pophale) SiO2 
 PCOD9210130
Probable space group: C 2/M
;
_chemical_formula_sum "Si O2"
_cell_formula_units_Z 52
_cell_length_a 9.130492
_cell_length_b 18.647298
_cell_length_c 14.408685
_cell_angle_alpha 90.000000
_cell_angle_beta 92.368347
_cell_angle_gamma 90.000000
_cell_volume 2451.112873
_symmetry_space_group_name_H-M "C 2/M"
_symmetry_group_IT_number 12
_symmetry_cell_setting 'monoclinic'
loop_
_space_group_symop_operation_xyz
x,y,z
-x,y,-z
-x,-y,-z
x,-y,z
1/2+x,1/2+y,z
1/2-x,1/2+y,-z
1/2-x,1/2-y,-z
1/2+x,1/2-y,z
loop_
_atom_site_type_symbol
_atom_site_label
_atom_site_fract_x
_atom_site_fract_y
_atom_site_fract_z
Si Si1 0.461550 0.696683 0.654321
Si Si2 0.715582 0.270487 0.775658
Si Si3 0.000000 0.683007 0.500000
Si Si4 0.145410 0.918550 0.045755
Si Si5 0.235844 0.584092 0.592166
Si Si6 0.611564 0.868354 0.081813
Si Si7 0.132634 0.380348 0.794868
O O1 0.610170 0.678406 0.713032
O O2 0.335087 0.730352 0.715795
O O3 0.495155 0.761911 0.585396
O O4 0.388499 0.626968 0.606261
O O5 0.792941 0.309392 0.862220
O O6 0.608670 0.205065 0.798588
O O7 0.861868 0.630595 0.481720
O O8 0.271569 0.915159 0.971538
O O9 0.106104 0.000000 0.067626
O O10 0.220002 0.889962 0.140989
O O11 0.000000 0.882184 0.000000
O O12 0.248242 0.500000 0.570095
O O13 0.156411 0.591476 0.691808
O O14 0.507936 0.909374 0.153121
O O15 0.500000 0.839397 0.000000
#
# Coordination Sequence:
#
# PCOD9210130 Si02
#       7
#     8   8   4   8   8   8   8
#     4  11  23  41  69  93 130 166 217 256 320 386
#     4  11  21  40  61  95 121 162 212 262 313 374
#     4  12  21  44  71  96 124 172 214 260 317 398
#     4  10  23  38  56  83 118 164 207 253 320 380
#     4  11  24  40  66  99 131 166 210 269 324 381
#     4  10  22  37  58  88 120 160 211 261 309 362
#     4  10  21  39  60  85 123 161 206 260 307 376
#
# _framework density 21.214853000000002
#
# number of rings (size 3 to 8) (size 9 to 14) (size 15 to 20)
#    0.000    1.385    4.615    1.154    4.308    6.462 
#    0.000    0.385    0.000    0.000    0.000    0.000 
#    0.000    0.000    0.000    0.000    0.000    0.000 
#
# Total GULP energy -145049.668190 kJ/mol
# GULP energy per Si atom -5578.833392 kJ/mol
# Density = 2.116657 g / cm^3
# Si number density = 21.214853 Si / 1000 Ang^3
#
#
#
# Elastic Constant Matrix: (Units=GPa)
#
#
# Indices 1 2 3 4 5 6 
#
# 1 83.8648 11.3448 15.3966 0.0000 27.5223 0.0000
# 2 11.3448 99.1004 10.8494 0.0000 20.2432 0.0000
# 3 15.3966 10.8494 48.2987 0.0000 24.0836 0.0000
# 4 0.0000 0.0000 0.0000 -13.0110 0.0000 0.4989
# 5 27.5223 20.2432 24.0836 0.0000 32.2689 0.0000
# 6 0.0000 0.0000 0.0000 0.4989 0.0000 15.5393
#
#
#
# Elastic Compliance Matrix: (Units=1/GPa)
#
#
# Indices 1 2 3 4 5 6 
#
# 1 0.016948 0.001312 0.003060 0.000000 -0.017562 0.000000
# 2 0.001312 0.011756 0.001874 0.000000 -0.009893 0.000000
# 3 0.003060 0.001874 0.033759 0.000000 -0.028981 0.000000
# 4 0.000000 0.000000 0.000000 -0.076764 0.000000 0.002464
# 5 -0.017562 -0.009893 -0.028981 0.000000 0.073803 0.000000
# 6 0.000000 0.000000 0.000000 0.002464 0.000000 0.064274
#
#
# Mechanical properties :
#
#
# Convention : Reuss Voigt Hill
#
# Bulk Modulus (GPa) = 13.34146 34.04952 23.69549
# Shear Modulus (GPa) = 36.69161 19.87100 28.28131
#
# Velocity S-wave (km/s) = 4.16327 3.06380 3.65511
# Velocity P-wave (km/s) = 5.42335 5.34795 5.38578
#
# Compressibility (1/GPa) = 0.07495433
#
# Stress axis : x y z
#
# Youngs Moduli (GPa) = 59.00386 85.06165 29.62150
#
# Poissons Ratio (x) = -0.11162 -0.09063
# Poissons Ratio (y) = -0.07742 -0.05550
# Poissons Ratio (z) = -0.18052 -0.15938
#
# Static dielectric constant tensor:
#      x y z
#    x 1.824140 0.000000 0.001150 
#    y 0.000000 1.762360 0.000000 
#    z 0.001150 0.000000 1.840740 
# 
# From -- ./inp_files/197129.got.cif
#   From: 2010.05.17/outbox.cif.g08.bks.cpg/sg12_99_cif.got.tgz:197129.got - 2010.06.03 13:09:07.
