data_PCOD9210512
_publ_section_title
;
Structure prediction by ZEFSAII (Michael W. Deem and Ramdas Pophale) SiO2 
 PCOD9210512
Probable space group: C 2/M
;
_chemical_formula_sum "Si O2"
_cell_formula_units_Z 58
_cell_length_a 9.153838
_cell_length_b 16.994419
_cell_length_c 20.243156
_cell_angle_alpha 90.000000
_cell_angle_beta 110.278375
_cell_angle_gamma 90.000000
_cell_volume 2953.927123
_symmetry_space_group_name_H-M "C 2/M"
_symmetry_group_IT_number 12
_symmetry_cell_setting 'monoclinic'
loop_
_space_group_symop_operation_xyz
x,y,z
-x,y,-z
-x,-y,-z
x,-y,z
1/2+x,1/2+y,z
1/2-x,1/2+y,-z
1/2-x,1/2-y,-z
1/2+x,1/2-y,z
loop_
_atom_site_type_symbol
_atom_site_label
_atom_site_fract_x
_atom_site_fract_y
_atom_site_fract_z
Si Si1 0.294325 0.589908 0.807696
Si Si2 0.500000 0.000000 0.000000
Si Si3 0.347670 0.847963 0.904474
Si Si4 0.368977 0.334914 0.691374
Si Si5 0.100836 0.595055 0.579784
Si Si6 0.032125 0.809020 0.930964
Si Si7 0.978696 0.592969 0.703676
Si Si8 0.770002 0.820499 0.262441
O O1 0.296076 0.500000 0.832448
O O2 0.352621 0.593693 0.741102
O O3 0.409468 0.643962 0.866753
O O4 0.116519 0.621648 0.774731
O O5 0.582516 0.930026 0.059275
O O6 0.483020 0.782239 0.923192
O O7 0.274919 0.843851 0.819437
O O8 0.205760 0.822776 0.931112
O O9 0.262454 0.358410 0.612877
O O10 0.303076 0.261036 0.722708
O O11 0.545802 0.318484 0.702222
O O12 0.125085 0.500000 0.583209
O O13 0.000000 0.614915 0.500000
O O14 0.012213 0.617720 0.633963
O O15 0.000000 0.838259 0.000000
O O16 0.997431 0.500000 0.707473
O O17 0.812259 0.616756 0.703339
#
# Coordination Sequence:
#
# PCOD9210512 Si02
#       8
#     8   2   8   8   8   8   8   8
#     4  10  21  39  62  92 126 163 219 272 324 391
#     4  12  32  48  70 100 138 172 232 284 364 404
#     4  12  27  49  69  95 133 179 223 282 347 414
#     4  11  21  38  64  95 127 169 221 270 321 396
#     4   9  19  40  67  95 136 178 209 259 325 390
#     4  12  26  45  69  92 128 173 218 273 347 414
#     4   9  21  38  61  95 127 168 219 269 320 390
#     4  12  23  39  66  92 127 169 221 275 332 383
#
# _framework density 19.634879999999999
#
# number of rings (size 3 to 8) (size 9 to 14) (size 15 to 20)
#    0.000    1.241    3.448    3.310    3.862    1.379 
#    2.483    3.448    0.000    2.483    0.000    0.000 
#    0.000    0.000    0.000    0.000    0.000    0.000 
#
# Total GULP energy -161648.263974 kJ/mol
# GULP energy per Si atom -5574.078068 kJ/mol
# Density = 1.959019 g / cm^3
# Si number density = 19.634880 Si / 1000 Ang^3
#
#
#
# Elastic Constant Matrix: (Units=GPa)
#
#
# Indices 1 2 3 4 5 6 
#
# 1 144.8383 43.1531 48.3904 0.0000 15.8610 0.0000
# 2 43.1531 93.5975 50.9692 0.0000 18.8609 0.0000
# 3 48.3904 50.9692 121.3855 0.0000 29.9922 0.0000
# 4 0.0000 0.0000 0.0000 30.3519 0.0000 3.1290
# 5 15.8610 18.8609 29.9922 0.0000 25.6468 0.0000
# 6 0.0000 0.0000 0.0000 3.1290 0.0000 23.0155
#
#
#
# Elastic Compliance Matrix: (Units=1/GPa)
#
#
# Indices 1 2 3 4 5 6 
#
# 1 0.008466 -0.002598 -0.002057 0.000000 -0.000920 0.000000
# 2 -0.002598 0.015074 -0.004151 0.000000 -0.004624 0.000000
# 3 -0.002057 -0.004151 0.013688 0.000000 -0.011682 0.000000
# 4 0.000000 0.000000 0.000000 0.033415 0.000000 -0.004543
# 5 -0.000920 -0.004624 -0.011682 0.000000 0.056622 0.000000
# 6 0.000000 0.000000 0.000000 -0.004543 0.000000 0.044067
#
#
# Mechanical properties :
#
#
# Convention : Reuss Voigt Hill
#
# Bulk Modulus (GPa) = 50.97898 71.64962 61.31430
# Shear Modulus (GPa) = 25.57765 30.29009 27.93387
#
# Velocity S-wave (km/s) = 3.61316 3.93194 3.77592
# Velocity P-wave (km/s) = 6.58987 7.56199 7.09261
#
# Compressibility (1/GPa) = 0.01961593
#
# Stress axis : x y z
#
# Youngs Moduli (GPa) = 118.11659 66.33796 73.05811
#
# Poissons Ratio (x) = 0.17234 0.15028
# Poissons Ratio (y) = 0.30685 0.30329
# Poissons Ratio (z) = 0.24296 0.27539
#
# Static dielectric constant tensor:
#      x y z
#    x 1.703490 0.000000 0.013620 
#    y 0.000000 1.741560 0.000000 
#    z 0.013620 0.000000 1.715680 
# 
# From -- ./inp_files/300863.got.cif
#   From: 2010.05.17/outbox.cif.g08.bks.cpg/sg12_151_cif.got.tgz:300863.got - 2010.06.03 13:09:07.
