data_PCOD9210730
_publ_section_title
;
Structure prediction by ZEFSAII (Michael W. Deem and Ramdas Pophale) SiO2 
 PCOD9210730
Probable space group: C 2/M
;
_chemical_formula_sum "Si O2"
_cell_formula_units_Z 40
_cell_length_a 24.295588
_cell_length_b 8.789408
_cell_length_c 9.755256
_cell_angle_alpha 90.000000
_cell_angle_beta 75.449796
_cell_angle_gamma 90.000000
_cell_volume 2016.362950
_symmetry_space_group_name_H-M "C 2/M"
_symmetry_group_IT_number 12
_symmetry_cell_setting 'monoclinic'
loop_
_space_group_symop_operation_xyz
x,y,z
-x,y,-z
-x,-y,-z
x,-y,z
1/2+x,1/2+y,z
1/2-x,1/2+y,-z
1/2-x,1/2-y,-z
1/2+x,1/2-y,z
loop_
_atom_site_type_symbol
_atom_site_label
_atom_site_fract_x
_atom_site_fract_y
_atom_site_fract_z
Si Si1 0.389957 0.817756 0.728316
Si Si2 0.981996 0.182232 0.857114
Si Si3 0.733503 0.682054 0.155352
Si Si4 0.424045 0.183787 0.403898
Si Si5 0.700193 0.817876 0.623038
O O1 0.423375 0.753368 0.838251
O O2 0.326732 0.750491 0.759868
O O3 0.423286 0.779229 0.566287
O O4 0.386569 0.000000 0.738383
O O5 0.028876 0.237759 0.718595
O O6 0.977619 0.000000 0.858122
O O7 0.000000 0.229629 0.000000
O O8 0.728554 0.500000 0.151810
O O9 0.782835 0.721112 0.232859
O O10 0.750000 0.750000 0.000000
O O11 0.362147 0.230240 0.384949
O O12 0.430510 0.000000 0.388246
O O13 0.750000 0.750000 0.500000
O O14 0.701779 0.000000 0.607356
#
# Coordination Sequence:
#
# PCOD9210730 Si02
#       5
#     8   8   8   8   8
#     4  11  23  42  67  92 122 162 207 257 309 366
#     4  11  26  44  62  91 125 161 205 257 311 366
#     4  11  24  40  62  94 130 168 206 250 306 365
#     4  10  22  41  65  93 123 161 206 253 305 367
#     4  10  21  39  63  93 126 161 204 248 302 364
#
# _framework density 19.837698
#
# number of rings (size 3 to 8) (size 9 to 14) (size 15 to 20)
#    0.000    1.400    2.000    2.400    2.800    7.200 
#    0.000    0.000    0.000    0.000    0.000    0.000 
#    0.000    0.000    0.000    0.000    0.000    0.000 
#
# Total GULP energy -111811.732889 kJ/mol
# GULP energy per Si atom -5590.586644 kJ/mol
# Density = 1.979255 g / cm^3
# Si number density = 19.837698 Si / 1000 Ang^3
#
#
#
# Elastic Constant Matrix: (Units=GPa)
#
#
# Indices 1 2 3 4 5 6 
#
# 1 78.8693 18.8297 16.2076 0.0000 24.8311 0.0000
# 2 18.8297 36.7396 36.8796 0.0000 13.4287 0.0000
# 3 16.2076 36.8796 107.1967 0.0000 21.6788 0.0000
# 4 0.0000 0.0000 0.0000 31.5544 0.0000 -5.6515
# 5 24.8311 13.4287 21.6788 0.0000 41.1957 0.0000
# 6 0.0000 0.0000 0.0000 -5.6515 0.0000 32.5679
#
#
#
# Elastic Compliance Matrix: (Units=1/GPa)
#
#
# Indices 1 2 3 4 5 6 
#
# 1 0.016758 -0.007084 0.001655 0.000000 -0.008663 0.000000
# 2 -0.007084 0.046316 -0.014183 0.000000 -0.003364 0.000000
# 3 0.001655 -0.014183 0.014800 0.000000 -0.004163 0.000000
# 4 0.000000 0.000000 0.000000 0.032708 0.000000 0.005676
# 5 -0.008663 -0.003364 -0.004163 0.000000 0.032783 0.000000
# 6 0.000000 0.000000 0.000000 0.005676 0.000000 0.031690
#
#
# Mechanical properties :
#
#
# Convention : Reuss Voigt Hill
#
# Bulk Modulus (GPa) = 25.87313 40.73770 33.30542
# Shear Modulus (GPa) = 22.01086 31.12286 26.56686
#
# Velocity S-wave (km/s) = 3.33460 3.96520 3.66349
# Velocity P-wave (km/s) = 5.28174 6.44545 5.89239
#
# Compressibility (1/GPa) = 0.03865013
#
# Stress axis : x y z
#
# Youngs Moduli (GPa) = 59.67418 21.59087 67.56913
#
# Poissons Ratio (x) = 0.15295 -0.11185
# Poissons Ratio (y) = 0.42273 0.95833
# Poissons Ratio (z) = -0.09878 0.30622
#
# Static dielectric constant tensor:
#      x y z
#    x 1.024050 0.000000 0.209180 
#    y 0.000000 1.666030 0.000000 
#    z 0.209180 0.000000 1.638970 
# 
# From -- ./inp_files/92704.got.cif
#   From: 2010.05.17/outbox.cif.g08.bks.cpg/sg12_47_cif.got.tgz:92704.got - 2010.06.03 13:09:07.
