data_PCOD9210673
_publ_section_title
;
Structure prediction by ZEFSAII (Michael W. Deem and Ramdas Pophale) SiO2 
 PCOD9210673
Probable space group: C 2/M
;
_chemical_formula_sum "Si O2"
_cell_formula_units_Z 40
_cell_length_a 23.159451
_cell_length_b 8.536005
_cell_length_c 10.181142
_cell_angle_alpha 90.000000
_cell_angle_beta 90.807754
_cell_angle_gamma 90.000000
_cell_volume 2012.501699
_symmetry_space_group_name_H-M "C 2/M"
_symmetry_group_IT_number 12
_symmetry_cell_setting 'monoclinic'
loop_
_space_group_symop_operation_xyz
x,y,z
-x,y,-z
-x,-y,-z
x,-y,z
1/2+x,1/2+y,z
1/2-x,1/2+y,-z
1/2-x,1/2-y,-z
1/2+x,1/2-y,z
loop_
_atom_site_type_symbol
_atom_site_label
_atom_site_fract_x
_atom_site_fract_y
_atom_site_fract_z
Si Si1 0.122695 0.187220 0.788903
Si Si2 0.503064 0.688864 0.652146
Si Si3 0.811010 0.688000 0.452355
Si Si4 0.812819 0.686783 0.962237
Si Si5 0.618478 0.188682 0.289414
O O1 0.061239 0.241148 0.727634
O O2 0.170292 0.233885 0.682533
O O3 0.121392 0.000000 0.804184
O O4 0.141304 0.263885 0.925619
O O5 0.500000 0.744716 0.500000
O O6 0.504190 0.500000 0.648731
O O7 0.445530 0.743695 0.723832
O O8 0.809981 0.500000 0.438673
O O9 0.750000 0.750000 0.500000
O O10 0.856848 0.731755 0.566973
O O11 0.808314 0.500000 0.956640
O O12 0.837543 0.742735 0.822642
O O13 0.750000 0.750000 0.000000
O O14 0.615613 0.000000 0.282929
#
# Coordination Sequence:
#
# PCOD9210673 Si02
#       5
#     8   8   8   8   8
#     4  11  23  40  62  90 124 162 206 255 306 368
#     4  10  21  39  63  91 123 161 206 255 306 362
#     4  11  22  37  60  90 120 158 206 257 312 369
#     4  11  24  43  64  91 126 165 207 254 311 370
#     4  10  23  40  61  89 122 159 203 254 309 369
#
# _framework density 19.87576
#
# number of rings (size 3 to 8) (size 9 to 14) (size 15 to 20)
#    0.000    1.400    2.000    3.000    0.000    6.800 
#    0.000    4.000    0.000    0.000    0.000    0.000 
#    0.000    0.000    0.000    0.000    0.000    0.000 
#
# Total GULP energy -111811.270708 kJ/mol
# GULP energy per Si atom -5590.563535 kJ/mol
# Density = 1.983052 g / cm^3
# Si number density = 19.875760 Si / 1000 Ang^3
#
#
#
# Elastic Constant Matrix: (Units=GPa)
#
#
# Indices 1 2 3 4 5 6 
#
# 1 75.5766 1.1971 -17.3608 0.0000 -4.1930 0.0000
# 2 1.1971 16.2569 2.8639 0.0000 0.4108 0.0000
# 3 -17.3608 2.8639 59.8766 0.0000 -5.6255 0.0000
# 4 0.0000 0.0000 0.0000 27.9282 0.0000 -0.6130
# 5 -4.1930 0.4108 -5.6255 0.0000 36.3425 0.0000
# 6 0.0000 0.0000 0.0000 -0.6130 0.0000 35.5628
#
#
#
# Elastic Compliance Matrix: (Units=1/GPa)
#
#
# Indices 1 2 3 4 5 6 
#
# 1 0.014428 -0.001915 0.004499 0.000000 0.002383 0.000000
# 2 -0.001915 0.062339 -0.003677 0.000000 -0.001495 0.000000
# 3 0.004499 -0.003677 0.018503 0.000000 0.003425 0.000000
# 4 0.000000 0.000000 0.000000 0.035820 0.000000 0.000617
# 5 0.002383 -0.001495 0.003425 0.000000 0.028338 0.000000
# 6 0.000000 0.000000 0.000000 0.000617 0.000000 0.028130
#
#
# Mechanical properties :
#
#
# Convention : Reuss Voigt Hill
#
# Bulk Modulus (GPa) = 10.74323 13.90115 12.32219
# Shear Modulus (GPa) = 22.64780 30.96738 26.80759
#
# Velocity S-wave (km/s) = 3.37926 3.95149 3.67653
# Velocity P-wave (km/s) = 4.54344 5.27525 4.92296
#
# Compressibility (1/GPa) = 0.09308191
#
# Stress axis : x y z
#
# Youngs Moduli (GPa) = 69.31203 16.04130 54.04529
#
# Poissons Ratio (x) = 0.03072 -0.24313
# Poissons Ratio (y) = 0.13274 0.19875
# Poissons Ratio (z) = -0.31181 0.05899
#
# Static dielectric constant tensor:
#      x y z
#    x 1.589570 0.000000 0.130850 
#    y 0.000000 1.674820 0.000000 
#    z 0.130850 0.000000 1.550460 
# 
# From -- ./inp_files/92719.got.cif
#   From: 2010.05.17/outbox.cif.g08.bks.cpg/sg12_47_cif.got.tgz:92719.got - 2010.06.03 13:09:07.
