data_PCOD9210157
_publ_section_title
;
Structure prediction by ZEFSAII (Michael W. Deem and Ramdas Pophale) SiO2 
 PCOD9210157
Probable space group: C 2/M
;
_chemical_formula_sum "Si O2"
_cell_formula_units_Z 40
_cell_length_a 31.018038
_cell_length_b 8.025819
_cell_length_c 8.930822
_cell_angle_alpha 90.000000
_cell_angle_beta 106.247411
_cell_angle_gamma 90.000000
_cell_volume 2134.492455
_symmetry_space_group_name_H-M "C 2/M"
_symmetry_group_IT_number 12
_symmetry_cell_setting 'monoclinic'
loop_
_space_group_symop_operation_xyz
x,y,z
-x,y,-z
-x,-y,-z
x,-y,z
1/2+x,1/2+y,z
1/2-x,1/2+y,-z
1/2-x,1/2-y,-z
1/2+x,1/2-y,z
loop_
_atom_site_type_symbol
_atom_site_label
_atom_site_fract_x
_atom_site_fract_y
_atom_site_fract_z
Si Si1 0.381296 0.313835 0.013314
Si Si2 0.051893 0.000000 0.731012
Si Si3 0.703622 0.800595 0.877562
Si Si4 0.890445 0.692201 0.700325
Si Si5 0.054366 0.000000 0.377455
Si Si6 0.295487 0.800515 0.461614
O O1 0.372190 0.500000 0.941671
O O2 0.423501 0.343830 0.164608
O O3 0.338535 0.261339 0.067872
O O4 0.390663 0.200212 0.880576
O O5 0.061155 0.000000 0.563390
O O6 0.998906 0.000000 0.704555
O O7 0.702354 0.734490 0.706080
O O8 0.701424 0.000000 0.870990
O O9 0.750000 0.750000 0.000000
O O10 0.899433 0.500000 0.660870
O O11 0.923797 0.832478 0.669257
O O12 0.840586 0.742083 0.595384
O O13 0.250000 0.750000 0.500000
O O14 0.294777 0.000000 0.451856
#
# Coordination Sequence:
#
# PCOD9210157 Si02
#       6
#     8   4   8   8   4   8
#     4  10  21  39  60  89 122 160 203 254 319 365
#     4   9  23  41  69  93 125 165 211 263 322 383
#     4  11  22  37  56  85 122 165 212 260 308 373
#     4  11  23  40  64  94 126 166 210 261 314 382
#     4  11  21  45  69  93 125 167 211 263 326 375
#     4  10  23  37  55  84 121 162 214 256 308 370
#
# _framework density 18.739819000000001
#
# number of rings (size 3 to 8) (size 9 to 14) (size 15 to 20)
#    0.600    1.000    1.000    3.600    1.400    6.400 
#    0.000    6.000    0.000    0.000    0.000    0.000 
#    0.000    0.000    0.000    0.000    0.000    0.000 
#
# Total GULP energy -111602.866924 kJ/mol
# GULP energy per Si atom -5580.143346 kJ/mol
# Density = 1.869717 g / cm^3
# Si number density = 18.739819 Si / 1000 Ang^3
#
#
#
# Elastic Constant Matrix: (Units=GPa)
#
#
# Indices 1 2 3 4 5 6 
#
# 1 156.6585 49.5258 84.8045 0.0000 0.9705 0.0000
# 2 49.5258 78.7484 29.0979 0.0000 -5.1944 0.0000
# 3 84.8045 29.0979 134.8554 0.0000 6.7351 0.0000
# 4 0.0000 0.0000 0.0000 29.2521 0.0000 -1.8485
# 5 0.9705 -5.1944 6.7351 0.0000 33.4368 0.0000
# 6 0.0000 0.0000 0.0000 -1.8485 0.0000 34.6755
#
#
#
# Elastic Compliance Matrix: (Units=1/GPa)
#
#
# Indices 1 2 3 4 5 6 
#
# 1 0.011127 -0.004782 -0.005973 0.000000 0.000137 0.000000
# 2 -0.004782 0.016113 -0.000607 0.000000 0.002764 0.000000
# 3 -0.005973 -0.000607 0.011413 0.000000 -0.002220 0.000000
# 4 0.000000 0.000000 0.000000 0.034301 0.000000 0.001829
# 5 0.000137 0.002764 -0.002220 0.000000 0.030780 0.000000
# 6 0.000000 0.000000 0.000000 0.001829 0.000000 0.028936
#
#
# Mechanical properties :
#
#
# Convention : Reuss Voigt Hill
#
# Bulk Modulus (GPa) = 62.77779 77.45766 70.11773
# Shear Modulus (GPa) = 31.11291 33.26183 32.18737
#
# Velocity S-wave (km/s) = 4.07904 4.21756 4.14888
# Velocity P-wave (km/s) = 7.46708 8.07094 7.77487
#
# Compressibility (1/GPa) = 0.01592920
#
# Stress axis : x y z
#
# Youngs Moduli (GPa) = 89.86784 62.06140 87.61827
#
# Poissons Ratio (x) = 0.29679 0.52330
# Poissons Ratio (y) = 0.42977 0.05322
# Poissons Ratio (z) = 0.53674 0.03770
#
# Static dielectric constant tensor:
#      x y z
#    x 1.602620 0.000000 0.011570 
#    y 0.000000 1.632270 0.000000 
#    z 0.011570 0.000000 1.650720 
# 
# From -- ./inp_files/101141.got.cif
#   From: 2010.05.17/outbox.cif.g08.bks.cpg/sg12_51_cif.got.tgz:101141.got - 2010.06.03 13:09:07.
