data_PCOD9210567
_publ_section_title
;
Structure prediction by ZEFSAII (Michael W. Deem and Ramdas Pophale) SiO2 
 PCOD9210567
Probable space group: C 2/M
;
_chemical_formula_sum "Si O2"
_cell_formula_units_Z 56
_cell_length_a 8.341816
_cell_length_b 12.893181
_cell_length_c 28.940835
_cell_angle_alpha 90.000000
_cell_angle_beta 57.752878
_cell_angle_gamma 90.000000
_cell_volume 2632.546942
_symmetry_space_group_name_H-M "C 2/M"
_symmetry_group_IT_number 12
_symmetry_cell_setting 'monoclinic'
loop_
_space_group_symop_operation_xyz
x,y,z
-x,y,-z
-x,-y,-z
x,-y,z
1/2+x,1/2+y,z
1/2-x,1/2+y,-z
1/2-x,1/2-y,-z
1/2+x,1/2-y,z
loop_
_atom_site_type_symbol
_atom_site_label
_atom_site_fract_x
_atom_site_fract_y
_atom_site_fract_z
Si Si1 0.375630 0.311009 0.360376
Si Si2 0.410556 0.000000 0.446276
Si Si3 0.830129 0.000000 0.422119
Si Si4 0.161101 0.380595 0.303865
Si Si5 0.174684 0.695632 0.116447
Si Si6 0.440381 0.183343 0.961778
Si Si7 0.797319 0.811229 0.539526
Si Si8 0.127660 0.117581 0.826531
O O1 0.442511 0.399376 0.386712
O O2 0.304895 0.363093 0.324480
O O3 0.518404 0.217559 0.327715
O O4 0.201565 0.262993 0.416742
O O5 0.627247 0.000000 0.426874
O O6 0.260708 0.000000 0.512720
O O7 0.358121 0.897041 0.428037
O O8 0.086301 0.500000 0.317590
O O9 0.274031 0.373705 0.238324
O O10 0.382883 0.739468 0.072431
O O11 0.096935 0.634612 0.083178
O O12 0.213887 0.635723 0.157959
O O13 0.033783 0.793826 0.145009
O O14 0.500000 0.124850 0.000000
O O15 0.250000 0.250000 0.000000
O O16 0.750000 0.750000 0.500000
O O17 0.000000 0.860117 0.500000
O O18 0.050799 0.000000 0.843775
#
# Coordination Sequence:
#
# PCOD9210567 Si02
#       8
#     8   4   4   8   8   8   8   8
#     4  12  24  42  66  89 123 157 201 245 318 374
#     4  11  23  40  60  90 120 158 198 236 294 364
#     4  11  22  40  66  88 122 160 190 244 306 370
#     4  11  25  45  65  90 121 160 202 264 318 371
#     4   9  17  33  60  87 121 167 207 257 298 355
#     4   8  14  27  54  89 127 172 207 241 306 356
#     4  12  24  39  60  89 121 157 199 243 292 377
#     4  10  21  39  63  87 117 157 210 260 312 360
#
# _framework density 21.272176000000002
#
# number of rings (size 3 to 8) (size 9 to 14) (size 15 to 20)
#    0.000    1.571    2.143    3.643    1.000    0.000 
#    1.286    2.857    1.571   54.000    0.000    0.000 
#    0.000    0.000    0.000    0.000    0.000    0.000 
#
# Total GULP energy -156088.480576 kJ/mol
# GULP energy per Si atom -5574.588592 kJ/mol
# Density = 2.122376 g / cm^3
# Si number density = 21.272176 Si / 1000 Ang^3
#
#
#
# Elastic Constant Matrix: (Units=GPa)
#
#
# Indices 1 2 3 4 5 6 
#
# 1 80.7231 26.4359 39.1879 0.0000 12.6945 0.0000
# 2 26.4359 118.1094 39.7554 0.0000 -7.2318 0.0000
# 3 39.1879 39.7554 119.5493 0.0000 26.7533 0.0000
# 4 0.0000 0.0000 0.0000 -25.6044 0.0000 0.4314
# 5 12.6945 -7.2318 26.7533 0.0000 43.3496 0.0000
# 6 0.0000 0.0000 0.0000 0.4314 0.0000 29.6431
#
#
#
# Elastic Compliance Matrix: (Units=1/GPa)
#
#
# Indices 1 2 3 4 5 6 
#
# 1 0.015352 -0.002367 -0.003656 0.000000 -0.002634 0.000000
# 2 -0.002367 0.010577 -0.003819 0.000000 0.004814 0.000000
# 3 -0.003656 -0.003819 0.012456 0.000000 -0.007254 0.000000
# 4 0.000000 0.000000 0.000000 -0.039046 0.000000 0.000568
# 5 -0.002634 0.004814 -0.007254 0.000000 0.029120 0.000000
# 6 0.000000 0.000000 0.000000 0.000568 0.000000 0.033726
#
#
# Mechanical properties :
#
#
# Convention : Reuss Voigt Hill
#
# Bulk Modulus (GPa) = 53.46926 58.79335 56.13130
# Shear Modulus (GPa) = 56.75255 23.67785 40.21520
#
# Velocity S-wave (km/s) = 5.17080 3.33992 4.35271
# Velocity P-wave (km/s) = 7.79999 6.52473 7.19069
#
# Compressibility (1/GPa) = 0.01870233
#
# Stress axis : x y z
#
# Youngs Moduli (GPa) = 65.13728 94.54775 80.28083
#
# Poissons Ratio (x) = 0.22380 0.29348
# Poissons Ratio (y) = 0.15418 0.30657
# Poissons Ratio (z) = 0.23812 0.36105
#
# Static dielectric constant tensor:
#      x y z
#    x 1.778170 0.000000 0.042100 
#    y 0.000000 1.758150 0.000000 
#    z 0.042100 0.000000 1.792960 
# 
# From -- ./inp_files/372109.got.cif
#   From: 2010.05.17/outbox.cif.g08.bks.cpg/sg12_187_cif.got.tgz:372109.got - 2010.06.03 13:09:07.
