data_PCOD9210227
_publ_section_title
;
Structure prediction by ZEFSAII (Michael W. Deem and Ramdas Pophale) SiO2 
 PCOD9210227
Probable space group: C 2/M
;
_chemical_formula_sum "Si O2"
_cell_formula_units_Z 56
_cell_length_a 9.078291
_cell_length_b 18.636224
_cell_length_c 25.396231
_cell_angle_alpha 90.000000
_cell_angle_beta 42.647857
_cell_angle_gamma 90.000000
_cell_volume 2910.948643
_symmetry_space_group_name_H-M "C 2/M"
_symmetry_group_IT_number 12
_symmetry_cell_setting 'monoclinic'
loop_
_space_group_symop_operation_xyz
x,y,z
-x,y,-z
-x,-y,-z
x,-y,z
1/2+x,1/2+y,z
1/2-x,1/2+y,-z
1/2-x,1/2-y,-z
1/2+x,1/2-y,z
loop_
_atom_site_type_symbol
_atom_site_label
_atom_site_fract_x
_atom_site_fract_y
_atom_site_fract_z
Si Si1 0.753074 0.292187 0.053735
Si Si2 0.120719 0.213640 0.280588
Si Si3 0.597796 0.415941 0.847075
Si Si4 0.405450 0.190966 0.808919
Si Si5 0.247034 0.294126 0.553735
Si Si6 0.475982 0.919223 0.446721
Si Si7 0.565759 0.578653 0.730898
O O1 0.600887 0.361910 0.089672
O O2 0.676529 0.236573 0.119511
O O3 0.750000 0.250000 0.000000
O O4 0.000000 0.314472 0.000000
O O5 0.331807 0.196677 0.260465
O O6 0.184849 0.270213 0.219236
O O7 0.915464 0.249975 0.364716
O O8 0.064513 0.142776 0.261811
O O9 0.555974 0.500000 0.868509
O O10 0.800649 0.387346 0.828762
O O11 0.628312 0.409140 0.775469
O O12 0.500000 0.301879 0.500000
O O13 0.250000 0.250000 0.500000
O O14 0.151468 0.370658 0.561202
O O15 0.500000 0.889134 0.500000
O O16 0.715472 0.923946 0.360288
O O17 0.383466 0.000000 0.475828
O O18 0.457232 0.500000 0.756410
#
# Coordination Sequence:
#
# PCOD9210227 Si02
#       7
#     8   8   8   8   8   8   8
#     4  12  23  42  69  96 127 166 212 260 311 391
#     4  12  22  38  65  91 125 170 221 258 324 386
#     4  11  24  43  66  99 135 167 211 273 328 378
#     4  12  22  40  65  94 123 169 217 260 313 391
#     4  12  24  37  57  91 128 162 213 275 320 373
#     4  10  21  39  61  85 122 170 214 263 329 388
#     4  10  21  39  62  90 126 166 214 269 323 384
#
# _framework density 19.237715999999999
#
# number of rings (size 3 to 8) (size 9 to 14) (size 15 to 20)
#    0.000    0.714    4.286    4.714    0.000    1.143 
#    0.000    1.429    0.000    8.571    0.000    0.000 
#    0.000    0.000    0.000    0.000    0.000    0.000 
#
# Total GULP energy -156192.748182 kJ/mol
# GULP energy per Si atom -5578.312435 kJ/mol
# Density = 1.919393 g / cm^3
# Si number density = 19.237716 Si / 1000 Ang^3
#
#
#
# Elastic Constant Matrix: (Units=GPa)
#
#
# Indices 1 2 3 4 5 6 
#
# 1 82.7315 49.1454 20.9476 -0.0006 -15.3166 -0.0017
# 2 49.1454 134.4158 33.0376 -0.0002 -1.3999 0.0018
# 3 20.9476 33.0376 87.4437 0.0004 5.7663 0.0008
# 4 -0.0006 -0.0002 0.0004 24.6561 0.0015 -4.0936
# 5 -15.3166 -1.3999 5.7663 0.0015 39.8774 -0.0011
# 6 -0.0017 0.0018 0.0008 -4.0936 -0.0011 34.4569
#
#
#
# Elastic Compliance Matrix: (Units=1/GPa)
#
#
# Indices 1 2 3 4 5 6 
#
# 1 0.017336 -0.005662 -0.002463 0.000000 0.006816 0.000001
# 2 -0.005662 0.010072 -0.002351 0.000000 -0.001481 -0.000001
# 3 -0.002463 -0.002351 0.013107 0.000000 -0.002924 0.000000
# 4 0.000000 0.000000 0.000000 0.041374 -0.000001 0.004915
# 5 0.006816 -0.001481 -0.002924 -0.000001 0.028066 0.000001
# 6 0.000001 -0.000001 0.000000 0.004915 0.000001 0.029606
#
#
# Mechanical properties :
#
#
# Convention : Reuss Voigt Hill
#
# Bulk Modulus (GPa) = 51.11864 56.76135 53.94000
# Shear Modulus (GPa) = 29.93368 33.22877 31.58122
#
# Velocity S-wave (km/s) = 3.94888 4.16056 4.05610
# Velocity P-wave (km/s) = 6.88632 7.25600 7.07358
#
# Compressibility (1/GPa) = 0.01956233
#
# Stress axis : x y z
#
# Youngs Moduli (GPa) = 57.68203 99.28195 76.29377
#
# Poissons Ratio (x) = 0.56215 0.18793
# Poissons Ratio (y) = 0.32660 0.17940
# Poissons Ratio (z) = 0.14209 0.23345
#
# Static dielectric constant tensor:
#      x y z
#    x 1.587360 -0.000020 0.022520 
#    y -0.000020 1.974480 0.000020 
#    z 0.022520 0.000020 1.647920 
# 
# From -- ./inp_files/300683.got.cif
#   From: 2010.05.17/outbox.cif.g08.bks.cpg/sg12_151_cif.got.tgz:300683.got - 2010.06.03 13:09:07.
