data_PCOD9210582
_publ_section_title
;
Structure prediction by ZEFSAII (Michael W. Deem and Ramdas Pophale) SiO2 
 PCOD9210582
Probable space group: C 2/M
;
_chemical_formula_sum "Si O2"
_cell_formula_units_Z 64
_cell_length_a 8.938094
_cell_length_b 20.162658
_cell_length_c 25.888832
_cell_angle_alpha 90.000000
_cell_angle_beta 44.086446
_cell_angle_gamma 90.000000
_cell_volume 3246.040537
_symmetry_space_group_name_H-M "C 2/M"
_symmetry_group_IT_number 12
_symmetry_cell_setting 'monoclinic'
loop_
_space_group_symop_operation_xyz
x,y,z
-x,y,-z
-x,-y,-z
x,-y,z
1/2+x,1/2+y,z
1/2-x,1/2+y,-z
1/2-x,1/2-y,-z
1/2+x,1/2-y,z
loop_
_atom_site_type_symbol
_atom_site_label
_atom_site_fract_x
_atom_site_fract_y
_atom_site_fract_z
Si Si1 0.976028 0.820809 0.731198
Si Si2 0.217521 0.575144 0.979138
Si Si3 0.491916 0.576834 0.814930
Si Si4 0.019710 0.577110 0.275002
Si Si5 0.928792 0.694961 0.575085
Si Si6 0.755633 0.805798 0.042425
Si Si7 0.780529 0.161051 0.575836
Si Si8 0.036209 0.307845 0.786349
O O1 0.914445 0.876249 0.788454
O O2 0.206664 0.837679 0.649226
O O3 0.996595 0.751148 0.755977
O O4 0.788002 0.812609 0.736640
O O5 0.266368 0.500000 0.983476
O O6 0.398841 0.598186 0.893532
O O7 0.194285 0.624777 0.031701
O O8 0.000000 0.574884 0.000000
O O9 0.425744 0.500000 0.823996
O O10 0.749013 0.580262 0.754527
O O11 0.970710 0.500000 0.276945
O O12 0.846184 0.612836 0.354543
O O13 0.035095 0.622399 0.220310
O O14 0.865016 0.772515 0.583726
O O15 0.000000 0.672631 0.500000
O O16 0.116987 0.683161 0.570376
O O17 0.596137 0.791745 0.129158
O O18 0.750000 0.750000 0.000000
O O19 0.000000 0.809840 0.000000
O O20 0.000000 0.129295 0.500000
#
# Coordination Sequence:
#
# PCOD9210582 Si02
#       8
#     8   8   8   8   8   8   8   8
#     4  12  22  39  64  90 123 155 205 249 309 362
#     4  10  21  39  63  88 118 160 206 250 304 368
#     4  10  21  40  63  87 121 162 203 250 304 369
#     4  11  24  42  61  88 125 168 211 252 306 365
#     4  11  22  37  64  98 123 156 196 251 305 358
#     4  12  24  40  60  88 127 159 202 257 317 366
#     4  11  22  39  65  92 127 160 203 249 306 366
#     4  12  25  38  63  92 120 163 205 260 304 368
#
# _framework density 19.716328000000001
#
# number of rings (size 3 to 8) (size 9 to 14) (size 15 to 20)
#    0.000    0.875    2.500    6.375    1.750    1.500 
#    0.000    0.000    0.000    0.750    0.000    0.000 
#    0.000    0.000    0.000    0.000    0.000    0.000 
#
# Total GULP energy -178942.507366 kJ/mol
# GULP energy per Si atom -5591.953355 kJ/mol
# Density = 1.967145 g / cm^3
# Si number density = 19.716328 Si / 1000 Ang^3
#
#
#
# Elastic Constant Matrix: (Units=GPa)
#
#
# Indices 1 2 3 4 5 6 
#
# 1 81.7990 30.7888 -5.1829 -0.0052 -2.7320 -0.0058
# 2 30.7888 71.9504 13.4328 0.0096 19.7321 0.0079
# 3 -5.1829 13.4328 97.9010 -0.0676 -3.7227 -0.1108
# 4 -0.0052 0.0096 -0.0676 5.0745 0.0271 -40.0475
# 5 -2.7320 19.7321 -3.7227 0.0271 33.3017 0.0396
# 6 -0.0058 0.0079 -0.1108 -40.0475 0.0396 -51.0278
#
#
#
# Elastic Compliance Matrix: (Units=1/GPa)
#
#
# Indices 1 2 3 4 5 6 
#
# 1 0.016109 -0.009285 0.002396 0.000001 0.007091 -0.000003
# 2 -0.009285 0.022668 -0.004159 -0.000002 -0.014658 0.000004
# 3 0.002396 -0.004159 0.011060 -0.000005 0.003897 -0.000018
# 4 0.000001 -0.000002 -0.000005 0.027394 0.000004 -0.021499
# 5 0.007091 -0.014658 0.003897 0.000004 0.039731 0.000016
# 6 -0.000003 0.000004 -0.000018 -0.021499 0.000016 -0.002724
#
#
# Mechanical properties :
#
#
# Convention : Reuss Voigt Hill
#
# Bulk Modulus (GPa) = 36.04778 36.63640 36.34209
# Shear Modulus (GPa) = 34.34505 11.64381 22.99443
#
# Velocity S-wave (km/s) = 4.17821 2.43279 3.41876
# Velocity P-wave (km/s) = 6.44976 5.14912 5.83579
#
# Compressibility (1/GPa) = 0.02774096
#
# Stress axis : x y z
#
# Youngs Moduli (GPa) = 62.07810 44.11451 90.41492
#
# Poissons Ratio (x) = 0.40962 -0.21668
# Poissons Ratio (y) = 0.57642 0.37606
# Poissons Ratio (z) = -0.14877 0.18348
#
# Static dielectric constant tensor:
#      x y z
#    x 1.666160 0.000000 -0.010750 
#    y 0.000000 1.677640 0.000000 
#    z -0.010750 0.000000 1.733490 
# 
# From -- ./inp_files/333701.got.cif
#   From: 2010.05.17/outbox.cif.g08.bks.cpg/sg12_167_cif.got.tgz:333701.got - 2010.06.03 13:09:07.
