data_PCOD9210802
_publ_section_title
;
Structure prediction by ZEFSAII (Michael W. Deem and Ramdas Pophale) SiO2 
 PCOD9210802
Probable space group: C 2/M
;
_chemical_formula_sum "Si O2"
_cell_formula_units_Z 48
_cell_length_a 10.873148
_cell_length_b 23.348469
_cell_length_c 9.162020
_cell_angle_alpha 90.000000
_cell_angle_beta 69.936442
_cell_angle_gamma 90.000000
_cell_volume 2184.817221
_symmetry_space_group_name_H-M "C 2/M"
_symmetry_group_IT_number 12
_symmetry_cell_setting 'monoclinic'
loop_
_space_group_symop_operation_xyz
x,y,z
-x,y,-z
-x,-y,-z
x,-y,z
1/2+x,1/2+y,z
1/2-x,1/2+y,-z
1/2-x,1/2-y,-z
1/2+x,1/2-y,z
loop_
_atom_site_type_symbol
_atom_site_label
_atom_site_fract_x
_atom_site_fract_y
_atom_site_fract_z
Si Si1 0.984736 0.434685 0.838598
Si Si2 0.160046 0.753872 0.917333
Si Si3 0.819354 0.652787 0.318227
Si Si4 0.319852 0.565940 0.112897
Si Si5 0.622939 0.653968 0.162288
Si Si6 0.330191 0.660033 0.327593
O O1 0.032908 0.500000 0.810440
O O2 0.067254 0.392778 0.704815
O O3 0.833382 0.433317 0.863224
O O4 0.000000 0.414907 0.000000
O O5 0.130981 0.703663 0.804806
O O6 0.223073 0.802300 0.784755
O O7 0.202499 0.788390 0.069524
O O8 0.000000 0.770340 0.000000
O O9 0.707209 0.627011 0.258055
O O10 0.752674 0.670469 0.495181
O O11 0.362394 0.500000 0.091725
O O12 0.330538 0.595154 0.266695
O O13 0.383590 0.607409 0.963947
O O14 0.484323 0.672557 0.282981
#
# Coordination Sequence:
#
# PCOD9210802 Si02
#       6
#     8   8   8   8   8   8
#     4  10  21  39  64  89 117 159 210 254 288 350
#     4   9  20  39  61  83 115 159 206 239 285 360
#     4  11  22  39  63  90 121 159 197 249 314 351
#     4  10  21  40  64  88 120 163 208 247 292 354
#     4  10  21  40  62  88 121 158 203 246 294 361
#     4  11  23  39  59  93 128 152 193 256 307 357
#
# _framework density 21.969801
#
# number of rings (size 3 to 8) (size 9 to 14) (size 15 to 20)
#    0.000    1.833    1.667    3.000    0.000    4.000 
#    6.000    1.667    0.000    3.000    0.000    0.000 
#    0.000    0.000    0.000    0.000    0.000    0.000 
#
# Total GULP energy -133824.999947 kJ/mol
# GULP energy per Si atom -5576.041664 kJ/mol
# Density = 2.191980 g / cm^3
# Si number density = 21.969801 Si / 1000 Ang^3
#
#
#
# Elastic Constant Matrix: (Units=GPa)
#
#
# Indices 1 2 3 4 5 6 
#
# 1 82.3765 24.3168 42.4441 0.0000 -5.3470 0.0000
# 2 24.3168 115.6759 37.0249 0.0000 -12.5591 0.0000
# 3 42.4441 37.0249 93.5084 0.0000 -4.6825 0.0000
# 4 0.0000 0.0000 0.0000 16.2240 0.0000 1.6841
# 5 -5.3470 -12.5591 -4.6825 0.0000 28.2847 0.0000
# 6 0.0000 0.0000 0.0000 1.6841 0.0000 25.8571
#
#
#
# Elastic Compliance Matrix: (Units=1/GPa)
#
#
# Indices 1 2 3 4 5 6 
#
# 1 0.016043 -0.001040 -0.006798 0.000000 0.001446 0.000000
# 2 -0.001040 0.010384 -0.003447 0.000000 0.003844 0.000000
# 3 -0.006798 -0.003447 0.015129 0.000000 -0.000311 0.000000
# 4 0.000000 0.000000 0.000000 0.062057 0.000000 -0.004042
# 5 0.001446 0.003844 -0.000311 0.000000 0.037283 0.000000
# 6 0.000000 0.000000 0.000000 -0.004042 0.000000 0.038937
#
#
# Mechanical properties :
#
#
# Convention : Reuss Voigt Hill
#
# Bulk Modulus (GPa) = 52.66899 55.45916 54.06408
# Shear Modulus (GPa) = 23.95425 26.59151 25.27288
#
# Velocity S-wave (km/s) = 3.30559 3.48281 3.39535
# Velocity P-wave (km/s) = 6.21246 6.43983 6.32717
#
# Compressibility (1/GPa) = 0.01898650
#
# Stress axis : x y z
#
# Youngs Moduli (GPa) = 62.33383 96.30145 66.09755
#
# Poissons Ratio (x) = 0.10012 0.44932
# Poissons Ratio (y) = 0.06480 0.22785
# Poissons Ratio (z) = 0.42373 0.33197
#
# Static dielectric constant tensor:
#      x y z
#    x 1.896790 0.000000 0.022860 
#    y 0.000000 1.850990 0.000000 
#    z 0.022860 0.000000 1.780880 
# 
# From -- ./inp_files/51358.got.cif
#   From: 2010.05.17/outbox.cif.g08.bks.cpg/sg12_26_cif.got.tgz:51358.got - 2010.06.03 13:09:07.
