data_PCOD9210973
_publ_section_title
;
Structure prediction by ZEFSAII (Michael W. Deem and Ramdas Pophale) SiO2 
 PCOD9210973
Probable space group: C 2/M
;
_chemical_formula_sum "Si O2"
_cell_formula_units_Z 36
_cell_length_a 15.065845
_cell_length_b 15.841606
_cell_length_c 15.888444
_cell_angle_alpha 90.000000
_cell_angle_beta 150.957360
_cell_angle_gamma 90.000000
_cell_volume 1840.890118
_symmetry_space_group_name_H-M "C 2/M"
_symmetry_group_IT_number 12
_symmetry_cell_setting 'monoclinic'
loop_
_space_group_symop_operation_xyz
x,y,z
-x,y,-z
-x,-y,-z
x,-y,z
1/2+x,1/2+y,z
1/2-x,1/2+y,-z
1/2-x,1/2-y,-z
1/2+x,1/2-y,z
loop_
_atom_site_type_symbol
_atom_site_label
_atom_site_fract_x
_atom_site_fract_y
_atom_site_fract_z
Si Si1 0.816804 0.243619 0.650641
Si Si2 0.702321 0.902201 0.145706
Si Si3 0.965596 0.901149 0.069803
Si Si4 0.000000 0.196056 0.500000
Si Si5 0.667161 0.156084 0.933299
O O1 0.750000 0.250000 0.500000
O O2 0.637018 0.251051 0.557238
O O3 0.922087 0.161150 0.774546
O O4 0.953116 0.324610 0.768015
O O5 0.866102 0.857795 0.329883
O O6 0.700413 0.000000 0.168028
O O7 0.500000 0.866118 0.000000
O O8 0.730503 0.891543 0.069502
O O9 0.013553 0.000000 0.119677
O O10 0.754012 0.888131 0.923622
O O11 0.000000 0.878119 0.000000
O O12 0.750000 0.250000 0.000000
#
# Coordination Sequence:
#
# PCOD9210973 Si02
#       5
#     8   8   8   4   8
#     4  11  25  40  65 101 131 174 222 270 332 396
#     4  11  23  41  63  96 133 171 214 267 328 389
#     4  10  23  43  68  95 128 174 223 275 332 390
#     4  12  23  40  69  98 134 172 218 274 323 398
#     4  10  21  39  65  90 129 171 216 265 320 387
#
# _framework density 19.555757
#
# number of rings (size 3 to 8) (size 9 to 14) (size 15 to 20)
#    0.000    1.333    2.222    3.667    9.333    0.000 
#    0.000    3.889    0.000    0.000    0.000    0.000 
#    0.000    0.000    0.000    0.000    0.000    0.000 
#
# Total GULP energy -100340.960124 kJ/mol
# GULP energy per Si atom -5574.497785 kJ/mol
# Density = 1.951125 g / cm^3
# Si number density = 19.555757 Si / 1000 Ang^3
#
#
#
# Elastic Constant Matrix: (Units=GPa)
#
#
# Indices 1 2 3 4 5 6 
#
# 1 156.4585 25.1555 40.1367 0.0028 6.5345 0.0005
# 2 25.1555 72.4961 38.9366 0.0016 -2.0298 -0.0001
# 3 40.1367 38.9366 104.8309 0.0046 0.1536 0.0022
# 4 0.0028 0.0016 0.0046 20.6523 0.0015 5.9842
# 5 6.5345 -2.0298 0.1536 0.0015 43.3069 0.0004
# 6 0.0005 -0.0001 0.0022 5.9842 0.0004 23.9459
#
#
#
# Elastic Compliance Matrix: (Units=1/GPa)
#
#
# Indices 1 2 3 4 5 6 
#
# 1 0.007236 -0.001319 -0.002279 0.000000 -0.001146 0.000000
# 2 -0.001319 0.017502 -0.005997 0.000000 0.001041 0.000001
# 3 -0.002279 -0.005997 0.012639 -0.000002 0.000018 -0.000001
# 4 0.000000 0.000000 -0.000002 0.052201 -0.000002 -0.013045
# 5 -0.001146 0.001041 0.000018 -0.000002 0.023313 0.000000
# 6 0.000000 0.000001 -0.000001 -0.013045 0.000000 0.045021
#
#
# Mechanical properties :
#
#
# Convention : Reuss Voigt Hill
#
# Bulk Modulus (GPa) = 54.98447 60.24922 57.61684
# Shear Modulus (GPa) = 27.29811 32.88481 30.09146
#
# Velocity S-wave (km/s) = 3.74024 4.10517 3.92695
# Velocity P-wave (km/s) = 6.84327 7.30382 7.07729
#
# Compressibility (1/GPa) = 0.01818695
#
# Stress axis : x y z
#
# Youngs Moduli (GPa) = 138.19826 57.13776 79.11961
#
# Poissons Ratio (x) = 0.07536 0.18030
# Poissons Ratio (y) = 0.18228 0.47448
# Poissons Ratio (z) = 0.31494 0.34266
#
# Static dielectric constant tensor:
#      x y z
#    x 1.734450 0.000000 0.001650 
#    y 0.000000 1.710810 0.000030 
#    z 0.001650 0.000030 1.934370 
# 
# From -- ./inp_files/216575.got.cif
#   From: 2010.05.17/outbox.cif.g08.bks.cpg/sg12_109_cif.got.tgz:216575.got - 2010.06.03 13:09:07.
