data_PCOD9210084
_publ_section_title
;
Structure prediction by ZEFSAII (Michael W. Deem and Ramdas Pophale) SiO2 
 PCOD9210084
Probable space group: C 2/M
;
_chemical_formula_sum "Si O2"
_cell_formula_units_Z 40
_cell_length_a 21.972891
_cell_length_b 21.187571
_cell_length_c 13.178393
_cell_angle_alpha 90.000000
_cell_angle_beta 19.965498
_cell_angle_gamma 90.000000
_cell_volume 2094.900091
_symmetry_space_group_name_H-M "C 2/M"
_symmetry_group_IT_number 12
_symmetry_cell_setting 'monoclinic'
loop_
_space_group_symop_operation_xyz
x,y,z
-x,y,-z
-x,-y,-z
x,-y,z
1/2+x,1/2+y,z
1/2-x,1/2+y,-z
1/2-x,1/2-y,-z
1/2+x,1/2-y,z
loop_
_atom_site_type_symbol
_atom_site_label
_atom_site_fract_x
_atom_site_fract_y
_atom_site_fract_z
Si Si1 0.081106 0.796627 0.264908
Si Si2 0.108176 0.428087 0.496472
Si Si3 0.868004 0.327209 0.362478
Si Si4 0.227528 0.711932 0.692250
Si Si5 0.230326 0.072090 0.970857
O O1 0.125838 0.870106 0.181845
O O2 0.000000 0.784460 0.500000
O O3 0.921758 0.785293 0.436405
O O4 0.250000 0.750000 0.000000
O O5 0.144454 0.500000 0.471366
O O6 0.112645 0.382469 0.585777
O O7 0.237732 0.412638 0.198492
O O8 0.916803 0.427274 0.740060
O O9 0.793610 0.339356 0.365216
O O10 0.727568 0.278614 0.633293
O O11 0.066325 0.299113 0.024174
O O12 0.160495 0.000000 0.087665
#
# Coordination Sequence:
#
# PCOD9210084 Si02
#       5
#     8   8   8   8   8
#     4  12  25  37  59  91 121 150 194 247 296 345
#     4   9  18  36  61  85 113 157 197 234 287 348
#     4  10  21  39  60  81 118 154 197 236 290 352
#     4  10  22  38  56  88 115 156 190 240 298 343
#     4   9  20  37  58  85 120 155 194 240 292 351
#
# _framework density 19.093990000000002
#
# number of rings (size 3 to 8) (size 9 to 14) (size 15 to 20)
#    0.000    2.000    0.000    4.800    8.400    0.400 
#    0.000    4.000    0.000    2.400    0.000    0.000 
#    0.000    0.000    0.000    0.000    0.000    0.000 
#
# Total GULP energy -111350.595393 kJ/mol
# GULP energy per Si atom -5567.529770 kJ/mol
# Density = 1.905053 g / cm^3
# Si number density = 19.093990 Si / 1000 Ang^3
#
#
#
# Elastic Constant Matrix: (Units=GPa)
#
#
# Indices 1 2 3 4 5 6 
#
# 1 124.7611 48.2110 45.7313 -0.0054 3.1653 0.0042
# 2 48.2110 68.3602 51.5219 -0.0078 18.1860 0.0056
# 3 45.7313 51.5219 93.6977 -0.0031 5.4572 0.0041
# 4 -0.0054 -0.0078 -0.0031 24.9082 0.0014 6.0344
# 5 3.1653 18.1860 5.4572 0.0014 27.0566 -0.0054
# 6 0.0042 0.0056 0.0041 6.0344 -0.0054 38.6339
#
#
#
# Elastic Compliance Matrix: (Units=1/GPa)
#
#
# Indices 1 2 3 4 5 6 
#
# 1 0.011640 -0.008443 -0.001305 -0.000001 0.004576 0.000001
# 2 -0.008443 0.037965 -0.015509 0.000011 -0.021402 -0.000008
# 3 -0.001305 -0.015509 0.019450 -0.000003 0.006654 0.000002
# 4 -0.000001 0.000011 -0.000003 0.041726 -0.000010 -0.006517
# 5 0.004576 -0.021402 0.006654 -0.000010 0.049468 0.000010
# 6 0.000001 -0.000008 0.000002 -0.006517 0.000010 0.026902
#
#
# Mechanical properties :
#
#
# Convention : Reuss Voigt Hill
#
# Bulk Modulus (GPa) = 53.93316 64.19415 59.06366
# Shear Modulus (GPa) = 20.50475 27.54340 24.02408
#
# Velocity S-wave (km/s) = 3.28057 3.80217 3.55096
# Velocity P-wave (km/s) = 6.53123 7.27794 6.91467
#
# Compressibility (1/GPa) = 0.01854147
#
# Stress axis : x y z
#
# Youngs Moduli (GPa) = 85.90867 26.33988 51.41401
#
# Poissons Ratio (x) = 0.22239 0.06711
# Poissons Ratio (y) = 0.72533 0.79737
# Poissons Ratio (z) = 0.11213 0.40850
#
# Static dielectric constant tensor:
#      x y z
#    x 1.687430 -0.000010 -0.000340 
#    y -0.000010 1.686330 0.000010 
#    z -0.000340 0.000010 1.686670 
# 
# From -- ./inp_files/120421.got.cif
#   From: 2010.05.17/outbox.cif.g08.bks.cpg/sg12_61_cif.got.tgz:120421.got - 2010.06.03 13:09:07.
