data_PCOD9210578
_publ_section_title
;
Structure prediction by ZEFSAII (Michael W. Deem and Ramdas Pophale) SiO2 
 PCOD9210578
Probable space group: C 2/M
;
_chemical_formula_sum "Si O2"
_cell_formula_units_Z 48
_cell_length_a 24.314510
_cell_length_b 11.260743
_cell_length_c 30.541819
_cell_angle_alpha 90.000000
_cell_angle_beta 162.742209
_cell_angle_gamma 90.000000
_cell_volume 2480.865384
_symmetry_space_group_name_H-M "C 2/M"
_symmetry_group_IT_number 12
_symmetry_cell_setting 'monoclinic'
loop_
_space_group_symop_operation_xyz
x,y,z
-x,y,-z
-x,-y,-z
x,-y,z
1/2+x,1/2+y,z
1/2-x,1/2+y,-z
1/2-x,1/2-y,-z
1/2+x,1/2-y,z
loop_
_atom_site_type_symbol
_atom_site_label
_atom_site_fract_x
_atom_site_fract_y
_atom_site_fract_z
Si Si1 0.224084 0.368952 0.007724
Si Si2 0.435703 0.639533 0.402925
Si Si3 0.496652 0.864817 0.078224
Si Si4 0.427802 0.371050 0.662566
Si Si5 0.343243 0.371583 0.917854
Si Si6 0.548038 0.211078 0.405017
O O1 0.226590 0.500000 0.987327
O O2 0.392658 0.368103 0.170485
O O3 0.250000 0.250000 0.000000
O O4 0.039669 0.363023 0.897307
O O5 0.500000 0.681211 0.500000
O O6 0.482688 0.500000 0.435337
O O7 0.525654 0.709147 0.431058
O O8 0.212177 0.649869 0.230576
O O9 0.439191 0.000000 0.019796
O O10 0.384798 0.752167 0.974403
O O11 0.412247 0.500000 0.629713
O O12 0.446034 0.281658 0.636466
O O13 0.246530 0.352226 0.554585
O O14 0.355891 0.500000 0.951746
O O15 0.139653 0.364302 0.741882
O O16 0.500000 0.373859 0.000000
#
# Coordination Sequence:
#
# PCOD9210578 Si02
#       6
#     8   8   8   8   8   8
#     4  10  22  40  61  88 122 157 201 250 297 357
#     4  10  22  38  60  90 120 154 201 255 302 357
#     4  10  21  39  63  88 117 155 202 248 297 357
#     4  10  22  39  59  86 119 158 204 249 294 356
#     4  11  22  37  59  89 122 151 191 246 300 357
#     4  11  21  38  62  85 119 160 200 244 307 358
#
# _framework density 19.348085999999999
#
# number of rings (size 3 to 8) (size 9 to 14) (size 15 to 20)
#    0.000    1.667    3.333    1.000    2.333    1.667 
#    0.000    0.833    0.000    2.500    0.000    0.000 
#    0.000    0.000    0.000    0.000    0.000    0.000 
#
# Total GULP energy -133731.268413 kJ/mol
# GULP energy per Si atom -5572.136184 kJ/mol
# Density = 1.930405 g / cm^3
# Si number density = 19.348086 Si / 1000 Ang^3
#
#
#
# Elastic Constant Matrix: (Units=GPa)
#
#
# Indices 1 2 3 4 5 6 
#
# 1 70.0481 37.0955 20.5482 -0.0015 12.1697 -0.0061
# 2 37.0955 128.2789 11.1717 -0.0301 -6.3451 -0.0070
# 3 20.5482 11.1717 51.2743 -0.0609 16.3792 -0.0100
# 4 -0.0015 -0.0301 -0.0609 10.5226 0.0168 -17.1760
# 5 12.1697 -6.3451 16.3792 0.0168 30.8204 0.0045
# 6 -0.0061 -0.0070 -0.0100 -17.1760 0.0045 -1.6672
#
#
#
# Elastic Compliance Matrix: (Units=1/GPa)
#
#
# Indices 1 2 3 4 5 6 
#
# 1 0.019738 -0.005628 -0.004606 -0.000005 -0.006505 0.000015
# 2 -0.005628 0.009801 -0.001487 0.000001 0.005030 -0.000006
# 3 -0.004606 -0.001487 0.025522 -0.000006 -0.012051 -0.000103
# 4 -0.000005 0.000001 -0.000006 0.005334 0.000011 -0.054953
# 5 -0.006505 0.005030 -0.012051 0.000011 0.042455 0.000083
# 6 0.000015 -0.000006 -0.000103 -0.054953 0.000083 -0.033666
#
#
# Mechanical properties :
#
#
# Convention : Reuss Voigt Hill
#
# Bulk Modulus (GPa) = 31.62616 43.02578 37.32597
# Shear Modulus (GPa) = 48.46553 19.98755 34.22654
#
# Velocity S-wave (km/s) = 5.01035 3.21760 4.21050
# Velocity P-wave (km/s) = 7.06066 6.00749 6.55526
#
# Compressibility (1/GPa) = 0.03161939
#
# Stress axis : x y z
#
# Youngs Moduli (GPa) = 50.66462 102.02596 39.18146
#
# Poissons Ratio (x) = 0.57424 0.18046
# Poissons Ratio (y) = 0.28516 0.05826
# Poissons Ratio (z) = 0.23335 0.15171
#
# Static dielectric constant tensor:
#      x y z
#    x 1.654070 0.000000 0.005370 
#    y 0.000000 1.726070 -0.000010 
#    z 0.005370 -0.000010 1.686510 
# 
# From -- ./inp_files/179718.got.cif
#   From: 2010.05.17/outbox.cif.g08.bks.cpg/sg12_90_cif.got.tgz:179718.got - 2010.06.03 13:09:07.
