data_PCOD9210009
_publ_section_title
;
Structure prediction by ZEFSAII (Michael W. Deem and Ramdas Pophale) SiO2 
 PCOD9210009
Probable space group: C 2/M
;
_chemical_formula_sum "Si O2"
_cell_formula_units_Z 64
_cell_length_a 15.445281
_cell_length_b 7.704098
_cell_length_c 24.399637
_cell_angle_alpha 90.000000
_cell_angle_beta 92.780270
_cell_angle_gamma 90.000000
_cell_volume 2899.943046
_symmetry_space_group_name_H-M "C 2/M"
_symmetry_group_IT_number 12
_symmetry_cell_setting 'monoclinic'
loop_
_space_group_symop_operation_xyz
x,y,z
-x,y,-z
-x,-y,-z
x,-y,z
1/2+x,1/2+y,z
1/2-x,1/2+y,-z
1/2-x,1/2-y,-z
1/2+x,1/2-y,z
loop_
_atom_site_type_symbol
_atom_site_label
_atom_site_fract_x
_atom_site_fract_y
_atom_site_fract_z
Si Si1 0.929480 0.303270 0.746483
Si Si2 0.822929 0.795855 0.394557
Si Si3 0.893176 0.710850 0.287767
Si Si4 0.242242 0.710594 0.917025
Si Si5 0.100363 0.792599 0.001009
Si Si6 0.244085 0.201953 0.205402
Si Si7 0.363144 0.301756 0.629735
Si Si8 0.401310 0.710900 0.509693
O O1 0.933235 0.500000 0.766777
O O2 0.854988 0.211957 0.778443
O O3 0.900684 0.299592 0.681963
O O4 0.025863 0.229555 0.746329
O O5 0.896433 0.773770 0.350710
O O6 0.740371 0.697395 0.368734
O O7 0.845892 0.729453 0.455863
O O8 0.803303 0.000000 0.397957
O O9 0.896154 0.500000 0.290506
O O10 0.806563 0.774766 0.254564
O O11 0.246156 0.500000 0.917071
O O12 0.154636 0.759533 0.946850
O O13 0.242789 0.775642 0.854711
O O14 0.329659 0.772422 0.951343
O O15 0.094259 0.000000 0.008309
O O16 0.000000 0.726935 0.000000
O O17 0.268534 0.000000 0.202493
O O18 0.395989 0.500000 0.633361
O O19 0.379247 0.227099 0.569678
O O20 0.500000 0.753906 0.500000
O O21 0.393309 0.500000 0.510589
#
# Coordination Sequence:
#
# PCOD9210009 Si02
#       8
#     8   8   8   8   8   8   8   8
#     4  11  23  38  57  83 111 143 189 239 283 337
#     4  11  21  35  57  82 107 139 185 232 277 340
#     4  10  22  39  57  79 111 148 185 232 290 340
#     4   9  19  35  56  83 114 152 196 231 274 335
#     4   9  18  34  56  84 119 154 188 234 284 323
#     4  10  21  39  59  80 113 154 190 231 283 339
#     4  11  21  36  57  78 107 145 180 224 288 345
#     4   9  19  34  52  77 106 137 178 227 278 339
#
# _framework density 22.069399000000001
#
# number of rings (size 3 to 8) (size 9 to 14) (size 15 to 20)
#    0.000    2.000    1.250    2.250    0.000    3.750 
#    0.000    1.875    0.000    4.500    0.000    0.000 
#    0.000    0.000    0.000    0.000    0.000    0.000 
#
# Total GULP energy -178631.586445 kJ/mol
# GULP energy per Si atom -5582.237076 kJ/mol
# Density = 2.201917 g / cm^3
# Si number density = 22.069399 Si / 1000 Ang^3
#
#
#
# Elastic Constant Matrix: (Units=GPa)
#
#
# Indices 1 2 3 4 5 6 
#
# 1 104.2724 -2.5584 32.0502 0.0000 -20.4782 0.0000
# 2 -2.5584 43.4846 -2.6576 0.0000 3.0707 0.0000
# 3 32.0502 -2.6576 125.8654 0.0000 -22.1298 0.0000
# 4 0.0000 0.0000 0.0000 -23.7303 0.0000 39.9049
# 5 -20.4782 3.0707 -22.1298 0.0000 18.2971 0.0000
# 6 0.0000 0.0000 0.0000 39.9049 0.0000 -40.6210
#
#
#
# Elastic Compliance Matrix: (Units=1/GPa)
#
#
# Indices 1 2 3 4 5 6 
#
# 1 0.012376 -0.000231 -0.000907 0.000000 0.012793 0.000000
# 2 -0.000231 0.023283 -0.000231 0.000000 -0.004445 0.000000
# 3 -0.000907 -0.000231 0.010160 0.000000 0.011312 0.000000
# 4 0.000000 0.000000 0.000000 0.064637 0.000000 0.063497
# 5 0.012793 -0.004445 0.011312 0.000000 0.083399 0.000000
# 6 0.000000 0.000000 0.000000 0.063497 0.000000 0.037760
#
#
# Mechanical properties :
#
#
# Convention : Reuss Voigt Hill
#
# Bulk Modulus (GPa) = 23.21216 36.36562 29.78889
# Shear Modulus (GPa) = 20.10359 7.24171 13.67265
#
# Velocity S-wave (km/s) = 3.02143 1.81341 2.49174
# Velocity P-wave (km/s) = 4.76578 4.57146 4.66963
#
# Compressibility (1/GPa) = 0.04308086
#
# Stress axis : x y z
#
# Youngs Moduli (GPa) = 80.80305 42.95004 98.42601
#
# Poissons Ratio (x) = 0.00991 0.08927
# Poissons Ratio (y) = 0.01864 0.02276
# Poissons Ratio (z) = 0.07329 0.00993
#
# Static dielectric constant tensor:
#      x y z
#    x 1.836160 0.000000 -0.007210 
#    y 0.000000 1.836030 0.000000 
#    z -0.007210 0.000000 1.818670 
# 
# From -- ./inp_files/338702.got.cif
#   From: 2010.05.17/outbox.cif.g08.bks.cpg/sg12_170_cif.got.tgz:338702.got - 2010.06.03 13:09:07.
