data_PCOD9210957
_publ_section_title
;
Structure prediction by ZEFSAII (Michael W. Deem and Ramdas Pophale) SiO2 
 PCOD9210957
Probable space group: C 2/M
;
_chemical_formula_sum "Si O2"
_cell_formula_units_Z 48
_cell_length_a 18.391319
_cell_length_b 16.684241
_cell_length_c 10.946490
_cell_angle_alpha 90.000000
_cell_angle_beta 38.168860
_cell_angle_gamma 90.000000
_cell_volume 2075.723374
_symmetry_space_group_name_H-M "C 2/M"
_symmetry_group_IT_number 12
_symmetry_cell_setting 'monoclinic'
loop_
_space_group_symop_operation_xyz
x,y,z
-x,y,-z
-x,-y,-z
x,-y,z
1/2+x,1/2+y,z
1/2-x,1/2+y,-z
1/2-x,1/2-y,-z
1/2+x,1/2-y,z
loop_
_atom_site_type_symbol
_atom_site_label
_atom_site_fract_x
_atom_site_fract_y
_atom_site_fract_z
Si Si1 0.587805 0.198280 0.620311
Si Si2 0.737262 0.715870 0.224922
Si Si3 0.659420 0.409674 0.126845
Si Si4 0.921449 0.414019 0.724736
Si Si5 0.134012 0.593589 0.773212
Si Si6 0.533278 0.668792 0.089898
O O1 0.645856 0.230336 0.421269
O O2 0.462901 0.159362 0.750603
O O3 0.648919 0.128639 0.617206
O O4 0.571245 0.271793 0.733305
O O5 0.675683 0.667101 0.194999
O O6 0.783119 0.643849 0.248637
O O7 0.849133 0.775305 0.062138
O O8 0.648924 0.500000 0.196219
O O9 0.555973 0.394211 0.167372
O O10 0.782961 0.410633 0.889324
O O11 0.945054 0.500000 0.757531
O O12 0.000000 0.413486 0.500000
O O13 0.157478 0.500000 0.746955
O O14 0.000000 0.607060 0.000000
O O15 0.500000 0.637719 0.000000
#
# Coordination Sequence:
#
# PCOD9210957 Si02
#       6
#     8   8   8   8   8   8
#     4  12  23  38  67 102 137 180 220 281 339 402
#     4  12  23  42  69 104 134 179 230 279 340 403
#     4  11  25  46  70  97 136 181 227 284 341 403
#     4  10  21  39  65 101 134 167 220 284 348 401
#     4  11  21  40  68 101 143 181 225 289 348 401
#     4  12  25  44  67 101 135 176 229 276 343 409
#
# _framework density 23.124469000000001
#
# number of rings (size 3 to 8) (size 9 to 14) (size 15 to 20)
#    0.000    0.667    5.000    3.000    2.333    3.000 
#    0.000    3.333    0.000    0.000    0.000    0.000 
#    0.000    0.000    0.000    0.000    0.000    0.000 
#
# Total GULP energy -134135.144579 kJ/mol
# GULP energy per Si atom -5588.964357 kJ/mol
# Density = 2.307184 g / cm^3
# Si number density = 23.124469 Si / 1000 Ang^3
#
#
#
# Elastic Constant Matrix: (Units=GPa)
#
#
# Indices 1 2 3 4 5 6 
#
# 1 98.8678 45.4815 -6.3729 0.0000 15.2832 0.0000
# 2 45.4815 107.0679 31.1728 0.0000 2.6188 0.0000
# 3 -6.3729 31.1728 37.4556 0.0000 10.6570 0.0000
# 4 0.0000 0.0000 0.0000 18.3595 0.0000 2.2091
# 5 15.2832 2.6188 10.6570 0.0000 20.7558 0.0000
# 6 0.0000 0.0000 0.0000 2.2091 0.0000 40.9587
#
#
#
# Elastic Compliance Matrix: (Units=1/GPa)
#
#
# Indices 1 2 3 4 5 6 
#
# 1 0.024758 -0.017824 0.027630 0.000000 -0.030168 0.000000
# 2 -0.017824 0.025503 -0.031708 0.000000 0.026187 0.000000
# 3 0.027630 -0.031708 0.073122 0.000000 -0.053889 0.000000
# 4 0.000000 0.000000 0.000000 0.054824 0.000000 -0.002957
# 5 -0.030168 0.026187 -0.053889 0.000000 0.094758 0.000000
# 6 0.000000 0.000000 0.000000 -0.002957 0.000000 0.024574
#
#
# Mechanical properties :
#
#
# Convention : Reuss Voigt Hill
#
# Bulk Modulus (GPa) = 12.56618 42.66157 27.61387
# Shear Modulus (GPa) = 13.59179 27.55546 20.57362
#
# Velocity S-wave (km/s) = 2.42702 3.45572 2.98600
# Velocity P-wave (km/s) = 3.64690 5.86612 4.88422
#
# Compressibility (1/GPa) = 0.07957870
#
# Stress axis : x y z
#
# Youngs Moduli (GPa) = 40.39033 39.21161 13.67585
#
# Poissons Ratio (x) = 0.69890 -0.37787
# Poissons Ratio (y) = 0.71991 0.43364
# Poissons Ratio (z) = -1.11599 1.24334
#
# Static dielectric constant tensor:
#      x y z
#    x 1.887110 0.000000 0.028250 
#    y 0.000000 1.876640 0.000000 
#    z 0.028250 0.000000 1.898270 
# 
# From -- ./inp_files/167548.got.cif
#   From: 2010.05.17/outbox.cif.g08.bks.cpg/sg12_84_cif.got.tgz:167548.got - 2010.06.03 13:09:07.
