data_PCOD9210352
_publ_section_title
;
Structure prediction by ZEFSAII (Michael W. Deem and Ramdas Pophale) SiO2 
 PCOD9210352
Probable space group: C 2/M
;
_chemical_formula_sum "Si O2"
_cell_formula_units_Z 56
_cell_length_a 19.375256
_cell_length_b 7.769973
_cell_length_c 19.062686
_cell_angle_alpha 90.000000
_cell_angle_beta 119.514213
_cell_angle_gamma 90.000000
_cell_volume 2497.392823
_symmetry_space_group_name_H-M "C 2/M"
_symmetry_group_IT_number 12
_symmetry_cell_setting 'monoclinic'
loop_
_space_group_symop_operation_xyz
x,y,z
-x,y,-z
-x,-y,-z
x,-y,z
1/2+x,1/2+y,z
1/2-x,1/2+y,-z
1/2-x,1/2-y,-z
1/2+x,1/2-y,z
loop_
_atom_site_type_symbol
_atom_site_label
_atom_site_fract_x
_atom_site_fract_y
_atom_site_fract_z
Si Si1 0.827610 0.193990 0.580333
Si Si2 0.749027 0.800745 0.321350
Si Si3 0.000203 0.790350 0.677309
Si Si4 0.578625 0.200781 0.577122
Si Si5 0.581869 0.291557 0.004829
Si Si6 0.604465 0.290084 0.856558
Si Si7 0.253605 0.794556 0.838988
O O1 0.750000 0.250000 0.500000
O O2 0.807068 0.205167 0.652297
O O3 0.913245 0.280045 0.614198
O O4 0.840044 0.000000 0.564341
O O5 0.838318 0.789558 0.396198
O O6 0.750268 0.728630 0.242997
O O7 0.724494 0.000000 0.307441
O O8 0.061334 0.723320 0.650545
O O9 0.031276 0.742155 0.769614
O O10 0.001341 0.000000 0.674997
O O11 0.500000 0.271643 0.500000
O O12 0.586622 0.000000 0.562579
O O13 0.579309 0.500000 0.002241
O O14 0.592812 0.230034 0.930136
O O15 0.500000 0.232220 0.000000
O O16 0.659784 0.239004 0.086688
O O17 0.607638 0.500000 0.860715
O O18 0.685029 0.230467 0.857650
O O19 0.240231 0.000000 0.826652
#
# Coordination Sequence:
#
# PCOD9210352 Si02
#       7
#     8   8   8   8   8   8   8
#     4  11  24  40  62  89 122 164 205 253 307 362
#     4  11  23  40  62  87 120 163 206 249 302 362
#     4  10  21  39  62  85 116 161 202 242 299 364
#     4  11  23  38  59  89 122 153 196 255 304 352
#     4  10  22  37  61  92 121 154 193 242 296 356
#     4   9  18  38  61  85 118 153 195 242 293 355
#     4  10  21  39  62  85 118 158 196 244 296 355
#
# _framework density 22.423383999999999
#
# number of rings (size 3 to 8) (size 9 to 14) (size 15 to 20)
#    0.000    1.714    1.429    2.571    2.000    6.000 
#    0.000    0.714    0.000    0.000    0.000    0.000 
#    0.000    0.000    0.000    0.000    0.000    0.000 
#
# Total GULP energy -156480.177998 kJ/mol
# GULP energy per Si atom -5588.577786 kJ/mol
# Density = 2.237235 g / cm^3
# Si number density = 22.423384 Si / 1000 Ang^3
#
#
#
# Elastic Constant Matrix: (Units=GPa)
#
#
# Indices 1 2 3 4 5 6 
#
# 1 109.5244 -4.4168 25.4594 0.0000 1.5512 0.0000
# 2 -4.4168 28.9861 0.3104 0.0000 1.0935 0.0000
# 3 25.4594 0.3104 103.0334 0.0000 -3.1661 0.0000
# 4 0.0000 0.0000 0.0000 23.4136 0.0000 1.6720
# 5 1.5512 1.0935 -3.1661 0.0000 38.3609 0.0000
# 6 0.0000 0.0000 0.0000 1.6720 0.0000 17.7982
#
#
#
# Elastic Compliance Matrix: (Units=1/GPa)
#
#
# Indices 1 2 3 4 5 6 
#
# 1 0.009768 0.001539 -0.002438 0.000000 -0.000640 0.000000
# 2 0.001539 0.034781 -0.000519 0.000000 -0.001096 0.000000
# 3 -0.002438 -0.000519 0.010339 0.000000 0.000967 0.000000
# 4 0.000000 0.000000 0.000000 0.042999 0.000000 -0.004039
# 5 -0.000640 -0.001096 0.000967 0.000000 0.026205 0.000000
# 6 0.000000 0.000000 0.000000 -0.004039 0.000000 0.056565
#
#
# Mechanical properties :
#
#
# Convention : Reuss Voigt Hill
#
# Bulk Modulus (GPa) = 19.21150 31.58332 25.39741
# Shear Modulus (GPa) = 24.89498 30.59393 27.74445
#
# Velocity S-wave (km/s) = 3.33562 3.69775 3.52134
# Velocity P-wave (km/s) = 4.83956 5.68742 5.28053
#
# Compressibility (1/GPa) = 0.05205217
#
# Stress axis : x y z
#
# Youngs Moduli (GPa) = 102.37264 28.75163 96.71839
#
# Poissons Ratio (x) = -0.04424 0.23580
# Poissons Ratio (y) = -0.15752 0.05016
# Poissons Ratio (z) = 0.24959 0.01491
#
# Static dielectric constant tensor:
#      x y z
#    x 1.820050 0.000000 0.007520 
#    y 0.000000 1.807030 0.000000 
#    z 0.007520 0.000000 1.844170 
# 
# From -- ./inp_files/275685.got.cif
#   From: 2010.05.17/outbox.cif.g08.bks.cpg/sg12_138_cif.got.tgz:275685.got - 2010.06.03 13:09:07.
