data_PCOD9210431
_publ_section_title
;
Structure prediction by ZEFSAII (Michael W. Deem and Ramdas Pophale) SiO2 
 PCOD9210431
Probable space group: C 2/M
;
_chemical_formula_sum "Si O2"
_cell_formula_units_Z 36
_cell_length_a 13.032852
_cell_length_b 13.843114
_cell_length_c 14.250508
_cell_angle_alpha 90.000000
_cell_angle_beta 44.332355
_cell_angle_gamma 90.000000
_cell_volume 1796.670812
_symmetry_space_group_name_H-M "C 2/M"
_symmetry_group_IT_number 12
_symmetry_cell_setting 'monoclinic'
loop_
_space_group_symop_operation_xyz
x,y,z
-x,y,-z
-x,-y,-z
x,-y,z
1/2+x,1/2+y,z
1/2-x,1/2+y,-z
1/2-x,1/2-y,-z
1/2+x,1/2-y,z
loop_
_atom_site_type_symbol
_atom_site_label
_atom_site_fract_x
_atom_site_fract_y
_atom_site_fract_z
Si Si1 0.299004 0.609944 0.781012
Si Si2 0.542353 0.798973 0.340707
Si Si3 0.950563 0.802335 0.842907
Si Si4 0.000000 0.708314 0.000000
Si Si5 0.724518 0.112996 0.378663
O O1 0.323629 0.500000 0.737774
O O2 0.407696 0.689506 0.664687
O O3 0.335471 0.626265 0.868186
O O4 0.132905 0.644420 0.873054
O O5 0.388992 0.651290 0.274314
O O6 0.383122 0.828817 0.481387
O O7 0.655862 0.867560 0.320514
O O8 0.932516 0.773955 0.961857
O O9 0.946923 0.707439 0.778362
O O10 0.718246 0.000000 0.404658
#
# Coordination Sequence:
#
# PCOD9210431 Si02
#       5
#     8   8   8   4   8
#     4  10  22  39  60  84 120 161 198 241 290 352
#     4   9  21  37  62  87 123 151 191 246 304 340
#     4  10  21  39  62  89 119 160 192 248 296 343
#     4  12  21  42  63  82 122 164 199 246 295 340
#     4  11  20  40  66  91 118 153 197 245 299 358
#
# _framework density 20.037061000000001
#
# number of rings (size 3 to 8) (size 9 to 14) (size 15 to 20)
#    1.333    0.444    2.222    3.667    0.000    0.000 
#    0.000   11.111    0.000    0.000    0.000    0.000 
#    0.000    0.000    0.000    0.000    0.000    0.000 
#
# Total GULP energy -100272.422333 kJ/mol
# GULP energy per Si atom -5570.690130 kJ/mol
# Density = 1.999146 g / cm^3
# Si number density = 20.037061 Si / 1000 Ang^3
#
#
#
# Elastic Constant Matrix: (Units=GPa)
#
#
# Indices 1 2 3 4 5 6 
#
# 1 41.1379 -3.2478 1.4671 0.0000 0.1463 0.0000
# 2 -3.2478 85.8400 38.6145 0.0000 -16.4917 0.0000
# 3 1.4671 38.6145 47.4419 0.0000 -9.3455 0.0000
# 4 0.0000 0.0000 0.0000 19.1683 0.0000 0.2739
# 5 0.1463 -16.4917 -9.3455 0.0000 39.1388 0.0000
# 6 0.0000 0.0000 0.0000 0.2739 0.0000 -1.5758
#
#
#
# Elastic Compliance Matrix: (Units=1/GPa)
#
#
# Indices 1 2 3 4 5 6 
#
# 1 0.024553 0.002037 -0.002378 0.000000 0.000199 0.000000
# 2 0.002037 0.019292 -0.014865 0.000000 0.004572 0.000000
# 3 -0.002378 -0.014865 0.033599 0.000000 0.001768 0.000000
# 4 0.000000 0.000000 0.000000 0.052040 0.000000 0.009046
# 5 0.000199 0.004572 0.001768 0.000000 0.027898 0.000000
# 6 0.000000 0.000000 0.000000 0.009046 0.000000 -0.633012
#
#
# Mechanical properties :
#
#
# Convention : Reuss Voigt Hill
#
# Bulk Modulus (GPa) = 21.26179 27.56528 24.41353
# Shear Modulus (GPa) = -11.64035 20.51866 4.43916
#
# Velocity S-wave (km/s) = -2.41289 3.20353 1.49006
# Velocity P-wave (km/s) = 1.69457 5.24123 3.89500
#
# Compressibility (1/GPa) = 0.04703272
#
# Stress axis : x y z
#
# Youngs Moduli (GPa) = 40.72759 51.83572 29.76277
#
# Poissons Ratio (x) = -0.10559 0.07078
# Poissons Ratio (y) = -0.08296 0.44241
# Poissons Ratio (z) = 0.09685 0.77051
#
# Static dielectric constant tensor:
#      x y z
#    x 1.753280 0.000000 0.018170 
#    y 0.000000 1.686980 0.000000 
#    z 0.018170 0.000000 1.713620 
# 
# From -- ./inp_files/268019.got.cif
#   From: 2010.05.17/outbox.cif.g08.bks.cpg/sg12_135_cif.got.tgz:268019.got - 2010.06.03 13:09:07.
