data_PCOD9210990
_publ_section_title
;
Structure prediction by ZEFSAII (Michael W. Deem and Ramdas Pophale) SiO2 
 PCOD9210990
Probable space group: C 2/M
;
_chemical_formula_sum "Si O2"
_cell_formula_units_Z 44
_cell_length_a 16.812828
_cell_length_b 15.672505
_cell_length_c 21.796363
_cell_angle_alpha 90.000000
_cell_angle_beta 21.903176
_cell_angle_gamma 90.000000
_cell_volume 2142.484586
_symmetry_space_group_name_H-M "C 2/M"
_symmetry_group_IT_number 12
_symmetry_cell_setting 'monoclinic'
loop_
_space_group_symop_operation_xyz
x,y,z
-x,y,-z
-x,-y,-z
x,-y,z
1/2+x,1/2+y,z
1/2-x,1/2+y,-z
1/2-x,1/2-y,-z
1/2+x,1/2-y,z
loop_
_atom_site_type_symbol
_atom_site_label
_atom_site_fract_x
_atom_site_fract_y
_atom_site_fract_z
Si Si1 0.900615 0.866815 0.438382
Si Si2 0.247604 0.500000 0.842037
Si Si3 0.282910 0.500000 0.619073
Si Si4 0.360980 0.595761 0.162247
Si Si5 0.824348 0.500000 0.968884
Si Si6 0.482224 0.826769 0.363956
Si Si7 0.772614 0.174374 0.032957
O O1 0.739958 0.871307 0.495380
O O2 0.935801 0.767136 0.422934
O O3 0.781491 0.916580 0.577612
O O4 0.123076 0.916795 0.273173
O O5 0.288359 0.500000 0.885638
O O6 0.000000 0.500000 0.000000
O O7 0.500000 0.500000 0.500000
O O8 0.073486 0.500000 0.808664
O O9 0.362795 0.500000 0.187305
O O10 0.127382 0.622334 0.307587
O O11 0.485480 0.662803 0.115539
O O12 0.500000 0.592971 0.000000
O O13 0.779475 0.584187 0.961753
O O14 0.618075 0.815049 0.203007
O O15 0.750000 0.250000 0.000000
#
# Coordination Sequence:
#
# PCOD9210990 Si02
#       7
#     8   4   4   8   4   8   8
#     4  10  22  41  63  93 125 173 216 263 331 393
#     4  11  25  41  64  88 128 171 223 265 323 399
#     4  11  23  39  64  93 128 166 210 271 332 387
#     4   9  19  34  61  92 122 163 216 259 308 385
#     4  12  22  40  61  92 130 159 215 264 330 381
#     4  10  21  39  65  92 127 169 222 260 319 402
#     4  11  22  37  63  98 133 168 209 271 329 383
#
# _framework density 20.536905000000001
#
# number of rings (size 3 to 8) (size 9 to 14) (size 15 to 20)
#    0.000    1.636    2.727    2.182    3.818    5.091 
#    0.000    0.000    0.000    1.091    0.000    0.000 
#    0.000    0.000    0.000    0.000    0.000    0.000 
#
# Total GULP energy -122805.325452 kJ/mol
# GULP energy per Si atom -5582.060248 kJ/mol
# Density = 2.049016 g / cm^3
# Si number density = 20.536905 Si / 1000 Ang^3
#
#
#
# Elastic Constant Matrix: (Units=GPa)
#
#
# Indices 1 2 3 4 5 6 
#
# 1 68.3890 46.3075 14.9882 -0.0113 -24.3276 -0.0074
# 2 46.3075 114.0025 14.7317 0.0305 -13.8385 -0.0199
# 3 14.9882 14.7317 61.9727 -0.0219 -33.3483 -0.0276
# 4 -0.0113 0.0305 -0.0219 -12.5666 -0.0067 -14.8017
# 5 -24.3276 -13.8385 -33.3483 -0.0067 55.2395 -0.0112
# 6 -0.0074 -0.0199 -0.0276 -14.8017 -0.0112 27.1152
#
#
#
# Elastic Compliance Matrix: (Units=1/GPa)
#
#
# Indices 1 2 3 4 5 6 
#
# 1 0.023284 -0.008536 0.001133 -0.000033 0.008800 -0.000013
# 2 -0.008536 0.012257 -0.001807 0.000022 -0.001780 0.000016
# 3 0.001133 -0.001807 0.024168 -0.000055 0.014637 0.000000
# 4 -0.000033 0.000022 -0.000055 -0.048434 -0.000053 -0.026439
# 5 0.008800 -0.001780 0.014637 -0.000053 0.030369 -0.000001
# 6 -0.000013 0.000016 0.000000 -0.026439 -0.000001 0.022447
#
#
# Mechanical properties :
#
#
# Convention : Reuss Voigt Hill
#
# Bulk Modulus (GPa) = 24.21936 44.04657 34.13297
# Shear Modulus (GPa) = 51.93591 25.18010 38.55801
#
# Velocity S-wave (km/s) = 5.03428 3.50536 4.33771
# Velocity P-wave (km/s) = 6.75357 6.15447 6.46096
#
# Compressibility (1/GPa) = 0.04128928
#
# Stress axis : x y z
#
# Youngs Moduli (GPa) = 42.94734 81.58885 41.37773
#
# Poissons Ratio (x) = 0.69646 -0.04689
# Poissons Ratio (y) = 0.36661 0.07475
# Poissons Ratio (z) = -0.04867 0.14740
#
# Static dielectric constant tensor:
#      x y z
#    x 1.741920 0.000020 -0.010500 
#    y 0.000020 1.700500 0.000050 
#    z -0.010500 0.000050 1.747580 
# 
# From -- ./inp_files/226662.got.cif
#   From: 2010.05.17/outbox.cif.g08.bks.cpg/sg12_114_cif.got.tgz:226662.got - 2010.06.03 13:09:07.
