data_PCOD9210422
_publ_section_title
;
Structure prediction by ZEFSAII (Michael W. Deem and Ramdas Pophale) SiO2 
 PCOD9210422
Probable space group: C 2/M
;
_chemical_formula_sum "Si O2"
_cell_formula_units_Z 64
_cell_length_a 19.161005
_cell_length_b 11.430794
_cell_length_c 15.614936
_cell_angle_alpha 90.000000
_cell_angle_beta 83.133575
_cell_angle_gamma 90.000000
_cell_volume 3395.538977
_symmetry_space_group_name_H-M "C 2/M"
_symmetry_group_IT_number 12
_symmetry_cell_setting 'monoclinic'
loop_
_space_group_symop_operation_xyz
x,y,z
-x,y,-z
-x,-y,-z
x,-y,z
1/2+x,1/2+y,z
1/2-x,1/2+y,-z
1/2-x,1/2-y,-z
1/2+x,1/2-y,z
loop_
_atom_site_type_symbol
_atom_site_label
_atom_site_fract_x
_atom_site_fract_y
_atom_site_fract_z
Si Si1 0.668105 0.871619 0.071488
Si Si2 0.851574 0.138659 0.650243
Si Si3 0.295000 0.866185 0.249332
Si Si4 0.177632 0.799352 0.912771
Si Si5 0.924871 0.865688 0.464069
Si Si6 0.022927 0.866324 0.902862
Si Si7 0.568406 0.130471 0.651598
Si Si8 0.441008 0.216380 0.773697
O O1 0.751006 0.870205 0.081624
O O2 0.619181 0.844642 0.160346
O O3 0.649160 0.000000 0.039923
O O4 0.659146 0.770755 0.002243
O O5 0.772028 0.172122 0.685197
O O6 0.869559 0.157968 0.548326
O O7 0.903074 0.205460 0.707180
O O8 0.860937 0.000000 0.663057
O O9 0.302320 0.791636 0.163648
O O10 0.365673 0.862278 0.294019
O O11 0.282114 0.000000 0.225825
O O12 0.107481 0.863032 0.891247
O O13 0.927345 0.751078 0.403590
O O14 0.000000 0.870867 0.500000
O O15 0.913089 0.000000 0.430183
O O16 0.987890 0.792335 0.832813
O O17 0.998047 0.000000 0.898984
O O18 0.000000 0.821625 0.000000
O O19 0.496181 0.135672 0.715671
O O20 0.572329 0.000000 0.608185
#
# Coordination Sequence:
#
# PCOD9210422 Si02
#       8
#     8   8   8   8   8   8   8   8
#     4  11  24  38  57  85 118 157 201 248 297 355
#     4  10  21  39  64  89 116 157 200 248 298 361
#     4  10  21  39  62  88 121 157 199 242 295 363
#     4  11  21  41  59  82 118 159 201 243 299 352
#     4  10  21  40  65  92 122 156 202 252 304 363
#     4  11  23  38  58  87 120 156 202 257 303 348
#     4  11  24  40  63  93 127 160 198 248 308 370
#     4  12  21  39  60  88 122 156 201 249 297 358
#
# _framework density 18.84826
#
# number of rings (size 3 to 8) (size 9 to 14) (size 15 to 20)
#    0.000    1.250    5.000    1.500    0.000    1.250 
#    0.000    0.625    0.000    0.000    0.000    0.000 
#    0.000    0.000    0.000    0.000    0.000    0.000 
#
# Total GULP energy -178472.535888 kJ/mol
# GULP energy per Si atom -5577.266746 kJ/mol
# Density = 1.880536 g / cm^3
# Si number density = 18.848260 Si / 1000 Ang^3
#
#
#
# Elastic Constant Matrix: (Units=GPa)
#
#
# Indices 1 2 3 4 5 6 
#
# 1 90.6190 18.3809 16.0887 0.0000 -18.8728 0.0000
# 2 18.3809 101.9209 50.6001 0.0000 -0.5360 0.0000
# 3 16.0887 50.6001 64.6344 0.0000 -22.4943 0.0000
# 4 0.0000 0.0000 0.0000 -366.8897 0.0000 -71.9653
# 5 -18.8728 -0.5360 -22.4943 0.0000 30.3730 0.0000
# 6 0.0000 0.0000 0.0000 -71.9653 0.0000 0.6468
#
#
#
# Elastic Compliance Matrix: (Units=1/GPa)
#
#
# Indices 1 2 3 4 5 6 
#
# 1 0.013565 -0.004351 0.003956 0.000000 0.011282 0.000000
# 2 -0.004351 0.021648 -0.022462 0.000000 -0.018957 0.000000
# 3 0.003956 -0.022462 0.044176 0.000000 0.034779 0.000000
# 4 0.000000 0.000000 0.000000 -0.000119 0.000000 -0.013287
# 5 0.011282 -0.018957 0.034779 0.000000 0.065357 0.000000
# 6 0.000000 0.000000 0.000000 -0.013287 0.000000 0.067738
#
#
# Mechanical properties :
#
#
# Convention : Reuss Voigt Hill
#
# Bulk Modulus (GPa) = 29.69595 47.47929 38.58762
# Shear Modulus (GPa) = 18.56642 -55.70035 -18.56697
#
# Velocity S-wave (km/s) = 3.14195 -5.44207 -3.14200
# Velocity P-wave (km/s) = 5.38070 3.77402 2.71189
#
# Compressibility (1/GPa) = 0.03367463
#
# Stress axis : x y z
#
# Youngs Moduli (GPa) = 73.71867 46.19312 22.63697
#
# Poissons Ratio (x) = 0.20100 -0.08956
# Poissons Ratio (y) = 0.32077 0.50848
# Poissons Ratio (z) = -0.29165 1.03760
#
# Static dielectric constant tensor:
#      x y z
#    x 1.653620 0.000000 -0.028570 
#    y 0.000000 1.678050 0.000000 
#    z -0.028570 0.000000 1.638440 
# 
# From -- ./inp_files/223844.got.cif
#   From: 2010.05.17/outbox.cif.g08.bks.cpg/sg12_112_cif.got.tgz:223844.got - 2010.06.03 13:09:07.
