data_PCOD9210486
_publ_section_title
;
Structure prediction by ZEFSAII (Michael W. Deem and Ramdas Pophale) SiO2 
 PCOD9210486
Probable space group: C 2/M
;
_chemical_formula_sum "Si O2"
_cell_formula_units_Z 64
_cell_length_a 19.573369
_cell_length_b 30.028931
_cell_length_c 12.934417
_cell_angle_alpha 90.000000
_cell_angle_beta 155.045352
_cell_angle_gamma 90.000000
_cell_volume 3207.470053
_symmetry_space_group_name_H-M "C 2/M"
_symmetry_group_IT_number 12
_symmetry_cell_setting 'monoclinic'
loop_
_space_group_symop_operation_xyz
x,y,z
-x,y,-z
-x,-y,-z
x,-y,z
1/2+x,1/2+y,z
1/2-x,1/2+y,-z
1/2-x,1/2-y,-z
1/2+x,1/2-y,z
loop_
_atom_site_type_symbol
_atom_site_label
_atom_site_fract_x
_atom_site_fract_y
_atom_site_fract_z
Si Si1 0.341181 0.182522 0.574473
Si Si2 0.507895 0.446782 0.236239
Si Si3 0.165025 0.688601 0.682257
Si Si4 0.179209 0.587125 0.728926
Si Si5 0.165157 0.946944 0.662474
Si Si6 0.501413 0.908345 0.126196
Si Si7 0.011569 0.226208 0.139534
Si Si8 0.235164 0.948462 0.374806
O O1 0.347842 0.181964 0.459120
O O2 0.427109 0.139350 0.740526
O O3 0.153025 0.189335 0.350412
O O4 0.429592 0.227498 0.732140
O O5 0.520503 0.500000 0.251960
O O6 0.617086 0.431570 0.481046
O O7 0.580961 0.431056 0.227428
O O8 0.321459 0.434312 0.990558
O O9 0.176070 0.639492 0.746367
O O10 0.000000 0.709925 0.500000
O O11 0.334066 0.713048 0.935134
O O12 0.223911 0.578569 0.671006
O O13 0.000000 0.568355 0.500000
O O14 0.000000 0.942283 0.500000
O O15 0.206634 0.000000 0.718203
O O16 0.318325 0.918889 0.910414
O O17 0.618500 0.943636 0.343024
O O18 0.500000 0.912435 0.000000
O O19 0.000000 0.231652 0.000000
O O20 0.210601 0.000000 0.311539
#
# Coordination Sequence:
#
# PCOD9210486 Si02
#       8
#     8   8   8   8   8   8   8   8
#     4  10  21  39  62  91 118 157 201 245 304 363
#     4  10  22  39  57  82 115 155 202 248 299 354
#     4  10  22  38  59  89 123 158 196 244 304 363
#     4  11  24  39  59  88 121 157 204 251 302 359
#     4  10  23  40  58  82 119 163 202 248 304 362
#     4  12  23  38  62  90 118 155 204 254 303 362
#     4   9  20  39  63  89 122 154 195 247 300 368
#     4  11  23  38  59  87 118 156 200 253 302 353
#
# _framework density 19.953422
#
# number of rings (size 3 to 8) (size 9 to 14) (size 15 to 20)
#    0.000    1.625    2.500    1.500    3.500    4.000 
#    0.000    0.625    0.000    0.000    0.000    0.000 
#    0.000    0.000    0.000    0.000    0.000    0.000 
#
# Total GULP energy -178701.918081 kJ/mol
# GULP energy per Si atom -5584.434940 kJ/mol
# Density = 1.990801 g / cm^3
# Si number density = 19.953422 Si / 1000 Ang^3
#
#
#
# Elastic Constant Matrix: (Units=GPa)
#
#
# Indices 1 2 3 4 5 6 
#
# 1 39.5156 6.7979 29.5266 0.0000 14.5076 0.0000
# 2 6.7979 50.7782 28.9613 0.0000 8.3819 0.0000
# 3 29.5266 28.9613 150.4082 0.0000 25.3675 0.0000
# 4 0.0000 0.0000 0.0000 -52.2557 0.0000 34.1946
# 5 14.5076 8.3819 25.3675 0.0000 38.9076 0.0000
# 6 0.0000 0.0000 0.0000 34.1946 0.0000 1.3791
#
#
#
# Elastic Compliance Matrix: (Units=1/GPa)
#
#
# Indices 1 2 3 4 5 6 
#
# 1 0.032157 -0.000108 -0.004802 0.000000 -0.008837 0.000000
# 2 -0.000108 0.022298 -0.003897 0.000000 -0.002222 0.000000
# 3 -0.004802 -0.003897 0.008874 0.000000 -0.003156 0.000000
# 4 0.000000 0.000000 0.000000 -0.001111 0.000000 0.027547
# 5 -0.008837 -0.002222 -0.003156 0.000000 0.031533 0.000000
# 6 0.000000 0.000000 0.000000 0.027547 0.000000 0.042096
#
#
# Mechanical properties :
#
#
# Convention : Reuss Voigt Hill
#
# Bulk Modulus (GPa) = 21.87470 41.25260 31.56365
# Shear Modulus (GPa) = 29.63858 9.30062 19.46960
#
# Velocity S-wave (km/s) = 3.85825 2.16132 3.12709
# Velocity P-wave (km/s) = 5.55291 5.19112 5.37506
#
# Compressibility (1/GPa) = 0.04571492
#
# Stress axis : x y z
#
# Youngs Moduli (GPa) = 31.09737 44.84772 112.69042
#
# Poissons Ratio (x) = 0.00483 0.54110
# Poissons Ratio (y) = 0.00335 0.43921
# Poissons Ratio (z) = 0.14932 0.17479
#
# Static dielectric constant tensor:
#      x y z
#    x 1.721080 0.000000 0.021200 
#    y 0.000000 1.675950 0.000000 
#    z 0.021200 0.000000 1.727450 
# 
# From -- ./inp_files/236004.got.cif
#   From: 2010.05.17/outbox.cif.g08.bks.cpg/sg12_119_cif.got.tgz:236004.got - 2010.06.03 13:09:07.
