data_PCOD9210482
_publ_section_title
;
Structure prediction by ZEFSAII (Michael W. Deem and Ramdas Pophale) SiO2 
 PCOD9210482
Probable space group: C 2/M
;
_chemical_formula_sum "Si O2"
_cell_formula_units_Z 64
_cell_length_a 26.647350
_cell_length_b 13.215995
_cell_length_c 9.268833
_cell_angle_alpha 90.000000
_cell_angle_beta 95.683138
_cell_angle_gamma 90.000000
_cell_volume 3248.172032
_symmetry_space_group_name_H-M "C 2/M"
_symmetry_group_IT_number 12
_symmetry_cell_setting 'monoclinic'
loop_
_space_group_symop_operation_xyz
x,y,z
-x,y,-z
-x,-y,-z
x,-y,z
1/2+x,1/2+y,z
1/2-x,1/2+y,-z
1/2-x,1/2-y,-z
1/2+x,1/2-y,z
loop_
_atom_site_type_symbol
_atom_site_label
_atom_site_fract_x
_atom_site_fract_y
_atom_site_fract_z
Si Si1 0.161562 0.382520 0.630223
Si Si2 0.618199 0.614919 0.947030
Si Si3 0.030738 0.886758 0.359870
Si Si4 0.782706 0.218046 0.149181
Si Si5 0.951861 0.617492 0.397120
Si Si6 0.788199 0.699605 0.621768
Si Si7 0.860273 0.887227 0.706094
Si Si8 0.526425 0.764923 0.859404
O O1 0.160916 0.500000 0.679188
O O2 0.192858 0.312496 0.752278
O O3 0.104363 0.340324 0.597701
O O4 0.183348 0.378132 0.473873
O O5 0.605387 0.500000 0.897146
O O6 0.671086 0.649452 0.892198
O O7 0.576075 0.696829 0.894701
O O8 0.622503 0.613877 0.122101
O O9 0.091150 0.876821 0.383993
O O10 0.000000 0.880353 0.500000
O O11 0.010791 0.804979 0.243690
O O12 0.021753 0.000000 0.298277
O O13 0.744077 0.164730 0.249997
O O14 0.750000 0.250000 0.000000
O O15 0.948233 0.500000 0.433679
O O16 0.962672 0.637486 0.233269
O O17 0.000000 0.658028 0.500000
O O18 0.750000 0.750000 0.500000
O O19 0.824423 0.791741 0.677781
O O20 0.837516 0.000000 0.673280
O O21 0.500000 0.790412 0.000000
#
# Coordination Sequence:
#
# PCOD9210482 Si02
#       8
#     8   8   8   8   8   8   8   8
#     4  10  23  43  65  90 125 164 207 260 316 369
#     4  11  23  39  62  94 129 163 201 248 312 378
#     4  10  22  36  56  90 126 162 199 238 293 368
#     4  11  22  42  65  93 126 161 211 261 311 371
#     4  10  23  43  66  90 121 164 210 258 313 370
#     4  10  23  38  61  89 120 158 209 258 303 364
#     4  10  21  39  62  90 126 163 200 247 311 372
#     4  12  23  37  63  93 129 163 195 250 304 371
#
# _framework density 19.703391
#
# number of rings (size 3 to 8) (size 9 to 14) (size 15 to 20)
#    0.000    1.500    3.750    0.750    3.500    3.750 
#    0.000    3.125    0.000    0.750    0.000    0.000 
#    0.000    0.000    0.000    0.000    0.000    0.000 
#
# Total GULP energy -178444.775131 kJ/mol
# GULP energy per Si atom -5576.399223 kJ/mol
# Density = 1.965855 g / cm^3
# Si number density = 19.703391 Si / 1000 Ang^3
#
#
#
# Elastic Constant Matrix: (Units=GPa)
#
#
# Indices 1 2 3 4 5 6 
#
# 1 104.1784 8.8239 38.7283 0.0000 -15.2446 0.0000
# 2 8.8239 36.1691 1.5821 0.0000 8.6098 0.0000
# 3 38.7283 1.5821 94.6735 0.0000 -18.1196 0.0000
# 4 0.0000 0.0000 0.0000 27.5894 0.0000 -2.9232
# 5 -15.2446 8.6098 -18.1196 0.0000 44.0779 0.0000
# 6 0.0000 0.0000 0.0000 -2.9232 0.0000 18.9686
#
#
#
# Elastic Compliance Matrix: (Units=1/GPa)
#
#
# Indices 1 2 3 4 5 6 
#
# 1 0.011910 -0.003448 -0.004230 0.000000 0.003054 0.000000
# 2 -0.003448 0.030249 -0.000493 0.000000 -0.007304 0.000000
# 3 -0.004230 -0.000493 0.013068 0.000000 0.004005 0.000000
# 4 0.000000 0.000000 0.000000 0.036847 0.000000 0.005679
# 5 0.003054 -0.007304 0.004005 0.000000 0.026816 0.000000
# 6 0.000000 0.000000 0.000000 0.005679 0.000000 0.053594
#
#
# Mechanical properties :
#
#
# Convention : Reuss Voigt Hill
#
# Bulk Modulus (GPa) = 25.71626 37.03217 31.37422
# Shear Modulus (GPa) = 24.77845 30.51964 27.64904
#
# Velocity S-wave (km/s) = 3.55007 3.93994 3.75008
# Velocity P-wave (km/s) = 5.46663 6.28754 5.89140
#
# Compressibility (1/GPa) = 0.03888590
#
# Stress axis : x y z
#
# Youngs Moduli (GPa) = 83.96072 33.05879 76.52377
#
# Poissons Ratio (x) = 0.11397 0.32370
# Poissons Ratio (y) = 0.28946 0.03773
# Poissons Ratio (z) = 0.35516 0.01630
#
# Static dielectric constant tensor:
#      x y z
#    x 1.670950 0.000000 -0.010960 
#    y 0.000000 1.688940 0.000000 
#    z -0.010960 0.000000 1.680820 
# 
# From -- ./inp_files/96871.got.cif
#   From: 2010.05.17/outbox.cif.g08.bks.cpg/sg12_49_cif.got.tgz:96871.got - 2010.06.03 13:09:07.
