data_PCOD9210587
_publ_section_title
;
Structure prediction by ZEFSAII (Michael W. Deem and Ramdas Pophale) SiO2 
 PCOD9210587
Probable space group: C 2/M
;
_chemical_formula_sum "Si O2"
_cell_formula_units_Z 64
_cell_length_a 20.131708
_cell_length_b 8.791835
_cell_length_c 30.906828
_cell_angle_alpha 90.000000
_cell_angle_beta 37.940584
_cell_angle_gamma 90.000000
_cell_volume 3363.407647
_symmetry_space_group_name_H-M "C 2/M"
_symmetry_group_IT_number 12
_symmetry_cell_setting 'monoclinic'
loop_
_space_group_symop_operation_xyz
x,y,z
-x,y,-z
-x,-y,-z
x,-y,z
1/2+x,1/2+y,z
1/2-x,1/2+y,-z
1/2-x,1/2-y,-z
1/2+x,1/2-y,z
loop_
_atom_site_type_symbol
_atom_site_label
_atom_site_fract_x
_atom_site_fract_y
_atom_site_fract_z
Si Si1 0.056319 0.181219 0.264537
Si Si2 0.348515 0.181998 0.330478
Si Si3 0.022598 0.818001 0.382980
Si Si4 0.766606 0.317075 0.277334
Si Si5 0.799455 0.319111 0.518575
Si Si6 0.424573 0.316793 0.124434
Si Si7 0.670917 0.684132 0.004245
Si Si8 0.217712 0.816401 0.881402
O O1 0.022866 0.212483 0.331359
O O2 0.174352 0.245640 0.194060
O O3 0.967723 0.258049 0.279643
O O4 0.056050 0.000000 0.258858
O O5 0.313494 0.222539 0.300031
O O6 0.267323 0.254544 0.406854
O O7 0.345413 0.000000 0.336540
O O8 0.141012 0.772841 0.338654
O O9 0.923979 0.732042 0.455777
O O10 0.008808 0.000000 0.396171
O O11 0.770436 0.500000 0.270020
O O12 0.838243 0.244143 0.203039
O O13 0.789420 0.500000 0.522306
O O14 0.750000 0.250000 0.500000
O O15 0.425172 0.500000 0.125575
O O16 0.382764 0.273507 0.097939
O O17 0.545931 0.265873 0.073216
O O18 0.674229 0.500000 0.005036
O O19 0.704901 0.728487 0.937982
O O20 0.750000 0.750000 0.000000
O O21 0.226035 0.000000 0.875996
#
# Coordination Sequence:
#
# PCOD9210587 Si02
#       8
#     8   8   8   8   8   8   8   8
#     4  11  22  37  62  91 122 156 201 254 300 354
#     4  11  24  41  62  88 122 162 202 245 303 363
#     4  10  21  40  63  88 121 158 199 248 301 357
#     4  10  23  42  63  89 122 160 199 246 302 360
#     4  12  24  39  62  90 121 158 203 252 301 358
#     4  10  21  39  64  89 118 159 204 250 297 353
#     4  10  23  41  60  89 124 161 201 247 302 359
#     4  10  21  39  63  88 120 161 205 248 298 359
#
# _framework density 19.028320999999998
#
# number of rings (size 3 to 8) (size 9 to 14) (size 15 to 20)
#    0.000    1.500    2.500    2.250    1.750    5.000 
#    0.000    2.500    0.000    2.250    0.000    0.000 
#    0.000    0.000    0.000    0.000    0.000    0.000 
#
# Total GULP energy -178854.380574 kJ/mol
# GULP energy per Si atom -5589.199393 kJ/mol
# Density = 1.898501 g / cm^3
# Si number density = 19.028321 Si / 1000 Ang^3
#
#
#
# Elastic Constant Matrix: (Units=GPa)
#
#
# Indices 1 2 3 4 5 6 
#
# 1 161.0512 43.3536 52.7865 -0.0001 -12.0976 -0.0011
# 2 43.3536 26.1553 21.0746 0.0002 0.8804 -0.0030
# 3 52.7865 21.0746 93.0879 0.0001 -13.4434 -0.0001
# 4 -0.0001 0.0002 0.0001 30.2397 0.0000 -4.7111
# 5 -12.0976 0.8804 -13.4434 0.0000 34.1528 0.0004
# 6 -0.0011 -0.0030 -0.0001 -4.7111 0.0004 24.8753
#
#
#
# Elastic Compliance Matrix: (Units=1/GPa)
#
#
# Indices 1 2 3 4 5 6 
#
# 1 0.012244 -0.018711 -0.002132 0.000000 0.003980 -0.000002
# 2 -0.018711 0.076426 -0.008412 0.000001 -0.011909 0.000009
# 3 -0.002132 -0.008412 0.014609 0.000000 0.005212 -0.000001
# 4 0.000000 0.000001 0.000000 0.034074 0.000000 0.006453
# 5 0.003980 -0.011909 0.005212 0.000000 0.033049 -0.000002
# 6 -0.000002 0.000009 -0.000001 0.006453 -0.000002 0.041423
#
#
# Mechanical properties :
#
#
# Convention : Reuss Voigt Hill
#
# Bulk Modulus (GPa) = 22.33723 57.19155 39.76439
# Shear Modulus (GPa) = 17.52807 28.72553 23.12680
#
# Velocity S-wave (km/s) = 3.03835 3.88960 3.49002
# Velocity P-wave (km/s) = 4.90644 7.09177 6.09780
#
# Compressibility (1/GPa) = 0.04476831
#
# Stress axis : x y z
#
# Youngs Moduli (GPa) = 81.67440 13.08461 68.45187
#
# Poissons Ratio (x) = 0.24482 0.14595
# Poissons Ratio (y) = 1.52817 0.57583
# Poissons Ratio (z) = 0.17415 0.11007
#
# Static dielectric constant tensor:
#      x y z
#    x 1.657960 0.000000 -0.012160 
#    y 0.000000 1.640370 0.000000 
#    z -0.012160 0.000000 1.630870 
# 
# From -- ./inp_files/378050.got.cif
#   From: 2010.05.17/outbox.cif.g08.bks.cpg/sg12_190_cif.got.tgz:378050.got - 2010.06.03 13:09:07.
