data_PCOD9210593
_publ_section_title
;
Structure prediction by ZEFSAII (Michael W. Deem and Ramdas Pophale) SiO2 
 PCOD9210593
Probable space group: C 2/M
;
_chemical_formula_sum "Si O2"
_cell_formula_units_Z 60
_cell_length_a 10.637042
_cell_length_b 12.968382
_cell_length_c 18.380440
_cell_angle_alpha 90.000000
_cell_angle_beta 97.077766
_cell_angle_gamma 90.000000
_cell_volume 2516.173012
_symmetry_space_group_name_H-M "C 2/M"
_symmetry_group_IT_number 12
_symmetry_cell_setting 'monoclinic'
loop_
_space_group_symop_operation_xyz
x,y,z
-x,y,-z
-x,-y,-z
x,-y,z
1/2+x,1/2+y,z
1/2-x,1/2+y,-z
1/2-x,1/2-y,-z
1/2+x,1/2-y,z
loop_
_atom_site_type_symbol
_atom_site_label
_atom_site_fract_x
_atom_site_fract_y
_atom_site_fract_z
Si Si1 0.800903 0.610956 0.459444
Si Si2 0.751373 0.341788 0.224515
Si Si3 0.316233 0.000000 0.101914
Si Si4 0.019698 0.387725 0.302045
Si Si5 0.388010 0.337342 0.438223
Si Si6 0.927180 0.838306 0.663105
Si Si7 0.864042 0.675764 0.988115
Si Si8 0.802285 0.385885 0.820170
O O1 0.863380 0.500000 0.455177
O O2 0.740122 0.620940 0.535656
O O3 0.878284 0.713319 0.446316
O O4 0.680119 0.617146 0.397018
O O5 0.762544 0.409991 0.154031
O O6 0.869221 0.374044 0.283808
O O7 0.620391 0.360931 0.259030
O O8 0.766548 0.219786 0.208584
O O9 0.366439 0.911673 0.048787
O O10 0.050579 0.500000 0.335100
O O11 0.076897 0.286369 0.342048
O O12 0.074027 0.388135 0.223162
O O13 0.500000 0.372001 0.500000
O O14 0.436240 0.366786 0.361233
O O15 0.750000 0.750000 0.000000
O O16 0.839402 0.629582 0.906441
O O17 0.000000 0.731335 0.000000
O O18 0.741546 0.500000 0.806971
#
# Coordination Sequence:
#
# PCOD9210593 Si02
#       8
#     8   8   4   8   8   8   8   8
#     4  10  21  39  63  88 122 162 210 262 316 380
#     4  11  22  38  63  94 128 162 219 274 324 396
#     4  12  23  40  67 100 128 172 230 274 332 416
#     4  10  21  39  64  89 120 166 217 269 319 388
#     4   9  20  39  60  89 123 159 206 259 310 382
#     4  10  22  36  57  91 126 161 204 259 322 386
#     4  12  25  42  70  98 132 174 230 284 342 413
#     4  10  22  40  64  90 123 168 215 274 333 394
#
# _framework density 23.845735999999999
#
# number of rings (size 3 to 8) (size 9 to 14) (size 15 to 20)
#    0.000    1.600    2.667    1.800    2.800    4.267 
#    0.000    6.333    7.333    9.600    0.000    0.000 
#    0.000    0.000    0.000    0.000    0.000    0.000 
#
# Total GULP energy -167136.468009 kJ/mol
# GULP energy per Si atom -5571.215600 kJ/mol
# Density = 2.379146 g / cm^3
# Si number density = 23.845736 Si / 1000 Ang^3
#
#
#
# Elastic Constant Matrix: (Units=GPa)
#
#
# Indices 1 2 3 4 5 6 
#
# 1 72.8633 34.8160 35.8867 0.0000 -22.4599 0.0000
# 2 34.8160 154.2979 21.4197 0.0000 -6.3341 0.0000
# 3 35.8867 21.4197 105.5929 0.0000 -33.5993 0.0000
# 4 0.0000 0.0000 0.0000 16.0825 0.0000 -5.2583
# 5 -22.4599 -6.3341 -33.5993 0.0000 26.2394 0.0000
# 6 0.0000 0.0000 0.0000 -5.2583 0.0000 -4.7425
#
#
#
# Elastic Compliance Matrix: (Units=1/GPa)
#
#
# Indices 1 2 3 4 5 6 
#
# 1 0.020989 -0.003903 -0.001561 0.000000 0.015026 0.000000
# 2 -0.003903 0.007395 -0.001128 0.000000 -0.003000 0.000000
# 3 -0.001561 -0.001128 0.016400 0.000000 0.019392 0.000000
# 4 0.000000 0.000000 0.000000 0.045636 0.000000 -0.050599
# 5 0.015026 -0.003000 0.019392 0.000000 0.075079 0.000000
# 6 0.000000 0.000000 0.000000 -0.050599 0.000000 -0.154756
#
#
# Mechanical properties :
#
#
# Convention : Reuss Voigt Hill
#
# Bulk Modulus (GPa) = 31.64454 57.44432 44.54443
# Shear Modulus (GPa) = 145.09560 23.55799 84.32679
#
# Velocity S-wave (km/s) = 7.80895 3.14655 5.95317
# Velocity P-wave (km/s) = 9.72654 6.11092 8.12247
#
# Compressibility (1/GPa) = 0.03160103
#
# Stress axis : x y z
#
# Youngs Moduli (GPa) = 47.64327 135.22576 60.97517
#
# Poissons Ratio (x) = 0.52773 0.09516
# Poissons Ratio (y) = 0.18593 0.06881
# Poissons Ratio (z) = 0.07436 0.15260
#
# Static dielectric constant tensor:
#      x y z
#    x 1.920550 0.000000 -0.008930 
#    y 0.000000 1.903870 0.000000 
#    z -0.008930 0.000000 1.920440 
# 
# From -- ./inp_files/304745.got.cif
#   From: 2010.05.17/outbox.cif.g08.bks.cpg/sg12_153_cif.got.tgz:304745.got - 2010.06.03 13:09:07.
