data_PCOD9210110
_publ_section_title
;
Structure prediction by ZEFSAII (Michael W. Deem and Ramdas Pophale) SiO2 
 PCOD9210110
Probable space group: C 2/M
;
_chemical_formula_sum "Si O2"
_cell_formula_units_Z 40
_cell_length_a 13.996663
_cell_length_b 13.100651
_cell_length_c 10.585257
_cell_angle_alpha 90.000000
_cell_angle_beta 105.830921
_cell_angle_gamma 90.000000
_cell_volume 1867.350635
_symmetry_space_group_name_H-M "C 2/M"
_symmetry_group_IT_number 12
_symmetry_cell_setting 'monoclinic'
loop_
_space_group_symop_operation_xyz
x,y,z
-x,y,-z
-x,-y,-z
x,-y,z
1/2+x,1/2+y,z
1/2-x,1/2+y,-z
1/2-x,1/2-y,-z
1/2+x,1/2-y,z
loop_
_atom_site_type_symbol
_atom_site_label
_atom_site_fract_x
_atom_site_fract_y
_atom_site_fract_z
Si Si1 0.740430 0.111898 0.894286
Si Si2 0.942389 0.115170 0.345270
Si Si3 0.321938 0.800529 0.375479
Si Si4 0.884643 0.305345 0.927370
Si Si5 0.608033 0.763838 0.340207
O O1 0.671332 0.130704 0.745995
O O2 0.825543 0.197850 0.919547
O O3 0.784753 0.000000 0.904468
O O4 0.674039 0.124847 0.995112
O O5 0.847041 0.185300 0.337330
O O6 0.000000 0.107109 0.500000
O O7 0.015064 0.187906 0.290913
O O8 0.924708 0.000000 0.292470
O O9 0.390227 0.818049 0.522712
O O10 0.207831 0.805071 0.378471
O O11 0.881784 0.333829 0.778426
O O12 0.000000 0.296736 0.000000
#
# Coordination Sequence:
#
# PCOD9210110 Si02
#       5
#     8   8   8   8   8
#     4  10  22  40  60  83 114 153 193 234 285 342
#     4   9  17  31  56  87 115 145 183 229 282 335
#     4   9  18  35  56  82 118 150 182 232 286 334
#     4  10  21  39  60  84 115 151 190 235 286 338
#     4   9  18  33  55  83 116 148 182 229 284 334
#
# _framework density 21.420722999999999
#
# number of rings (size 3 to 8) (size 9 to 14) (size 15 to 20)
#    0.000    2.600    0.000    1.200    0.000    4.000 
#    0.000   21.000    0.000   12.600    0.000    0.000 
#    0.000    0.000    0.000    0.000    0.000    0.000 
#
# Total GULP energy -111460.221912 kJ/mol
# GULP energy per Si atom -5573.011096 kJ/mol
# Density = 2.137197 g / cm^3
# Si number density = 21.420723 Si / 1000 Ang^3
#
#
#
# Elastic Constant Matrix: (Units=GPa)
#
#
# Indices 1 2 3 4 5 6 
#
# 1 85.1352 -4.3944 -5.1434 0.0000 4.2455 0.0000
# 2 -4.3944 39.9425 -22.6738 0.0000 10.7642 0.0000
# 3 -5.1434 -22.6738 67.7476 0.0000 -5.2545 0.0000
# 4 0.0000 0.0000 0.0000 9.0729 0.0000 6.1508
# 5 4.2455 10.7642 -5.2545 0.0000 25.0292 0.0000
# 6 0.0000 0.0000 0.0000 6.1508 0.0000 5.2022
#
#
#
# Elastic Compliance Matrix: (Units=1/GPa)
#
#
# Indices 1 2 3 4 5 6 
#
# 1 0.012166 0.003149 0.001741 0.000000 -0.003053 0.000000
# 2 0.003149 0.035227 0.010991 0.000000 -0.013377 0.000000
# 3 0.001741 0.010991 0.018483 0.000000 -0.001142 0.000000
# 4 0.000000 0.000000 0.000000 0.555388 0.000000 -0.656659
# 5 -0.003053 -0.013377 -0.001142 0.000000 0.045984 0.000000
# 6 0.000000 0.000000 0.000000 -0.656659 0.000000 0.968623
#
#
# Mechanical properties :
#
#
# Convention : Reuss Voigt Hill
#
# Bulk Modulus (GPa) = 10.24185 14.26691 12.25438
# Shear Modulus (GPa) = 3.05502 22.86332 12.95917
#
# Velocity S-wave (km/s) = 1.19553 3.27057 2.46231
# Velocity P-wave (km/s) = 2.58793 4.57569 3.71715
#
# Compressibility (1/GPa) = 0.09763858
#
# Stress axis : x y z
#
# Youngs Moduli (GPa) = 82.19642 28.38760 54.10431
#
# Poissons Ratio (x) = -0.08940 -0.09419
# Poissons Ratio (y) = -0.25887 -0.59468
# Poissons Ratio (z) = -0.14310 -0.31202
#
# Static dielectric constant tensor:
#      x y z
#    x 1.796280 0.000000 -0.023470 
#    y 0.000000 1.728700 0.000000 
#    z -0.023470 0.000000 1.870680 
# 
# From -- ./inp_files/141093.got.cif
#   From: 2010.05.17/outbox.cif.g08.bks.cpg/sg12_71_cif.got.tgz:141093.got - 2010.06.03 13:09:07.
