data_PCOD9210090
_publ_section_title
;
Structure prediction by ZEFSAII (Michael W. Deem and Ramdas Pophale) SiO2 
 PCOD9210090
Probable space group: C 2/M
;
_chemical_formula_sum "Si O2"
_cell_formula_units_Z 64
_cell_length_a 25.626266
_cell_length_b 9.661238
_cell_length_c 21.875379
_cell_angle_alpha 90.000000
_cell_angle_beta 144.914757
_cell_angle_gamma 90.000000
_cell_volume 3113.051530
_symmetry_space_group_name_H-M "C 2/M"
_symmetry_group_IT_number 12
_symmetry_cell_setting 'monoclinic'
loop_
_space_group_symop_operation_xyz
x,y,z
-x,y,-z
-x,-y,-z
x,-y,z
1/2+x,1/2+y,z
1/2-x,1/2+y,-z
1/2-x,1/2-y,-z
1/2+x,1/2-y,z
loop_
_atom_site_type_symbol
_atom_site_label
_atom_site_fract_x
_atom_site_fract_y
_atom_site_fract_z
Si Si1 0.162986 0.343122 0.928275
Si Si2 0.029320 0.155446 0.598907
Si Si3 0.641177 0.844195 0.053692
Si Si4 0.063748 0.339666 0.156277
Si Si5 0.803941 0.659164 0.254995
Si Si6 0.857643 0.162035 0.524978
Si Si7 0.040402 0.337760 0.280459
Si Si8 0.734971 0.338817 0.321531
O O1 0.179590 0.500000 0.922470
O O2 0.065052 0.296870 0.808336
O O3 0.250000 0.250000 0.000000
O O4 0.149145 0.348077 0.987944
O O5 0.107471 0.265701 0.685562
O O6 0.000000 0.167497 0.500000
O O7 0.942685 0.169266 0.559452
O O8 0.067021 0.000000 0.643625
O O9 0.714450 0.737601 0.147406
O O10 0.660404 0.000000 0.094906
O O11 0.536155 0.810838 0.966034
O O12 0.087021 0.500000 0.164408
O O13 0.055741 0.329871 0.222446
O O14 0.140959 0.232893 0.211644
O O15 0.801805 0.500000 0.234656
O O16 0.801276 0.666622 0.326353
O O17 0.891891 0.238958 0.618412
O O18 0.777180 0.247242 0.416023
O O19 0.834722 0.000000 0.512178
O O20 0.051311 0.500000 0.308557
O O21 0.722885 0.500000 0.326583
#
# Coordination Sequence:
#
# PCOD9210090 Si02
#       8
#     8   8   8   8   8   8   8   8
#     4   9  19  35  55  81 113 149 189 232 279 334
#     4  10  21  39  60  82 114 153 192 239 284 334
#     4   9  20  39  60  83 115 152 192 237 282 336
#     4   9  20  41  65  85 111 152 196 238 285 338
#     4  11  24  38  57  87 119 153 191 234 290 347
#     4  11  23  38  60  88 115 151 196 235 282 345
#     4   9  20  39  59  83 117 150 186 237 289 336
#     4  11  24  40  59  85 117 151 190 241 293 341
#
# _framework density 20.558606000000001
#
# number of rings (size 3 to 8) (size 9 to 14) (size 15 to 20)
#    0.000    2.125    1.250    2.625    1.750    5.750 
#    0.000    5.000    0.000    0.000    0.000    0.000 
#    0.000    0.000    0.000    0.000    0.000    0.000 
#
# Total GULP energy -178816.266802 kJ/mol
# GULP energy per Si atom -5588.008338 kJ/mol
# Density = 2.051181 g / cm^3
# Si number density = 20.558606 Si / 1000 Ang^3
#
#
#
# Elastic Constant Matrix: (Units=GPa)
#
#
# Indices 1 2 3 4 5 6 
#
# 1 43.3195 11.5573 -8.1921 0.0000 10.6058 0.0000
# 2 11.5573 128.8298 64.0853 0.0000 24.3399 0.0000
# 3 -8.1921 64.0853 75.4140 0.0000 11.4198 0.0000
# 4 0.0000 0.0000 0.0000 26.4552 0.0000 -0.7767
# 5 10.6058 24.3399 11.4198 0.0000 32.0282 0.0000
# 6 0.0000 0.0000 0.0000 -0.7767 0.0000 25.2384
#
#
#
# Elastic Compliance Matrix: (Units=1/GPa)
#
#
# Indices 1 2 3 4 5 6 
#
# 1 0.028277 -0.005376 0.008921 0.000000 -0.008459 0.000000
# 2 -0.005376 0.015881 -0.013236 0.000000 -0.005569 0.000000
# 3 0.008921 -0.013236 0.025794 0.000000 -0.002092 0.000000
# 4 0.000000 0.000000 0.000000 0.037834 0.000000 0.001164
# 5 -0.008459 -0.005569 -0.002092 0.000000 0.039002 0.000000
# 6 0.000000 0.000000 0.000000 0.001164 0.000000 0.039658
#
#
# Mechanical properties :
#
#
# Convention : Reuss Voigt Hill
#
# Bulk Modulus (GPa) = 19.77495 42.49604 31.13550
# Shear Modulus (GPa) = 22.45345 28.75188 25.60267
#
# Velocity S-wave (km/s) = 3.30838 3.74375 3.53278
# Velocity P-wave (km/s) = 4.92276 6.27719 5.64078
#
# Compressibility (1/GPa) = 0.05056903
#
# Stress axis : x y z
#
# Youngs Moduli (GPa) = 35.36488 62.96952 38.76920
#
# Poissons Ratio (x) = 0.33855 -0.34587
# Poissons Ratio (y) = 0.19014 0.51314
# Poissons Ratio (z) = -0.31550 0.83346
#
# Static dielectric constant tensor:
#      x y z
#    x 1.758140 0.000000 -0.014740 
#    y 0.000000 1.694960 0.000000 
#    z -0.014740 0.000000 1.719220 
# 
# From -- ./inp_files/249035.got.cif
#   From: 2010.05.17/outbox.cif.g08.bks.cpg/sg12_125_cif.got.tgz:249035.got - 2010.06.03 13:09:07.
