data_PCOD9210349
_publ_section_title
;
Structure prediction by ZEFSAII (Michael W. Deem and Ramdas Pophale) SiO2 
 PCOD9210349
Probable space group: C 2/M
;
_chemical_formula_sum "Si O2"
_cell_formula_units_Z 40
_cell_length_a 16.296535
_cell_length_b 13.153181
_cell_length_c 8.466122
_cell_angle_alpha 90.000000
_cell_angle_beta 103.783982
_cell_angle_gamma 90.000000
_cell_volume 1762.461673
_symmetry_space_group_name_H-M "C 2/M"
_symmetry_group_IT_number 12
_symmetry_cell_setting 'monoclinic'
loop_
_space_group_symop_operation_xyz
x,y,z
-x,y,-z
-x,-y,-z
x,-y,z
1/2+x,1/2+y,z
1/2-x,1/2+y,-z
1/2-x,1/2-y,-z
1/2+x,1/2-y,z
loop_
_atom_site_type_symbol
_atom_site_label
_atom_site_fract_x
_atom_site_fract_y
_atom_site_fract_z
Si Si1 0.406203 0.887739 0.162644
Si Si2 0.652232 0.386685 0.549863
Si Si3 0.186522 0.668949 0.193193
Si Si4 0.448981 0.195138 0.616445
Si Si5 0.232794 0.889382 0.244155
O O1 0.476794 0.801981 0.217890
O O2 0.332357 0.879087 0.259132
O O3 0.446474 0.000000 0.190059
O O4 0.356125 0.881952 0.975634
O O5 0.616324 0.500000 0.554852
O O6 0.717836 0.361969 0.720196
O O7 0.585609 0.298351 0.479712
O O8 0.709090 0.388029 0.416898
O O9 0.129484 0.650553 0.322557
O O10 0.188588 0.789588 0.156720
O O11 0.500000 0.138270 0.500000
O O12 0.207076 0.000000 0.167351
#
# Coordination Sequence:
#
# PCOD9210349 Si02
#       5
#     8   8   8   8   8
#     4  11  23  38  60  89 118 148 187 241 296 339
#     4  10  21  39  62  85 113 153 196 234 278 339
#     4  11  21  38  62  87 117 149 190 241 285 336
#     4  11  23  39  57  85 120 154 190 232 286 343
#     4   9  19  37  60  86 115 150 191 232 283 344
#
# _framework density 22.695529000000001
#
# number of rings (size 3 to 8) (size 9 to 14) (size 15 to 20)
#    0.000    1.600    0.000    6.600    0.000    3.200 
#    0.000    2.000    0.000    4.800    0.000    0.000 
#    0.000    0.000    0.000    0.000    0.000    0.000 
#
# Total GULP energy -111609.246253 kJ/mol
# GULP energy per Si atom -5580.462313 kJ/mol
# Density = 2.264387 g / cm^3
# Si number density = 22.695529 Si / 1000 Ang^3
#
#
#
# Elastic Constant Matrix: (Units=GPa)
#
#
# Indices 1 2 3 4 5 6 
#
# 1 96.7951 24.7020 30.4372 0.0000 9.3907 0.0000
# 2 24.7020 114.1462 49.9762 0.0000 19.1365 0.0000
# 3 30.4372 49.9762 86.7624 0.0000 32.8362 0.0000
# 4 0.0000 0.0000 0.0000 19.7632 0.0000 3.0296
# 5 9.3907 19.1365 32.8362 0.0000 31.2463 0.0000
# 6 0.0000 0.0000 0.0000 3.0296 0.0000 17.1258
#
#
#
# Elastic Compliance Matrix: (Units=1/GPa)
#
#
# Indices 1 2 3 4 5 6 
#
# 1 0.011727 -0.000989 -0.004051 0.000000 0.001338 0.000000
# 2 -0.000989 0.011799 -0.006354 0.000000 -0.000251 0.000000
# 3 -0.004051 -0.006354 0.024363 0.000000 -0.020494 0.000000
# 4 0.000000 0.000000 0.000000 0.052009 0.000000 -0.009201
# 5 0.001338 -0.000251 -0.020494 0.000000 0.053292 0.000000
# 6 0.000000 0.000000 0.000000 -0.009201 0.000000 0.060019
#
#
# Mechanical properties :
#
#
# Convention : Reuss Voigt Hill
#
# Bulk Modulus (GPa) = 39.83860 56.43717 48.13788
# Shear Modulus (GPa) = 20.46121 26.46629 23.46375
#
# Velocity S-wave (km/s) = 3.00584 3.41859 3.21884
# Velocity P-wave (km/s) = 5.44412 6.36423 5.92207
#
# Compressibility (1/GPa) = 0.02510128
#
# Stress axis : x y z
#
# Youngs Moduli (GPa) = 85.27017 84.75377 41.04560
#
# Poissons Ratio (x) = 0.08378 0.16628
# Poissons Ratio (y) = 0.08429 0.26082
# Poissons Ratio (z) = 0.34544 0.53856
#
# Static dielectric constant tensor:
#      x y z
#    x 1.848500 0.000000 -0.011110 
#    y 0.000000 1.901360 0.000000 
#    z -0.011110 0.000000 1.905480 
# 
# From -- ./inp_files/59228.got.cif
#   From: 2010.05.17/outbox.cif.g08.bks.cpg/sg12_30_cif.got.tgz:59228.got - 2010.06.03 13:09:07.
