data_PCOD9210710
_publ_section_title
;
Structure prediction by ZEFSAII (Michael W. Deem and Ramdas Pophale) SiO2 
 PCOD9210710
Probable space group: C 2/M
;
_chemical_formula_sum "Si O2"
_cell_formula_units_Z 64
_cell_length_a 16.741349
_cell_length_b 19.764939
_cell_length_c 13.261640
_cell_angle_alpha 90.000000
_cell_angle_beta 44.106238
_cell_angle_gamma 90.000000
_cell_volume 3054.124750
_symmetry_space_group_name_H-M "C 2/M"
_symmetry_group_IT_number 12
_symmetry_cell_setting 'monoclinic'
loop_
_space_group_symop_operation_xyz
x,y,z
-x,y,-z
-x,-y,-z
x,-y,z
1/2+x,1/2+y,z
1/2-x,1/2+y,-z
1/2-x,1/2-y,-z
1/2+x,1/2-y,z
loop_
_atom_site_type_symbol
_atom_site_label
_atom_site_fract_x
_atom_site_fract_y
_atom_site_fract_z
Si Si1 0.383526 0.577771 0.320208
Si Si2 0.353156 0.243380 0.688608
Si Si3 0.314050 0.189469 0.500780
Si Si4 0.948667 0.112265 0.647969
Si Si5 0.108640 0.772146 0.965245
Si Si6 0.612664 0.574826 0.986005
Si Si7 0.725154 0.925825 0.963666
Si Si8 0.940257 0.314063 0.809342
O O1 0.344946 0.500000 0.366363
O O2 0.277646 0.628853 0.402798
O O3 0.458621 0.599661 0.349049
O O4 0.481062 0.578300 0.144631
O O5 0.357932 0.214095 0.571492
O O6 0.428817 0.308333 0.646398
O O7 0.383065 0.191419 0.750980
O O8 0.222000 0.264700 0.825844
O O9 0.250000 0.250000 0.500000
O O10 0.426278 0.172487 0.332348
O O11 0.823654 0.085065 0.791238
O O12 0.000000 0.081894 0.500000
O O13 0.131235 0.851376 0.922311
O O14 0.082307 0.755061 0.106067
O O15 0.000000 0.749864 0.000000
O O16 0.631134 0.500000 0.921705
O O17 0.697950 0.575355 0.004252
O O18 0.673427 0.000000 0.998750
O O19 0.627073 0.870315 0.065976
#
# Coordination Sequence:
#
# PCOD9210710 Si02
#       8
#     8   8   8   8   8   8   8   8
#     4  10  22  41  64  92 134 176 219 276 340 399
#     4  12  23  40  65 100 130 172 225 278 330 401
#     4  12  25  43  65  97 135 175 224 283 341 411
#     4  11  21  38  68 100 133 171 228 287 336 394
#     4  12  23  37  63  96 133 170 210 269 339 391
#     4   9  18  36  60  88 123 164 209 261 320 388
#     4  10  21  39  63  92 126 170 219 273 330 388
#     4  12  23  42  65  90 131 173 226 273 324 398
#
# _framework density 20.955266999999999
#
# number of rings (size 3 to 8) (size 9 to 14) (size 15 to 20)
#    0.000    1.000    2.500    7.875    0.000    1.750 
#    0.000    1.250    0.000    1.875    0.000    0.000 
#    0.000    0.000    0.000    0.000    0.000    0.000 
#
# Total GULP energy -178738.596949 kJ/mol
# GULP energy per Si atom -5585.581155 kJ/mol
# Density = 2.090757 g / cm^3
# Si number density = 20.955267 Si / 1000 Ang^3
#
#
#
# Elastic Constant Matrix: (Units=GPa)
#
#
# Indices 1 2 3 4 5 6 
#
# 1 69.4297 33.1962 28.0810 0.0000 2.9485 0.0000
# 2 33.1962 130.5110 34.2392 0.0000 -4.3705 0.0000
# 3 28.0810 34.2392 114.5091 0.0000 -11.6287 0.0000
# 4 0.0000 0.0000 0.0000 16.2072 0.0000 -9.7336
# 5 2.9485 -4.3705 -11.6287 0.0000 38.0022 0.0000
# 6 0.0000 0.0000 0.0000 -9.7336 0.0000 26.7558
#
#
#
# Elastic Compliance Matrix: (Units=1/GPa)
#
#
# Indices 1 2 3 4 5 6 
#
# 1 0.017713 -0.003674 -0.003538 0.000000 -0.002879 0.000000
# 2 -0.003674 0.009078 -0.001732 0.000000 0.000799 0.000000
# 3 -0.003538 -0.001732 0.010451 0.000000 0.003273 0.000000
# 4 0.000000 0.000000 0.000000 0.078951 0.000000 0.028722
# 5 -0.002879 0.000799 0.003273 0.000000 0.027631 0.000000
# 6 0.000000 0.000000 0.000000 0.028722 0.000000 0.047824
#
#
# Mechanical properties :
#
#
# Convention : Reuss Voigt Hill
#
# Bulk Modulus (GPa) = 51.66856 56.16472 53.91664
# Shear Modulus (GPa) = 23.14972 30.78861 26.96916
#
# Velocity S-wave (km/s) = 3.32734 3.83724 3.59135
# Velocity P-wave (km/s) = 6.28265 6.81857 6.55609
#
# Compressibility (1/GPa) = 0.01935413
#
# Stress axis : x y z
#
# Youngs Moduli (GPa) = 56.45707 110.15848 95.68614
#
# Poissons Ratio (x) = 0.40468 0.33850
# Poissons Ratio (y) = 0.20740 0.16576
# Poissons Ratio (z) = 0.19972 0.19083
#
# Static dielectric constant tensor:
#      x y z
#    x 1.769100 0.000000 0.032280 
#    y 0.000000 1.788560 0.000000 
#    z 0.032280 0.000000 1.785300 
# 
# From -- ./inp_files/226833.got.cif
#   From: 2010.05.17/outbox.cif.g08.bks.cpg/sg12_114_cif.got.tgz:226833.got - 2010.06.03 13:09:07.
