data_PCOD9210120
_publ_section_title
;
Structure prediction by ZEFSAII (Michael W. Deem and Ramdas Pophale) SiO2 
 PCOD9210120
Probable space group: C 2/M
;
_chemical_formula_sum "Si O2"
_cell_formula_units_Z 56
_cell_length_a 27.443481
_cell_length_b 8.573795
_cell_length_c 12.200964
_cell_angle_alpha 90.000000
_cell_angle_beta 103.305224
_cell_angle_gamma 90.000000
_cell_volume 2793.764202
_symmetry_space_group_name_H-M "C 2/M"
_symmetry_group_IT_number 12
_symmetry_cell_setting 'monoclinic'
loop_
_space_group_symop_operation_xyz
x,y,z
-x,y,-z
-x,-y,-z
x,-y,z
1/2+x,1/2+y,z
1/2-x,1/2+y,-z
1/2-x,1/2-y,-z
1/2+x,1/2-y,z
loop_
_atom_site_type_symbol
_atom_site_label
_atom_site_fract_x
_atom_site_fract_y
_atom_site_fract_z
Si Si1 0.898288 0.813651 0.707189
Si Si2 0.114439 0.687983 0.065959
Si Si3 0.490787 0.811185 0.620663
Si Si4 0.269031 0.812638 0.893151
Si Si5 0.679624 0.812831 0.707833
Si Si6 0.413492 0.810008 0.188517
Si Si7 0.693909 0.686479 0.479773
O O1 0.908297 0.752575 0.834252
O O2 0.939882 0.753007 0.644923
O O3 0.843632 0.760051 0.635637
O O4 0.898564 0.000000 0.707924
O O5 0.111648 0.500000 0.067486
O O6 0.173148 0.732166 0.092564
O O7 0.089791 0.741844 0.939175
O O8 0.500000 0.762761 0.500000
O O9 0.537235 0.760534 0.720806
O O10 0.488750 0.000000 0.621190
O O11 0.232667 0.743515 0.782397
O O12 0.265963 0.000000 0.890692
O O13 0.250000 0.750000 0.000000
O O14 0.636115 0.763505 0.769818
O O15 0.671695 0.742666 0.584010
O O16 0.679358 0.000000 0.700774
O O17 0.413267 0.000000 0.187070
O O18 0.696179 0.500000 0.478886
O O19 0.750000 0.750000 0.500000
#
# Coordination Sequence:
#
# PCOD9210120 Si02
#       7
#     8   8   8   8   8   8   8
#     4  11  25  42  60  87 124 158 193 247 309 359
#     4  10  21  39  60  84 119 162 205 245 292 356
#     4  10  21  40  67  92 114 151 203 248 295 361
#     4  11  21  35  57  87 124 165 205 246 298 356
#     4  11  21  37  61  89 122 156 198 253 304 356
#     4   9  19  37  60  88 118 152 199 249 296 351
#     4  11  24  41  60  86 119 158 200 245 301 362
#
# _framework density 20.044642
#
# number of rings (size 3 to 8) (size 9 to 14) (size 15 to 20)
#    0.000    1.571    1.429    3.429    0.000    7.714 
#    0.000    5.000    0.000    0.000    0.000    0.000 
#    0.000    0.000    0.000    0.000    0.000    0.000 
#
# Total GULP energy -156540.658077 kJ/mol
# GULP energy per Si atom -5590.737788 kJ/mol
# Density = 1.999902 g / cm^3
# Si number density = 20.044642 Si / 1000 Ang^3
#
#
#
# Elastic Constant Matrix: (Units=GPa)
#
#
# Indices 1 2 3 4 5 6 
#
# 1 106.5203 21.3881 62.9340 0.0000 -1.8728 0.0000
# 2 21.3881 23.1119 22.0172 0.0000 1.4935 0.0000
# 3 62.9340 22.0172 165.8142 0.0000 -3.3323 0.0000
# 4 0.0000 0.0000 0.0000 26.7591 0.0000 -3.8522
# 5 -1.8728 1.4935 -3.3323 0.0000 41.6186 0.0000
# 6 0.0000 0.0000 0.0000 -3.8522 0.0000 27.4423
#
#
#
# Elastic Compliance Matrix: (Units=1/GPa)
#
#
# Indices 1 2 3 4 5 6 
#
# 1 0.013488 -0.008765 -0.003943 0.000000 0.000606 0.000000
# 2 -0.008765 0.055451 -0.004091 0.000000 -0.002712 0.000000
# 3 -0.003943 -0.004091 0.008083 0.000000 0.000617 0.000000
# 4 0.000000 0.000000 0.000000 0.038141 0.000000 0.005354
# 5 0.000606 -0.002712 0.000617 0.000000 0.024202 0.000000
# 6 0.000000 0.000000 0.000000 0.005354 0.000000 0.037192
#
#
# Mechanical properties :
#
#
# Convention : Reuss Voigt Hill
#
# Bulk Modulus (GPa) = 23.02847 56.45832 39.74339
# Shear Modulus (GPa) = 22.25885 31.77115 27.01500
#
# Velocity S-wave (km/s) = 3.33598 3.98555 3.67514
# Velocity P-wave (km/s) = 5.13341 7.02900 6.15462
#
# Compressibility (1/GPa) = 0.04342452
#
# Stress axis : x y z
#
# Youngs Moduli (GPa) = 74.13866 18.03391 123.71448
#
# Poissons Ratio (x) = 0.15806 0.48786
# Poissons Ratio (y) = 0.64981 0.50609
# Poissons Ratio (z) = 0.29236 0.07377
#
# Static dielectric constant tensor:
#      x y z
#    x 1.689690 0.000000 0.009110 
#    y 0.000000 1.681100 0.000000 
#    z 0.009110 0.000000 1.700200 
# 
# From -- ./inp_files/180781.got.cif
#   From: 2010.05.17/outbox.cif.g08.bks.cpg/sg12_91_cif.got.tgz:180781.got - 2010.06.03 13:09:07.
