data_PCOD9210875
_publ_section_title
;
Structure prediction by ZEFSAII (Michael W. Deem and Ramdas Pophale) SiO2 
 PCOD9210875
Probable space group: C 2/M
;
_chemical_formula_sum "Si O2"
_cell_formula_units_Z 60
_cell_length_a 26.171091
_cell_length_b 12.609019
_cell_length_c 17.004108
_cell_angle_alpha 90.000000
_cell_angle_beta 33.609222
_cell_angle_gamma 90.000000
_cell_volume 3105.951688
_symmetry_space_group_name_H-M "C 2/M"
_symmetry_group_IT_number 12
_symmetry_cell_setting 'monoclinic'
loop_
_space_group_symop_operation_xyz
x,y,z
-x,y,-z
-x,-y,-z
x,-y,z
1/2+x,1/2+y,z
1/2-x,1/2+y,-z
1/2-x,1/2-y,-z
1/2+x,1/2-y,z
loop_
_atom_site_type_symbol
_atom_site_label
_atom_site_fract_x
_atom_site_fract_y
_atom_site_fract_z
Si Si1 0.966005 0.679761 0.728848
Si Si2 0.582811 0.000000 0.671590
Si Si3 0.226030 0.379068 0.754395
Si Si4 0.830809 0.699758 0.344223
Si Si5 0.071898 0.190846 0.473277
Si Si6 0.350185 0.720592 0.017158
Si Si7 0.652385 0.119968 0.269256
Si Si8 0.519831 0.380512 0.881590
O O1 0.895972 0.723245 0.883988
O O2 0.908076 0.630208 0.731501
O O3 0.032705 0.593534 0.681847
O O4 0.021231 0.778043 0.618750
O O5 0.629752 0.094158 0.666230
O O6 0.193015 0.500000 0.799204
O O7 0.206555 0.328939 0.694485
O O8 0.335576 0.374982 0.631608
O O9 0.174414 0.309267 0.886090
O O10 0.750000 0.750000 0.500000
O O11 0.909605 0.789168 0.233890
O O12 0.108083 0.301990 0.390065
O O13 0.000000 0.147493 0.500000
O O14 0.424529 0.640877 0.958730
O O15 0.255309 0.660765 0.120079
O O16 0.653558 0.000000 0.296719
O O17 0.554576 0.500000 0.821306
O O18 0.500000 0.371752 0.000000
#
# Coordination Sequence:
#
# PCOD9210875 Si02
#       8
#     8   4   8   8   8   8   8   8
#     4  11  22  40  63  97 126 163 215 265 318 383
#     4  12  24  40  68  96 128 168 214 268 327 372
#     4  11  24  42  64  91 130 169 214 262 323 387
#     4  12  26  45  64  96 129 169 218 269 324 386
#     4   9  22  42  64  92 128 166 212 270 320 379
#     4  11  23  41  62  94 127 171 209 260 319 382
#     4  10  21  39  64  92 129 165 209 263 321 378
#     4  11  24  44  65  90 127 167 214 263 316 386
#
# _framework density 19.317751000000001
#
# number of rings (size 3 to 8) (size 9 to 14) (size 15 to 20)
#    0.000    1.200    4.000    1.600    2.800    1.067 
#    0.000    2.333    0.000    0.800    0.000    0.000 
#    0.000    0.000    0.000    0.000    0.000    0.000 
#
# Total GULP energy -167131.641873 kJ/mol
# GULP energy per Si atom -5571.054729 kJ/mol
# Density = 1.927378 g / cm^3
# Si number density = 19.317751 Si / 1000 Ang^3
#
#
#
# Elastic Constant Matrix: (Units=GPa)
#
#
# Indices 1 2 3 4 5 6 
#
# 1 84.9361 35.8142 45.8070 0.0000 -2.6378 0.0000
# 2 35.8142 123.9386 31.5770 0.0000 -1.5304 0.0000
# 3 45.8070 31.5770 79.4912 0.0000 4.2845 0.0000
# 4 0.0000 0.0000 0.0000 5.2233 0.0000 -0.3566
# 5 -2.6378 -1.5304 4.2845 0.0000 24.2454 0.0000
# 6 0.0000 0.0000 0.0000 -0.3566 0.0000 14.7999
#
#
#
# Elastic Compliance Matrix: (Units=1/GPa)
#
#
# Indices 1 2 3 4 5 6 
#
# 1 0.018225 -0.002781 -0.009586 0.000000 0.003501 0.000000
# 2 -0.002781 0.009437 -0.002183 0.000000 0.000679 0.000000
# 3 -0.009586 -0.002183 0.019218 0.000000 -0.004577 0.000000
# 4 0.000000 0.000000 0.000000 0.191763 0.000000 0.004620
# 5 0.003501 0.000679 -0.004577 0.000000 0.042477 0.000000
# 6 0.000000 0.000000 0.000000 0.004620 0.000000 0.067679
#
#
# Mechanical properties :
#
#
# Convention : Reuss Voigt Hill
#
# Bulk Modulus (GPa) = 56.24354 57.19582 56.71968
# Shear Modulus (GPa) = 13.02676 20.53159 16.77918
#
# Velocity S-wave (km/s) = 2.59963 3.26365 2.95038
# Velocity P-wave (km/s) = 6.17972 6.62375 6.40558
#
# Compressibility (1/GPa) = 0.01777982
#
# Stress axis : x y z
#
# Youngs Moduli (GPa) = 54.87043 105.97084 52.03516
#
# Poissons Ratio (x) = 0.29468 0.49882
# Poissons Ratio (y) = 0.15258 0.11358
# Poissons Ratio (z) = 0.52600 0.23130
#
# Static dielectric constant tensor:
#      x y z
#    x 1.662540 0.000000 -0.012850 
#    y 0.000000 1.649530 0.000000 
#    z -0.012850 0.000000 1.670690 
# 
# From -- ./inp_files/293279.got.cif
#   From: 2010.05.17/outbox.cif.g08.bks.cpg/sg12_147_cif.got.tgz:293279.got - 2010.06.03 13:09:07.
