data_PCOD9210532
_publ_section_title
;
Structure prediction by ZEFSAII (Michael W. Deem and Ramdas Pophale) SiO2 
 PCOD9210532
Probable space group: C 2/M
;
_chemical_formula_sum "Si O2"
_cell_formula_units_Z 50
_cell_length_a 23.676201
_cell_length_b 7.842087
_cell_length_c 12.242715
_cell_angle_alpha 90.000000
_cell_angle_beta 60.977774
_cell_angle_gamma 90.000000
_cell_volume 1987.683559
_symmetry_space_group_name_H-M "C 2/M"
_symmetry_group_IT_number 12
_symmetry_cell_setting 'monoclinic'
loop_
_space_group_symop_operation_xyz
x,y,z
-x,y,-z
-x,-y,-z
x,-y,z
1/2+x,1/2+y,z
1/2-x,1/2+y,-z
1/2-x,1/2-y,-z
1/2+x,1/2-y,z
loop_
_atom_site_type_symbol
_atom_site_label
_atom_site_fract_x
_atom_site_fract_y
_atom_site_fract_z
Si Si1 0.871665 0.198314 0.681464
Si Si2 0.178632 0.796601 0.608086
Si Si3 0.492719 0.686319 0.853380
Si Si4 0.500000 0.000000 0.000000
Si Si5 0.231007 0.793300 0.784001
Si Si6 0.555030 0.811176 0.591725
Si Si7 0.346472 0.698435 0.942384
O O1 0.801175 0.218729 0.692905
O O2 0.925529 0.269337 0.550225
O O3 0.859227 0.279299 0.812342
O O4 0.886532 0.000000 0.681518
O O5 0.250000 0.750000 0.500000
O O6 0.181214 0.752762 0.734161
O O7 0.122771 0.704131 0.594196
O O8 0.168526 0.000000 0.605178
O O9 0.516604 0.500000 0.867354
O O10 0.508154 0.697709 0.709451
O O11 0.415484 0.697714 0.937265
O O12 0.518877 0.847887 0.893363
O O13 0.236400 0.000000 0.781712
O O14 0.205451 0.728268 0.924886
O O15 0.528480 0.000000 0.620977
O O16 0.328180 0.500000 0.941662
#
# Coordination Sequence:
#
# PCOD9210532 Si02
#       7
#     8   8   8   2   8   8   8
#     4  11  22  40  65  95 130 176 226 279 339 406
#     4  11  22  37  61  93 130 171 216 272 340 407
#     4  11  25  48  72 101 140 181 224 283 338 400
#     4  12  26  48  68 108 136 172 234 268 338 414
#     4  10  21  39  62  94 129 170 217 278 342 404
#     4  12  25  43  64  98 135 176 230 282 337 408
#     4   9  22  43  67  94 131 177 228 274 338 410
#
# _framework density 25.154910000000001
#
# number of rings (size 3 to 8) (size 9 to 14) (size 15 to 20)
#    0.000    1.280    2.400    3.120    2.240    1.280 
#    4.320    3.200    0.000    0.000    0.000    0.000 
#    0.000    0.000    0.000    0.000    0.000    0.000 
#
# Total GULP energy -139662.659860 kJ/mol
# GULP energy per Si atom -5586.506394 kJ/mol
# Density = 2.509766 g / cm^3
# Si number density = 25.154910 Si / 1000 Ang^3
#
#
#
# Elastic Constant Matrix: (Units=GPa)
#
#
# Indices 1 2 3 4 5 6 
#
# 1 58.5748 6.1616 7.4659 0.0000 -8.2207 0.0000
# 2 6.1616 126.2406 36.4848 0.0000 11.0834 0.0000
# 3 7.4659 36.4848 175.8372 0.0000 4.5703 0.0000
# 4 0.0000 0.0000 0.0000 27.9257 0.0000 1.7123
# 5 -8.2207 11.0834 4.5703 0.0000 45.9019 0.0000
# 6 0.0000 0.0000 0.0000 1.7123 0.0000 14.2397
#
#
#
# Elastic Compliance Matrix: (Units=1/GPa)
#
#
# Indices 1 2 3 4 5 6 
#
# 1 0.017746 -0.000987 -0.000639 0.000000 0.003480 0.000000
# 2 -0.000987 0.008644 -0.001697 0.000000 -0.002095 0.000000
# 3 -0.000639 -0.001697 0.006074 0.000000 -0.000309 0.000000
# 4 0.000000 0.000000 0.000000 0.036075 0.000000 -0.004338
# 5 0.003480 -0.002095 -0.000309 0.000000 0.022946 0.000000
# 6 0.000000 0.000000 0.000000 -0.004338 0.000000 0.070748
#
#
# Mechanical properties :
#
#
# Convention : Reuss Voigt Hill
#
# Bulk Modulus (GPa) = 38.73315 51.20858 44.97086
# Shear Modulus (GPa) = 28.17129 38.31613 33.24371
#
# Velocity S-wave (km/s) = 3.35014 3.90706 3.63927
# Velocity P-wave (km/s) = 5.51324 6.38396 5.96451
#
# Compressibility (1/GPa) = 0.02581768
#
# Stress axis : x y z
#
# Youngs Moduli (GPa) = 56.35104 115.68730 164.62494
#
# Poissons Ratio (x) = 0.11418 0.10522
# Poissons Ratio (y) = 0.05562 0.27940
# Poissons Ratio (z) = 0.03602 0.19634
#
# Static dielectric constant tensor:
#      x y z
#    x 2.006130 0.000000 0.061520 
#    y 0.000000 1.907970 0.000000 
#    z 0.061520 0.000000 2.032380 
# 
# From -- ./inp_files/180566.got.cif
#   From: 2010.05.17/outbox.cif.g08.bks.cpg/sg12_91_cif.got.tgz:180566.got - 2010.06.03 13:09:07.
