data_PCOD9210836
_publ_section_title
;
Structure prediction by ZEFSAII (Michael W. Deem and Ramdas Pophale) SiO2 
 PCOD9210836
Probable space group: C 2/M
;
_chemical_formula_sum "Si O2"
_cell_formula_units_Z 48
_cell_length_a 18.443749
_cell_length_b 12.485706
_cell_length_c 23.115480
_cell_angle_alpha 90.000000
_cell_angle_beta 155.730100
_cell_angle_gamma 90.000000
_cell_volume 2187.986095
_symmetry_space_group_name_H-M "C 2/M"
_symmetry_group_IT_number 12
_symmetry_cell_setting 'monoclinic'
loop_
_space_group_symop_operation_xyz
x,y,z
-x,y,-z
-x,-y,-z
x,-y,z
1/2+x,1/2+y,z
1/2-x,1/2+y,-z
1/2-x,1/2-y,-z
1/2+x,1/2-y,z
loop_
_atom_site_type_symbol
_atom_site_label
_atom_site_fract_x
_atom_site_fract_y
_atom_site_fract_z
Si Si1 0.476894 0.385434 0.051863
Si Si2 0.849314 0.114519 0.271325
Si Si3 0.197374 0.713929 0.662756
Si Si4 0.235733 0.321007 0.063718
Si Si5 0.745713 0.620573 0.515789
Si Si6 0.973799 0.686109 0.779255
O O1 0.393879 0.500000 0.003161
O O2 0.668551 0.378314 0.220792
O O3 0.500000 0.372732 0.000000
O O4 0.358560 0.291175 0.989962
O O5 0.806578 0.208503 0.284268
O O6 0.761155 0.124371 0.143911
O O7 0.057267 0.116026 0.410091
O O8 0.798407 0.000000 0.260507
O O9 0.298940 0.776001 0.685600
O O10 0.000000 0.685294 0.500000
O O11 0.421074 0.289884 0.169248
O O12 0.105553 0.368815 0.920955
O O13 0.752591 0.500000 0.488814
O O14 0.750000 0.750000 0.500000
O O15 0.909832 0.618688 0.678688
#
# Coordination Sequence:
#
# PCOD9210836 Si02
#       6
#     8   8   8   8   8   8
#     4  10  21  39  64  91 122 168 217 270 323 392
#     4  11  23  40  66  94 129 170 217 272 332 397
#     4  11  22  40  64  94 134 169 211 274 334 398
#     4  10  21  42  64  92 133 170 219 273 333 393
#     4  11  23  42  66  98 134 176 225 277 336 402
#     4  10  22  39  65  95 132 173 218 276 332 404
#
# _framework density 21.937982000000002
#
# number of rings (size 3 to 8) (size 9 to 14) (size 15 to 20)
#    0.000    1.500    5.000    0.000    0.000    2.667 
#    0.000   16.667    0.000    0.000    0.000    0.000 
#    0.000    0.000    0.000    0.000    0.000    0.000 
#
# Total GULP energy -133699.626377 kJ/mol
# GULP energy per Si atom -5570.817766 kJ/mol
# Density = 2.188805 g / cm^3
# Si number density = 21.937982 Si / 1000 Ang^3
#
#
#
# Elastic Constant Matrix: (Units=GPa)
#
#
# Indices 1 2 3 4 5 6 
#
# 1 50.2867 24.4795 11.4350 0.0007 -2.5657 0.0004
# 2 24.4795 122.6230 14.9578 0.0037 -6.6182 0.0025
# 3 11.4350 14.9578 107.2824 -0.0033 -10.8278 0.0012
# 4 0.0007 0.0037 -0.0033 36.1989 0.0006 -3.8566
# 5 -2.5657 -6.6182 -10.8278 0.0006 39.7109 0.0007
# 6 0.0004 0.0025 0.0012 -3.8566 0.0007 -5.7466
#
#
#
# Elastic Compliance Matrix: (Units=1/GPa)
#
#
# Indices 1 2 3 4 5 6 
#
# 1 0.022362 -0.004235 -0.001767 0.000000 0.000257 0.000000
# 2 -0.004235 0.009145 -0.000717 -0.000001 0.001055 0.000004
# 3 -0.001767 -0.000717 0.009857 0.000001 0.002454 0.000001
# 4 0.000000 -0.000001 0.000001 0.025782 0.000000 -0.017302
# 5 0.000257 0.001055 0.002454 0.000000 0.026044 0.000004
# 6 0.000000 0.000004 0.000001 -0.017302 0.000004 -0.162404
#
#
# Mechanical properties :
#
#
# Convention : Reuss Voigt Hill
#
# Bulk Modulus (GPa) = 35.80862 42.43743 39.12303
# Shear Modulus (GPa) = -107.60309 29.32062 -39.14124
#
# Velocity S-wave (km/s) = -7.01108 3.65982 -4.22853
# Velocity P-wave (km/s) = 7.01300 6.10289 2.44305
#
# Compressibility (1/GPa) = 0.02792623
#
# Stress axis : x y z
#
# Youngs Moduli (GPa) = 44.71786 109.35056 101.44847
#
# Poissons Ratio (x) = 0.46308 0.17928
# Poissons Ratio (y) = 0.18937 0.07276
# Poissons Ratio (z) = 0.07902 0.07842
#
# Static dielectric constant tensor:
#      x y z
#    x 1.806030 0.000000 -0.040440 
#    y 0.000000 1.995100 0.000000 
#    z -0.040440 0.000000 1.812630 
# 
# From -- ./inp_files/366209.got.cif
#   From: 2010.05.17/outbox.cif.g08.bks.cpg/sg12_184_cif.got.tgz:366209.got - 2010.06.03 13:09:07.
