data_PCOD9210899
_publ_section_title
;
Structure prediction by ZEFSAII (Michael W. Deem and Ramdas Pophale) SiO2 
 PCOD9210899
Probable space group: C 2/M
;
_chemical_formula_sum "Si O2"
_cell_formula_units_Z 56
_cell_length_a 14.737652
_cell_length_b 29.600099
_cell_length_c 7.306718
_cell_angle_alpha 90.000000
_cell_angle_beta 48.857661
_cell_angle_gamma 90.000000
_cell_volume 2400.398965
_symmetry_space_group_name_H-M "C 2/M"
_symmetry_group_IT_number 12
_symmetry_cell_setting 'monoclinic'
loop_
_space_group_symop_operation_xyz
x,y,z
-x,y,-z
-x,-y,-z
x,-y,z
1/2+x,1/2+y,z
1/2-x,1/2+y,-z
1/2-x,1/2-y,-z
1/2+x,1/2-y,z
loop_
_atom_site_type_symbol
_atom_site_label
_atom_site_fract_x
_atom_site_fract_y
_atom_site_fract_z
Si Si1 0.042526 0.637522 0.231874
Si Si2 0.838771 0.825675 0.520725
Si Si3 0.261411 0.411948 0.070943
Si Si4 0.109182 0.819672 0.115025
Si Si5 0.805071 0.409670 0.431869
Si Si6 0.628414 0.227428 0.919177
Si Si7 0.821751 0.000000 0.433149
Si Si8 0.599085 0.500000 0.109028
O O1 0.154925 0.603091 0.077798
O O2 0.096175 0.685544 0.097241
O O3 0.000000 0.642287 0.500000
O O4 0.932741 0.616997 0.259229
O O5 0.867228 0.822522 0.699098
O O6 0.790973 0.873211 0.512361
O O7 0.967437 0.816271 0.262589
O O8 0.728950 0.790961 0.646649
O O9 0.200977 0.422603 0.345045
O O10 0.339401 0.367492 0.016458
O O11 0.340946 0.453703 0.900575
O O12 0.168464 0.774415 0.957229
O O13 0.760063 0.456850 0.408147
O O14 0.500000 0.235166 0.000000
O O15 0.956550 0.000000 0.337103
O O16 0.863940 0.000000 0.159272
#
# Coordination Sequence:
#
# PCOD9210899 Si02
#       8
#     8   8   8   8   8   8   4   4
#     4  10  22  39  63  93 127 166 209 259 313 370
#     4  11  24  42  62  90 126 163 208 255 314 372
#     4  10  21  39  64  93 129 162 212 264 310 369
#     4  11  26  40  62  92 126 166 207 263 309 371
#     4  10  21  39  65  93 125 169 210 258 313 373
#     4  12  25  43  65  88 126 168 209 258 313 374
#     4   9  18  35  62  93 128 159 215 257 306 373
#     4   9  18  35  62  94 125 167 202 264 317 360
#
# _framework density 23.329457000000001
#
# number of rings (size 3 to 8) (size 9 to 14) (size 15 to 20)
#    0.000    1.571    2.857    1.286    4.000    3.429 
#    0.000    3.571    0.000    3.429    0.000    0.000 
#    0.000    0.000    0.000    0.000    0.000    0.000 
#
# Total GULP energy -156374.441842 kJ/mol
# GULP energy per Si atom -5584.801494 kJ/mol
# Density = 2.327636 g / cm^3
# Si number density = 23.329457 Si / 1000 Ang^3
#
#
#
# Elastic Constant Matrix: (Units=GPa)
#
#
# Indices 1 2 3 4 5 6 
#
# 1 96.7241 56.2366 15.7245 0.0000 -27.5654 0.0000
# 2 56.2366 199.1017 28.1786 0.0000 -23.6770 0.0000
# 3 15.7245 28.1786 53.9200 0.0000 -17.8747 0.0000
# 4 0.0000 0.0000 0.0000 21.2749 0.0000 0.7872
# 5 -27.5654 -23.6770 -17.8747 0.0000 40.9709 0.0000
# 6 0.0000 0.0000 0.0000 0.7872 0.0000 6.8071
#
#
#
# Elastic Compliance Matrix: (Units=1/GPa)
#
#
# Indices 1 2 3 4 5 6 
#
# 1 0.014406 -0.003137 0.000059 0.000000 0.007905 0.000000
# 2 -0.003137 0.006285 -0.002181 0.000000 0.000570 0.000000
# 3 0.000059 -0.002181 0.022521 0.000000 0.008605 0.000000
# 4 0.000000 0.000000 0.000000 0.047206 0.000000 -0.005459
# 5 0.007905 0.000570 0.008605 0.000000 0.033810 0.000000
# 6 0.000000 0.000000 0.000000 -0.005459 0.000000 0.147537
#
#
# Mechanical properties :
#
#
# Convention : Reuss Voigt Hill
#
# Bulk Modulus (GPa) = 30.58668 61.11390 45.85029
# Shear Modulus (GPa) = 17.05435 30.45100 23.75267
#
# Velocity S-wave (km/s) = 2.70668 3.61676 3.19429
# Velocity P-wave (km/s) = 4.78616 6.61015 5.77068
#
# Compressibility (1/GPa) = 0.03269397
#
# Stress axis : x y z
#
# Youngs Moduli (GPa) = 69.41534 159.10635 44.40307
#
# Poissons Ratio (x) = 0.49916 -0.00262
# Poissons Ratio (y) = 0.21778 0.09683
# Poissons Ratio (z) = -0.00409 0.34697
#
# Static dielectric constant tensor:
#      x y z
#    x 1.923990 0.000000 0.034940 
#    y 0.000000 1.872760 0.000000 
#    z 0.034940 0.000000 1.921330 
# 
# From -- ./inp_files/68184.got.cif
#   From: 2010.05.17/outbox.cif.g08.bks.cpg/sg12_35_cif.got.tgz:68184.got - 2010.06.03 13:09:07.
