data_PCOD9210707
_publ_section_title
;
Structure prediction by ZEFSAII (Michael W. Deem and Ramdas Pophale) SiO2 
 PCOD9210707
Probable space group: C 2/M
;
_chemical_formula_sum "Si O2"
_cell_formula_units_Z 44
_cell_length_a 11.674172
_cell_length_b 15.140182
_cell_length_c 14.102453
_cell_angle_alpha 90.000000
_cell_angle_beta 47.439190
_cell_angle_gamma 90.000000
_cell_volume 1835.946038
_symmetry_space_group_name_H-M "C 2/M"
_symmetry_group_IT_number 12
_symmetry_cell_setting 'monoclinic'
loop_
_space_group_symop_operation_xyz
x,y,z
-x,y,-z
-x,-y,-z
x,-y,z
1/2+x,1/2+y,z
1/2-x,1/2+y,-z
1/2-x,1/2-y,-z
1/2+x,1/2-y,z
loop_
_atom_site_type_symbol
_atom_site_label
_atom_site_fract_x
_atom_site_fract_y
_atom_site_fract_z
Si Si1 0.827718 0.785038 0.850052
Si Si2 0.132897 0.600424 0.243201
Si Si3 0.000000 0.351696 0.000000
Si Si4 0.286734 0.104828 0.472229
Si Si5 0.405228 0.396093 0.242430
Si Si6 0.740043 0.399185 0.282596
O O1 0.865659 0.682789 0.826889
O O2 0.643515 0.798037 0.963414
O O3 0.853446 0.831276 0.731300
O O4 0.936760 0.842553 0.856268
O O5 0.132083 0.500000 0.204587
O O6 0.283024 0.610501 0.225666
O O7 0.970203 0.611738 0.389843
O O8 0.091627 0.401843 0.864601
O O9 0.183318 0.141048 0.614921
O O10 0.253622 0.133320 0.382827
O O11 0.254636 0.000000 0.488958
O O12 0.441858 0.500000 0.233186
O O13 0.677544 0.500000 0.315429
#
# Coordination Sequence:
#
# PCOD9210707 Si02
#       6
#     8   8   4   8   8   8
#     4  10  22  37  63  91 117 157 209 254 294 357
#     4  10  22  41  59  84 127 170 199 239 304 369
#     4   8  21  38  59  90 126 156 199 254 317 356
#     4   9  19  37  61  89 124 162 200 245 299 363
#     4  10  21  39  63  92 126 161 200 246 300 364
#     4   9  18  36  62  89 120 158 198 246 307 360
#
# _framework density 23.965845999999999
#
# number of rings (size 3 to 8) (size 9 to 14) (size 15 to 20)
#    1.091    1.455    0.000    1.364    2.545    3.636 
#    3.273    6.818    0.000    4.364    0.000    0.000 
#    0.000    0.000    0.000    0.000    0.000    0.000 
#
# Total GULP energy -122799.093911 kJ/mol
# GULP energy per Si atom -5581.776996 kJ/mol
# Density = 2.391130 g / cm^3
# Si number density = 23.965846 Si / 1000 Ang^3
#
#
#
# Elastic Constant Matrix: (Units=GPa)
#
#
# Indices 1 2 3 4 5 6 
#
# 1 90.4207 57.7918 22.4207 0.0005 -15.3064 -0.0007
# 2 57.7918 128.6279 42.2964 0.0001 -6.4057 -0.0001
# 3 22.4207 42.2964 35.0920 0.0012 -10.4864 -0.0017
# 4 0.0005 0.0001 0.0012 794.1431 -0.0008-1081.6844
# 5 -15.3064 -6.4057 -10.4864 -0.0008 44.2910 0.0012
# 6 -0.0007 -0.0001 -0.0017-1081.6844 0.0012 1531.3850
#
#
#
# Elastic Compliance Matrix: (Units=1/GPa)
#
#
# Indices 1 2 3 4 5 6 
#
# 1 0.016424 -0.006867 -0.000879 0.000000 0.004475 0.000000
# 2 -0.006867 0.015908 -0.015936 0.000000 -0.003845 0.000000
# 3 -0.000879 -0.015936 0.051102 0.000000 0.009490 0.000000
# 4 0.000000 0.000000 0.000000 0.033220 0.000000 0.023465
# 5 0.004475 -0.003845 0.009490 0.000000 0.025815 0.000000
# 6 0.000000 0.000000 0.000000 0.023465 0.000000 0.017227
#
#
# Mechanical properties :
#
#
# Convention : Reuss Voigt Hill
#
# Bulk Modulus (GPa) = 27.72440 55.46204 41.59322
# Shear Modulus (GPa) = 22.82211 482.73928 252.78069
#
# Velocity S-wave (km/s) = 3.08925 14.20793 10.28126
# Velocity P-wave (km/s) = 4.93133 17.09813 12.58301
#
# Compressibility (1/GPa) = 0.03606932
#
# Stress axis : x y z
#
# Youngs Moduli (GPa) = 60.88627 62.85950 19.56872
#
# Poissons Ratio (x) = 0.43167 0.01721
# Poissons Ratio (y) = 0.41812 0.31185
# Poissons Ratio (z) = 0.05354 1.00173
#
# Static dielectric constant tensor:
#      x y z
#    x 1.921590 0.000000 0.038360 
#    y 0.000000 1.887790 0.000000 
#    z 0.038360 0.000000 1.968590 
# 
# From -- ./inp_files/264131.got.cif
#   From: 2010.05.17/outbox.cif.g08.bks.cpg/sg12_133_cif.got.tgz:264131.got - 2010.06.03 13:09:07.
