data_PCOD9210270
_publ_section_title
;
Structure prediction by ZEFSAII (Michael W. Deem and Ramdas Pophale) SiO2 
 PCOD9210270
Probable space group: C 2/M
;
_chemical_formula_sum "Si O2"
_cell_formula_units_Z 56
_cell_length_a 10.342460
_cell_length_b 14.801605
_cell_length_c 29.367321
_cell_angle_alpha 90.000000
_cell_angle_beta 142.629367
_cell_angle_gamma 90.000000
_cell_volume 2728.746566
_symmetry_space_group_name_H-M "C 2/M"
_symmetry_group_IT_number 12
_symmetry_cell_setting 'monoclinic'
loop_
_space_group_symop_operation_xyz
x,y,z
-x,y,-z
-x,-y,-z
x,-y,z
1/2+x,1/2+y,z
1/2-x,1/2+y,-z
1/2-x,1/2-y,-z
1/2+x,1/2-y,z
loop_
_atom_site_type_symbol
_atom_site_label
_atom_site_fract_x
_atom_site_fract_y
_atom_site_fract_z
Si Si1 0.570235 0.360897 0.190231
Si Si2 0.043210 0.643209 0.174713
Si Si3 0.487179 0.646156 0.722603
Si Si4 0.261693 0.107022 0.439303
Si Si5 0.750843 0.500000 0.941380
Si Si6 0.523029 0.604843 0.556968
Si Si7 0.234462 0.000000 0.045125
Si Si8 0.021129 0.637386 0.274189
O O1 0.531894 0.252999 0.172122
O O2 0.592265 0.382169 0.250026
O O3 0.371764 0.414411 0.114181
O O4 0.790749 0.390185 0.228354
O O5 0.859903 0.588888 0.097704
O O6 0.042894 0.613899 0.227327
O O7 0.268373 0.618139 0.215376
O O8 0.358543 0.616644 0.642299
O O9 0.477930 0.754462 0.720799
O O10 0.500000 0.144223 0.500000
O O11 0.120764 0.144920 0.442037
O O12 0.282347 0.000000 0.453680
O O13 0.724499 0.500000 0.988106
O O14 0.000000 0.500000 0.000000
O O15 0.500000 0.645405 0.500000
O O16 0.456594 0.500000 0.534310
O O17 0.769577 0.605840 0.640814
O O18 0.000000 0.000000 0.000000
#
# Coordination Sequence:
#
# PCOD9210270 Si02
#       8
#     8   8   8   8   4   8   4   8
#     4  10  24  40  62  93 128 161 202 257 306 364
#     4  10  22  42  64  91 124 159 206 257 304 364
#     4  10  21  39  61  88 116 167 208 249 308 360
#     4  10  22  38  58  87 123 162 210 255 307 364
#     4  12  26  44  62  98 127 162 203 237 312 389
#     4  10  22  38  58  87 123 164 203 261 315 350
#     4  12  26  40  70  98 119 158 209 245 310 385
#     4  10  21  39  61  88 120 157 214 255 304 359
#
# _framework density 20.522243
#
# number of rings (size 3 to 8) (size 9 to 14) (size 15 to 20)
#    0.000    1.714    1.429    1.714    6.000    1.714 
#    0.000    1.429    0.000    0.000    0.000    0.000 
#    0.000    0.000    0.000    0.000    0.000    0.000 
#
# Total GULP energy -156423.039169 kJ/mol
# GULP energy per Si atom -5586.537113 kJ/mol
# Density = 2.047553 g / cm^3
# Si number density = 20.522243 Si / 1000 Ang^3
#
#
#
# Elastic Constant Matrix: (Units=GPa)
#
#
# Indices 1 2 3 4 5 6 
#
# 1 98.2177 15.2779 20.7010 0.0000 -8.5857 0.0000
# 2 15.2779 64.7204 19.2386 0.0000 -1.0800 0.0000
# 3 20.7010 19.2386 97.5608 -0.0001 -6.5212 0.0000
# 4 0.0000 0.0000 -0.0001 34.4694 0.0000 2.8834
# 5 -8.5857 -1.0800 -6.5212 0.0000 43.1622 0.0000
# 6 0.0000 0.0000 0.0000 2.8834 0.0000 2.6375
#
#
#
# Elastic Compliance Matrix: (Units=1/GPa)
#
#
# Indices 1 2 3 4 5 6 
#
# 1 0.011045 -0.002036 -0.001817 0.000000 0.001872 0.000000
# 2 -0.002036 0.016789 -0.002907 0.000000 -0.000424 0.000000
# 3 -0.001817 -0.002907 0.011294 0.000000 0.001272 0.000000
# 4 0.000000 0.000000 0.000000 0.031931 0.000000 -0.034909
# 5 0.001872 -0.000424 0.001272 0.000000 0.023722 0.000000
# 6 0.000000 0.000000 0.000000 -0.034909 0.000000 0.417314
#
#
# Mechanical properties :
#
#
# Convention : Reuss Voigt Hill
#
# Bulk Modulus (GPa) = 39.05101 41.21487 40.13294
# Shear Modulus (GPa) = 9.36066 29.73925 19.54996
#
# Velocity S-wave (km/s) = 2.13802 3.81086 3.08981
# Velocity P-wave (km/s) = 5.01645 6.28412 5.68573
#
# Compressibility (1/GPa) = 0.02560753
#
# Stress axis : x y z
#
# Youngs Moduli (GPa) = 90.54117 59.56375 88.54378
#
# Poissons Ratio (x) = 0.12126 0.16088
# Poissons Ratio (y) = 0.18433 0.25740
# Poissons Ratio (z) = 0.16451 0.17315
#
# Static dielectric constant tensor:
#      x y z
#    x 1.736200 0.000000 0.000080 
#    y 0.000000 1.759890 0.000000 
#    z 0.000080 0.000000 1.678280 
# 
# From -- ./inp_files/356787.got.cif
#   From: 2010.05.17/outbox.cif.g08.bks.cpg/sg12_179_cif.got.tgz:356787.got - 2010.06.03 13:09:07.
