data_PCOD9210658
_publ_section_title
;
Structure prediction by ZEFSAII (Michael W. Deem and Ramdas Pophale) SiO2 
 PCOD9210658
Probable space group: C 2/M
;
_chemical_formula_sum "Si O2"
_cell_formula_units_Z 56
_cell_length_a 25.375735
_cell_length_b 12.762020
_cell_length_c 9.101189
_cell_angle_alpha 90.000000
_cell_angle_beta 61.265582
_cell_angle_gamma 90.000000
_cell_volume 2584.432662
_symmetry_space_group_name_H-M "C 2/M"
_symmetry_group_IT_number 12
_symmetry_cell_setting 'monoclinic'
loop_
_space_group_symop_operation_xyz
x,y,z
-x,y,-z
-x,-y,-z
x,-y,z
1/2+x,1/2+y,z
1/2-x,1/2+y,-z
1/2-x,1/2-y,-z
1/2+x,1/2-y,z
loop_
_atom_site_type_symbol
_atom_site_label
_atom_site_fract_x
_atom_site_fract_y
_atom_site_fract_z
Si Si1 0.551544 0.774965 0.828650
Si Si2 0.617280 0.379924 0.957052
Si Si3 0.293673 0.204959 0.065041
Si Si4 0.722751 0.614803 0.431085
Si Si5 0.470283 0.689472 0.678972
Si Si6 0.664497 0.833145 0.527819
Si Si7 0.387516 0.116836 0.717360
O O1 0.520376 0.730675 0.724775
O O2 0.606741 0.849114 0.709192
O O3 0.500000 0.825447 0.000000
O O4 0.576859 0.677591 0.889371
O O5 0.631706 0.500000 0.903999
O O6 0.674445 0.304365 0.900781
O O7 0.578657 0.372858 0.159645
O O8 0.343924 0.137455 0.914224
O O9 0.250000 0.250000 0.000000
O O10 0.257363 0.139429 0.233114
O O11 0.695426 0.500000 0.466651
O O12 0.675605 0.707907 0.512348
O O13 0.774404 0.621854 0.486300
O O14 0.500000 0.633694 0.500000
O O15 0.436208 0.791636 0.661148
O O16 0.649624 0.870508 0.384294
O O17 0.413018 0.000000 0.689177
#
# Coordination Sequence:
#
# PCOD9210658 Si02
#       7
#     8   8   8   8   8   8   8
#     4  10  21  41  66  87 130 166 208 265 315 370
#     4  10  23  41  65  90 123 172 215 255 319 388
#     4  11  22  43  62  93 132 161 208 267 318 380
#     4  11  24  42  66  94 131 173 212 259 324 385
#     4  10  21  39  63  90 128 158 206 275 317 368
#     4  11  22  43  64  96 130 166 217 268 312 376
#     4  11  23  40  65  93 126 168 209 259 327 384
#
# _framework density 21.668199000000001
#
# number of rings (size 3 to 8) (size 9 to 14) (size 15 to 20)
#    0.000    1.429    4.286    0.857    0.000    4.857 
#    0.000    0.000    0.000    3.857    0.000    0.000 
#    0.000    0.000    0.000    0.000    0.000    0.000 
#
# Total GULP energy -156592.806211 kJ/mol
# GULP energy per Si atom -5592.600222 kJ/mol
# Density = 2.161888 g / cm^3
# Si number density = 21.668199 Si / 1000 Ang^3
#
#
#
# Elastic Constant Matrix: (Units=GPa)
#
#
# Indices 1 2 3 4 5 6 
#
# 1 67.6045 4.8435 5.7706 0.0000 19.9759 0.0000
# 2 4.8435 90.9473 -2.8937 0.0000 4.5776 0.0000
# 3 5.7706 -2.8937 114.1236 0.0000 -2.3907 0.0000
# 4 0.0000 0.0000 0.0000 0.4476 0.0000 1.3699
# 5 19.9759 4.5776 -2.3907 0.0000 43.3941 0.0000
# 6 0.0000 0.0000 0.0000 1.3699 0.0000 -1.6945
#
#
#
# Elastic Compliance Matrix: (Units=1/GPa)
#
#
# Indices 1 2 3 4 5 6 
#
# 1 0.017271 -0.000553 -0.001054 0.000000 -0.007950 0.000000
# 2 -0.000553 0.011079 0.000290 0.000000 -0.000898 0.000000
# 3 -0.001054 0.000290 0.008843 0.000000 0.000942 0.000000
# 4 0.000000 0.000000 0.000000 0.643068 0.000000 0.519874
# 5 -0.007950 -0.000898 0.000942 0.000000 0.026851 0.000000
# 6 0.000000 0.000000 0.000000 0.519874 0.000000 -0.169869
#
#
# Mechanical properties :
#
#
# Convention : Reuss Voigt Hill
#
# Bulk Modulus (GPa) = 28.93618 32.01292 30.47455
# Shear Modulus (GPa) = 9.06789 26.09311 17.58050
#
# Velocity S-wave (km/s) = 2.04792 3.47394 2.85151
# Velocity P-wave (km/s) = 4.35605 5.55853 4.99362
#
# Compressibility (1/GPa) = 0.03455881
#
# Stress axis : x y z
#
# Youngs Moduli (GPa) = 57.90196 90.25860 113.08633
#
# Poissons Ratio (x) = 0.04993 0.11918
# Poissons Ratio (y) = 0.03203 -0.03280
# Poissons Ratio (z) = 0.06102 -0.02618
#
# Static dielectric constant tensor:
#      x y z
#    x 1.770280 0.000000 -0.023640 
#    y 0.000000 1.746390 0.000000 
#    z -0.023640 0.000000 1.830020 
# 
# From -- ./inp_files/103148.got.cif
#   From: 2010.05.17/outbox.cif.g08.bks.cpg/sg12_52_cif.got.tgz:103148.got - 2010.06.03 13:09:07.
