data_PCOD9210459
_publ_section_title
;
Structure prediction by ZEFSAII (Michael W. Deem and Ramdas Pophale) SiO2 
 PCOD9210459
Probable space group: C 2/M
;
_chemical_formula_sum "Si O2"
_cell_formula_units_Z 48
_cell_length_a 14.232290
_cell_length_b 15.371332
_cell_length_c 10.815614
_cell_angle_alpha 90.000000
_cell_angle_beta 78.344351
_cell_angle_gamma 90.000000
_cell_volume 2317.333132
_symmetry_space_group_name_H-M "C 2/M"
_symmetry_group_IT_number 12
_symmetry_cell_setting 'monoclinic'
loop_
_space_group_symop_operation_xyz
x,y,z
-x,y,-z
-x,-y,-z
x,-y,z
1/2+x,1/2+y,z
1/2-x,1/2+y,-z
1/2-x,1/2-y,-z
1/2+x,1/2-y,z
loop_
_atom_site_type_symbol
_atom_site_label
_atom_site_fract_x
_atom_site_fract_y
_atom_site_fract_z
Si Si1 0.890356 0.151374 0.491047
Si Si2 0.596274 0.160143 0.416916
Si Si3 0.193433 0.899939 0.235049
Si Si4 0.208887 0.903999 0.726069
Si Si5 0.849463 0.260419 0.114691
Si Si6 0.061895 0.758186 0.169037
O O1 0.877133 0.255947 0.505314
O O2 0.824310 0.108813 0.613371
O O3 0.866338 0.117219 0.362609
O O4 0.000000 0.134068 0.500000
O O5 0.500000 0.120266 0.500000
O O6 0.688500 0.102194 0.369631
O O7 0.573018 0.201414 0.289167
O O8 0.284559 0.840387 0.176570
O O9 0.100822 0.853646 0.196731
O O10 0.204112 0.000000 0.196805
O O11 0.202113 0.828716 0.829803
O O12 0.193529 0.000000 0.781445
O O13 0.953513 0.252470 0.151704
O O14 0.871048 0.267897 0.963887
#
# Coordination Sequence:
#
# PCOD9210459 Si02
#       6
#     8   8   8   8   8   8
#     4  10  21  39  62  89 126 162 207 265 320 376
#     4  10  21  39  65  89 122 166 207 257 321 376
#     4  11  23  40  67  95 125 170 221 269 316 381
#     4  12  24  37  62  96 128 167 210 258 319 385
#     4  11  23  43  66  91 132 168 215 265 323 381
#     4  10  23  43  66  91 128 172 209 263 324 384
#
# _framework density 20.713464999999999
#
# number of rings (size 3 to 8) (size 9 to 14) (size 15 to 20)
#    0.000    1.333    3.333    4.500    2.333    4.333 
#    0.000    4.167    0.000    0.000    0.000    0.000 
#    0.000    0.000    0.000    0.000    0.000    0.000 
#
# Total GULP energy -134142.052307 kJ/mol
# GULP energy per Si atom -5589.252179 kJ/mol
# Density = 2.066632 g / cm^3
# Si number density = 20.713465 Si / 1000 Ang^3
#
#
#
# Elastic Constant Matrix: (Units=GPa)
#
#
# Indices 1 2 3 4 5 6 
#
# 1 97.9742 47.2713 33.5303 0.0000 -9.0860 0.0000
# 2 47.2713 108.4942 43.5387 0.0000 -1.3757 0.0000
# 3 33.5303 43.5387 105.3276 0.0000 -22.4301 0.0000
# 4 0.0000 0.0000 0.0000 -2.9020 0.0000 5.9620
# 5 -9.0860 -1.3757 -22.4301 0.0000 35.5392 0.0000
# 6 0.0000 0.0000 0.0000 5.9620 0.0000 3.3089
#
#
#
# Elastic Compliance Matrix: (Units=1/GPa)
#
#
# Indices 1 2 3 4 5 6 
#
# 1 0.013481 -0.005167 -0.001692 0.000000 0.002179 0.000000
# 2 -0.005167 0.013284 -0.004642 0.000000 -0.003736 0.000000
# 3 -0.001692 -0.004642 0.013657 0.000000 0.008007 0.000000
# 4 0.000000 0.000000 0.000000 -0.073292 0.000000 0.132055
# 5 0.002179 -0.003736 0.008007 0.000000 0.033604 0.000000
# 6 0.000000 0.000000 0.000000 0.132055 0.000000 0.064278
#
#
# Mechanical properties :
#
#
# Convention : Reuss Voigt Hill
#
# Bulk Modulus (GPa) = 57.40506 62.27516 59.84011
# Shear Modulus (GPa) = 53.29382 19.68627 36.49004
#
# Velocity S-wave (km/s) = 5.07789 3.08622 4.20176
# Velocity P-wave (km/s) = 7.88378 6.54446 7.24513
#
# Compressibility (1/GPa) = 0.01742007
#
# Stress axis : x y z
#
# Youngs Moduli (GPa) = 74.17917 75.27940 73.22463
#
# Poissons Ratio (x) = 0.38898 0.12387
# Poissons Ratio (y) = 0.38330 0.33990
# Poissons Ratio (z) = 0.12548 0.34943
#
# Static dielectric constant tensor:
#      x y z
#    x 1.782850 0.000000 -0.013210 
#    y 0.000000 1.724950 0.000000 
#    z -0.013210 0.000000 1.741230 
# 
# From -- ./inp_files/142755.got.cif
#   From: 2010.05.17/outbox.cif.g08.bks.cpg/sg12_72_cif.got.tgz:142755.got - 2010.06.03 13:09:07.
