data_PCOD9210141
_publ_section_title
;
Structure prediction by ZEFSAII (Michael W. Deem and Ramdas Pophale) SiO2 
 PCOD9210141
Probable space group: C 2/M
;
_chemical_formula_sum "Si O2"
_cell_formula_units_Z 56
_cell_length_a 21.101887
_cell_length_b 18.947753
_cell_length_c 15.239170
_cell_angle_alpha 90.000000
_cell_angle_beta 25.833741
_cell_angle_gamma 90.000000
_cell_volume 2655.148977
_symmetry_space_group_name_H-M "C 2/M"
_symmetry_group_IT_number 12
_symmetry_cell_setting 'monoclinic'
loop_
_space_group_symop_operation_xyz
x,y,z
-x,y,-z
-x,-y,-z
x,-y,z
1/2+x,1/2+y,z
1/2-x,1/2+y,-z
1/2-x,1/2-y,-z
1/2+x,1/2-y,z
loop_
_atom_site_type_symbol
_atom_site_label
_atom_site_fract_x
_atom_site_fract_y
_atom_site_fract_z
Si Si1 0.460233 0.336073 0.149220
Si Si2 0.143743 0.288050 0.935629
Si Si3 0.617055 0.815308 0.419239
Si Si4 0.693756 0.918289 0.556762
Si Si5 0.084891 0.356616 0.177605
Si Si6 0.326404 0.076214 0.214059
Si Si7 0.227369 0.083367 0.897379
O O1 0.302811 0.366031 0.370303
O O2 0.500000 0.357438 0.000000
O O3 0.485922 0.250951 0.124980
O O4 0.577323 0.374420 0.067598
O O5 0.241549 0.231016 0.764774
O O6 0.190563 0.359571 0.830212
O O7 0.164027 0.303007 0.013269
O O8 0.500000 0.781871 0.500000
O O9 0.534160 0.819641 0.612640
O O10 0.665437 0.889680 0.314741
O O11 0.523086 0.904619 0.747525
O O12 0.719235 0.909266 0.629020
O O13 0.726181 0.000000 0.493380
O O14 0.193812 0.394906 0.109510
O O15 0.264693 0.000000 0.263194
O O16 0.500000 0.069584 0.000000
O O17 0.205058 0.000000 0.921394
#
# Coordination Sequence:
#
# PCOD9210141 Si02
#       7
#     8   8   8   8   8   8   8
#     4  11  25  41  64  98 130 170 208 257 327 376
#     4  11  23  41  64  90 130 162 216 266 312 378
#     4   9  22  39  58  91 122 162 206 250 322 373
#     4  11  23  39  63  96 128 166 214 261 317 380
#     4  11  23  38  65  94 119 169 215 260 317 372
#     4  10  21  39  60  86 124 166 209 265 319 365
#     4  10  22  42  64  91 132 167 205 260 317 384
#
# _framework density 21.091094999999999
#
# number of rings (size 3 to 8) (size 9 to 14) (size 15 to 20)
#    0.000    1.571    1.429    3.000    2.000   11.714 
#    0.000    0.000    0.000    0.429    0.000    0.000 
#    0.000    0.000    0.000    0.000    0.000    0.000 
#
# Total GULP energy -156106.468041 kJ/mol
# GULP energy per Si atom -5575.231001 kJ/mol
# Density = 2.104309 g / cm^3
# Si number density = 21.091095 Si / 1000 Ang^3
#
#
#
# Elastic Constant Matrix: (Units=GPa)
#
#
# Indices 1 2 3 4 5 6 
#
# 1 91.5014 38.3713 25.5694 0.0000 5.5141 0.0005
# 2 38.3713 103.3505 10.1716 0.0004 13.6056 0.0003
# 3 25.5694 10.1716 35.7850 0.0007 3.2579 0.0002
# 4 0.0000 0.0004 0.0007 10.0201 0.0000 -2.6837
# 5 5.5141 13.6056 3.2579 0.0000 40.5265 -0.0003
# 6 0.0005 0.0003 0.0002 -2.6837 -0.0003 20.4579
#
#
#
# Elastic Compliance Matrix: (Units=1/GPa)
#
#
# Indices 1 2 3 4 5 6 
#
# 1 0.015726 -0.004907 -0.009870 0.000001 0.000301 0.000000
# 2 -0.004907 0.011898 0.000430 -0.000001 -0.003361 0.000000
# 3 -0.009870 0.000430 0.035022 -0.000003 -0.001617 0.000000
# 4 0.000001 -0.000001 -0.000003 0.103434 0.000000 0.013569
# 5 0.000301 -0.003361 -0.001617 0.000000 0.025893 0.000000
# 6 0.000000 0.000000 0.000000 0.013569 0.000000 0.050661
#
#
# Mechanical properties :
#
#
# Convention : Reuss Voigt Hill
#
# Bulk Modulus (GPa) = 29.45217 42.09571 35.77394
# Shear Modulus (GPa) = 17.69011 24.63589 21.16300
#
# Velocity S-wave (km/s) = 2.89926 3.42141 3.17110
# Velocity P-wave (km/s) = 5.02018 5.96745 5.51419
#
# Compressibility (1/GPa) = 0.03395335
#
# Stress axis : x y z
#
# Youngs Moduli (GPa) = 63.58728 84.04908 28.55381
#
# Poissons Ratio (x) = 0.41244 0.28181
# Poissons Ratio (y) = 0.31203 -0.01229
# Poissons Ratio (z) = 0.62758 -0.03618
#
# Static dielectric constant tensor:
#      x y z
#    x 1.846250 0.000000 0.010280 
#    y 0.000000 1.865470 0.000000 
#    z 0.010280 0.000000 1.889620 
# 
# From -- ./inp_files/234627.got.cif
#   From: 2010.05.17/outbox.cif.g08.bks.cpg/sg12_118_cif.got.tgz:234627.got - 2010.06.03 13:09:07.
