data_PCOD9210715
_publ_section_title
;
Structure prediction by ZEFSAII (Michael W. Deem and Ramdas Pophale) SiO2 
 PCOD9210715
Probable space group: C 2/M
;
_chemical_formula_sum "Si O2"
_cell_formula_units_Z 40
_cell_length_a 28.217649
_cell_length_b 14.242194
_cell_length_c 8.962714
_cell_angle_alpha 90.000000
_cell_angle_beta 149.310656
_cell_angle_gamma 90.000000
_cell_volume 1838.372250
_symmetry_space_group_name_H-M "C 2/M"
_symmetry_group_IT_number 12
_symmetry_cell_setting 'monoclinic'
loop_
_space_group_symop_operation_xyz
x,y,z
-x,y,-z
-x,-y,-z
x,-y,z
1/2+x,1/2+y,z
1/2-x,1/2+y,-z
1/2-x,1/2-y,-z
1/2+x,1/2-y,z
loop_
_atom_site_type_symbol
_atom_site_label
_atom_site_fract_x
_atom_site_fract_y
_atom_site_fract_z
Si Si1 0.286445 0.793184 0.787605
Si Si2 0.093355 0.888081 0.351676
Si Si3 0.771909 0.396396 0.476028
Si Si4 0.420632 0.260156 0.405771
Si Si5 0.436662 0.107006 0.695815
O O1 0.181317 0.830270 0.525597
O O2 0.294559 0.691457 0.731337
O O3 0.326160 0.868305 0.775354
O O4 0.332500 0.775362 0.071554
O O5 0.086051 0.848209 0.500480
O O6 0.111999 0.000000 0.401677
O O7 0.000000 0.872897 0.000000
O O8 0.730765 0.500000 0.381595
O O9 0.836286 0.396091 0.503777
O O10 0.500000 0.277339 0.500000
O O11 0.442857 0.173270 0.573164
O O12 0.464489 0.000000 0.737698
O O13 0.500000 0.144632 0.000000
#
# Coordination Sequence:
#
# PCOD9210715 Si02
#       5
#     8   8   8   8   8
#     4  11  24  43  68 100 132 177 221 281 337 389
#     4  11  26  47  71  97 132 180 230 275 329 398
#     4  10  22  39  66  95 127 172 223 272 332 397
#     4  12  26  42  66 100 138 175 218 279 334 395
#     4  10  21  39  63  92 128 171 215 266 333 401
#
# _framework density 21.758378
#
# number of rings (size 3 to 8) (size 9 to 14) (size 15 to 20)
#    0.000    1.200    2.000    3.000    5.600    3.200 
#    0.000    0.000    0.000    0.000    0.000    0.000 
#    0.000    0.000    0.000    0.000    0.000    0.000 
#
# Total GULP energy -111640.399955 kJ/mol
# GULP energy per Si atom -5582.019998 kJ/mol
# Density = 2.170885 g / cm^3
# Si number density = 21.758378 Si / 1000 Ang^3
#
#
#
# Elastic Constant Matrix: (Units=GPa)
#
#
# Indices 1 2 3 4 5 6 
#
# 1 124.8340 41.1988 26.6137 0.0000 -15.2917 0.0000
# 2 41.1988 165.0277 45.8806 0.0000 -19.5413 0.0000
# 3 26.6137 45.8806 112.1183 0.0000 -18.4449 0.0000
# 4 0.0000 0.0000 0.0000 10.5622 0.0000 8.3394
# 5 -15.2917 -19.5413 -18.4449 0.0000 36.0859 0.0000
# 6 0.0000 0.0000 0.0000 8.3394 0.0000 2.9650
#
#
#
# Elastic Compliance Matrix: (Units=1/GPa)
#
#
# Indices 1 2 3 4 5 6 
#
# 1 0.009089 -0.001688 -0.001074 0.000000 0.002389 0.000000
# 2 -0.001688 0.007361 -0.002264 0.000000 0.002114 0.000000
# 3 -0.001074 -0.002264 0.010726 0.000000 0.003801 0.000000
# 4 0.000000 0.000000 0.000000 -0.077560 0.000000 0.218145
# 5 0.002389 0.002114 0.003801 0.000000 0.031812 0.000000
# 6 0.000000 0.000000 0.000000 0.218145 0.000000 -0.276289
#
#
# Mechanical properties :
#
#
# Convention : Reuss Voigt Hill
#
# Bulk Modulus (GPa) = 58.39435 69.92956 64.16196
# Shear Modulus (GPa) = -17.91456 29.14174 5.61359
#
# Velocity S-wave (km/s) = -2.87250 3.66366 1.60797
# Velocity P-wave (km/s) = 3.98675 7.07852 5.74455
#
# Compressibility (1/GPa) = 0.01712495
#
# Stress axis : x y z
#
# Youngs Moduli (GPa) = 110.02083 135.85948 93.23306
#
# Poissons Ratio (x) = 0.22929 0.10012
# Poissons Ratio (y) = 0.18568 0.21105
# Poissons Ratio (z) = 0.11815 0.30755
#
# Static dielectric constant tensor:
#      x y z
#    x 1.856910 0.000000 0.021030 
#    y 0.000000 1.787930 0.000000 
#    z 0.021030 0.000000 1.856380 
# 
# From -- ./inp_files/73350.got.cif
#   From: 2010.05.17/outbox.cif.g08.bks.cpg/sg12_37_cif.got.tgz:73350.got - 2010.06.03 13:09:07.
