data_PCOD9210924
_publ_section_title
;
Structure prediction by ZEFSAII (Michael W. Deem and Ramdas Pophale) SiO2 
 PCOD9210924
Probable space group: C 2/M
;
_chemical_formula_sum "Si O2"
_cell_formula_units_Z 40
_cell_length_a 20.316154
_cell_length_b 11.785248
_cell_length_c 7.048022
_cell_angle_alpha 90.000000
_cell_angle_beta 70.655701
_cell_angle_gamma 90.000000
_cell_volume 1592.245938
_symmetry_space_group_name_H-M "C 2/M"
_symmetry_group_IT_number 12
_symmetry_cell_setting 'monoclinic'
loop_
_space_group_symop_operation_xyz
x,y,z
-x,y,-z
-x,-y,-z
x,-y,z
1/2+x,1/2+y,z
1/2-x,1/2+y,-z
1/2-x,1/2-y,-z
1/2+x,1/2-y,z
loop_
_atom_site_type_symbol
_atom_site_label
_atom_site_fract_x
_atom_site_fract_y
_atom_site_fract_z
Si Si1 0.825726 0.280812 0.350117
Si Si2 0.009581 0.626531 0.219975
Si Si3 0.736021 0.379133 0.124893
Si Si4 0.155972 0.662772 0.267360
Si Si5 0.454414 0.629781 0.235263
O O1 0.750000 0.250000 0.500000
O O2 0.804634 0.345647 0.181060
O O3 0.854125 0.354655 0.498947
O O4 0.875647 0.173766 0.268694
O O5 0.982010 0.500000 0.301600
O O6 0.088970 0.625006 0.217224
O O7 0.983400 0.753634 0.306601
O O8 0.000000 0.629640 0.000000
O O9 0.711828 0.500000 0.211872
O O10 0.671767 0.295742 0.215868
O O11 0.769480 0.381174 0.883523
O O12 0.454916 0.500000 0.316231
O O13 0.500000 0.622069 0.000000
#
# Coordination Sequence:
#
# PCOD9210924 Si02
#       5
#     8   8   8   8   8
#     4  10  23  43  67 100 138 181 232 287 349 422
#     4  10  21  40  65  92 129 179 230 279 336 407
#     4  10  21  39  64  95 135 180 229 290 356 419
#     4  10  22  40  62  96 135 178 233 289 346 418
#     4  10  22  42  69 102 141 184 230 287 353 416
#
# _framework density 25.121746000000002
#
# number of rings (size 3 to 8) (size 9 to 14) (size 15 to 20)
#    0.000    2.000    0.000    3.000    0.000    8.800 
#    0.000   23.000    0.000    0.000    0.000    0.000 
#    0.000    0.000    0.000    0.000    0.000    0.000 
#
# Total GULP energy -111400.741002 kJ/mol
# GULP energy per Si atom -5570.037050 kJ/mol
# Density = 2.506457 g / cm^3
# Si number density = 25.121746 Si / 1000 Ang^3
#
#
#
# Elastic Constant Matrix: (Units=GPa)
#
#
# Indices 1 2 3 4 5 6 
#
# 1 117.8491 57.8197 30.8465 0.0000 -4.6480 0.0000
# 2 57.8197 256.5866 21.8394 0.0000 -14.4965 0.0000
# 3 30.8465 21.8394 82.4448 0.0000 7.9839 0.0000
# 4 0.0000 0.0000 0.0000 -27.0056 0.0000 -10.5762
# 5 -4.6480 -14.4965 7.9839 0.0000 46.2047 0.0000
# 6 0.0000 0.0000 0.0000 -10.5762 0.0000 -32.7744
#
#
#
# Elastic Compliance Matrix: (Units=1/GPa)
#
#
# Indices 1 2 3 4 5 6 
#
# 1 0.010411 -0.001993 -0.003466 0.000000 0.001021 0.000000
# 2 -0.001993 0.004468 -0.000563 0.000000 0.001299 0.000000
# 3 -0.003466 -0.000563 0.013858 0.000000 -0.002920 0.000000
# 4 0.000000 0.000000 0.000000 -0.042386 0.000000 0.013678
# 5 0.001021 0.001299 -0.002920 0.000000 0.022658 0.000000
# 6 0.000000 0.000000 0.000000 0.013678 0.000000 -0.034925
#
#
# Mechanical properties :
#
#
# Convention : Reuss Voigt Hill
#
# Bulk Modulus (GPa) = 59.91171 75.32129 67.61650
# Shear Modulus (GPa) = -601.84515 20.37661 -290.73427
#
# Velocity S-wave (km/s) = -15.49489 2.85110 -10.76946
# Velocity P-wave (km/s) = 17.21109 6.39421 11.29902
#
# Compressibility (1/GPa) = 0.01669123
#
# Stress axis : x y z
#
# Youngs Moduli (GPa) = 96.05339 223.82252 72.15959
#
# Poissons Ratio (x) = 0.44615 0.25011
# Poissons Ratio (y) = 0.19147 0.04066
# Poissons Ratio (z) = 0.33292 0.12612
#
# Static dielectric constant tensor:
#      x y z
#    x 2.003980 0.000000 0.084130 
#    y 0.000000 2.158530 0.000000 
#    z 0.084130 0.000000 2.229200 
# 
# From -- ./inp_files/94139.got.cif
#   From: 2010.05.17/outbox.cif.g08.bks.cpg/sg12_48_cif.got.tgz:94139.got - 2010.06.03 13:09:07.
