data_PCOD9210771
_publ_section_title
;
Structure prediction by ZEFSAII (Michael W. Deem and Ramdas Pophale) SiO2 
 PCOD9210771
Probable space group: C 2/M
;
_chemical_formula_sum "Si O2"
_cell_formula_units_Z 56
_cell_length_a 29.859536
_cell_length_b 22.241030
_cell_length_c 11.691415
_cell_angle_alpha 90.000000
_cell_angle_beta 19.983293
_cell_angle_gamma 90.000000
_cell_volume 2653.436030
_symmetry_space_group_name_H-M "C 2/M"
_symmetry_group_IT_number 12
_symmetry_cell_setting 'monoclinic'
loop_
_space_group_symop_operation_xyz
x,y,z
-x,y,-z
-x,-y,-z
x,-y,z
1/2+x,1/2+y,z
1/2-x,1/2+y,-z
1/2-x,1/2-y,-z
1/2+x,1/2-y,z
loop_
_atom_site_type_symbol
_atom_site_label
_atom_site_fract_x
_atom_site_fract_y
_atom_site_fract_z
Si Si1 0.478708 0.859444 0.756191
Si Si2 0.557126 0.338540 0.678158
Si Si3 0.371831 0.855070 0.376894
Si Si4 0.824043 0.929942 0.301003
Si Si5 0.752454 0.566686 0.245650
Si Si6 0.407719 0.749087 0.616529
Si Si7 0.756933 0.233607 0.616215
O O1 0.568070 0.876877 0.648721
O O2 0.561488 0.819289 0.473313
O O3 0.403535 0.915532 0.885367
O O4 0.362698 0.811656 0.071006
O O5 0.671778 0.384808 0.368991
O O6 0.545541 0.290240 0.604940
O O7 0.616355 0.301890 0.642899
O O8 0.436873 0.381706 0.999697
O O9 0.300276 0.905306 0.472202
O O10 0.273406 0.799133 0.634705
O O11 0.500000 0.832210 0.000000
O O12 0.794411 0.928894 0.508065
O O13 0.855701 0.000000 0.197428
O O14 0.726957 0.500000 0.266955
O O15 0.500000 0.728460 0.500000
O O16 0.250000 0.750000 0.000000
O O17 0.750000 0.250000 0.500000
#
# Coordination Sequence:
#
# PCOD9210771 Si02
#       7
#     8   8   8   8   8   8   8
#     4  11  23  38  61  90 124 166 209 254 328 379
#     4  11  23  40  65  91 126 168 211 261 324 382
#     4  12  21  34  55  90 132 170 200 245 306 385
#     4  11  24  38  60  95 136 177 208 237 296 388
#     4  10  21  39  63  96 134 169 206 243 297 392
#     4  12  27  46  68  94 125 163 222 291 343 380
#     4  11  21  35  58  96 133 160 194 252 320 404
#
# _framework density 21.104711000000002
#
# number of rings (size 3 to 8) (size 9 to 14) (size 15 to 20)
#    0.000    0.857    4.286    4.286    2.000    5.429 
#    0.000    0.000    0.000    6.429    0.000    0.000 
#    0.000    0.000    0.000    0.000    0.000    0.000 
#
# Total GULP energy -156368.927968 kJ/mol
# GULP energy per Si atom -5584.604570 kJ/mol
# Density = 2.105668 g / cm^3
# Si number density = 21.104711 Si / 1000 Ang^3
#
#
#
# Elastic Constant Matrix: (Units=GPa)
#
#
# Indices 1 2 3 4 5 6 
#
# 1 82.9349 20.4540 25.8950 0.0001 -28.6806 0.0001
# 2 20.4540 102.4068 13.8598 0.0005 -7.2563 0.0000
# 3 25.8950 13.8598 82.1870 0.0005 -16.6432 0.0001
# 4 0.0001 0.0005 0.0005 28.6921 -0.0001 -2.1629
# 5 -28.6806 -7.2563 -16.6432 -0.0001 23.9936 -0.0001
# 6 0.0001 0.0000 0.0001 -2.1629 -0.0001 23.3551
#
#
#
# Elastic Compliance Matrix: (Units=1/GPa)
#
#
# Indices 1 2 3 4 5 6 
#
# 1 0.021315 -0.002372 -0.001514 0.000000 0.023712 0.000000
# 2 -0.002372 0.010354 -0.001092 0.000000 -0.000462 0.000000
# 3 -0.001514 -0.001092 0.014421 0.000000 0.007863 0.000000
# 4 0.000000 0.000000 0.000000 0.035098 0.000000 0.003250
# 5 0.023712 -0.000462 0.007863 0.000000 0.075336 0.000000
# 6 0.000000 0.000000 0.000000 0.003250 0.000000 0.043118
#
#
# Mechanical properties :
#
#
# Convention : Reuss Voigt Hill
#
# Bulk Modulus (GPa) = 27.67567 43.10515 35.39041
# Shear Modulus (GPa) = 22.55875 29.02947 25.79411
#
# Velocity S-wave (km/s) = 3.27294 3.71279 3.49979
# Velocity P-wave (km/s) = 5.23688 6.23286 5.75645
#
# Compressibility (1/GPa) = 0.03613282
#
# Stress axis : x y z
#
# Youngs Moduli (GPa) = 46.91434 96.58210 69.34390
#
# Poissons Ratio (x) = 0.22912 0.10500
# Poissons Ratio (y) = 0.11130 0.07573
# Poissons Ratio (z) = 0.07104 0.10548
#
# Static dielectric constant tensor:
#      x y z
#    x 1.793520 0.000000 -0.020950 
#    y 0.000000 1.748320 0.000000 
#    z -0.020950 0.000000 1.875920 
# 
# From -- ./inp_files/190385.got.cif
#   From: 2010.05.17/outbox.cif.g08.bks.cpg/sg12_96_cif.got.tgz:190385.got - 2010.06.03 13:09:07.
