data_PCOD9210876
_publ_section_title
;
Structure prediction by ZEFSAII (Michael W. Deem and Ramdas Pophale) SiO2 
 PCOD9210876
Probable space group: C 2/M
;
_chemical_formula_sum "Si O2"
_cell_formula_units_Z 56
_cell_length_a 26.456620
_cell_length_b 17.964863
_cell_length_c 17.631689
_cell_angle_alpha 90.000000
_cell_angle_beta 19.209088
_cell_angle_gamma 90.000000
_cell_volume 2757.209580
_symmetry_space_group_name_H-M "C 2/M"
_symmetry_group_IT_number 12
_symmetry_cell_setting 'monoclinic'
loop_
_space_group_symop_operation_xyz
x,y,z
-x,y,-z
-x,-y,-z
x,-y,z
1/2+x,1/2+y,z
1/2-x,1/2+y,-z
1/2-x,1/2-y,-z
1/2+x,1/2-y,z
loop_
_atom_site_type_symbol
_atom_site_label
_atom_site_fract_x
_atom_site_fract_y
_atom_site_fract_z
Si Si1 0.366968 0.317679 0.845340
Si Si2 0.754335 0.086594 0.867349
Si Si3 0.344287 0.657476 0.172523
Si Si4 0.907617 0.916395 0.928126
Si Si5 0.225538 0.586016 0.616679
Si Si6 0.893003 0.412925 0.377247
Si Si7 0.221138 0.814540 0.317335
O O1 0.340634 0.377815 0.816191
O O2 0.342520 0.357599 0.960516
O O3 0.545142 0.294547 0.587860
O O4 0.250000 0.250000 0.000000
O O5 0.782266 0.136092 0.753388
O O6 0.795081 0.000000 0.797141
O O7 0.572196 0.090786 0.141648
O O8 0.208570 0.634588 0.421721
O O9 0.314340 0.738470 0.179543
O O10 0.500000 0.656905 0.000000
O O11 0.356533 0.600888 0.085427
O O12 0.093215 0.911659 0.661072
O O13 0.863709 0.000000 0.967738
O O14 0.185238 0.500000 0.690665
O O15 0.134167 0.610986 0.671502
O O16 0.207710 0.636673 0.715379
O O17 0.843555 0.500000 0.451067
#
# Coordination Sequence:
#
# PCOD9210876 Si02
#       7
#     8   8   8   8   8   8   8
#     4  11  23  44  66  90 126 164 207 260 312 365
#     4  11  24  42  66  92 124 168 212 256 307 368
#     4  12  24  38  62  94 128 165 204 254 317 380
#     4  10  21  39  64  93 119 157 211 258 306 364
#     4   9  19  38  61  87 121 159 203 256 308 363
#     4  10  22  40  62  90 125 164 207 257 311 370
#     4  11  25  39  61  95 124 164 206 255 310 373
#
# _framework density 20.310388
#
# number of rings (size 3 to 8) (size 9 to 14) (size 15 to 20)
#    0.000    1.429    1.429    3.429    2.000    4.571 
#    0.000    4.286    0.000    5.143    0.000    0.000 
#    0.000    0.000    0.000    0.000    0.000    0.000 
#
# Total GULP energy -156627.379267 kJ/mol
# GULP energy per Si atom -5593.834974 kJ/mol
# Density = 2.026416 g / cm^3
# Si number density = 20.310388 Si / 1000 Ang^3
#
#
#
# Elastic Constant Matrix: (Units=GPa)
#
#
# Indices 1 2 3 4 5 6 
#
# 1 92.2859 16.1759 10.1281 -0.0005 -1.9227 0.0001
# 2 16.1759 67.0456 19.8593 0.0001 -1.9128 -0.0003
# 3 10.1281 19.8593 50.1473 0.0006 1.2112 -0.0002
# 4 -0.0005 0.0001 0.0006 11.8194 -0.0001 31.0026
# 5 -1.9227 -1.9128 1.2112 -0.0001 23.0465 -0.0005
# 6 0.0001 -0.0003 -0.0002 31.0026 -0.0005 -19.1924
#
#
#
# Elastic Compliance Matrix: (Units=1/GPa)
#
#
# Indices 1 2 3 4 5 6 
#
# 1 0.011413 -0.002312 -0.001410 0.000000 0.000834 0.000000
# 2 -0.002312 0.017437 -0.006477 0.000000 0.001595 0.000000
# 3 -0.001410 -0.006477 0.022836 0.000000 -0.001855 0.000000
# 4 0.000000 0.000000 0.000000 0.016155 0.000001 0.026096
# 5 0.000834 0.001595 -0.001855 0.000001 0.043690 0.000000
# 6 0.000000 0.000000 0.000000 0.026096 0.000000 -0.009949
#
#
# Mechanical properties :
#
#
# Convention : Reuss Voigt Hill
#
# Bulk Modulus (GPa) = 31.96061 33.53394 32.74728
# Shear Modulus (GPa) = 37.76164 14.02239 25.89202
#
# Velocity S-wave (km/s) = 4.31655 2.63041 3.57433
# Velocity P-wave (km/s) = 6.37289 5.07661 5.76133
#
# Compressibility (1/GPa) = 0.03128851
#
# Stress axis : x y z
#
# Youngs Moduli (GPa) = 87.61726 57.34886 43.79101
#
# Poissons Ratio (x) = 0.13261 0.06172
# Poissons Ratio (y) = 0.20260 0.28363
# Poissons Ratio (z) = 0.12350 0.37145
#
# Static dielectric constant tensor:
#      x y z
#    x 1.681230 0.000000 -0.004790 
#    y 0.000000 1.715310 0.000000 
#    z -0.004790 0.000000 1.696630 
# 
# From -- ./inp_files/143748.got.cif
#   From: 2010.05.17/outbox.cif.g08.bks.cpg/sg12_72_cif.got.tgz:143748.got - 2010.06.03 13:09:07.
