data_PCOD9210147
_publ_section_title
;
Structure prediction by ZEFSAII (Michael W. Deem and Ramdas Pophale) SiO2 
 PCOD9210147
Probable space group: C 2/M
;
_chemical_formula_sum "Si O2"
_cell_formula_units_Z 48
_cell_length_a 20.665812
_cell_length_b 7.875231
_cell_length_c 22.493238
_cell_angle_alpha 90.000000
_cell_angle_beta 44.534091
_cell_angle_gamma 90.000000
_cell_volume 2567.393004
_symmetry_space_group_name_H-M "C 2/M"
_symmetry_group_IT_number 12
_symmetry_cell_setting 'monoclinic'
loop_
_space_group_symop_operation_xyz
x,y,z
-x,y,-z
-x,-y,-z
x,-y,z
1/2+x,1/2+y,z
1/2-x,1/2+y,-z
1/2-x,1/2-y,-z
1/2+x,1/2-y,z
loop_
_atom_site_type_symbol
_atom_site_label
_atom_site_fract_x
_atom_site_fract_y
_atom_site_fract_z
Si Si1 0.260110 0.797604 0.649963
Si Si2 0.455880 0.693986 0.209809
Si Si3 0.158501 0.805645 0.524630
Si Si4 0.845764 0.500000 0.105952
Si Si5 0.981810 0.305752 0.706111
Si Si6 0.512939 0.000000 0.090958
Si Si7 0.710279 0.796490 0.231900
O O1 0.151914 0.752858 0.714978
O O2 0.319064 0.713586 0.559468
O O3 0.291443 0.760169 0.696348
O O4 0.266736 0.000000 0.636230
O O5 0.458781 0.500000 0.184787
O O6 0.497710 0.699752 0.248332
O O7 0.505446 0.831163 0.135864
O O8 0.250000 0.750000 0.500000
O O9 0.069339 0.705975 0.605185
O O10 0.140303 0.000000 0.551695
O O11 0.784739 0.669236 0.155042
O O12 0.924727 0.500000 0.104779
O O13 0.897086 0.500000 0.009236
O O14 0.972694 0.500000 0.732435
O O15 0.888499 0.260472 0.732974
O O16 0.730786 0.000000 0.211685
#
# Coordination Sequence:
#
# PCOD9210147 Si02
#       7
#     8   8   8   4   8   4   8
#     4  10  21  39  60  87 124 166 211 256 310 364
#     4  11  22  39  65  93 126 167 211 258 314 380
#     4  12  24  35  56  92 126 166 215 265 307 360
#     4  11  24  42  72  94 131 155 212 265 320 390
#     4  11  23  41  64  90 128 171 215 258 315 373
#     4  11  24  42  68 105 118 163 207 269 321 377
#     4  10  24  43  66  92 127 174 205 259 323 378
#
# _framework density 18.696007000000002
#
# number of rings (size 3 to 8) (size 9 to 14) (size 15 to 20)
#    0.000    1.167    4.167    2.000    4.667    1.333 
#    0.000    5.833    0.000    0.000    0.000    0.000 
#    0.000    0.000    0.000    0.000    0.000    0.000 
#
# Total GULP energy -134096.682236 kJ/mol
# GULP energy per Si atom -5587.361760 kJ/mol
# Density = 1.865345 g / cm^3
# Si number density = 18.696007 Si / 1000 Ang^3
#
#
#
# Elastic Constant Matrix: (Units=GPa)
#
#
# Indices 1 2 3 4 5 6 
#
# 1 117.4304 33.9423 53.3949 0.0000 -0.1700 0.0000
# 2 33.9423 72.0347 52.5713 0.0002 4.7856 0.0000
# 3 53.3949 52.5713 129.8715 0.0002 7.0865 -0.0002
# 4 0.0000 0.0002 0.0002 29.6175 -0.0001 0.7443
# 5 -0.1700 4.7856 7.0865 -0.0001 23.8583 0.0001
# 6 0.0000 0.0000 -0.0002 0.7443 0.0001 25.4464
#
#
#
# Elastic Compliance Matrix: (Units=1/GPa)
#
#
# Indices 1 2 3 4 5 6 
#
# 1 0.010876 -0.002704 -0.003467 0.000000 0.001650 0.000000
# 2 -0.002704 0.020436 -0.007050 0.000000 -0.002024 0.000000
# 3 -0.003467 -0.007050 0.012099 0.000000 -0.002204 0.000000
# 4 0.000000 0.000000 0.000000 0.033789 0.000000 -0.000988
# 5 0.001650 -0.002024 -0.002204 0.000000 0.042987 0.000000
# 6 0.000000 0.000000 0.000000 -0.000988 0.000000 0.039327
#
#
# Mechanical properties :
#
#
# Convention : Reuss Voigt Hill
#
# Bulk Modulus (GPa) = 58.93065 66.57264 62.75165
# Shear Modulus (GPa) = 26.09424 27.74632 26.92028
#
# Velocity S-wave (km/s) = 3.73998 3.85655 3.79871
# Velocity P-wave (km/s) = 7.08793 7.45090 7.27168
#
# Compressibility (1/GPa) = 0.01696910
#
# Stress axis : x y z
#
# Youngs Moduli (GPa) = 91.94490 48.93287 82.64811
#
# Poissons Ratio (x) = 0.13232 0.28654
# Poissons Ratio (y) = 0.24863 0.58269
# Poissons Ratio (z) = 0.31877 0.34499
#
# Static dielectric constant tensor:
#      x y z
#    x 1.630540 0.000000 0.027060 
#    y 0.000000 1.668570 0.000000 
#    z 0.027060 0.000000 1.539800 
# 
# From -- ./inp_files/319607.got.cif
#   From: 2010.05.17/outbox.cif.g08.bks.cpg/sg12_160_cif.got.tgz:319607.got - 2010.06.03 13:09:07.
