data_PCOD9210262
_publ_section_title
;
Structure prediction by ZEFSAII (Michael W. Deem and Ramdas Pophale) SiO2 
 PCOD9210262
Probable space group: C 2/M
;
_chemical_formula_sum "Si O2"
_cell_formula_units_Z 48
_cell_length_a 14.795817
_cell_length_b 14.060231
_cell_length_c 11.027449
_cell_angle_alpha 90.000000
_cell_angle_beta 63.396117
_cell_angle_gamma 90.000000
_cell_volume 2051.181844
_symmetry_space_group_name_H-M "C 2/M"
_symmetry_group_IT_number 12
_symmetry_cell_setting 'monoclinic'
loop_
_space_group_symop_operation_xyz
x,y,z
-x,y,-z
-x,-y,-z
x,-y,z
1/2+x,1/2+y,z
1/2-x,1/2+y,-z
1/2-x,1/2-y,-z
1/2+x,1/2-y,z
loop_
_atom_site_type_symbol
_atom_site_label
_atom_site_fract_x
_atom_site_fract_y
_atom_site_fract_z
Si Si1 0.776594 0.235959 0.290936
Si Si2 0.839679 0.385334 0.841749
Si Si3 0.449766 0.107622 0.161800
Si Si4 0.045215 0.889871 0.729588
Si Si5 0.333218 0.389400 0.871770
Si Si6 0.353203 0.392232 0.567874
O O1 0.704925 0.183965 0.234641
O O2 0.850781 0.153539 0.290018
O O3 0.705793 0.294934 0.424339
O O4 0.860187 0.317085 0.209783
O O5 0.828649 0.500000 0.822786
O O6 0.958170 0.371504 0.800513
O O7 0.769238 0.359391 0.000911
O O8 0.411922 0.000000 0.209944
O O9 0.500000 0.105058 0.000000
O O10 0.049901 0.885171 0.579615
O O11 0.941595 0.845596 0.844682
O O12 0.044794 0.000000 0.763640
O O13 0.338383 0.500000 0.902340
O O14 0.340512 0.388292 0.721784
O O15 0.316266 0.500000 0.559133
#
# Coordination Sequence:
#
# PCOD9210262 Si02
#       6
#     8   8   8   8   8   8
#     4  12  24  36  65  93 126 162 211 255 313 378
#     4  10  23  42  63  93 133 166 201 255 323 382
#     4  10  23  42  61  88 128 172 210 250 305 376
#     4  10  22  39  60  88 123 161 206 257 313 366
#     4   9  19  38  62  85 117 160 203 252 310 369
#     4  10  21  39  61  87 120 161 209 261 305 360
#
# _framework density 23.401143999999999
#
# number of rings (size 3 to 8) (size 9 to 14) (size 15 to 20)
#    0.000    1.833    0.000    3.000    4.667    6.000 
#    0.000    2.500    0.000    0.000    0.000    7.000 
#    0.000    0.000    0.000    0.000    0.000    0.000 
#
# Total GULP energy -133646.627444 kJ/mol
# GULP energy per Si atom -5568.609477 kJ/mol
# Density = 2.334788 g / cm^3
# Si number density = 23.401144 Si / 1000 Ang^3
#
#
#
# Elastic Constant Matrix: (Units=GPa)
#
#
# Indices 1 2 3 4 5 6 
#
# 1 117.9500 43.0758 20.7297 0.0000 1.6612 0.0000
# 2 43.0758 144.3966 16.6587 0.0000 1.4101 0.0000
# 3 20.7297 16.6587 34.3621 0.0000 -19.9426 0.0000
# 4 0.0000 0.0000 0.0000 -35.9954 0.0000 -35.8139
# 5 1.6612 1.4101 -19.9426 0.0000 31.7266 0.0000
# 6 0.0000 0.0000 0.0000 -35.8139 0.0000 4.4378
#
#
#
# Elastic Compliance Matrix: (Units=1/GPa)
#
#
# Indices 1 2 3 4 5 6 
#
# 1 0.010971 -0.002148 -0.009218 0.000000 -0.006273 0.000000
# 2 -0.002148 0.008099 -0.004368 0.000000 -0.002993 0.000000
# 3 -0.009218 -0.004368 0.058522 0.000000 0.037462 0.000000
# 4 0.000000 0.000000 0.000000 -0.003077 0.000000 -0.024830
# 5 -0.006273 -0.002993 0.037462 0.000000 0.055528 0.000000
# 6 0.000000 0.000000 0.000000 -0.024830 0.000000 0.024956
#
#
# Mechanical properties :
#
#
# Convention : Reuss Voigt Hill
#
# Bulk Modulus (GPa) = 21.68017 50.84857 36.26437
# Shear Modulus (GPa) = 24.77196 14.45012 19.61104
#
# Velocity S-wave (km/s) = 3.25711 2.48764 2.89803
# Velocity P-wave (km/s) = 4.84043 5.47973 5.16997
#
# Compressibility (1/GPa) = 0.04612509
#
# Stress axis : x y z
#
# Youngs Moduli (GPa) = 91.14896 123.46752 17.08771
#
# Poissons Ratio (x) = 0.26523 0.15751
# Poissons Ratio (y) = 0.19580 0.07463
# Poissons Ratio (z) = 0.84019 0.53925
#
# Static dielectric constant tensor:
#      x y z
#    x 2.047000 0.000000 0.057410 
#    y 0.000000 1.932360 0.000000 
#    z 0.057410 0.000000 1.889250 
# 
# From -- ./inp_files/143510.got.cif
#   From: 2010.05.17/outbox.cif.g08.bks.cpg/sg12_72_cif.got.tgz:143510.got - 2010.06.03 13:09:07.
