data_PCOD9210021
_publ_section_title
;
Structure prediction by ZEFSAII (Michael W. Deem and Ramdas Pophale) SiO2 
 PCOD9210021
Probable space group: C 2/M
;
_chemical_formula_sum "Si O2"
_cell_formula_units_Z 40
_cell_length_a 25.861272
_cell_length_b 17.967104
_cell_length_c 8.857238
_cell_angle_alpha 90.000000
_cell_angle_beta 149.634460
_cell_angle_gamma 90.000000
_cell_volume 2080.464254
_symmetry_space_group_name_H-M "C 2/M"
_symmetry_group_IT_number 12
_symmetry_cell_setting 'monoclinic'
loop_
_space_group_symop_operation_xyz
x,y,z
-x,y,-z
-x,-y,-z
x,-y,z
1/2+x,1/2+y,z
1/2-x,1/2+y,-z
1/2-x,1/2-y,-z
1/2+x,1/2-y,z
loop_
_atom_site_type_symbol
_atom_site_label
_atom_site_fract_x
_atom_site_fract_y
_atom_site_fract_z
Si Si1 0.515376 0.305703 0.719866
Si Si2 0.193390 0.089285 0.125064
Si Si3 0.590463 0.143209 0.849064
Si Si4 0.896659 0.414394 0.799431
Si Si5 0.212124 0.830877 0.850856
O O1 0.500000 0.309635 0.500000
O O2 0.563268 0.223563 0.856426
O O3 0.402709 0.319619 0.502716
O O4 0.596642 0.369889 0.956448
O O5 0.293585 0.116530 0.467659
O O6 0.182594 0.000000 0.103478
O O7 0.204825 0.116297 0.980047
O O8 0.500000 0.128045 0.500000
O O9 0.598026 0.088169 0.007765
O O10 0.699063 0.143701 0.038103
O O11 0.896667 0.500000 0.745982
O O12 0.000000 0.377355 0.000000
O O13 0.250000 0.750000 0.000000
#
# Coordination Sequence:
#
# PCOD9210021 Si02
#       5
#     8   8   8   8   8
#     4   9  19  34  56  85 114 149 189 239 290 345
#     4  10  21  39  59  82 119 160 195 238 296 354
#     4  11  20  35  61  83 115 150 194 250 292 342
#     4  10  23  39  56  84 120 158 196 240 298 355
#     4  11  19  36  60  88 118 146 195 248 289 345
#
# _framework density 19.226476999999999
#
# number of rings (size 3 to 8) (size 9 to 14) (size 15 to 20)
#    0.000    1.800    6.000    1.200    0.000    5.600 
#    0.000    1.000    0.000    2.400    0.000    0.000 
#    0.000    0.000    0.000    0.000    0.000    0.000 
#
# Total GULP energy -111454.284085 kJ/mol
# GULP energy per Si atom -5572.714204 kJ/mol
# Density = 1.918272 g / cm^3
# Si number density = 19.226477 Si / 1000 Ang^3
#
#
#
# Elastic Constant Matrix: (Units=GPa)
#
#
# Indices 1 2 3 4 5 6 
#
# 1 88.1903 -5.0243 42.0421 0.0000 35.6347 0.0000
# 2 -5.0243 45.4960 43.1774 0.0000 9.2675 0.0000
# 3 42.0421 43.1774 104.3997 0.0000 44.9268 0.0000
# 4 0.0000 0.0000 0.0000 24.9901 0.0000 1.6390
# 5 35.6347 9.2675 44.9268 0.0000 40.5760 0.0000
# 6 0.0000 0.0000 0.0000 1.6390 0.0000 -4.2920
#
#
#
# Elastic Compliance Matrix: (Units=1/GPa)
#
#
# Indices 1 2 3 4 5 6 
#
# 1 0.021020 0.013136 -0.008906 0.000000 -0.011600 0.000000
# 2 0.013136 0.050662 -0.031133 0.000000 0.011363 0.000000
# 3 -0.008906 -0.031133 0.037467 0.000000 -0.026553 0.000000
# 4 0.000000 0.000000 0.000000 0.039038 0.000000 0.014907
# 5 -0.011600 0.011363 -0.026553 0.000000 0.061637 0.000000
# 6 0.000000 0.000000 0.000000 0.014907 0.000000 -0.227297
#
#
# Mechanical properties :
#
#
# Convention : Reuss Voigt Hill
#
# Bulk Modulus (GPa) = 18.06849 44.27516 31.17182
# Shear Modulus (GPa) = 91.27436 22.78087 57.02762
#
# Velocity S-wave (km/s) = 6.89756 3.44593 5.45210
# Velocity P-wave (km/s) = 8.53541 6.23785 7.47543
#
# Compressibility (1/GPa) = 0.05534498
#
# Stress axis : x y z
#
# Youngs Moduli (GPa) = 47.57316 19.73866 26.68997
#
# Poissons Ratio (x) = -0.25929 0.23770
# Poissons Ratio (y) = -0.62494 0.83093
# Poissons Ratio (z) = 0.42369 0.61452
#
# Static dielectric constant tensor:
#      x y z
#    x 1.721480 0.000000 0.056380 
#    y 0.000000 1.705330 0.000000 
#    z 0.056380 0.000000 1.721470 
# 
# From -- ./inp_files/61369.got.cif
#   From: 2010.05.17/outbox.cif.g08.bks.cpg/sg12_31_cif.got.tgz:61369.got - 2010.06.03 13:09:07.
