data_PCOD9210694
_publ_section_title
;
Structure prediction by ZEFSAII (Michael W. Deem and Ramdas Pophale) SiO2 
 PCOD9210694
Probable space group: C 2/M
;
_chemical_formula_sum "Si O2"
_cell_formula_units_Z 48
_cell_length_a 27.422241
_cell_length_b 8.848592
_cell_length_c 17.087051
_cell_angle_alpha 90.000000
_cell_angle_beta 143.412443
_cell_angle_gamma 90.000000
_cell_volume 2471.310390
_symmetry_space_group_name_H-M "C 2/M"
_symmetry_group_IT_number 12
_symmetry_cell_setting 'monoclinic'
loop_
_space_group_symop_operation_xyz
x,y,z
-x,y,-z
-x,-y,-z
x,-y,z
1/2+x,1/2+y,z
1/2-x,1/2+y,-z
1/2-x,1/2-y,-z
1/2+x,1/2-y,z
loop_
_atom_site_type_symbol
_atom_site_label
_atom_site_fract_x
_atom_site_fract_y
_atom_site_fract_z
Si Si1 0.115552 0.679472 0.509044
Si Si2 0.826777 0.819301 0.950576
Si Si3 0.852150 0.179630 0.284555
Si Si4 0.736395 0.179638 0.397451
Si Si5 0.095463 0.819754 0.119257
Si Si6 0.948588 0.180770 0.248550
O O1 0.124206 0.500000 0.518111
O O2 0.111610 0.736471 0.593350
O O3 0.194546 0.754866 0.571380
O O4 0.034230 0.733117 0.359770
O O5 0.741269 0.732831 0.846318
O O6 0.868306 0.790088 0.920282
O O7 0.810794 0.000000 0.935350
O O8 0.889180 0.778632 0.100331
O O9 0.902243 0.212308 0.270305
O O10 0.855232 0.000000 0.302559
O O11 0.750000 0.250000 0.500000
O O12 0.649367 0.230503 0.250967
O O13 0.742612 0.000000 0.408840
O O14 0.103626 0.000000 0.144748
O O15 0.000000 0.781434 0.000000
O O16 0.964046 0.000000 0.264250
#
# Coordination Sequence:
#
# PCOD9210694 Si02
#       6
#     8   8   8   8   8   8
#     4  12  25  42  64  93 127 166 213 262 317 373
#     4  10  21  39  63  91 128 167 207 259 318 378
#     4  11  22  39  63  91 127 169 214 263 316 374
#     4  12  26  45  69  96 128 164 207 258 313 373
#     4  10  22  41  66  97 129 164 205 255 317 378
#     4  10  23  40  61  93 129 170 214 260 317 374
#
# _framework density 19.422892999999998
#
# number of rings (size 3 to 8) (size 9 to 14) (size 15 to 20)
#    0.000    1.167    1.667    4.500    2.333    4.333 
#    0.000    0.000    0.000    0.000    0.000    0.000 
#    0.000    0.000    0.000    0.000    0.000    0.000 
#
# Total GULP energy -134302.620046 kJ/mol
# GULP energy per Si atom -5595.942502 kJ/mol
# Density = 1.937869 g / cm^3
# Si number density = 19.422893 Si / 1000 Ang^3
#
#
#
# Elastic Constant Matrix: (Units=GPa)
#
#
# Indices 1 2 3 4 5 6 
#
# 1 54.0265 43.0334 26.6914 0.0000 -0.2581 0.0000
# 2 43.0334 83.3711 49.8117 0.0000 2.0308 0.0000
# 3 26.6914 49.8117 105.5135 0.0000 -0.9211 0.0000
# 4 0.0000 0.0000 0.0000 40.6024 0.0000 2.5656
# 5 -0.2581 2.0308 -0.9211 0.0000 41.5793 0.0000
# 6 0.0000 0.0000 0.0000 2.5656 0.0000 24.8482
#
#
#
# Elastic Compliance Matrix: (Units=1/GPa)
#
#
# Indices 1 2 3 4 5 6 
#
# 1 0.031484 -0.016048 -0.000380 0.000000 0.000971 0.000000
# 2 -0.016048 0.024927 -0.007721 0.000000 -0.001488 0.000000
# 3 -0.000380 -0.007721 0.013225 0.000000 0.000668 0.000000
# 4 0.000000 0.000000 0.000000 0.024791 0.000000 -0.002560
# 5 0.000971 -0.001488 0.000668 0.000000 0.024144 0.000000
# 6 0.000000 0.000000 0.000000 -0.002560 0.000000 0.040509
#
#
# Mechanical properties :
#
#
# Convention : Reuss Voigt Hill
#
# Bulk Modulus (GPa) = 46.86488 53.55380 50.20934
# Shear Modulus (GPa) = 23.31106 29.63095 26.47100
#
# Velocity S-wave (km/s) = 3.46813 3.91009 3.69572
# Velocity P-wave (km/s) = 6.34179 6.92946 6.64213
#
# Compressibility (1/GPa) = 0.02133794
#
# Stress axis : x y z
#
# Youngs Moduli (GPa) = 31.76199 40.11652 75.61650
#
# Poissons Ratio (x) = 0.64378 0.02874
# Poissons Ratio (y) = 0.50971 0.58387
# Poissons Ratio (z) = 0.01207 0.30976
#
# Static dielectric constant tensor:
#      x y z
#    x 1.655590 0.000000 -0.005550 
#    y 0.000000 1.652110 0.000000 
#    z -0.005550 0.000000 1.654780 
# 
# From -- ./inp_files/274107.got.cif
#   From: 2010.05.17/outbox.cif.g08.bks.cpg/sg12_138_cif.got.tgz:274107.got - 2010.06.03 13:09:07.
