data_PCOD9210833
_publ_section_title
;
Structure prediction by ZEFSAII (Michael W. Deem and Ramdas Pophale) SiO2 
 PCOD9210833
Probable space group: C 2/M
;
_chemical_formula_sum "Si O2"
_cell_formula_units_Z 28
_cell_length_a 8.987804
_cell_length_b 15.127649
_cell_length_c 17.089053
_cell_angle_alpha 90.000000
_cell_angle_beta 32.271132
_cell_angle_gamma 90.000000
_cell_volume 1240.579004
_symmetry_space_group_name_H-M "C 2/M"
_symmetry_group_IT_number 12
_symmetry_cell_setting 'monoclinic'
loop_
_space_group_symop_operation_xyz
x,y,z
-x,y,-z
-x,-y,-z
x,-y,z
1/2+x,1/2+y,z
1/2-x,1/2+y,-z
1/2-x,1/2-y,-z
1/2+x,1/2-y,z
loop_
_atom_site_type_symbol
_atom_site_label
_atom_site_fract_x
_atom_site_fract_y
_atom_site_fract_z
Si Si1 0.962948 0.000000 0.770112
Si Si2 0.836280 0.176376 0.257234
Si Si3 0.562859 0.000000 0.099407
Si Si4 0.403474 0.842016 0.797263
Si Si5 0.000000 0.197268 0.500000
O O1 0.757870 0.000000 0.787303
O O2 0.139152 0.089144 0.701499
O O3 0.758106 0.000000 0.936731
O O4 0.813116 0.153467 0.176777
O O5 0.568629 0.236842 0.397697
O O6 0.083282 0.243641 0.171615
O O7 0.621679 0.085158 0.125646
O O8 0.713830 0.855759 0.621534
#
# Coordination Sequence:
#
# PCOD9210833 Si02
#       5
#     4   8   4   8   4
#     4  11  25  42  61  88 121 160 206 249 296 353
#     4  10  21  39  64  91 122 158 198 246 300 357
#     4  11  25  42  61  88 121 160 206 249 296 353
#     4  10  21  39  64  91 122 158 198 246 300 357
#     4   8  22  38  64  92 124 152 198 244 302 360
#
# _framework density 22.570105999999999
#
# number of rings (size 3 to 8) (size 9 to 14) (size 15 to 20)
#    1.714    0.286    0.000    3.429    0.000    4.571 
#    0.000    0.000    0.000    0.000    0.000    0.000 
#    0.000    0.000    0.000    0.000    0.000    0.000 
#
# Total GULP energy -78114.645557 kJ/mol
# GULP energy per Si atom -5579.617540 kJ/mol
# Density = 2.251873 g / cm^3
# Si number density = 22.570106 Si / 1000 Ang^3
#
#
#
# Elastic Constant Matrix: (Units=GPa)
#
#
# Indices 1 2 3 4 5 6 
#
# 1 108.4503 11.3002 15.7137 0.0037 11.3378 0.0080
# 2 11.3002 90.1783 2.7395 -0.0288 -0.8989 0.0036
# 3 15.7137 2.7395 58.1243 0.0137 -11.5844 -0.0117
# 4 0.0037 -0.0288 0.0137 17.1643 -0.0162 10.4844
# 5 11.3378 -0.8989 -11.5844 -0.0162 33.1238 0.0023
# 6 0.0080 0.0036 -0.0117 10.4844 0.0023 29.3000
#
#
#
# Elastic Compliance Matrix: (Units=1/GPa)
#
#
# Indices 1 2 3 4 5 6 
#
# 1 0.010403 -0.001239 -0.003730 -0.000005 -0.004899 -0.000002
# 2 -0.001239 0.011253 -0.000054 0.000026 0.000711 -0.000011
# 3 -0.003730 -0.000054 0.019854 -0.000016 0.008219 0.000014
# 4 -0.000005 0.000026 -0.000016 0.074557 0.000035 -0.026679
# 5 -0.004899 0.000711 0.008219 0.000035 0.034760 -0.000011
# 6 -0.000002 -0.000011 0.000014 -0.026679 -0.000011 0.043676
#
#
# Mechanical properties :
#
#
# Convention : Reuss Voigt Hill
#
# Bulk Modulus (GPa) = 31.78328 35.13995 33.46162
# Shear Modulus (GPa) = 23.25192 31.05090 27.15141
#
# Velocity S-wave (km/s) = 3.21317 3.71314 3.47216
# Velocity P-wave (km/s) = 5.28001 5.82977 5.56169
#
# Compressibility (1/GPa) = 0.03146309
#
# Stress axis : x y z
#
# Youngs Moduli (GPa) = 96.13025 88.86409 50.36883
#
# Poissons Ratio (x) = 0.11011 0.18789
# Poissons Ratio (y) = 0.11911 0.00271
# Poissons Ratio (z) = 0.35859 0.00478
#
# Static dielectric constant tensor:
#      x y z
#    x 1.809570 0.000000 -0.034690 
#    y 0.000000 1.802470 0.000020 
#    z -0.034690 0.000020 1.902370 
# 
# From -- ./inp_files/194400.got.cif
#   From: 2010.05.17/outbox.cif.g08.bks.cpg/sg12_98_cif.got.tgz:194400.got - 2010.06.03 13:09:07.
