data_PCOD9210362
_publ_section_title
;
Structure prediction by ZEFSAII (Michael W. Deem and Ramdas Pophale) SiO2 
 PCOD9210362
Probable space group: C 2/M
;
_chemical_formula_sum "Si O2"
_cell_formula_units_Z 40
_cell_length_a 20.204939
_cell_length_b 8.219460
_cell_length_c 11.562237
_cell_angle_alpha 90.000000
_cell_angle_beta 90.863148
_cell_angle_gamma 90.000000
_cell_volume 1919.965453
_symmetry_space_group_name_H-M "C 2/M"
_symmetry_group_IT_number 12
_symmetry_cell_setting 'monoclinic'
loop_
_space_group_symop_operation_xyz
x,y,z
-x,y,-z
-x,-y,-z
x,-y,z
1/2+x,1/2+y,z
1/2-x,1/2+y,-z
1/2-x,1/2-y,-z
1/2+x,1/2-y,z
loop_
_atom_site_type_symbol
_atom_site_label
_atom_site_fract_x
_atom_site_fract_y
_atom_site_fract_z
Si Si1 0.098367 0.697397 0.254125
Si Si2 0.774769 0.691116 0.876271
Si Si3 0.350077 0.808206 0.258340
Si Si4 0.029195 0.807083 0.878155
Si Si5 0.576612 0.802095 0.509106
O O1 0.093968 0.500000 0.247267
O O2 0.155849 0.759005 0.170291
O O3 0.110856 0.739144 0.388405
O O4 0.027967 0.768093 0.215191
O O5 0.784362 0.500000 0.887182
O O6 0.717713 0.725960 0.781513
O O7 0.750000 0.750000 0.000000
O O8 0.403956 0.779564 0.159036
O O9 0.383838 0.744225 0.377196
O O10 0.338013 0.000000 0.270263
O O11 0.041671 0.000000 0.884580
O O12 0.000000 0.750965 0.000000
O O13 0.500000 0.747382 0.500000
O O14 0.574289 0.000000 0.518123
#
# Coordination Sequence:
#
# PCOD9210362 Si02
#       5
#     8   8   8   8   8
#     4  10  21  39  62  86 114 156 200 240 293 355
#     4  11  24  41  61  87 123 159 199 246 293 350
#     4  11  22  38  63  88 117 158 198 240 296 355
#     4  11  23  37  56  85 119 153 196 250 298 345
#     4   9  17  35  62  89 117 150 194 245 293 350
#
# _framework density 20.833707
#
# number of rings (size 3 to 8) (size 9 to 14) (size 15 to 20)
#    0.000    1.600    2.000    3.000    0.000    7.200 
#    0.000    3.000    0.000    0.000    0.000    0.000 
#    0.000    0.000    0.000    0.000    0.000    0.000 
#
# Total GULP energy -111770.399399 kJ/mol
# GULP energy per Si atom -5588.519970 kJ/mol
# Density = 2.078629 g / cm^3
# Si number density = 20.833707 Si / 1000 Ang^3
#
#
#
# Elastic Constant Matrix: (Units=GPa)
#
#
# Indices 1 2 3 4 5 6 
#
# 1 57.7874 -8.2826 -21.9158 0.0000 -6.7402 0.0000
# 2 -8.2826 12.1095 0.9261 0.0000 -6.3206 0.0000
# 3 -21.9158 0.9261 65.2357 0.0000 -0.8897 0.0000
# 4 0.0000 0.0000 0.0000 22.4376 0.0000 10.2695
# 5 -6.7402 -6.3206 -0.8897 0.0000 33.6428 0.0000
# 6 0.0000 0.0000 0.0000 10.2695 0.0000 19.8932
#
#
#
# Elastic Compliance Matrix: (Units=1/GPa)
#
#
# Indices 1 2 3 4 5 6 
#
# 1 0.024366 0.020746 0.008014 0.000000 0.008991 0.000000
# 2 0.020746 0.109297 0.005757 0.000000 0.024843 0.000000
# 3 0.008014 0.005757 0.017983 0.000000 0.003163 0.000000
# 4 0.000000 0.000000 0.000000 0.058356 0.000000 -0.030125
# 5 0.008991 0.024843 0.003163 0.000000 0.036276 0.000000
# 6 0.000000 0.000000 0.000000 -0.030125 0.000000 0.065820
#
#
# Mechanical properties :
#
#
# Convention : Reuss Voigt Hill
#
# Bulk Modulus (GPa) = 4.53145 8.50978 6.52061
# Shear Modulus (GPa) = 15.79159 26.15503 20.97331
#
# Velocity S-wave (km/s) = 2.75614 3.54703 3.17630
# Velocity P-wave (km/s) = 3.50830 4.56823 4.07289
#
# Compressibility (1/GPa) = 0.22067973
#
# Stress axis : x y z
#
# Youngs Moduli (GPa) = 41.04014 9.14942 55.60901
#
# Poissons Ratio (x) = -0.18982 -0.44565
# Poissons Ratio (y) = -0.85143 -0.32013
# Poissons Ratio (z) = -0.32889 -0.05267
#
# Static dielectric constant tensor:
#      x y z
#    x 1.734770 0.000000 -0.022750 
#    y 0.000000 1.722800 0.000000 
#    z -0.022750 0.000000 1.788420 
# 
# From -- ./inp_files/151666.got.cif
#   From: 2010.05.17/outbox.cif.g08.bks.cpg/sg12_76_cif.got.tgz:151666.got - 2010.06.03 13:09:07.
