data_PCOD9210314
_publ_section_title
;
Structure prediction by ZEFSAII (Michael W. Deem and Ramdas Pophale) SiO2 
 PCOD9210314
Probable space group: C 2/M
;
_chemical_formula_sum "Si O2"
_cell_formula_units_Z 56
_cell_length_a 14.381890
_cell_length_b 14.664240
_cell_length_c 17.398278
_cell_angle_alpha 90.000000
_cell_angle_beta 130.355343
_cell_angle_gamma 90.000000
_cell_volume 2796.155996
_symmetry_space_group_name_H-M "C 2/M"
_symmetry_group_IT_number 12
_symmetry_cell_setting 'monoclinic'
loop_
_space_group_symop_operation_xyz
x,y,z
-x,y,-z
-x,-y,-z
x,-y,z
1/2+x,1/2+y,z
1/2-x,1/2+y,-z
1/2-x,1/2-y,-z
1/2+x,1/2-y,z
loop_
_atom_site_type_symbol
_atom_site_label
_atom_site_fract_x
_atom_site_fract_y
_atom_site_fract_z
Si Si1 0.925210 0.390144 0.762864
Si Si2 0.995876 0.899861 0.339951
Si Si3 0.798212 0.809454 0.453117
Si Si4 0.394010 0.241370 0.881743
Si Si5 0.386964 0.594561 0.764963
Si Si6 0.886297 0.643970 0.395163
Si Si7 0.622718 0.785527 0.771595
O O1 0.944358 0.500000 0.773127
O O2 0.814700 0.362111 0.646032
O O3 0.885889 0.349828 0.825167
O O4 0.044744 0.331492 0.798346
O O5 0.094980 0.873524 0.457306
O O6 0.062975 0.903008 0.293807
O O7 0.908316 0.815894 0.275573
O O8 0.942188 0.000000 0.327343
O O9 0.750000 0.750000 0.500000
O O10 0.854790 0.739595 0.421240
O O11 0.423253 0.319850 0.834931
O O12 0.269286 0.278146 0.855139
O O13 0.500000 0.231150 0.000000
O O14 0.426482 0.500000 0.824046
O O15 0.242451 0.595584 0.675825
O O16 0.918657 0.655633 0.323942
O O17 0.000000 0.602852 0.500000
#
# Coordination Sequence:
#
# PCOD9210314 Si02
#       7
#     8   8   8   8   8   8   8
#     4  12  25  44  68  98 135 176 218 268 327 394
#     4  11  21  36  62  92 128 173 215 254 312 387
#     4  12  18  38  61  90 136 179 212 254 318 384
#     4  11  25  47  73  93 127 166 216 285 345 389
#     4  10  21  39  61  91 127 166 212 262 322 390
#     4  11  19  33  59  88 130 176 211 261 310 381
#     4  11  22  42  65  92 130 168 217 271 326 385
#
# _framework density 20.027494000000001
#
# number of rings (size 3 to 8) (size 9 to 14) (size 15 to 20)
#    0.000    0.857    8.571    0.429    0.000    4.286 
#    0.000    0.714    0.000    0.000    0.000    0.000 
#    0.000    0.000    0.000    0.000    0.000    0.000 
#
# Total GULP energy -156115.524333 kJ/mol
# GULP energy per Si atom -5575.554440 kJ/mol
# Density = 1.998191 g / cm^3
# Si number density = 20.027494 Si / 1000 Ang^3
#
#
#
# Elastic Constant Matrix: (Units=GPa)
#
#
# Indices 1 2 3 4 5 6 
#
# 1 61.5098 11.6663 18.7829 0.0000 3.1915 0.0000
# 2 11.6663 138.5139 26.1141 0.0000 -12.5738 0.0000
# 3 18.7829 26.1141 112.0222 0.0000 19.3008 0.0000
# 4 0.0000 0.0000 0.0000 35.1555 0.0000 14.0847
# 5 3.1915 -12.5738 19.3008 0.0000 26.5700 0.0000
# 6 0.0000 0.0000 0.0000 14.0847 0.0000 32.3807
#
#
#
# Elastic Compliance Matrix: (Units=1/GPa)
#
#
# Indices 1 2 3 4 5 6 
#
# 1 0.017265 -0.001045 -0.002525 0.000000 -0.000734 0.000000
# 2 -0.001045 0.008404 -0.002847 0.000000 0.006171 0.000000
# 3 -0.002525 -0.002847 0.011652 0.000000 -0.009508 0.000000
# 4 0.000000 0.000000 0.000000 0.034448 0.000000 -0.014984
# 5 -0.000734 0.006171 -0.009508 0.000000 0.047552 0.000000
# 6 0.000000 0.000000 0.000000 -0.014984 0.000000 0.037400
#
#
# Mechanical properties :
#
#
# Convention : Reuss Voigt Hill
#
# Bulk Modulus (GPa) = 40.83672 47.24138 44.03905
# Shear Modulus (GPa) = 28.13445 35.85342 31.99393
#
# Velocity S-wave (km/s) = 3.75212 4.23568 4.00121
# Velocity P-wave (km/s) = 6.26145 6.89643 6.58660
#
# Compressibility (1/GPa) = 0.02448777
#
# Stress axis : x y z
#
# Youngs Moduli (GPa) = 57.92137 118.98415 85.82119
#
# Poissons Ratio (x) = 0.12431 0.21668
# Poissons Ratio (y) = 0.06051 0.24436
# Poissons Ratio (z) = 0.14624 0.33878
#
# Static dielectric constant tensor:
#      x y z
#    x 1.733530 0.000000 0.013140 
#    y 0.000000 1.840910 0.000000 
#    z 0.013140 0.000000 1.659950 
# 
# From -- ./inp_files/270412.got.cif
#   From: 2010.05.17/outbox.cif.g08.bks.cpg/sg12_136_cif.got.tgz:270412.got - 2010.06.03 13:09:07.
