data_PCOD9210604
_publ_section_title
;
Structure prediction by ZEFSAII (Michael W. Deem and Ramdas Pophale) SiO2 
 PCOD9210604
Probable space group: C 2/M
;
_chemical_formula_sum "Si O2"
_cell_formula_units_Z 48
_cell_length_a 24.670016
_cell_length_b 10.651935
_cell_length_c 13.608075
_cell_angle_alpha 90.000000
_cell_angle_beta 42.167551
_cell_angle_gamma 90.000000
_cell_volume 2400.556233
_symmetry_space_group_name_H-M "C 2/M"
_symmetry_group_IT_number 12
_symmetry_cell_setting 'monoclinic'
loop_
_space_group_symop_operation_xyz
x,y,z
-x,y,-z
-x,-y,-z
x,-y,z
1/2+x,1/2+y,z
1/2-x,1/2+y,-z
1/2-x,1/2-y,-z
1/2+x,1/2-y,z
loop_
_atom_site_type_symbol
_atom_site_label
_atom_site_fract_x
_atom_site_fract_y
_atom_site_fract_z
Si Si1 0.340861 0.139231 0.135414
Si Si2 0.312527 0.862104 0.403052
Si Si3 0.428997 0.140766 0.677226
Si Si4 0.541098 0.638794 0.051527
Si Si5 0.653082 0.643729 0.329800
Si Si6 0.054556 0.244785 0.648120
O O1 0.345388 0.143864 0.247954
O O2 0.247063 0.151947 0.232311
O O3 0.368795 0.000000 0.066513
O O4 0.393951 0.251776 0.024108
O O5 0.250000 0.750000 0.500000
O O6 0.383067 0.841398 0.386740
O O7 0.274716 0.000000 0.466760
O O8 0.500000 0.134494 0.500000
O O9 0.369777 0.250058 0.718900
O O10 0.476789 0.184999 0.708968
O O11 0.394151 0.000000 0.733161
O O12 0.577784 0.500000 0.007910
O O13 0.474597 0.654874 0.225591
O O14 0.500000 0.651963 0.000000
O O15 0.636010 0.500000 0.320545
O O16 0.599862 0.673850 0.498406
#
# Coordination Sequence:
#
# PCOD9210604 Si02
#       6
#     8   8   8   8   8   8
#     4  10  22  40  59  85 121 161 198 240 296 360
#     4  11  22  36  58  89 121 157 198 246 301 354
#     4   9  20  37  59  89 119 150 195 247 298 350
#     4  11  24  39  58  89 125 162 199 244 295 352
#     4  10  21  39  63  89 117 154 199 246 296 351
#     4  11  21  38  62  90 121 156 199 245 297 354
#
# _framework density 19.995367000000002
#
# number of rings (size 3 to 8) (size 9 to 14) (size 15 to 20)
#    0.000    1.667    3.333    1.000    0.000    8.000 
#    0.000    0.833    0.000    0.000    0.000    0.000 
#    0.000    0.000    0.000    0.000    0.000    0.000 
#
# Total GULP energy -134012.397877 kJ/mol
# GULP energy per Si atom -5583.849912 kJ/mol
# Density = 1.994986 g / cm^3
# Si number density = 19.995367 Si / 1000 Ang^3
#
#
#
# Elastic Constant Matrix: (Units=GPa)
#
#
# Indices 1 2 3 4 5 6 
#
# 1 99.7319 57.1272 14.6409 0.0000 9.0402 0.0000
# 2 57.1272 197.6609 49.4815 0.0000 -15.2016 0.0000
# 3 14.6409 49.4815 49.6699 0.0000 -2.8472 0.0000
# 4 0.0000 0.0000 0.0000 20.2599 0.0000 -15.3686
# 5 9.0402 -15.2016 -2.8472 0.0000 15.6137 0.0000
# 6 0.0000 0.0000 0.0000 -15.3686 0.0000 22.9162
#
#
#
# Elastic Compliance Matrix: (Units=1/GPa)
#
#
# Indices 1 2 3 4 5 6 
#
# 1 0.014140 -0.005152 0.000209 0.000000 -0.013165 0.000000
# 2 -0.005152 0.009099 -0.006939 0.000000 0.010576 0.000000
# 3 0.000209 -0.006939 0.026871 0.000000 -0.001978 0.000000
# 4 0.000000 0.000000 0.000000 0.100472 0.000000 0.067381
# 5 -0.013165 0.010576 -0.001978 0.000000 0.081605 0.000000
# 6 0.000000 0.000000 0.000000 0.067381 0.000000 0.088826
#
#
# Mechanical properties :
#
#
# Convention : Reuss Voigt Hill
#
# Bulk Modulus (GPa) = 37.95542 65.50686 51.73114
# Shear Modulus (GPa) = 14.14198 26.81217 20.47708
#
# Velocity S-wave (km/s) = 2.66233 3.66583 3.20361
# Velocity P-wave (km/s) = 5.33610 7.12389 6.29380
#
# Compressibility (1/GPa) = 0.02634670
#
# Stress axis : x y z
#
# Youngs Moduli (GPa) = 70.71942 109.90662 37.21500
#
# Poissons Ratio (x) = 0.56621 -0.00780
# Poissons Ratio (y) = 0.36433 0.25825
# Poissons Ratio (z) = -0.01481 0.76268
#
# Static dielectric constant tensor:
#      x y z
#    x 1.701680 0.000000 0.017350 
#    y 0.000000 1.718770 0.000000 
#    z 0.017350 0.000000 1.691770 
# 
# From -- ./inp_files/244649.got.cif
#   From: 2010.05.17/outbox.cif.g08.bks.cpg/sg12_123_cif.got.tgz:244649.got - 2010.06.03 13:09:07.
