data_PCOD9210684
_publ_section_title
;
Structure prediction by ZEFSAII (Michael W. Deem and Ramdas Pophale) SiO2 
 PCOD9210684
Probable space group: C 2/M
;
_chemical_formula_sum "Si O2"
_cell_formula_units_Z 56
_cell_length_a 20.494105
_cell_length_b 19.276387
_cell_length_c 19.825167
_cell_angle_alpha 90.000000
_cell_angle_beta 160.716642
_cell_angle_gamma 90.000000
_cell_volume 2586.434266
_symmetry_space_group_name_H-M "C 2/M"
_symmetry_group_IT_number 12
_symmetry_cell_setting 'monoclinic'
loop_
_space_group_symop_operation_xyz
x,y,z
-x,y,-z
-x,-y,-z
x,-y,z
1/2+x,1/2+y,z
1/2-x,1/2+y,-z
1/2-x,1/2-y,-z
1/2+x,1/2-y,z
loop_
_atom_site_type_symbol
_atom_site_label
_atom_site_fract_x
_atom_site_fract_y
_atom_site_fract_z
Si Si1 0.359099 0.177735 0.423109
Si Si2 0.912974 0.581598 0.710137
Si Si3 0.630805 0.918086 0.060753
Si Si4 0.588231 0.919556 0.740959
Si Si5 0.406665 0.687802 0.651977
Si Si6 0.883312 0.206394 0.278010
Si Si7 0.430673 0.673735 0.038116
O O1 0.500000 0.154615 0.500000
O O2 0.421820 0.129972 0.547091
O O3 0.423075 0.256779 0.501758
O O4 0.128360 0.169776 0.187417
O O5 0.867859 0.500000 0.670003
O O6 0.002932 0.602714 0.869800
O O7 0.718856 0.622397 0.497561
O O8 0.074757 0.590942 0.808412
O O9 0.681682 0.000000 0.104141
O O10 0.500000 0.909322 0.000000
O O11 0.818096 0.867120 0.243562
O O12 0.550774 0.000000 0.690459
O O13 0.791302 0.893425 0.906491
O O14 0.250000 0.750000 0.500000
O O15 0.574141 0.701394 0.759907
O O16 0.494750 0.682999 0.812229
O O17 0.707481 0.261788 0.117085
#
# Coordination Sequence:
#
# PCOD9210684 Si02
#       7
#     8   8   8   8   8   8   8
#     4  11  25  42  62  95 128 163 211 258 310 374
#     4  10  21  39  63  91 124 163 210 258 310 376
#     4  10  23  42  63  90 127 166 207 259 315 375
#     4  10  22  42  66  94 125 166 213 255 308 376
#     4  12  20  37  63  94 125 159 208 265 311 361
#     4  11  24  37  65  91 124 168 211 255 314 381
#     4  11  22  40  62  94 127 165 206 261 316 364
#
# _framework density 21.651430000000001
#
# number of rings (size 3 to 8) (size 9 to 14) (size 15 to 20)
#    0.000    1.286    2.857    3.000    2.000    3.714 
#    0.000    0.714    0.000    3.000    0.000    0.000 
#    0.000    0.000    0.000    0.000    0.000    0.000 
#
# Total GULP energy -156601.256972 kJ/mol
# GULP energy per Si atom -5592.902035 kJ/mol
# Density = 2.160215 g / cm^3
# Si number density = 21.651430 Si / 1000 Ang^3
#
#
#
# Elastic Constant Matrix: (Units=GPa)
#
#
# Indices 1 2 3 4 5 6 
#
# 1 103.4559 21.5834 19.2345 0.0058 13.5525 0.0028
# 2 21.5834 79.2857 23.5550 0.0182 3.9148 0.0001
# 3 19.2345 23.5550 86.0110 -0.0015 13.8100 0.0024
# 4 0.0058 0.0182 -0.0015 14.8488 0.0008 4.2478
# 5 13.5525 3.9148 13.8100 0.0008 42.7410 0.0012
# 6 0.0028 0.0001 0.0024 4.2478 0.0012 28.5666
#
#
#
# Elastic Compliance Matrix: (Units=1/GPa)
#
#
# Indices 1 2 3 4 5 6 
#
# 1 0.010774 -0.002409 -0.001304 -0.000001 -0.002774 -0.000001
# 2 -0.002409 0.014268 -0.003461 -0.000018 0.000575 0.000003
# 3 -0.001304 -0.003461 0.013446 0.000007 -0.003614 -0.000002
# 4 -0.000001 -0.000018 0.000007 0.070338 -0.000001 -0.010459
# 5 -0.002774 0.000575 -0.003614 -0.000001 0.025391 0.000000
# 6 -0.000001 0.000003 -0.000002 -0.010459 0.000000 0.036561
#
#
# Mechanical properties :
#
#
# Convention : Reuss Voigt Hill
#
# Bulk Modulus (GPa) = 41.42417 44.16651 42.79534
# Shear Modulus (GPa) = 25.88338 30.85660 28.36999
#
# Velocity S-wave (km/s) = 3.46129 3.77922 3.62374
# Velocity P-wave (km/s) = 5.92856 6.28383 6.10878
#
# Compressibility (1/GPa) = 0.02414050
#
# Stress axis : x y z
#
# Youngs Moduli (GPa) = 92.81285 70.08609 74.36997
#
# Poissons Ratio (x) = 0.16880 0.09701
# Poissons Ratio (y) = 0.22354 0.25741
# Poissons Ratio (z) = 0.12107 0.24258
#
# Static dielectric constant tensor:
#      x y z
#    x 1.833520 -0.000020 -0.010820 
#    y -0.000020 1.768990 -0.000040 
#    z -0.010820 -0.000040 1.795990 
# 
# From -- ./inp_files/322744.got.cif
#   From: 2010.05.17/outbox.cif.g08.bks.cpg/sg12_162_cif.got.tgz:322744.got - 2010.06.03 13:09:07.
