data_PCOD9210651
_publ_section_title
;
Structure prediction by ZEFSAII (Michael W. Deem and Ramdas Pophale) SiO2 
 PCOD9210651
Probable space group: C 2/M
;
_chemical_formula_sum "Si O2"
_cell_formula_units_Z 64
_cell_length_a 12.292561
_cell_length_b 15.155566
_cell_length_c 26.974081
_cell_angle_alpha 90.000000
_cell_angle_beta 140.422508
_cell_angle_gamma 90.000000
_cell_volume 3201.719508
_symmetry_space_group_name_H-M "C 2/M"
_symmetry_group_IT_number 12
_symmetry_cell_setting 'monoclinic'
loop_
_space_group_symop_operation_xyz
x,y,z
-x,y,-z
-x,-y,-z
x,-y,z
1/2+x,1/2+y,z
1/2-x,1/2+y,-z
1/2-x,1/2-y,-z
1/2+x,1/2-y,z
loop_
_atom_site_type_symbol
_atom_site_label
_atom_site_fract_x
_atom_site_fract_y
_atom_site_fract_z
Si Si1 0.411288 0.787781 0.229742
Si Si2 0.354280 0.602609 0.517933
Si Si3 0.816053 0.638807 0.444180
Si Si4 0.323422 0.400619 0.785976
Si Si5 0.294210 0.604512 0.038919
Si Si6 0.196893 0.784134 0.056238
Si Si7 0.788484 0.830572 0.387566
Si Si8 0.972962 0.904304 0.729715
O O1 0.308756 0.832054 0.238463
O O2 0.315068 0.804794 0.144622
O O3 0.604194 0.825379 0.297429
O O4 0.414876 0.682179 0.238264
O O5 0.355755 0.500000 0.531008
O O6 0.233224 0.648149 0.515756
O O7 0.548687 0.638402 0.586790
O O8 0.288292 0.613670 0.438488
O O9 0.824380 0.732553 0.419783
O O10 0.660274 0.592529 0.361825
O O11 0.000000 0.596844 0.500000
O O12 0.256213 0.500000 0.768861
O O13 0.502810 0.393966 0.878246
O O14 0.369315 0.388689 0.744455
O O15 0.242436 0.500000 0.024984
O O16 0.219905 0.680458 0.049382
O O17 0.259614 0.649055 0.973375
O O18 0.000000 0.798127 0.000000
O O19 0.060142 0.000000 0.765484
#
# Coordination Sequence:
#
# PCOD9210651 Si02
#       8
#     8   8   8   8   8   8   8   8
#     4  11  23  38  65  95 122 165 213 261 309 376
#     4  11  23  42  63  90 128 166 210 267 322 373
#     4  11  23  39  65  92 123 164 217 263 315 376
#     4  10  21  39  63  90 123 162 206 255 313 373
#     4  10  22  41  64  91 127 163 199 256 318 372
#     4  11  22  40  65  93 125 161 212 256 306 378
#     4  10  23  40  64  88 126 169 211 253 321 382
#     4  10  23  41  60  88 126 165 205 259 322 371
#
# _framework density 19.989258
#
# number of rings (size 3 to 8) (size 9 to 14) (size 15 to 20)
#    0.000    1.500    3.750    1.500    1.750    6.000 
#    0.000    0.000    0.000    0.750    0.000    0.000 
#    0.000    0.000    0.000    0.000    0.000    0.000 
#
# Total GULP energy -178582.369303 kJ/mol
# GULP energy per Si atom -5580.699041 kJ/mol
# Density = 1.994376 g / cm^3
# Si number density = 19.989258 Si / 1000 Ang^3
#
#
#
# Elastic Constant Matrix: (Units=GPa)
#
#
# Indices 1 2 3 4 5 6 
#
# 1 60.0238 26.4102 31.6866 0.0000 -2.2584 0.0000
# 2 26.4102 91.8914 8.3348 0.0000 -7.5780 0.0000
# 3 31.6866 8.3348 97.8166 0.0000 8.0358 0.0000
# 4 0.0000 0.0000 0.0000 22.4118 0.0000 7.2772
# 5 -2.2584 -7.5780 8.0358 0.0000 15.9542 0.0000
# 6 0.0000 0.0000 0.0000 7.2772 0.0000 32.4682
#
#
#
# Elastic Compliance Matrix: (Units=1/GPa)
#
#
# Indices 1 2 3 4 5 6 
#
# 1 0.023208 -0.005643 -0.007393 0.000000 0.004329 0.000000
# 2 -0.005643 0.012904 0.000303 0.000000 0.005178 0.000000
# 3 -0.007393 0.000303 0.013213 0.000000 -0.007558 0.000000
# 4 0.000000 0.000000 0.000000 0.048122 0.000000 -0.010786
# 5 0.004329 0.005178 -0.007558 0.000000 0.069558 0.000000
# 6 0.000000 0.000000 0.000000 -0.010786 0.000000 0.033217
#
#
# Mechanical properties :
#
#
# Convention : Reuss Voigt Hill
#
# Bulk Modulus (GPa) = 41.91112 42.51057 42.21084
# Shear Modulus (GPa) = 21.40041 26.38685 23.89363
#
# Velocity S-wave (km/s) = 3.27555 3.63719 3.46110
# Velocity P-wave (km/s) = 5.94289 6.24114 6.09384
#
# Compressibility (1/GPa) = 0.02386002
#
# Stress axis : x y z
#
# Youngs Moduli (GPa) = 43.08786 77.49744 75.68233
#
# Poissons Ratio (x) = 0.43730 0.55951
# Poissons Ratio (y) = 0.24313 -0.02293
# Poissons Ratio (z) = 0.31854 -0.02348
#
# Static dielectric constant tensor:
#      x y z
#    x 1.698180 0.000000 -0.008880 
#    y 0.000000 1.747760 0.000000 
#    z -0.008880 0.000000 1.707300 
# 
# From -- ./inp_files/358459.got.cif
#   From: 2010.05.17/outbox.cif.g08.bks.cpg/sg12_180_cif.got.tgz:358459.got - 2010.06.03 13:09:07.
