data_PCOD9210861
_publ_section_title
;
Structure prediction by ZEFSAII (Michael W. Deem and Ramdas Pophale) SiO2 
 PCOD9210861
Probable space group: C 2/M
;
_chemical_formula_sum "Si O2"
_cell_formula_units_Z 64
_cell_length_a 20.073234
_cell_length_b 8.926503
_cell_length_c 33.964557
_cell_angle_alpha 90.000000
_cell_angle_beta 147.382988
_cell_angle_gamma 90.000000
_cell_volume 3280.426115
_symmetry_space_group_name_H-M "C 2/M"
_symmetry_group_IT_number 12
_symmetry_cell_setting 'monoclinic'
loop_
_space_group_symop_operation_xyz
x,y,z
-x,y,-z
-x,-y,-z
x,-y,z
1/2+x,1/2+y,z
1/2-x,1/2+y,-z
1/2-x,1/2-y,-z
1/2+x,1/2-y,z
loop_
_atom_site_type_symbol
_atom_site_label
_atom_site_fract_x
_atom_site_fract_y
_atom_site_fract_z
Si Si1 0.244944 0.178256 0.430428
Si Si2 0.382837 0.321074 0.056061
Si Si3 0.956414 0.178891 0.787913
Si Si4 0.010549 0.177640 0.417580
Si Si5 0.814572 0.676577 0.373689
Si Si6 0.517071 0.820843 0.677157
Si Si7 0.391902 0.176269 0.977763
Si Si8 0.856427 0.678296 0.179302
O O1 0.355371 0.246992 0.510941
O O2 0.282714 0.201502 0.403568
O O3 0.116004 0.257773 0.375604
O O4 0.233495 0.000000 0.431485
O O5 0.370061 0.500000 0.048085
O O6 0.479664 0.284227 0.138807
O O7 0.250000 0.250000 0.000000
O O8 0.422320 0.258542 0.033565
O O9 0.029467 0.265562 0.790328
O O10 0.811121 0.210086 0.712764
O O11 0.971423 0.000000 0.788512
O O12 0.951416 0.243133 0.348304
O O13 0.926126 0.227467 0.412182
O O14 0.022414 0.000000 0.421434
O O15 0.845334 0.500000 0.384302
O O16 0.612483 0.787399 0.759843
O O17 0.510577 0.000000 0.668961
O O18 0.265282 0.241666 0.897318
O O19 0.375431 0.000000 0.977427
O O20 0.500000 0.196664 0.000000
O O21 0.843009 0.500000 0.168408
#
# Coordination Sequence:
#
# PCOD9210861 Si02
#       8
#     8   8   8   8   8   8   8   8
#     4  11  22  40  67  93 122 163 207 254 308 371
#     4  11  22  37  63  95 125 162 204 253 306 363
#     4  10  21  39  64  92 124 161 203 253 307 369
#     4  12  26  41  60  89 127 166 206 258 310 364
#     4  10  22  41  64  91 123 163 206 253 311 370
#     4  11  24  42  64  92 125 161 206 256 309 372
#     4  11  25  43  63  90 128 169 208 254 307 365
#     4  11  23  39  65  94 122 159 203 257 310 367
#
# _framework density 19.509661000000001
#
# number of rings (size 3 to 8) (size 9 to 14) (size 15 to 20)
#    0.000    1.125    2.500    3.750    0.000    7.000 
#    0.000    3.750    0.000    0.000    0.000    0.000 
#    0.000    0.000    0.000    0.000    0.000    0.000 
#
# Total GULP energy -179031.693379 kJ/mol
# GULP energy per Si atom -5594.740418 kJ/mol
# Density = 1.946526 g / cm^3
# Si number density = 19.509661 Si / 1000 Ang^3
#
#
#
# Elastic Constant Matrix: (Units=GPa)
#
#
# Indices 1 2 3 4 5 6 
#
# 1 38.7071 21.9756 -0.3305 0.0000 -10.8796 0.0000
# 2 21.9756 49.4900 22.4149 -0.0001 -11.6557 -0.0002
# 3 -0.3305 22.4149 66.2694 0.0000 -17.6067 0.0000
# 4 0.0000 -0.0001 0.0000 18.4210 0.0000 -11.8787
# 5 -10.8796 -11.6557 -17.6067 0.0000 29.3252 0.0000
# 6 0.0000 -0.0002 0.0000 -11.8787 0.0000 16.9040
#
#
#
# Elastic Compliance Matrix: (Units=1/GPa)
#
#
# Indices 1 2 3 4 5 6 
#
# 1 0.040970 -0.019734 0.010510 0.000000 0.013666 0.000000
# 2 -0.019734 0.034142 -0.011882 0.000001 -0.000885 0.000001
# 3 0.010510 -0.011882 0.022537 0.000000 0.012708 0.000000
# 4 0.000000 0.000001 0.000000 0.099270 0.000000 0.069758
# 5 0.013666 -0.000885 0.012708 0.000000 0.046449 0.000000
# 6 0.000000 0.000001 0.000000 0.069758 0.000000 0.108178
#
#
# Mechanical properties :
#
#
# Convention : Reuss Voigt Hill
#
# Bulk Modulus (GPa) = 18.03806 26.95406 22.49606
# Shear Modulus (GPa) = 12.12899 20.29047 16.20973
#
# Velocity S-wave (km/s) = 2.49608 3.22844 2.88559
# Velocity P-wave (km/s) = 4.19202 5.26714 4.76003
#
# Compressibility (1/GPa) = 0.05543834
#
# Stress axis : x y z
#
# Youngs Moduli (GPa) = 24.40820 29.28965 44.37056
#
# Poissons Ratio (x) = 0.57800 -0.46634
# Poissons Ratio (y) = 0.48167 0.52719
# Poissons Ratio (z) = -0.25653 0.34801
#
# Static dielectric constant tensor:
#      x y z
#    x 1.666220 0.000000 -0.020170 
#    y 0.000000 1.648570 0.000000 
#    z -0.020170 0.000000 1.675640 
# 
# From -- ./inp_files/378377.got.cif
#   From: 2010.05.17/outbox.cif.g08.bks.cpg/sg12_190_cif.got.tgz:378377.got - 2010.06.03 13:09:07.
