data_PCOD9210399
_publ_section_title
;
Structure prediction by ZEFSAII (Michael W. Deem and Ramdas Pophale) SiO2 
 PCOD9210399
Probable space group: C 2/M
;
_chemical_formula_sum "Si O2"
_cell_formula_units_Z 56
_cell_length_a 19.024563
_cell_length_b 7.770489
_cell_length_c 16.463477
_cell_angle_alpha 90.000000
_cell_angle_beta 76.772767
_cell_angle_gamma 90.000000
_cell_volume 2369.230351
_symmetry_space_group_name_H-M "C 2/M"
_symmetry_group_IT_number 12
_symmetry_cell_setting 'monoclinic'
loop_
_space_group_symop_operation_xyz
x,y,z
-x,y,-z
-x,-y,-z
x,-y,z
1/2+x,1/2+y,z
1/2-x,1/2+y,-z
1/2-x,1/2-y,-z
1/2+x,1/2-y,z
loop_
_atom_site_type_symbol
_atom_site_label
_atom_site_fract_x
_atom_site_fract_y
_atom_site_fract_z
Si Si1 0.748689 0.699783 0.631695
Si Si2 0.703902 0.797937 0.820746
Si Si3 0.845361 0.709316 0.879213
Si Si4 0.083101 0.709967 0.970598
Si Si5 0.092003 0.802948 0.427276
Si Si6 0.532433 0.805656 0.275064
Si Si7 0.898051 0.797201 0.399768
O O1 0.761201 0.500000 0.606452
O O2 0.728125 0.706849 0.732094
O O3 0.821335 0.801429 0.596403
O O4 0.679998 0.773404 0.602039
O O5 0.768689 0.777375 0.868795
O O6 0.696207 0.000000 0.803958
O O7 0.629119 0.734467 0.880138
O O8 0.841842 0.500000 0.875508
O O9 0.870587 0.758774 0.962352
O O10 0.909226 0.770909 0.801785
O O11 0.081486 0.500000 0.969147
O O12 0.000000 0.767789 0.000000
O O13 0.068723 0.699872 0.354311
O O14 0.072293 0.732534 0.521610
O O15 0.065528 0.000000 0.423139
O O16 0.454518 0.725836 0.312221
O O17 0.519511 0.000000 0.250858
O O18 0.888539 0.000000 0.414949
#
# Coordination Sequence:
#
# PCOD9210399 Si02
#       7
#     8   8   8   8   8   8   8
#     4  11  23  40  61  87 122 159 198 249 305 356
#     4  11  22  37  63  91 117 158 203 243 291 354
#     4  10  21  39  62  87 121 159 195 244 294 346
#     4   9  20  38  62  91 121 153 194 243 293 349
#     4  11  22  40  63  87 117 156 204 252 300 356
#     4  11  23  37  60  91 122 160 201 244 297 358
#     4  10  24  41  59  85 121 161 199 251 307 353
#
# _framework density 23.636368999999998
#
# number of rings (size 3 to 8) (size 9 to 14) (size 15 to 20)
#    0.000    1.571    1.429    3.000    2.000    4.571 
#    0.000    0.714    0.000    2.143    0.000    0.000 
#    0.000    0.000    0.000    0.000    0.000    0.000 
#
# Total GULP energy -156622.472274 kJ/mol
# GULP energy per Si atom -5593.659724 kJ/mol
# Density = 2.358257 g / cm^3
# Si number density = 23.636369 Si / 1000 Ang^3
#
#
#
# Elastic Constant Matrix: (Units=GPa)
#
#
# Indices 1 2 3 4 5 6 
#
# 1 57.8591 -11.0834 6.3581 0.0000 -12.9119 0.0000
# 2 -11.0834 48.2613 -0.2337 0.0000 -3.0246 0.0000
# 3 6.3581 -0.2337 94.3276 0.0000 -25.3909 0.0000
# 4 0.0000 0.0000 0.0000 105.1267 0.0000 3.5203
# 5 -12.9119 -3.0246 -25.3909 0.0000 44.8737 0.0000
# 6 0.0000 0.0000 0.0000 3.5203 0.0000 16.1818
#
#
#
# Elastic Compliance Matrix: (Units=1/GPa)
#
#
# Indices 1 2 3 4 5 6 
#
# 1 0.019552 0.004878 0.000350 0.000000 0.006153 0.000000
# 2 0.004878 0.022046 0.000594 0.000000 0.003226 0.000000
# 3 0.000350 0.000594 0.012525 0.000000 0.007228 0.000000
# 4 0.000000 0.000000 0.000000 0.009582 0.000000 -0.002085
# 5 0.006153 0.003226 0.007228 0.000000 0.028362 0.000000
# 6 0.000000 0.000000 0.000000 -0.002085 0.000000 0.062251
#
#
# Mechanical properties :
#
#
# Convention : Reuss Voigt Hill
#
# Bulk Modulus (GPa) = 15.20520 21.17000 18.18760
# Shear Modulus (GPa) = 30.37729 46.93025 38.65377
#
# Velocity S-wave (km/s) = 3.58885 4.46074 4.04833
# Velocity P-wave (km/s) = 4.86004 5.95877 5.43723
#
# Compressibility (1/GPa) = 0.06576699
#
# Stress axis : x y z
#
# Youngs Moduli (GPa) = 51.14485 45.36031 79.84194
#
# Poissons Ratio (x) = -0.22125 -0.02798
# Poissons Ratio (y) = -0.24946 -0.04743
# Poissons Ratio (z) = -0.01792 -0.02695
#
# Static dielectric constant tensor:
#      x y z
#    x 1.898390 0.000000 0.002190 
#    y 0.000000 1.871110 0.000000 
#    z 0.002190 0.000000 1.887910 
# 
# From -- ./inp_files/275121.got.cif
#   From: 2010.05.17/outbox.cif.g08.bks.cpg/sg12_138_cif.got.tgz:275121.got - 2010.06.03 13:09:07.
