data_PCOD9210618
_publ_section_title
;
Structure prediction by ZEFSAII (Michael W. Deem and Ramdas Pophale) SiO2 
 PCOD9210618
Probable space group: C 2/M
;
_chemical_formula_sum "Si O2"
_cell_formula_units_Z 36
_cell_length_a 16.681750
_cell_length_b 7.474761
_cell_length_c 12.242610
_cell_angle_alpha 90.000000
_cell_angle_beta 105.790206
_cell_angle_gamma 90.000000
_cell_volume 1468.951335
_symmetry_space_group_name_H-M "C 2/M"
_symmetry_group_IT_number 12
_symmetry_cell_setting 'monoclinic'
loop_
_space_group_symop_operation_xyz
x,y,z
-x,y,-z
-x,-y,-z
x,-y,z
1/2+x,1/2+y,z
1/2-x,1/2+y,-z
1/2-x,1/2-y,-z
1/2+x,1/2-y,z
loop_
_atom_site_type_symbol
_atom_site_label
_atom_site_fract_x
_atom_site_fract_y
_atom_site_fract_z
Si Si1 0.797119 0.282468 0.292190
Si Si2 0.155636 0.285771 0.926275
Si Si3 0.585277 0.783805 0.474132
Si Si4 0.500000 0.750374 0.000000
Si Si5 0.392723 0.289555 0.770134
O O1 0.795607 0.500000 0.293050
O O2 0.847663 0.232372 0.202289
O O3 0.839450 0.222231 0.419998
O O4 0.701634 0.225802 0.246443
O O5 0.140769 0.500000 0.930937
O O6 0.086843 0.190046 0.974449
O O7 0.250000 0.250000 0.000000
O O8 0.500000 0.726919 0.500000
O O9 0.590184 0.724850 0.351706
O O10 0.586620 0.000000 0.473705
O O11 0.456462 0.813446 0.871182
O O12 0.400908 0.500000 0.802434
#
# Coordination Sequence:
#
# PCOD9210618 Si02
#       5
#     8   8   8   4   8
#     4   9  19  39  62  87 124 165 207 260 322 381
#     4  11  23  42  66  95 131 171 216 267 320 382
#     4  10  21  39  63  89 121 162 210 265 325 384
#     4  12  24  40  66  96 132 174 220 262 318 384
#     4  11  23  39  62  90 125 169 215 265 320 379
#
# _framework density 24.507276999999998
#
# number of rings (size 3 to 8) (size 9 to 14) (size 15 to 20)
#    0.000    1.556    2.222    2.667    0.000    4.889 
#    0.000    1.111    0.000    0.000    0.000    0.000 
#    0.000    0.000    0.000    0.000    0.000    0.000 
#
# Total GULP energy -100507.193196 kJ/mol
# GULP energy per Si atom -5583.732955 kJ/mol
# Density = 2.445150 g / cm^3
# Si number density = 24.507277 Si / 1000 Ang^3
#
#
#
# Elastic Constant Matrix: (Units=GPa)
#
#
# Indices 1 2 3 4 5 6 
#
# 1 185.7129 24.6989 85.1171 0.0000 -7.3395 0.0000
# 2 24.6989 109.6452 25.1552 0.0000 2.6576 0.0000
# 3 85.1171 25.1552 240.2873 0.0000 -1.9584 0.0000
# 4 0.0000 0.0000 0.0000 -31.6569 0.0000 21.0106
# 5 -7.3395 2.6576 -1.9584 0.0000 63.5313 0.0000
# 6 0.0000 0.0000 0.0000 21.0106 0.0000 -44.9328
#
#
#
# Elastic Compliance Matrix: (Units=1/GPa)
#
#
# Indices 1 2 3 4 5 6 
#
# 1 0.006560 -0.000987 -0.002214 0.000000 0.000731 0.000000
# 2 -0.000987 0.009505 -0.000650 0.000000 -0.000532 0.000000
# 3 -0.002214 -0.000650 0.005013 0.000000 -0.000074 0.000000
# 4 0.000000 0.000000 0.000000 -0.045804 0.000000 -0.021418
# 5 0.000731 -0.000532 -0.000074 0.000000 0.015845 0.000000
# 6 0.000000 0.000000 0.000000 -0.021418 0.000000 -0.032270
#
#
# Mechanical properties :
#
#
# Convention : Reuss Voigt Hill
#
# Bulk Modulus (GPa) = 74.76484 89.50978 82.13731
# Shear Modulus (GPa) = -172.46986 24.09995 -74.18496
#
# Velocity S-wave (km/s) = -8.39808 3.13929 -5.50784
# Velocity P-wave (km/s) = 7.96640 7.05289 2.61919
#
# Compressibility (1/GPa) = 0.01337527
#
# Stress axis : x y z
#
# Youngs Moduli (GPa) = 152.44499 105.21157 199.46247
#
# Poissons Ratio (x) = 0.10388 0.44168
# Poissons Ratio (y) = 0.15052 0.12957
# Poissons Ratio (z) = 0.33757 0.06835
#
# Static dielectric constant tensor:
#      x y z
#    x 1.890020 0.000000 0.012160 
#    y 0.000000 2.010870 0.000000 
#    z 0.012160 0.000000 1.897380 
# 
# From -- ./inp_files/151551.got.cif
#   From: 2010.05.17/outbox.cif.g08.bks.cpg/sg12_76_cif.got.tgz:151551.got - 2010.06.03 13:09:07.
