data_PCOD9210853
_publ_section_title
;
Structure prediction by ZEFSAII (Michael W. Deem and Ramdas Pophale) SiO2 
 PCOD9210853
Probable space group: C 2/M
;
_chemical_formula_sum "Si O2"
_cell_formula_units_Z 28
_cell_length_a 13.434104
_cell_length_b 10.680271
_cell_length_c 11.168713
_cell_angle_alpha 90.000000
_cell_angle_beta 47.220463
_cell_angle_gamma 90.000000
_cell_volume 1176.180257
_symmetry_space_group_name_H-M "C 2/M"
_symmetry_group_IT_number 12
_symmetry_cell_setting 'monoclinic'
loop_
_space_group_symop_operation_xyz
x,y,z
-x,y,-z
-x,-y,-z
x,-y,z
1/2+x,1/2+y,z
1/2-x,1/2+y,-z
1/2-x,1/2-y,-z
1/2+x,1/2-y,z
loop_
_atom_site_type_symbol
_atom_site_label
_atom_site_fract_x
_atom_site_fract_y
_atom_site_fract_z
Si Si1 0.274238 0.359236 0.202448
Si Si2 0.402632 0.136733 0.963836
Si Si3 0.901628 0.212233 0.338873
Si Si4 0.000000 0.772682 0.500000
O O1 0.271490 0.500000 0.159687
O O2 0.998890 0.329011 0.226373
O O3 0.379721 0.354660 0.228891
O O4 0.311987 0.255970 0.072459
O O5 0.336667 0.000000 0.005142
O O6 0.500000 0.127208 0.000000
O O7 0.750000 0.250000 0.500000
O O8 0.629998 0.185425 0.371044
O O9 0.967480 0.153054 0.403989
#
# Coordination Sequence:
#
# PCOD9210853 Si02
#       4
#     8   8   8   4
#     4  10  21  39  64  92 121 157 206 259 306 359
#     4   9  19  37  60  87 123 164 201 246 309 370
#     4   9  20  37  59  88 123 158 200 250 304 362
#     4  10  21  40  61  90 125 164 203 250 311 372
#
# _framework density 23.805873999999999
#
# number of rings (size 3 to 8) (size 9 to 14) (size 15 to 20)
#    0.000    2.571    0.000    0.429    0.000   12.000 
#    0.000   10.000    0.000    0.000    0.000    0.000 
#    0.000    0.000    0.000    0.000    0.000    0.000 
#
# Total GULP energy -78080.948181 kJ/mol
# GULP energy per Si atom -5577.210584 kJ/mol
# Density = 2.375169 g / cm^3
# Si number density = 23.805874 Si / 1000 Ang^3
#
#
#
# Elastic Constant Matrix: (Units=GPa)
#
#
# Indices 1 2 3 4 5 6 
#
# 1 119.0686 25.6675 45.0422 0.0000 41.0188 0.0000
# 2 25.6675 192.0411 67.4593 0.0000 -22.4519 0.0000
# 3 45.0422 67.4593 127.3658 0.0000 9.4336 0.0000
# 4 0.0000 0.0000 0.0000 2.5925 0.0000 -8.2173
# 5 41.0188 -22.4519 9.4336 0.0000 74.1228 0.0000
# 6 0.0000 0.0000 0.0000 -8.2173 0.0000 -10.1593
#
#
#
# Elastic Compliance Matrix: (Units=1/GPa)
#
#
# Indices 1 2 3 4 5 6 
#
# 1 0.012185 -0.001326 -0.003107 0.000000 -0.006749 0.000000
# 2 -0.001326 0.006991 -0.003478 0.000000 0.003294 0.000000
# 3 -0.003107 -0.003478 0.010845 0.000000 -0.000715 0.000000
# 4 0.000000 0.000000 0.000000 0.108237 0.000000 -0.087547
# 5 -0.006749 0.003294 -0.000715 0.000000 0.018315 0.000000
# 6 0.000000 0.000000 0.000000 -0.087547 0.000000 -0.027620
#
#
# Mechanical properties :
#
#
# Convention : Reuss Voigt Hill
#
# Bulk Modulus (GPa) = 70.42597 79.42371 74.92484
# Shear Modulus (GPa) = 33.44300 33.33164 33.38732
#
# Velocity S-wave (km/s) = 3.75216 3.74591 3.74904
# Velocity P-wave (km/s) = 6.95840 7.22112 7.09098
#
# Compressibility (1/GPa) = 0.01419931
#
# Stress axis : x y z
#
# Youngs Moduli (GPa) = 82.06966 143.03414 92.20791
#
# Poissons Ratio (x) = 0.18971 0.28646
# Poissons Ratio (y) = 0.10885 0.32069
# Poissons Ratio (z) = 0.25496 0.49746
#
# Static dielectric constant tensor:
#      x y z
#    x 1.965270 0.000000 0.062430 
#    y 0.000000 1.865280 0.000000 
#    z 0.062430 0.000000 1.932490 
# 
# From -- ./inp_files/126832.got.cif
#   From: 2010.05.17/outbox.cif.g08.bks.cpg/sg12_64_cif.got.tgz:126832.got - 2010.06.03 13:09:07.
