data_PCOD9210533
_publ_section_title
;
Structure prediction by ZEFSAII (Michael W. Deem and Ramdas Pophale) SiO2 
 PCOD9210533
Probable space group: C 2/M
;
_chemical_formula_sum "Si O2"
_cell_formula_units_Z 42
_cell_length_a 13.386516
_cell_length_b 26.473002
_cell_length_c 5.134472
_cell_angle_alpha 90.000000
_cell_angle_beta 105.785126
_cell_angle_gamma 90.000000
_cell_volume 1750.942583
_symmetry_space_group_name_H-M "C 2/M"
_symmetry_group_IT_number 12
_symmetry_cell_setting 'monoclinic'
loop_
_space_group_symop_operation_xyz
x,y,z
-x,y,-z
-x,-y,-z
x,-y,z
1/2+x,1/2+y,z
1/2-x,1/2+y,-z
1/2-x,1/2-y,-z
1/2+x,1/2-y,z
loop_
_atom_site_type_symbol
_atom_site_label
_atom_site_fract_x
_atom_site_fract_y
_atom_site_fract_z
Si Si1 0.170564 0.123533 0.205947
Si Si2 0.500000 0.000000 0.500000
Si Si3 0.605869 0.930166 0.212193
Si Si4 0.664084 0.443102 0.717539
Si Si5 0.432018 0.271413 0.708269
Si Si6 0.617953 0.832905 0.481426
O O1 0.153354 0.084371 0.431442
O O2 0.115929 0.176260 0.231869
O O3 0.291908 0.141094 0.283451
O O4 0.131112 0.095661 0.919419
O O5 0.585807 0.955933 0.477458
O O6 0.711302 0.948061 0.161091
O O7 0.613780 0.870336 0.233990
O O8 0.500000 0.946737 0.000000
O O9 0.620262 0.500000 0.698567
O O10 0.500000 0.281814 0.500000
O O11 0.358597 0.224620 0.576747
O O12 0.500000 0.252032 0.000000
O O13 0.500000 0.833215 0.500000
#
# Coordination Sequence:
#
# PCOD9210533 Si02
#       6
#     8   2   8   8   8   8
#     4  11  24  42  66  96 129 169 212 269 321 383
#     4  12  22  32  52  82 132 176 222 246 288 360
#     4  11  22  33  54  84 127 175 213 248 296 368
#     4  11  24  39  63  91 130 168 214 261 321 383
#     4  11  24  44  70  93 124 166 217 275 332 382
#     4  10  21  39  62  94 133 168 212 252 311 381
#
# _framework density 23.987078
#
# number of rings (size 3 to 8) (size 9 to 14) (size 15 to 20)
#    0.000    1.143    1.905    4.286    2.667    4.571 
#    0.000    9.524    0.000   11.429    0.000    0.000 
#    0.000    0.000    0.000    0.000    0.000    0.000 
#
# Total GULP energy -117090.797420 kJ/mol
# GULP energy per Si atom -5575.752258 kJ/mol
# Density = 2.393248 g / cm^3
# Si number density = 23.987078 Si / 1000 Ang^3
#
#
#
# Elastic Constant Matrix: (Units=GPa)
#
#
# Indices 1 2 3 4 5 6 
#
# 1 43.8735 47.7607 27.9235 0.0000 -10.7930 0.0000
# 2 47.7607 201.2095 3.5772 0.0000 -23.2504 0.0000
# 3 27.9235 3.5772 62.0325 0.0000 -22.0721 0.0000
# 4 0.0000 0.0000 0.0000 341.0930 0.0000 -314.9186
# 5 -10.7930 -23.2504 -22.0721 0.0000 31.6770 0.0000
# 6 0.0000 0.0000 0.0000 -314.9186 0.0000 302.7685
#
#
#
# Elastic Compliance Matrix: (Units=1/GPa)
#
#
# Indices 1 2 3 4 5 6 
#
# 1 0.050280 -0.012619 -0.025404 0.000000 -0.009832 0.000000
# 2 -0.012619 0.008700 0.007873 0.000000 0.007572 0.000000
# 3 -0.025404 0.007873 0.034675 0.000000 0.021284 0.000000
# 4 0.000000 0.000000 0.000000 0.073873 0.000000 0.076838
# 5 -0.009832 0.007572 0.021284 0.000000 0.048607 0.000000
# 6 0.000000 0.000000 0.000000 0.076838 0.000000 0.083224
#
#
# Mechanical properties :
#
#
# Convention : Reuss Voigt Hill
#
# Bulk Modulus (GPa) = 29.98027 51.73762 40.85895
# Shear Modulus (GPa) = 13.48515 150.29796 81.89156
#
# Velocity S-wave (km/s) = 2.37361 7.92426 5.84927
# Velocity P-wave (km/s) = 4.47635 10.26358 7.91766
#
# Compressibility (1/GPa) = 0.03335527
#
# Stress axis : x y z
#
# Youngs Moduli (GPa) = 19.88867 114.93747 28.83901
#
# Poissons Ratio (x) = 1.45043 0.73262
# Poissons Ratio (y) = 0.25098 -0.22705
# Poissons Ratio (z) = 0.50525 -0.90491
#
# Static dielectric constant tensor:
#      x y z
#    x 1.956300 0.000000 0.022380 
#    y 0.000000 1.934430 0.000000 
#    z 0.022380 0.000000 2.057120 
# 
# From -- ./inp_files/12208.got.cif
#   From: 2010.05.17/outbox.cif.g08.bks.cpg/sg12_7_cif.got.tgz:12208.got - 2010.06.03 13:09:07.
