data_PCOD9210509
_publ_section_title
;
Structure prediction by ZEFSAII (Michael W. Deem and Ramdas Pophale) SiO2 
 PCOD9210509
Probable space group: C 2/M
;
_chemical_formula_sum "Si O2"
_cell_formula_units_Z 52
_cell_length_a 17.412972
_cell_length_b 14.936412
_cell_length_c 18.975961
_cell_angle_alpha 90.000000
_cell_angle_beta 35.567542
_cell_angle_gamma 90.000000
_cell_volume 2870.739921
_symmetry_space_group_name_H-M "C 2/M"
_symmetry_group_IT_number 12
_symmetry_cell_setting 'monoclinic'
loop_
_space_group_symop_operation_xyz
x,y,z
-x,y,-z
-x,-y,-z
x,-y,z
1/2+x,1/2+y,z
1/2-x,1/2+y,-z
1/2-x,1/2-y,-z
1/2+x,1/2-y,z
loop_
_atom_site_type_symbol
_atom_site_label
_atom_site_fract_x
_atom_site_fract_y
_atom_site_fract_z
Si Si1 0.156035 0.326168 0.882916
Si Si2 0.417904 0.500000 0.331248
Si Si3 0.432235 0.104553 0.695681
Si Si4 0.848542 0.731467 0.631135
Si Si5 0.128870 0.000000 0.064647
Si Si6 0.703542 0.500000 0.162634
Si Si7 0.227831 0.665915 0.465298
Si Si8 0.265832 0.688503 0.057549
O O1 0.240477 0.293990 0.751411
O O2 0.233099 0.412529 0.852738
O O3 0.169048 0.248082 0.930859
O O4 0.000000 0.346864 0.000000
O O5 0.482405 0.500000 0.205357
O O6 0.544727 0.500000 0.287770
O O7 0.336697 0.590671 0.398432
O O8 0.377920 0.151138 0.664862
O O9 0.587809 0.118496 0.582112
O O10 0.373145 0.157265 0.806342
O O11 0.397153 0.000000 0.724006
O O12 0.782677 0.698805 0.607748
O O13 0.000000 0.766524 0.500000
O O14 0.222916 0.000000 0.063757
O O15 0.156012 0.095256 0.009341
O O16 0.250000 0.750000 0.500000
O O17 0.250000 0.750000 0.000000
#
# Coordination Sequence:
#
# PCOD9210509 Si02
#       8
#     8   4   8   8   4   4   8   8
#     4  11  24  41  66  92 124 165 219 261 308 373
#     4  10  24  38  62  94 126 159 205 256 324 357
#     4  10  21  39  62  92 124 164 208 259 314 367
#     4   9  23  40  63  88 128 165 201 257 330 367
#     4  10  22  36  61  90 122 167 200 247 316 371
#     4  10  23  42  62  86 130 170 206 255 321 366
#     4  11  24  40  64  91 124 161 216 257 303 381
#     4  11  21  39  63  91 129 164 205 257 318 373
#
# _framework density 18.113796000000001
#
# number of rings (size 3 to 8) (size 9 to 14) (size 15 to 20)
#    0.462    1.231    3.077    0.231   11.846    0.923 
#    0.000    1.538    0.000    0.000    0.000    0.000 
#    0.000    0.000    0.000    0.000    0.000    0.000 
#
# Total GULP energy -144818.586165 kJ/mol
# GULP energy per Si atom -5569.945622 kJ/mol
# Density = 1.807257 g / cm^3
# Si number density = 18.113796 Si / 1000 Ang^3
#
#
#
# Elastic Constant Matrix: (Units=GPa)
#
#
# Indices 1 2 3 4 5 6 
#
# 1 84.9214 64.6952 62.1723 0.0000 -5.8111 0.0000
# 2 64.6952 146.9340 65.3753 0.0000 -4.2497 0.0000
# 3 62.1723 65.3753 116.5317 0.0000 -6.3427 0.0000
# 4 0.0000 0.0000 0.0000 27.9310 0.0000 -6.6139
# 5 -5.8111 -4.2497 -6.3427 0.0000 35.3559 0.0000
# 6 0.0000 0.0000 0.0000 -6.6139 0.0000 24.2757
#
#
#
# Elastic Compliance Matrix: (Units=1/GPa)
#
#
# Indices 1 2 3 4 5 6 
#
# 1 0.022965 -0.006201 -0.008693 0.000000 0.001470 0.000000
# 2 -0.006201 0.010745 -0.002732 0.000000 -0.000218 0.000000
# 3 -0.008693 -0.002732 0.014801 0.000000 0.000898 0.000000
# 4 0.000000 0.000000 0.000000 0.038272 0.000000 0.010427
# 5 0.001470 -0.000218 0.000898 0.000000 0.028660 0.000000
# 6 0.000000 0.000000 0.000000 0.010427 0.000000 0.044034
#
#
# Mechanical properties :
#
#
# Convention : Reuss Voigt Hill
#
# Bulk Modulus (GPa) = 75.42198 81.43030 78.42614
# Shear Modulus (GPa) = 25.10687 27.92215 26.51451
#
# Velocity S-wave (km/s) = 3.72703 3.93043 3.83008
# Velocity P-wave (km/s) = 7.76204 8.10248 7.93409
#
# Compressibility (1/GPa) = 0.01325873
#
# Stress axis : x y z
#
# Youngs Moduli (GPa) = 43.54488 93.06533 67.56357
#
# Poissons Ratio (x) = 0.57709 0.58736
# Poissons Ratio (y) = 0.27002 0.18456
# Poissons Ratio (z) = 0.37856 0.25422
#
# Static dielectric constant tensor:
#      x y z
#    x 1.601890 0.000000 0.008190 
#    y 0.000000 1.620840 0.000000 
#    z 0.008190 0.000000 1.687110 
# 
# From -- ./inp_files/316502.got.cif
#   From: 2010.05.17/outbox.cif.g08.bks.cpg/sg12_159_cif.got.tgz:316502.got - 2010.06.03 13:09:07.
