data_PCOD9210795
_publ_section_title
;
Structure prediction by ZEFSAII (Michael W. Deem and Ramdas Pophale) SiO2 
 PCOD9210795
Probable space group: C 2/M
;
_chemical_formula_sum "Si O2"
_cell_formula_units_Z 58
_cell_length_a 18.012658
_cell_length_b 15.017581
_cell_length_c 22.659354
_cell_angle_alpha 90.000000
_cell_angle_beta 148.600883
_cell_angle_gamma 90.000000
_cell_volume 3193.449830
_symmetry_space_group_name_H-M "C 2/M"
_symmetry_group_IT_number 12
_symmetry_cell_setting 'monoclinic'
loop_
_space_group_symop_operation_xyz
x,y,z
-x,y,-z
-x,-y,-z
x,-y,z
1/2+x,1/2+y,z
1/2-x,1/2+y,-z
1/2-x,1/2-y,-z
1/2+x,1/2-y,z
loop_
_atom_site_type_symbol
_atom_site_label
_atom_site_fract_x
_atom_site_fract_y
_atom_site_fract_z
Si Si1 0.080589 0.731367 0.179306
Si Si2 0.000000 0.000000 0.000000
Si Si3 0.674001 0.249019 0.739996
Si Si4 0.645641 0.401004 0.304692
Si Si5 0.530903 0.100438 0.450980
Si Si6 0.863765 0.899990 0.190186
Si Si7 0.646831 0.661506 0.038405
Si Si8 0.844746 0.393672 0.063066
O O1 0.226763 0.711199 0.244541
O O2 0.115255 0.819745 0.240525
O O3 0.996697 0.656083 0.159293
O O4 0.962108 0.760665 0.051615
O O5 0.054137 0.923669 0.990226
O O6 0.551265 0.183852 0.632522
O O7 0.632877 0.328764 0.755632
O O8 0.767064 0.184723 0.844659
O O9 0.647797 0.500000 0.277007
O O10 0.799083 0.390333 0.439168
O O11 0.517442 0.400798 0.263713
O O12 0.500000 0.101452 0.500000
O O13 0.488441 0.000000 0.400642
O O14 0.830730 0.000000 0.189245
O O15 0.751212 0.879644 0.061135
O O16 0.754116 0.644774 0.056499
O O17 0.861826 0.500000 0.081997
#
# Coordination Sequence:
#
# PCOD9210795 Si02
#       8
#     8   2   8   8   8   8   8   8
#     4  12  22  36  59  88 121 155 201 245 291 360
#     4  12  24  32  56  88 128 150 188 246 314 362
#     4  12  24  37  60  89 124 152 198 255 299 345
#     4  10  21  39  64  88 113 156 203 241 296 365
#     4  10  22  40  62  89 119 154 195 245 308 371
#     4  10  22  40  61  85 117 164 205 246 288 352
#     4  12  23  37  55  92 124 154 192 247 309 363
#     4  11  23  39  59  83 125 170 203 233 291 367
#
# _framework density 18.162177
#
# number of rings (size 3 to 8) (size 9 to 14) (size 15 to 20)
#    0.000    0.966    6.207    1.241    1.931    1.103 
#    0.000    1.379    0.000    1.241    0.000    0.000 
#    0.000    0.000    0.000    0.000    0.000    0.000 
#
# Total GULP energy -161546.895670 kJ/mol
# GULP energy per Si atom -5570.582609 kJ/mol
# Density = 1.812084 g / cm^3
# Si number density = 18.162177 Si / 1000 Ang^3
#
#
#
# Elastic Constant Matrix: (Units=GPa)
#
#
# Indices 1 2 3 4 5 6 
#
# 1 78.9708 33.6501 21.6513 -0.0046 10.2808 0.0023
# 2 33.6501 64.6386 28.3916 -0.0154 5.5361 0.0082
# 3 21.6513 28.3916 64.7795 -0.0160 12.5843 0.0090
# 4 -0.0046 -0.0154 -0.0160 -431.4012 -0.0016 283.1137
# 5 10.2808 5.5361 12.5843 -0.0016 20.5635 0.0011
# 6 0.0023 0.0082 0.0090 283.1137 0.0011 -117.8141
#
#
#
# Elastic Compliance Matrix: (Units=1/GPa)
#
#
# Indices 1 2 3 4 5 6 
#
# 1 0.017088 -0.007908 -0.001134 0.000000 -0.005720 0.000000
# 2 -0.007908 0.022818 -0.007868 0.000000 0.002625 0.000000
# 3 -0.001134 -0.007868 0.021272 0.000000 -0.010332 0.000000
# 4 0.000000 0.000000 0.000000 0.004017 0.000000 0.009653
# 5 -0.005720 0.002625 -0.010332 0.000000 0.057106 0.000000
# 6 0.000000 0.000000 0.000000 0.009653 0.000000 0.014709
#
#
# Mechanical properties :
#
#
# Convention : Reuss Voigt Hill
#
# Bulk Modulus (GPa) = 36.55197 41.75276 39.15236
# Shear Modulus (GPa) = 27.78554 -97.41729 -34.81587
#
# Velocity S-wave (km/s) = 3.91558 -7.33170 -4.38304
# Velocity P-wave (km/s) = 6.37271 6.97374 2.00271
#
# Compressibility (1/GPa) = 0.02735831
#
# Stress axis : x y z
#
# Youngs Moduli (GPa) = 58.52011 43.82454 47.01103
#
# Poissons Ratio (x) = 0.34655 0.05333
# Poissons Ratio (y) = 0.46276 0.36987
# Poissons Ratio (z) = 0.06638 0.34480
#
# Static dielectric constant tensor:
#      x y z
#    x 1.636920 0.000000 0.017600 
#    y 0.000000 1.641130 0.000000 
#    z 0.017600 0.000000 1.622030 
# 
# From -- ./inp_files/156103.got.cif
#   From: 2010.05.17/outbox.cif.g08.bks.cpg/sg12_79_cif.got.tgz:156103.got - 2010.06.03 13:09:07.
