data_PCOD9210954
_publ_section_title
;
Structure prediction by ZEFSAII (Michael W. Deem and Ramdas Pophale) SiO2 
 PCOD9210954
Probable space group: C 2/M
;
_chemical_formula_sum "Si O2"
_cell_formula_units_Z 64
_cell_length_a 11.052698
_cell_length_b 17.822396
_cell_length_c 19.907793
_cell_angle_alpha 90.000000
_cell_angle_beta 59.547860
_cell_angle_gamma 90.000000
_cell_volume 3380.581286
_symmetry_space_group_name_H-M "C 2/M"
_symmetry_group_IT_number 12
_symmetry_cell_setting 'monoclinic'
loop_
_space_group_symop_operation_xyz
x,y,z
-x,y,-z
-x,-y,-z
x,-y,z
1/2+x,1/2+y,z
1/2-x,1/2+y,-z
1/2-x,1/2-y,-z
1/2+x,1/2-y,z
loop_
_atom_site_type_symbol
_atom_site_label
_atom_site_fract_x
_atom_site_fract_y
_atom_site_fract_z
Si Si1 0.226587 0.306195 0.928111
Si Si2 0.615907 0.740432 0.413885
Si Si3 0.071752 0.195681 0.652632
Si Si4 0.128414 0.859015 0.918074
Si Si5 0.624308 0.082148 0.070470
Si Si6 0.099129 0.914794 0.369741
Si Si7 0.039249 0.792484 0.816478
Si Si8 0.172948 0.368314 0.803179
O O1 0.150491 0.228733 0.931674
O O2 0.387963 0.283266 0.894647
O O3 0.230631 0.358835 0.861863
O O4 0.154507 0.353873 0.006736
O O5 0.500000 0.765268 0.500000
O O6 0.766714 0.777665 0.386502
O O7 0.463417 0.746348 0.637202
O O8 0.635550 0.649788 0.413500
O O9 0.020223 0.190942 0.743640
O O10 0.044725 0.115949 0.623813
O O11 0.263049 0.904144 0.903168
O O12 0.107784 0.856086 0.843958
O O13 0.000000 0.886807 0.000000
O O14 0.472671 0.089241 0.146052
O O15 0.642056 0.000000 0.034482
O O16 0.219059 0.904524 0.278771
O O17 0.092268 0.000000 0.394364
O O18 0.129903 0.716183 0.792813
#
# Coordination Sequence:
#
# PCOD9210954 Si02
#       8
#     8   8   8   8   8   8   8   8
#     4  11  20  37  57  78 103 147 196 249 298 343
#     4  10  21  39  69  99 128 162 205 252 300 367
#     4  10  21  39  64  99 124 161 207 254 301 368
#     4  11  22  36  56  76 104 143 201 247 297 349
#     4  12  25  37  51  76 113 152 196 254 308 355
#     4  10  22  37  61  92 128 164 198 245 308 370
#     4  11  19  37  61  85 105 152 198 252 287 355
#     4  11  21  36  59  81 114 149 201 249 299 352
#
# _framework density 18.931654999999999
#
# number of rings (size 3 to 8) (size 9 to 14) (size 15 to 20)
#    0.750    0.500    5.000    3.000    1.750    2.000 
#    0.000    0.625    0.000    1.125    0.000    0.000 
#    0.000    0.000    0.000    0.000    0.000    0.000 
#
# Total GULP energy -178275.071899 kJ/mol
# GULP energy per Si atom -5571.095997 kJ/mol
# Density = 1.888857 g / cm^3
# Si number density = 18.931655 Si / 1000 Ang^3
#
#
#
# Elastic Constant Matrix: (Units=GPa)
#
#
# Indices 1 2 3 4 5 6 
#
# 1 103.4407 15.9053 35.1735 0.0000 -19.3336 0.0000
# 2 15.9053 50.3007 13.3426 0.0000 -16.6345 0.0000
# 3 35.1735 13.3426 66.5821 0.0000 -16.0460 0.0000
# 4 0.0000 0.0000 0.0000 0.4669 0.0000 14.5777
# 5 -19.3336 -16.6345 -16.0460 0.0000 33.7726 0.0000
# 6 0.0000 0.0000 0.0000 14.5777 0.0000 -12.6016
#
#
#
# Elastic Compliance Matrix: (Units=1/GPa)
#
#
# Indices 1 2 3 4 5 6 
#
# 1 0.012417 -0.001189 -0.005363 0.000000 0.003974 0.000000
# 2 -0.001189 0.024149 -0.001704 0.000000 0.010404 0.000000
# 3 -0.005363 -0.001704 0.019482 0.000000 0.005347 0.000000
# 4 0.000000 0.000000 0.000000 0.057701 0.000000 0.066750
# 5 0.003974 0.010404 0.005347 0.000000 0.039550 0.000000
# 6 0.000000 0.000000 0.000000 0.066750 0.000000 -0.002138
#
#
# Mechanical properties :
#
#
# Convention : Reuss Voigt Hill
#
# Bulk Modulus (GPa) = 25.29369 38.79625 32.04497
# Shear Modulus (GPa) = 27.64682 14.72105 21.18393
#
# Velocity S-wave (km/s) = 3.82560 2.79155 3.34873
# Velocity P-wave (km/s) = 5.73612 5.56126 5.64937
#
# Compressibility (1/GPa) = 0.03953555
#
# Stress axis : x y z
#
# Youngs Moduli (GPa) = 80.53632 41.40940 51.32843
#
# Poissons Ratio (x) = 0.04925 0.27529
# Poissons Ratio (y) = 0.09578 0.08745
# Poissons Ratio (z) = 0.43194 0.07055
#
# Static dielectric constant tensor:
#      x y z
#    x 1.731890 0.000000 0.009070 
#    y 0.000000 1.661210 0.000000 
#    z 0.009070 0.000000 1.678540 
# 
# From -- ./inp_files/306178.got.cif
#   From: 2010.05.17/outbox.cif.g08.bks.cpg/sg12_154_cif.got.tgz:306178.got - 2010.06.03 13:09:07.
