data_PCOD9210488
_publ_section_title
;
Structure prediction by ZEFSAII (Michael W. Deem and Ramdas Pophale) SiO2 
 PCOD9210488
Probable space group: C 2/M
;
_chemical_formula_sum "Si O2"
_cell_formula_units_Z 40
_cell_length_a 14.204598
_cell_length_b 10.693586
_cell_length_c 13.206220
_cell_angle_alpha 90.000000
_cell_angle_beta 114.882145
_cell_angle_gamma 90.000000
_cell_volume 1819.793041
_symmetry_space_group_name_H-M "C 2/M"
_symmetry_group_IT_number 12
_symmetry_cell_setting 'monoclinic'
loop_
_space_group_symop_operation_xyz
x,y,z
-x,y,-z
-x,-y,-z
x,-y,z
1/2+x,1/2+y,z
1/2-x,1/2+y,-z
1/2-x,1/2-y,-z
1/2+x,1/2-y,z
loop_
_atom_site_type_symbol
_atom_site_label
_atom_site_fract_x
_atom_site_fract_y
_atom_site_fract_z
Si Si1 0.503706 0.267876 0.236685
Si Si2 0.326876 0.636174 0.550319
Si Si3 0.659630 0.859881 0.163890
Si Si4 0.112038 0.859087 0.644125
Si Si5 0.386460 0.636479 0.000079
O O1 0.602914 0.348532 0.318448
O O2 0.559716 0.165221 0.191540
O O3 0.444495 0.251561 0.316520
O O4 0.416680 0.334038 0.128844
O O5 0.275163 0.500000 0.527753
O O6 0.250000 0.750000 0.500000
O O7 0.396062 0.642854 0.480285
O O8 0.764878 0.852035 0.276253
O O9 0.835495 0.747155 0.919572
O O10 0.651805 0.000000 0.117525
O O11 0.079032 0.000000 0.663587
O O12 0.335201 0.500000 0.966712
O O13 0.500000 0.628092 0.000000
#
# Coordination Sequence:
#
# PCOD9210488 Si02
#       5
#     8   8   8   8   8
#     4  11  21  37  64  90 119 159 206 250 292 353
#     4  11  22  39  63  90 119 157 199 248 302 356
#     4  10  22  41  62  89 127 161 196 247 307 356
#     4  10  21  39  62  91 121 158 203 246 295 361
#     4   9  19  35  58  90 121 156 203 248 292 351
#
# _framework density 21.980522000000001
#
# number of rings (size 3 to 8) (size 9 to 14) (size 15 to 20)
#    0.000    1.800    2.000    2.400    0.000    7.600 
#    0.000    2.000    0.000    2.400    0.000    0.000 
#    0.000    0.000    0.000    0.000    0.000    0.000 
#
# Total GULP energy -111487.743312 kJ/mol
# GULP energy per Si atom -5574.387166 kJ/mol
# Density = 2.193049 g / cm^3
# Si number density = 21.980522 Si / 1000 Ang^3
#
#
#
# Elastic Constant Matrix: (Units=GPa)
#
#
# Indices 1 2 3 4 5 6 
#
# 1 51.0988 27.6268 -9.8473 0.0000 -1.6932 0.0000
# 2 27.6268 153.8379 49.6447 0.0000 14.2654 0.0000
# 3 -9.8473 49.6447 112.1563 0.0000 9.1035 0.0000
# 4 0.0000 0.0000 0.0000 27.0647 0.0000 6.1789
# 5 -1.6932 14.2654 9.1035 0.0000 25.2278 0.0000
# 6 0.0000 0.0000 0.0000 6.1789 0.0000 21.5303
#
#
#
# Elastic Compliance Matrix: (Units=1/GPa)
#
#
# Indices 1 2 3 4 5 6 
#
# 1 0.023813 -0.006040 0.004489 0.000000 0.003394 0.000000
# 2 -0.006040 0.009370 -0.004342 0.000000 -0.004137 0.000000
# 3 0.004489 -0.004342 0.011341 0.000000 -0.001336 0.000000
# 4 0.000000 0.000000 0.000000 0.039539 0.000000 -0.011347
# 5 0.003394 -0.004137 -0.001336 0.000000 0.042688 0.000000
# 6 0.000000 0.000000 0.000000 -0.011347 0.000000 0.049703
#
#
# Mechanical properties :
#
#
# Convention : Reuss Voigt Hill
#
# Bulk Modulus (GPa) = 30.54619 50.21574 40.38097
# Shear Modulus (GPa) = 25.10660 31.40914 28.25787
#
# Velocity S-wave (km/s) = 3.38334 3.78425 3.58940
# Velocity P-wave (km/s) = 5.40276 6.47991 5.96569
#
# Compressibility (1/GPa) = 0.03273730
#
# Stress axis : x y z
#
# Youngs Moduli (GPa) = 41.99433 106.72652 88.17915
#
# Poissons Ratio (x) = 0.64459 -0.39581
# Poissons Ratio (y) = 0.25363 0.38287
# Poissons Ratio (z) = -0.18850 0.46340
#
# Static dielectric constant tensor:
#      x y z
#    x 1.853740 0.000000 -0.003390 
#    y 0.000000 1.830450 0.000000 
#    z -0.003390 0.000000 1.871520 
# 
# From -- ./inp_files/202948.got.cif
#   From: 2010.05.17/outbox.cif.g08.bks.cpg/sg12_102_cif.got.tgz:202948.got - 2010.06.03 13:09:07.
