data_PCOD9210558
_publ_section_title
;
Structure prediction by ZEFSAII (Michael W. Deem and Ramdas Pophale) SiO2 
 PCOD9210558
Probable space group: C 2/M
;
_chemical_formula_sum "Si O2"
_cell_formula_units_Z 52
_cell_length_a 5.205450
_cell_length_b 23.459514
_cell_length_c 25.256270
_cell_angle_alpha 90.000000
_cell_angle_beta 115.854831
_cell_angle_gamma 90.000000
_cell_volume 2775.502654
_symmetry_space_group_name_H-M "C 2/M"
_symmetry_group_IT_number 12
_symmetry_cell_setting 'monoclinic'
loop_
_space_group_symop_operation_xyz
x,y,z
-x,y,-z
-x,-y,-z
x,-y,z
1/2+x,1/2+y,z
1/2-x,1/2+y,-z
1/2-x,1/2-y,-z
1/2+x,1/2-y,z
loop_
_atom_site_type_symbol
_atom_site_label
_atom_site_fract_x
_atom_site_fract_y
_atom_site_fract_z
Si Si1 0.619388 0.932935 0.170669
Si Si2 0.794822 0.216788 0.714286
Si Si3 0.505229 0.215595 0.427556
Si Si4 0.475297 0.000000 0.349225
Si Si5 0.776885 0.592905 0.242707
Si Si6 0.665344 0.084644 0.461402
Si Si7 0.327256 0.069465 0.036076
O O1 0.490337 0.905710 0.212083
O O2 0.468788 0.911333 0.103716
O O3 0.960040 0.927111 0.197460
O O4 0.551600 0.000000 0.169799
O O5 0.614414 0.262017 0.732368
O O6 0.642401 0.213247 0.643458
O O7 0.765811 0.155408 0.737492
O O8 0.759066 0.261305 0.444066
O O9 0.614499 0.152293 0.449079
O O10 0.397532 0.049807 0.297865
O O11 0.551592 0.049545 0.401015
O O12 0.500000 0.067999 0.500000
O O13 0.000000 0.073992 0.500000
O O14 0.335944 0.000000 0.037738
O O15 0.500000 0.088169 0.000000
O O16 0.000000 0.086596 0.000000
#
# Coordination Sequence:
#
# PCOD9210558 Si02
#       7
#     8   8   8   4   8   8   8
#     4  11  21  34  54  92 124 161 206 238 284 350
#     4  10  21  40  62  86 113 150 194 246 304 356
#     4  10  21  39  63  87 110 141 187 240 297 351
#     4  12  26  46  60  88 116 164 186 232 304 362
#     4  12  23  39  62  87 122 157 199 247 291 364
#     4  12  27  44  63  85 114 150 196 243 284 359
#     4   9  17  30  49  74 119 170 202 235 277 330
#
# _framework density 18.735346
#
# number of rings (size 3 to 8) (size 9 to 14) (size 15 to 20)
#    0.000    1.231    3.077    3.231    0.000    6.769 
#    0.000    0.000    0.000    0.000    0.000    0.000 
#    0.000   43.077    0.000    0.000    0.000    0.000 
#
# Total GULP energy -144766.799891 kJ/mol
# GULP energy per Si atom -5567.953842 kJ/mol
# Density = 1.869270 g / cm^3
# Si number density = 18.735346 Si / 1000 Ang^3
#
#
#
# Elastic Constant Matrix: (Units=GPa)
#
#
# Indices 1 2 3 4 5 6 
#
# 1 99.9611 0.7596 29.3692 0.0000 -7.0029 0.0000
# 2 0.7596 88.8857 20.3171 0.0000 -12.1052 0.0000
# 3 29.3692 20.3171 113.0549 0.0000 -3.9222 0.0000
# 4 0.0000 0.0000 0.0000 8.9775 0.0000 3.9054
# 5 -7.0029 -12.1052 -3.9222 0.0000 18.0970 0.0000
# 6 0.0000 0.0000 0.0000 3.9054 0.0000 54.6989
#
#
#
# Elastic Compliance Matrix: (Units=1/GPa)
#
#
# Indices 1 2 3 4 5 6 
#
# 1 0.011179 0.001192 -0.002963 0.000000 0.004481 0.000000
# 2 0.001192 0.012948 -0.002338 0.000000 0.008616 0.000000
# 3 -0.002963 -0.002338 0.010016 0.000000 -0.000539 0.000000
# 4 0.000000 0.000000 0.000000 0.114960 0.000000 -0.008208
# 5 0.004481 0.008616 -0.000539 0.000000 0.062638 0.000000
# 6 0.000000 0.000000 0.000000 -0.008208 0.000000 0.018868
#
#
# Mechanical properties :
#
#
# Convention : Reuss Voigt Hill
#
# Bulk Modulus (GPa) = 38.57063 44.75485 41.66274
# Shear Modulus (GPa) = 20.20456 33.11838 26.66147
#
# Velocity S-wave (km/s) = 3.28749 4.20896 3.77644
# Velocity P-wave (km/s) = 5.91962 6.89639 6.42659
#
# Compressibility (1/GPa) = 0.02592646
#
# Stress axis : x y z
#
# Youngs Moduli (GPa) = 89.45116 77.23270 99.83685
#
# Poissons Ratio (x) = -0.09206 0.29581
# Poissons Ratio (y) = -0.10662 0.23338
# Poissons Ratio (z) = 0.26503 0.18054
#
# Static dielectric constant tensor:
#      x y z
#    x 1.675590 0.000000 -0.005190 
#    y 0.000000 1.630590 0.000000 
#    z -0.005190 0.000000 1.649210 
# 
# From -- ./inp_files/331281.got.cif
#   From: 2010.05.17/outbox.cif.g08.bks.cpg/sg12_166_cif.got.tgz:331281.got - 2010.06.03 13:09:07.
