data_PCOD9210620
_publ_section_title
;
Structure prediction by ZEFSAII (Michael W. Deem and Ramdas Pophale) SiO2 
 PCOD9210620
Probable space group: C 2/M
;
_chemical_formula_sum "Si O2"
_cell_formula_units_Z 48
_cell_length_a 26.832023
_cell_length_b 9.190265
_cell_length_c 21.992580
_cell_angle_alpha 90.000000
_cell_angle_beta 26.212147
_cell_angle_gamma 90.000000
_cell_volume 2395.417201
_symmetry_space_group_name_H-M "C 2/M"
_symmetry_group_IT_number 12
_symmetry_cell_setting 'monoclinic'
loop_
_space_group_symop_operation_xyz
x,y,z
-x,y,-z
-x,-y,-z
x,-y,z
1/2+x,1/2+y,z
1/2-x,1/2+y,-z
1/2-x,1/2-y,-z
1/2+x,1/2-y,z
loop_
_atom_site_type_symbol
_atom_site_label
_atom_site_fract_x
_atom_site_fract_y
_atom_site_fract_z
Si Si1 0.629980 0.829285 0.629298
Si Si2 0.329062 0.327452 0.094339
Si Si3 0.552284 0.832199 0.851998
Si Si4 0.782278 0.828157 0.676022
Si Si5 0.471948 0.330101 0.372966
Si Si6 0.735977 0.670770 0.079835
O O1 0.750000 0.750000 0.500000
O O2 0.573511 0.812577 0.756995
O O3 0.557469 0.761087 0.654575
O O4 0.646846 0.000000 0.599979
O O5 0.324213 0.500000 0.094720
O O6 0.239001 0.265863 0.241035
O O7 0.306188 0.251559 0.054787
O O8 0.452223 0.273307 0.981016
O O9 0.671321 0.810184 0.755190
O O10 0.516830 0.000000 0.902006
O O11 0.891150 0.786599 0.517103
O O12 0.790767 0.000000 0.682525
O O13 0.444947 0.500000 0.389635
O O14 0.603961 0.319878 0.242107
O O15 0.767215 0.500000 0.041410
O O16 0.750000 0.750000 0.000000
#
# Coordination Sequence:
#
# PCOD9210620 Si02
#       6
#     8   8   8   8   8   8
#     4  11  21  35  59  91 125 159 198 246 301 361
#     4  12  26  41  60  90 126 163 207 253 303 364
#     4  10  21  39  63  89 122 165 208 253 306 364
#     4  10  21  41  64  88 122 161 205 253 309 368
#     4  10  22  41  64  92 122 159 206 254 305 362
#     4  11  24  44  69  93 122 159 203 253 305 363
#
# _framework density 20.038262
#
# number of rings (size 3 to 8) (size 9 to 14) (size 15 to 20)
#    0.000    1.333    1.667    4.000    0.000    9.333 
#    0.000    3.333    0.000    0.000    0.000    0.000 
#    0.000    0.000    0.000    0.000    0.000    0.000 
#
# Total GULP energy -134268.503747 kJ/mol
# GULP energy per Si atom -5594.520989 kJ/mol
# Density = 1.999265 g / cm^3
# Si number density = 20.038262 Si / 1000 Ang^3
#
#
#
# Elastic Constant Matrix: (Units=GPa)
#
#
# Indices 1 2 3 4 5 6 
#
# 1 65.2918 45.8311 28.3448 -0.0008 12.1314 0.0003
# 2 45.8311 107.4263 58.2846 -0.0002 12.7579 0.0003
# 3 28.3448 58.2846 91.9098 -0.0010 12.2862 0.0008
# 4 -0.0008 -0.0002 -0.0010 29.3269 0.0002 5.1476
# 5 12.1314 12.7579 12.2862 0.0002 28.6941 -0.0002
# 6 0.0003 0.0003 0.0008 5.1476 -0.0002 30.2355
#
#
#
# Elastic Compliance Matrix: (Units=1/GPa)
#
#
# Indices 1 2 3 4 5 6 
#
# 1 0.022720 -0.008599 -0.000828 0.000001 -0.005428 0.000000
# 2 -0.008599 0.017632 -0.008451 0.000000 -0.000585 0.000000
# 3 -0.000828 -0.008451 0.016914 0.000001 -0.003135 0.000000
# 4 0.000001 0.000000 0.000001 0.035149 -0.000001 -0.005984
# 5 -0.005428 -0.000585 -0.003135 -0.000001 0.038748 0.000000
# 6 0.000000 0.000000 0.000000 -0.005984 0.000000 0.034092
#
#
# Mechanical properties :
#
#
# Convention : Reuss Voigt Hill
#
# Bulk Modulus (GPa) = 46.49175 58.83877 52.66526
# Shear Modulus (GPa) = 24.01755 26.46247 25.24001
#
# Velocity S-wave (km/s) = 3.46581 3.63794 3.55292
# Velocity P-wave (km/s) = 6.26639 6.86099 6.57042
#
# Compressibility (1/GPa) = 0.02150919
#
# Stress axis : x y z
#
# Youngs Moduli (GPa) = 44.01425 56.71486 59.12283
#
# Poissons Ratio (x) = 0.48770 0.04896
# Poissons Ratio (y) = 0.37848 0.49966
# Poissons Ratio (z) = 0.03645 0.47931
#
# Static dielectric constant tensor:
#      x y z
#    x 1.700440 0.000000 -0.006080 
#    y 0.000000 1.668740 0.000000 
#    z -0.006080 0.000000 1.714590 
# 
# From -- ./inp_files/327149.got.cif
#   From: 2010.05.17/outbox.cif.g08.bks.cpg/sg12_164_cif.got.tgz:327149.got - 2010.06.03 13:09:07.
