data_PCOD9210776
_publ_section_title
;
Structure prediction by ZEFSAII (Michael W. Deem and Ramdas Pophale) SiO2 
 PCOD9210776
Probable space group: C 2/M
;
_chemical_formula_sum "Si O2"
_cell_formula_units_Z 56
_cell_length_a 14.683857
_cell_length_b 18.285795
_cell_length_c 12.449722
_cell_angle_alpha 90.000000
_cell_angle_beta 57.463275
_cell_angle_gamma 90.000000
_cell_volume 2818.158217
_symmetry_space_group_name_H-M "C 2/M"
_symmetry_group_IT_number 12
_symmetry_cell_setting 'monoclinic'
loop_
_space_group_symop_operation_xyz
x,y,z
-x,y,-z
-x,-y,-z
x,-y,z
1/2+x,1/2+y,z
1/2-x,1/2+y,-z
1/2-x,1/2-y,-z
1/2+x,1/2-y,z
loop_
_atom_site_type_symbol
_atom_site_label
_atom_site_fract_x
_atom_site_fract_y
_atom_site_fract_z
Si Si1 0.690242 0.851888 0.370375
Si Si2 0.827072 0.585228 0.846840
Si Si3 0.424813 0.416365 0.942038
Si Si4 0.511699 0.145680 0.868910
Si Si5 0.891064 0.195983 0.516327
Si Si6 0.695824 0.914862 0.601327
Si Si7 0.930518 0.802286 0.245118
O O1 0.651280 0.894466 0.290620
O O2 0.644390 0.769680 0.400916
O O3 0.664287 0.890523 0.500079
O O4 0.820190 0.843066 0.282556
O O5 0.852748 0.500000 0.849169
O O6 0.899074 0.634293 0.878959
O O7 0.699912 0.595661 0.950441
O O8 0.437260 0.500000 0.895907
O O9 0.470925 0.357976 0.829874
O O10 0.500000 0.408462 0.000000
O O11 0.599477 0.100026 0.745678
O O12 0.548623 0.230082 0.837012
O O13 0.500000 0.123657 0.000000
O O14 0.795465 0.137111 0.572121
O O15 0.913916 0.219441 0.379177
O O16 0.000000 0.166460 0.500000
O O17 0.725444 0.000000 0.581784
#
# Coordination Sequence:
#
# PCOD9210776 Si02
#       7
#     8   8   8   8   8   8   8
#     4  11  21  42  69  97 125 161 215 277 322 378
#     4  11  25  42  67 100 129 166 215 271 329 382
#     4  10  21  39  63  97 133 162 207 274 329 375
#     4  12  26  44  64  91 134 180 219 255 313 397
#     4  11  23  41  66  95 130 164 214 270 318 380
#     4  11  24  43  66  93 128 174 213 263 323 377
#     4  11  21  41  67  94 127 173 212 260 330 379
#
# _framework density 19.871136
#
# number of rings (size 3 to 8) (size 9 to 14) (size 15 to 20)
#    0.000    1.000    4.286    3.000    0.000    5.429 
#    0.000    2.857    0.000    0.000    0.000    0.000 
#    0.000    0.000    0.000    0.000    0.000    0.000 
#
# Total GULP energy -156558.905542 kJ/mol
# GULP energy per Si atom -5591.389484 kJ/mol
# Density = 1.982591 g / cm^3
# Si number density = 19.871136 Si / 1000 Ang^3
#
#
#
# Elastic Constant Matrix: (Units=GPa)
#
#
# Indices 1 2 3 4 5 6 
#
# 1 70.7089 -9.1134 32.1885 0.0000 1.5223 0.0000
# 2 -9.1134 64.1444 33.4226 0.0000 -16.4419 0.0000
# 3 32.1885 33.4226 98.3881 0.0000 -3.3389 0.0000
# 4 0.0000 0.0000 0.0000 22.1254 0.0000 -11.8729
# 5 1.5223 -16.4419 -3.3389 0.0000 22.0883 0.0000
# 6 0.0000 0.0000 0.0000 -11.8729 0.0000 2.1017
#
#
#
# Elastic Compliance Matrix: (Units=1/GPa)
#
#
# Indices 1 2 3 4 5 6 
#
# 1 0.019238 0.008323 -0.009002 0.000000 0.003509 0.000000
# 2 0.008323 0.027339 -0.011397 0.000000 0.018054 0.000000
# 3 -0.009002 -0.011397 0.016800 0.000000 -0.005324 0.000000
# 4 0.000000 0.000000 0.000000 -0.022248 0.000000 -0.125685
# 5 0.003509 0.018054 -0.005324 0.000000 0.057665 0.000000
# 6 0.000000 0.000000 0.000000 -0.125685 0.000000 -0.234216
#
#
# Mechanical properties :
#
#
# Convention : Reuss Voigt Hill
#
# Bulk Modulus (GPa) = 25.49472 38.47075 31.98274
# Shear Modulus (GPa) = -50.91852 21.04599 -14.93626
#
# Velocity S-wave (km/s) = -5.06754 3.25795 -2.74461
# Velocity P-wave (km/s) = 4.62408 5.79262 2.46702
#
# Compressibility (1/GPa) = 0.03922381
#
# Stress axis : x y z
#
# Youngs Moduli (GPa) = 51.98137 36.57841 59.52404
#
# Poissons Ratio (x) = -0.30445 0.53584
# Poissons Ratio (y) = -0.43265 0.67841
# Poissons Ratio (z) = 0.46794 0.41689
#
# Static dielectric constant tensor:
#      x y z
#    x 1.699850 0.000000 -0.013660 
#    y 0.000000 1.671080 0.000000 
#    z -0.013660 0.000000 1.696680 
# 
# From -- ./inp_files/146024.got.cif
#   From: 2010.05.17/outbox.cif.g08.bks.cpg/sg12_74_cif.got.tgz:146024.got - 2010.06.03 13:09:07.
