data_PCOD9210360
_publ_section_title
;
Structure prediction by ZEFSAII (Michael W. Deem and Ramdas Pophale) SiO2 
 PCOD9210360
Probable space group: C 2/M
;
_chemical_formula_sum "Si O2"
_cell_formula_units_Z 24
_cell_length_a 19.347949
_cell_length_b 8.114958
_cell_length_c 7.342897
_cell_angle_alpha 90.000000
_cell_angle_beta 53.897842
_cell_angle_gamma 90.000000
_cell_volume 931.499533
_symmetry_space_group_name_H-M "C 2/M"
_symmetry_group_IT_number 12
_symmetry_cell_setting 'monoclinic'
loop_
_space_group_symop_operation_xyz
x,y,z
-x,y,-z
-x,-y,-z
x,-y,z
1/2+x,1/2+y,z
1/2-x,1/2+y,-z
1/2-x,1/2-y,-z
1/2+x,1/2-y,z
loop_
_atom_site_type_symbol
_atom_site_label
_atom_site_fract_x
_atom_site_fract_y
_atom_site_fract_z
Si Si1 0.044024 0.187662 0.679351
Si Si2 0.629027 0.810718 0.203022
Si Si3 0.823614 0.697507 0.247950
O O1 0.114508 0.208376 0.408474
O O2 0.091062 0.230948 0.792259
O O3 0.965694 0.303293 0.744414
O O4 0.013344 0.000000 0.726172
O O5 0.649099 0.000000 0.217345
O O6 0.686455 0.746294 0.946015
O O7 0.828912 0.500000 0.234948
O O8 0.750000 0.750000 0.500000
#
# Coordination Sequence:
#
# PCOD9210360 Si02
#       3
#     8   8   8
#     4  11  22  37  61  89 116 149 189 236 286 337
#     4  10  21  39  62  86 114 150 192 237 283 334
#     4  11  24  40  59  84 116 154 192 234 285 339
#
# _framework density 25.764907999999998
#
# number of rings (size 3 to 8) (size 9 to 14) (size 15 to 20)
#    0.000    1.333    0.000    8.000    0.000   10.667 
#    0.000    0.000    0.000    0.000    0.000    0.000 
#    0.000    0.000    0.000    0.000    0.000    0.000 
#
# Total GULP energy -67239.325345 kJ/mol
# GULP energy per Si atom -5603.277112 kJ/mol
# Density = 2.570627 g / cm^3
# Si number density = 25.764908 Si / 1000 Ang^3
#
#
#
# Elastic Constant Matrix: (Units=GPa)
#
#
# Indices 1 2 3 4 5 6 
#
# 1 80.4630 1.0384 3.2243 0.0000 26.0426 0.0000
# 2 1.0384 117.2506 5.8213 0.0000 10.0484 0.0000
# 3 3.2243 5.8213 147.3000 0.0000 24.0744 0.0000
# 4 0.0000 0.0000 0.0000 37.2352 0.0000 -3.7862
# 5 26.0426 10.0484 24.0744 0.0000 59.6059 0.0000
# 6 0.0000 0.0000 0.0000 -3.7862 0.0000 22.8469
#
#
#
# Elastic Compliance Matrix: (Units=1/GPa)
#
#
# Indices 1 2 3 4 5 6 
#
# 1 0.014576 0.000411 0.000768 0.000000 -0.006748 0.000000
# 2 0.000411 0.008667 -0.000089 0.000000 -0.001605 0.000000
# 3 0.000768 -0.000089 0.007311 0.000000 -0.003273 0.000000
# 4 0.000000 0.000000 0.000000 0.027317 0.000000 0.004527
# 5 -0.006748 -0.001605 -0.003273 0.000000 0.021317 0.000000
# 6 0.000000 0.000000 0.000000 0.004527 0.000000 0.044520
#
#
# Mechanical properties :
#
#
# Convention : Reuss Voigt Hill
#
# Bulk Modulus (GPa) = 30.55089 40.57573 35.56331
# Shear Modulus (GPa) = 37.75311 46.26624 42.00968
#
# Velocity S-wave (km/s) = 3.83207 4.24218 4.04233
# Velocity P-wave (km/s) = 5.60918 6.30693 5.96826
#
# Compressibility (1/GPa) = 0.03273227
#
# Stress axis : x y z
#
# Youngs Moduli (GPa) = 68.60603 115.37951 136.78912
#
# Poissons Ratio (x) = -0.04743 -0.10499
# Poissons Ratio (y) = -0.02820 0.01221
# Poissons Ratio (z) = -0.05266 0.01030
#
# Static dielectric constant tensor:
#      x y z
#    x 2.036320 0.000000 -0.066660 
#    y 0.000000 1.858360 0.000000 
#    z -0.066660 0.000000 2.172850 
# 
# From -- ./inp_files/23050.got.cif
#   From: 2010.05.17/outbox.cif.g08.bks.cpg/sg12_12_cif.got.tgz:23050.got - 2010.06.03 13:09:07.
