data_PCOD9210895
_publ_section_title
;
Structure prediction by ZEFSAII (Michael W. Deem and Ramdas Pophale) SiO2 
 PCOD9210895
Probable space group: C 2/M
;
_chemical_formula_sum "Si O2"
_cell_formula_units_Z 56
_cell_length_a 16.186120
_cell_length_b 8.781714
_cell_length_c 20.104999
_cell_angle_alpha 90.000000
_cell_angle_beta 77.937307
_cell_angle_gamma 90.000000
_cell_volume 2794.661520
_symmetry_space_group_name_H-M "C 2/M"
_symmetry_group_IT_number 12
_symmetry_cell_setting 'monoclinic'
loop_
_space_group_symop_operation_xyz
x,y,z
-x,y,-z
-x,-y,-z
x,-y,z
1/2+x,1/2+y,z
1/2-x,1/2+y,-z
1/2-x,1/2-y,-z
1/2+x,1/2-y,z
loop_
_atom_site_type_symbol
_atom_site_label
_atom_site_fract_x
_atom_site_fract_y
_atom_site_fract_z
Si Si1 0.272792 0.322647 0.793744
Si Si2 0.477814 0.679818 0.927738
Si Si3 0.123024 0.184244 0.350280
Si Si4 0.447264 0.183569 0.348664
Si Si5 0.233665 0.183642 0.575888
Si Si6 0.418841 0.177387 0.203558
Si Si7 0.299184 0.821469 0.929885
O O1 0.288008 0.500000 0.807190
O O2 0.343052 0.272974 0.729243
O O3 0.182105 0.310988 0.773677
O O4 0.268933 0.234661 0.863248
O O5 0.460325 0.500000 0.928101
O O6 0.549693 0.722749 0.863023
O O7 0.395825 0.771712 0.920003
O O8 0.500000 0.718986 0.000000
O O9 0.191209 0.253455 0.389679
O O10 0.028488 0.249184 0.373000
O O11 0.123433 0.000000 0.355427
O O12 0.358312 0.255554 0.385823
O O13 0.457484 0.219246 0.268200
O O14 0.443409 0.000000 0.356203
O O15 0.250000 0.250000 0.500000
O O16 0.234290 0.000000 0.576078
O O17 0.438993 0.000000 0.186029
O O18 0.289441 0.000000 0.935741
O O19 0.250000 0.750000 0.000000
#
# Coordination Sequence:
#
# PCOD9210895 Si02
#       7
#     8   8   8   8   8   8   8
#     4  10  21  40  65  93 128 168 211 267 326 385
#     4  11  24  40  58  85 119 160 211 268 324 388
#     4  11  23  43  69 102 138 177 223 275 332 399
#     4  11  23  43  68 101 138 176 224 276 331 399
#     4  12  26  46  72 102 137 180 223 276 337 399
#     4  10  21  39  64  93 126 167 211 265 326 386
#     4  12  25  40  59  85 119 162 211 266 326 392
#
# _framework density 20.038204
#
# number of rings (size 3 to 8) (size 9 to 14) (size 15 to 20)
#    0.000    1.000    1.429    5.571    0.000    9.143 
#    0.000    2.857    0.000    0.000    0.000    0.000 
#    0.000    0.000    0.000    0.000    0.000    0.000 
#
# Total GULP energy -156594.764213 kJ/mol
# GULP energy per Si atom -5592.670150 kJ/mol
# Density = 1.999260 g / cm^3
# Si number density = 20.038204 Si / 1000 Ang^3
#
#
#
# Elastic Constant Matrix: (Units=GPa)
#
#
# Indices 1 2 3 4 5 6 
#
# 1 125.4628 52.5170 55.7594 0.0000 12.4546 0.0000
# 2 52.5170 93.6117 57.5327 0.0000 4.9110 0.0000
# 3 55.7594 57.5327 110.3068 0.0000 -0.1297 0.0000
# 4 0.0000 0.0000 0.0000 -26.7259 0.0000 -296.5627
# 5 12.4546 4.9110 -0.1297 0.0000 20.9834 0.0000
# 6 0.0000 0.0000 0.0000 -296.5627 0.0000-1486.3516
#
#
#
# Elastic Compliance Matrix: (Units=1/GPa)
#
#
# Indices 1 2 3 4 5 6 
#
# 1 0.012034 -0.003945 -0.004033 0.000000 -0.006244 0.000000
# 2 -0.003945 0.017313 -0.007038 0.000000 -0.001754 0.000000
# 3 -0.004033 -0.007038 0.014780 0.000000 0.004132 0.000000
# 4 0.000000 0.000000 0.000000 0.030821 0.000000 -0.006150
# 5 -0.006244 -0.001754 0.004132 0.000000 0.051799 0.000000
# 6 0.000000 0.000000 0.000000 -0.006150 0.000000 0.000554
#
#
# Mechanical properties :
#
#
# Convention : Reuss Voigt Hill
#
# Bulk Modulus (GPa) = 70.94522 73.44440 72.19481
# Shear Modulus (GPa) = 30.85833 -287.51400 -128.32784
#
# Velocity S-wave (km/s) = 3.92851 -11.99143 -8.01128
# Velocity P-wave (km/s) = 7.48728 12.44966 7.03330
#
# Compressibility (1/GPa) = 0.01409538
#
# Stress axis : x y z
#
# Youngs Moduli (GPa) = 83.09769 57.76004 67.66014
#
# Poissons Ratio (x) = 0.22787 0.27286
# Poissons Ratio (y) = 0.32783 0.47618
# Poissons Ratio (z) = 0.33512 0.40650
#
# Static dielectric constant tensor:
#      x y z
#    x 1.743240 0.000000 -0.068600 
#    y 0.000000 1.678880 0.000000 
#    z -0.068600 0.000000 1.858820 
# 
# From -- ./inp_files/308898.got.cif
#   From: 2010.05.17/outbox.cif.g08.bks.cpg/sg12_155_cif.got.tgz:308898.got - 2010.06.03 13:09:07.
