data_PCOD9210299
_publ_section_title
;
Structure prediction by ZEFSAII (Michael W. Deem and Ramdas Pophale) SiO2 
 PCOD9210299
Probable space group: C 2/M
;
_chemical_formula_sum "Si O2"
_cell_formula_units_Z 48
_cell_length_a 14.285263
_cell_length_b 24.972932
_cell_length_c 19.261204
_cell_angle_alpha 90.000000
_cell_angle_beta 160.556706
_cell_angle_gamma 90.000000
_cell_volume 2287.287542
_symmetry_space_group_name_H-M "C 2/M"
_symmetry_group_IT_number 12
_symmetry_cell_setting 'monoclinic'
loop_
_space_group_symop_operation_xyz
x,y,z
-x,y,-z
-x,-y,-z
x,-y,z
1/2+x,1/2+y,z
1/2-x,1/2+y,-z
1/2-x,1/2-y,-z
1/2+x,1/2-y,z
loop_
_atom_site_type_symbol
_atom_site_label
_atom_site_fract_x
_atom_site_fract_y
_atom_site_fract_z
Si Si1 0.640105 0.939509 0.311244
Si Si2 0.673447 0.716759 0.693914
Si Si3 0.641818 0.357881 0.423900
Si Si4 0.503161 0.557140 0.919815
Si Si5 0.153989 0.336025 0.680045
Si Si6 0.436921 0.116193 0.033202
O O1 0.812092 0.900679 0.482090
O O2 0.750143 0.000000 0.389124
O O3 0.594582 0.917519 0.201962
O O4 0.321931 0.939927 0.117672
O O5 0.500000 0.713508 0.500000
O O6 0.477398 0.694420 0.619454
O O7 0.775956 0.777052 0.779571
O O8 0.930257 0.675395 0.869027
O O9 0.401014 0.378542 0.202196
O O10 0.929799 0.349044 0.583825
O O11 0.381841 0.500000 0.806911
O O12 0.351423 0.613449 0.803058
O O13 0.500000 0.552695 0.000000
O O14 0.000000 0.328186 0.500000
O O15 0.500000 0.095301 0.000000
#
# Coordination Sequence:
#
# PCOD9210299 Si02
#       6
#     8   8   8   8   8   8
#     4  11  23  42  68  96 129 171 214 265 321 379
#     4  10  21  42  63  91 130 170 210 268 320 379
#     4  11  22  41  65  93 130 171 214 267 318 379
#     4  10  21  39  61  89 126 166 209 259 312 375
#     4  11  23  39  63  96 127 169 219 258 326 379
#     4  10  23  42  66  92 134 165 212 268 324 375
#
# _framework density 20.985557
#
# number of rings (size 3 to 8) (size 9 to 14) (size 15 to 20)
#    0.000    1.500    3.333    1.500    0.000    3.333 
#    3.000    8.333    0.000    0.000    0.000    0.000 
#    0.000    0.000    0.000    0.000    0.000    0.000 
#
# Total GULP energy -133927.010560 kJ/mol
# GULP energy per Si atom -5580.292107 kJ/mol
# Density = 2.093779 g / cm^3
# Si number density = 20.985557 Si / 1000 Ang^3
#
#
#
# Elastic Constant Matrix: (Units=GPa)
#
#
# Indices 1 2 3 4 5 6 
#
# 1 71.7521 26.9087 15.0853 0.0112 -12.1907 0.0020
# 2 26.9087 155.9543 31.2088 -0.0558 -6.4925 -0.0100
# 3 15.0853 31.2088 60.6380 -0.0564 -11.4046 -0.0005
# 4 0.0112 -0.0558 -0.0564 39.8670 0.0180 6.1694
# 5 -12.1907 -6.4925 -11.4046 0.0180 39.2445 0.0167
# 6 0.0020 -0.0100 -0.0005 6.1694 0.0167 30.6044
#
#
#
# Elastic Compliance Matrix: (Units=1/GPa)
#
#
# Indices 1 2 3 4 5 6 
#
# 1 0.015857 -0.002152 -0.002092 -0.000012 0.003962 -0.000002
# 2 -0.002152 0.007441 -0.003373 0.000006 -0.000418 0.000001
# 3 -0.002092 -0.003373 0.019591 0.000023 0.004485 -0.000008
# 4 -0.000012 0.000006 0.000023 0.025891 -0.000006 -0.005219
# 5 0.003962 -0.000418 0.004485 -0.000006 0.027946 -0.000014
# 6 -0.000002 0.000001 -0.000008 -0.005219 -0.000014 0.033727
#
#
# Mechanical properties :
#
#
# Convention : Reuss Voigt Hill
#
# Bulk Modulus (GPa) = 36.15989 48.30554 42.23272
# Shear Modulus (GPa) = 32.27749 36.28596 34.28173
#
# Velocity S-wave (km/s) = 3.92609 4.16275 4.04615
# Velocity P-wave (km/s) = 6.14984 6.79508 6.48049
#
# Compressibility (1/GPa) = 0.02765495
#
# Stress axis : x y z
#
# Youngs Moduli (GPa) = 63.06364 134.38903 51.04315
#
# Poissons Ratio (x) = 0.28927 0.10678
# Poissons Ratio (y) = 0.13574 0.17216
# Poissons Ratio (z) = 0.13193 0.45327
#
# Static dielectric constant tensor:
#      x y z
#    x 1.745820 -0.000010 -0.009190 
#    y -0.000010 1.852050 -0.000020 
#    z -0.009190 -0.000020 1.761160 
# 
# From -- ./inp_files/312513.got.cif
#   From: 2010.05.17/outbox.cif.g08.bks.cpg/sg12_157_cif.got.tgz:312513.got - 2010.06.03 13:09:07.
