data_PCOD9210627
_publ_section_title
;
Structure prediction by ZEFSAII (Michael W. Deem and Ramdas Pophale) SiO2 
 PCOD9210627
Probable space group: C 2/M
;
_chemical_formula_sum "Si O2"
_cell_formula_units_Z 42
_cell_length_a 30.491520
_cell_length_b 9.486375
_cell_length_c 8.407724
_cell_angle_alpha 90.000000
_cell_angle_beta 128.084680
_cell_angle_gamma 90.000000
_cell_volume 1914.201758
_symmetry_space_group_name_H-M "C 2/M"
_symmetry_group_IT_number 12
_symmetry_cell_setting 'monoclinic'
loop_
_space_group_symop_operation_xyz
x,y,z
-x,y,-z
-x,-y,-z
x,-y,z
1/2+x,1/2+y,z
1/2-x,1/2+y,-z
1/2-x,1/2-y,-z
1/2+x,1/2-y,z
loop_
_atom_site_type_symbol
_atom_site_label
_atom_site_fract_x
_atom_site_fract_y
_atom_site_fract_z
Si Si1 0.500000 0.500000 0.500000
Si Si2 0.783113 0.665410 0.834338
Si Si3 0.316655 0.840111 0.275466
Si Si4 0.880452 0.830868 0.910426
Si Si5 0.922794 0.344367 0.719873
Si Si6 0.513165 0.775024 0.693153
O O1 0.485461 0.623680 0.596364
O O2 0.783085 0.500000 0.792299
O O3 0.721592 0.729325 0.716546
O O4 0.820667 0.759190 0.802078
O O5 0.809241 0.681401 0.070590
O O6 0.379552 0.832785 0.476365
O O7 0.296018 0.000000 0.262599
O O8 0.907034 0.778713 0.805224
O O9 0.879401 0.000000 0.925350
O O10 0.922543 0.761878 0.133748
O O11 0.913406 0.500000 0.772786
O O12 0.983903 0.337522 0.781304
O O13 0.500000 0.854064 0.500000
#
# Coordination Sequence:
#
# PCOD9210627 Si02
#       6
#     2   8   8   8   8   8
#     4   8  20  40  60  92 112 152 188 260 272 350
#     4  10  21  39  63  90 116 149 195 247 293 342
#     4   9  20  41  63  87 116 153 196 240 290 349
#     4  12  24  38  60  87 120 159 195 238 291 349
#     4  11  25  40  59  87 123 158 192 238 293 348
#     4  10  21  40  64  86 117 150 198 240 290 343
#
# _framework density 21.941261000000001
#
# number of rings (size 3 to 8) (size 9 to 14) (size 15 to 20)
#    0.571    1.143    0.952    2.857    1.333    5.714 
#    0.000    0.000    0.000    0.000    0.000    0.000 
#    0.000    0.000    0.000    0.000    0.000    0.000 
#
# Total GULP energy -116956.002505 kJ/mol
# GULP energy per Si atom -5569.333453 kJ/mol
# Density = 2.189132 g / cm^3
# Si number density = 21.941261 Si / 1000 Ang^3
#
#
#
# Elastic Constant Matrix: (Units=GPa)
#
#
# Indices 1 2 3 4 5 6 
#
# 1 90.4741 39.5404 -12.4626 0.0000 3.4528 0.0000
# 2 39.5404 106.4332 2.2970 0.0000 4.0740 0.0000
# 3 -12.4626 2.2970 28.0798 0.0000 0.2846 0.0000
# 4 0.0000 0.0000 0.0000 84.5077 0.0000 29.8977
# 5 3.4528 4.0740 0.2846 0.0000 28.1275 0.0000
# 6 0.0000 0.0000 0.0000 29.8977 0.0000 48.8044
#
#
#
# Elastic Compliance Matrix: (Units=1/GPa)
#
#
# Indices 1 2 3 4 5 6 
#
# 1 0.014428 -0.005468 0.006861 0.000000 -0.001048 0.000000
# 2 -0.005468 0.011536 -0.003361 0.000000 -0.000966 0.000000
# 3 0.006861 -0.003361 0.038941 0.000000 -0.000749 0.000000
# 4 0.000000 0.000000 0.000000 0.015107 0.000000 -0.009255
# 5 -0.001048 -0.000966 -0.000749 0.000000 0.035829 0.000000
# 6 0.000000 0.000000 0.000000 -0.009255 0.000000 0.026160
#
#
# Mechanical properties :
#
#
# Convention : Reuss Voigt Hill
#
# Bulk Modulus (GPa) = 16.40146 31.52628 23.96387
# Shear Modulus (GPa) = 30.07371 45.32876 37.70123
#
# Velocity S-wave (km/s) = 3.70624 4.55016 4.14971
# Velocity P-wave (km/s) = 5.08000 6.48113 5.82286
#
# Compressibility (1/GPa) = 0.06097017
#
# Stress axis : x y z
#
# Youngs Moduli (GPa) = 69.31111 86.68208 25.68013
#
# Poissons Ratio (x) = 0.47397 -0.17620
# Poissons Ratio (y) = 0.37899 0.08630
# Poissons Ratio (z) = -0.47557 0.29131
#
# Static dielectric constant tensor:
#      x y z
#    x 1.791850 0.000000 -0.031160 
#    y 0.000000 1.729870 0.000000 
#    z -0.031160 0.000000 1.889490 
# 
# From -- ./inp_files/108935.got.cif
#   From: 2010.05.17/outbox.cif.g08.bks.cpg/sg12_55_cif.got.tgz:108935.got - 2010.06.03 13:09:07.
