data_PCOD9210891
_publ_section_title
;
Structure prediction by ZEFSAII (Michael W. Deem and Ramdas Pophale) SiO2 
 PCOD9210891
Probable space group: C 2/M
;
_chemical_formula_sum "Si O2"
_cell_formula_units_Z 64
_cell_length_a 29.542346
_cell_length_b 8.968223
_cell_length_c 19.345542
_cell_angle_alpha 90.000000
_cell_angle_beta 40.409452
_cell_angle_gamma 90.000000
_cell_volume 3322.552150
_symmetry_space_group_name_H-M "C 2/M"
_symmetry_group_IT_number 12
_symmetry_cell_setting 'monoclinic'
loop_
_space_group_symop_operation_xyz
x,y,z
-x,y,-z
-x,-y,-z
x,-y,z
1/2+x,1/2+y,z
1/2-x,1/2+y,-z
1/2-x,1/2-y,-z
1/2+x,1/2-y,z
loop_
_atom_site_type_symbol
_atom_site_label
_atom_site_fract_x
_atom_site_fract_y
_atom_site_fract_z
Si Si1 0.424256 0.674375 0.662929
Si Si2 0.644973 0.823609 0.384237
Si Si3 0.888546 0.676052 0.950539
Si Si4 0.205089 0.322651 0.814776
Si Si5 0.576960 0.678894 0.881131
Si Si6 0.823434 0.174612 0.900717
Si Si7 0.969332 0.176770 0.213777
Si Si8 0.041734 0.323104 0.623499
O O1 0.440593 0.500000 0.634361
O O2 0.408927 0.752994 0.608374
O O3 0.351866 0.684599 0.790235
O O4 0.482300 0.747848 0.644665
O O5 0.721284 0.753242 0.286670
O O6 0.612998 0.799810 0.497523
O O7 0.648571 0.000000 0.367139
O O8 0.902660 0.500000 0.935188
O O9 0.875540 0.735638 0.889280
O O10 0.954798 0.767141 0.899236
O O11 0.821156 0.704681 0.076194
O O12 0.211639 0.500000 0.797919
O O13 0.141038 0.260526 0.843558
O O14 0.583005 0.500000 0.884888
O O15 0.579033 0.708013 0.796165
O O16 0.500000 0.722711 0.000000
O O17 0.822289 0.000000 0.921049
O O18 0.750000 0.250000 0.000000
O O19 0.954389 0.256234 0.304014
O O20 0.971122 0.000000 0.223396
O O21 0.027908 0.500000 0.643952
#
# Coordination Sequence:
#
# PCOD9210891 Si02
#       8
#     8   8   8   8   8   8   8   8
#     4  11  23  39  61  90 122 159 208 257 302 359
#     4  11  25  43  63  88 121 164 210 255 307 363
#     4  11  22  36  57  86 122 159 196 244 301 360
#     4  11  24  40  62  93 126 161 204 253 307 364
#     4  10  21  39  64  93 126 161 199 246 303 368
#     4  11  23  36  53  82 120 161 203 245 300 361
#     4  11  22  38  63  93 121 156 200 245 301 362
#     4  11  24  42  64  90 122 162 209 257 305 359
#
# _framework density 19.262301000000001
#
# number of rings (size 3 to 8) (size 9 to 14) (size 15 to 20)
#    0.000    1.125    2.500    3.750    0.000   10.750 
#    0.000    0.625    0.000    0.000    0.000    0.000 
#    0.000    0.000    0.000    0.000    0.000    0.000 
#
# Total GULP energy -178813.423087 kJ/mol
# GULP energy per Si atom -5587.919471 kJ/mol
# Density = 1.921846 g / cm^3
# Si number density = 19.262301 Si / 1000 Ang^3
#
#
#
# Elastic Constant Matrix: (Units=GPa)
#
#
# Indices 1 2 3 4 5 6 
#
# 1 79.4687 43.8709 41.5206 0.0036 14.1721 -0.0005
# 2 43.8709 86.5316 61.3015 0.0047 13.6247 -0.0003
# 3 41.5206 61.3015 116.9576 -0.0017 12.1655 -0.0001
# 4 0.0036 0.0047 -0.0017 31.2087 0.0010 -0.2593
# 5 14.1721 13.6247 12.1655 0.0010 26.0031 -0.0002
# 6 -0.0005 -0.0003 -0.0001 -0.2593 -0.0002 30.5828
#
#
#
# Elastic Compliance Matrix: (Units=1/GPa)
#
#
# Indices 1 2 3 4 5 6 
#
# 1 0.018609 -0.006842 -0.002458 -0.000001 -0.005407 0.000000
# 2 -0.006842 0.021644 -0.008539 -0.000003 -0.003617 0.000000
# 3 -0.002458 -0.008539 0.013974 0.000002 -0.000724 0.000000
# 4 -0.000001 -0.000003 0.000002 0.032045 0.000000 0.000272
# 5 -0.005407 -0.003617 -0.000724 0.000000 0.043638 0.000000
# 6 0.000000 0.000000 0.000000 0.000272 0.000000 0.032700
#
#
# Mechanical properties :
#
#
# Convention : Reuss Voigt Hill
#
# Bulk Modulus (GPa) = 53.91190 64.03820 58.97505
# Shear Modulus (GPa) = 24.45326 26.64324 25.54825
#
# Velocity S-wave (km/s) = 3.56685 3.72315 3.64584
# Velocity P-wave (km/s) = 6.70912 7.19722 6.95745
#
# Compressibility (1/GPa) = 0.01854878
#
# Stress axis : x y z
#
# Youngs Moduli (GPa) = 53.73665 46.20122 71.56328
#
# Poissons Ratio (x) = 0.31612 0.17588
# Poissons Ratio (y) = 0.36768 0.61110
# Poissons Ratio (z) = 0.13207 0.39453
#
# Static dielectric constant tensor:
#      x y z
#    x 1.662690 0.000000 0.002240 
#    y 0.000000 1.641100 0.000000 
#    z 0.002240 0.000000 1.689510 
# 
# From -- ./inp_files/295645.got.cif
#   From: 2010.05.17/outbox.cif.g08.bks.cpg/sg12_148_cif.got.tgz:295645.got - 2010.06.03 13:09:07.
