data_PCOD9210103
_publ_section_title
;
Structure prediction by ZEFSAII (Michael W. Deem and Ramdas Pophale) SiO2 
 PCOD9210103
Probable space group: C 2/M
;
_chemical_formula_sum "Si O2"
_cell_formula_units_Z 64
_cell_length_a 15.516265
_cell_length_b 8.823493
_cell_length_c 24.371392
_cell_angle_alpha 90.000000
_cell_angle_beta 87.746532
_cell_angle_gamma 90.000000
_cell_volume 3334.049787
_symmetry_space_group_name_H-M "C 2/M"
_symmetry_group_IT_number 12
_symmetry_cell_setting 'monoclinic'
loop_
_space_group_symop_operation_xyz
x,y,z
-x,y,-z
-x,-y,-z
x,-y,z
1/2+x,1/2+y,z
1/2-x,1/2+y,-z
1/2-x,1/2-y,-z
1/2+x,1/2-y,z
loop_
_atom_site_type_symbol
_atom_site_label
_atom_site_fract_x
_atom_site_fract_y
_atom_site_fract_z
Si Si1 0.419691 0.320193 0.772203
Si Si2 0.607352 0.320836 0.785443
Si Si3 0.897815 0.316905 0.501936
Si Si4 0.837240 0.320202 0.109437
Si Si5 0.256030 0.682451 0.707282
Si Si6 0.602482 0.671615 0.003429
Si Si7 0.348146 0.179311 0.882776
Si Si8 0.751059 0.317041 0.418843
O O1 0.408706 0.500000 0.783891
O O2 0.518835 0.295469 0.754789
O O3 0.350621 0.277736 0.727914
O O4 0.400497 0.232690 0.828660
O O5 0.618324 0.500000 0.794423
O O6 0.599862 0.239885 0.844716
O O7 0.686387 0.255000 0.749375
O O8 0.898714 0.500000 0.505861
O O9 0.839130 0.276020 0.449710
O O10 0.835317 0.251633 0.551259
O O11 0.000000 0.268847 0.500000
O O12 0.828254 0.500000 0.112992
O O13 0.863023 0.270161 0.047846
O O14 0.748332 0.236846 0.125064
O O15 0.247069 0.500000 0.710223
O O16 0.243746 0.729446 0.644723
O O17 0.638121 0.500000 0.998934
O O18 0.500000 0.664451 0.000000
O O19 0.623135 0.742211 0.061593
O O20 0.352001 0.000000 0.889005
O O21 0.743594 0.500000 0.421701
#
# Coordination Sequence:
#
# PCOD9210103 Si02
#       8
#     8   8   8   8   8   8   8   8
#     4  10  22  40  60  83 116 155 193 241 302 356
#     4  11  23  39  60  87 116 151 197 245 295 356
#     4   9  18  34  56  84 120 159 197 244 299 345
#     4  12  24  40  61  84 114 150 190 239 297 356
#     4  10  21  39  60  83 117 159 198 243 296 352
#     4  11  24  41  60  84 115 149 188 238 296 357
#     4  12  24  39  61  87 114 147 193 242 293 357
#     4   9  19  35  56  84 117 156 203 244 289 349
#
# _framework density 19.195874
#
# number of rings (size 3 to 8) (size 9 to 14) (size 15 to 20)
#    0.000    1.500    1.250    4.125    0.000    6.750 
#    0.000    0.000    0.000    0.000    0.000    0.000 
#    0.000    0.000    0.000    0.000    0.000    0.000 
#
# Total GULP energy -178698.761430 kJ/mol
# GULP energy per Si atom -5584.336295 kJ/mol
# Density = 1.915218 g / cm^3
# Si number density = 19.195874 Si / 1000 Ang^3
#
#
#
# Elastic Constant Matrix: (Units=GPa)
#
#
# Indices 1 2 3 4 5 6 
#
# 1 99.8791 47.0115 30.3648 0.0000 28.5133 0.0000
# 2 47.0115 156.4389 59.2006 0.0000 22.1433 0.0000
# 3 30.3648 59.2006 121.7155 0.0000 26.2572 0.0000
# 4 0.0000 0.0000 0.0000 27.9321 0.0000 -4.0984
# 5 28.5133 22.1433 26.2572 0.0000 16.6011 0.0000
# 6 0.0000 0.0000 0.0000 -4.0984 0.0000 25.0464
#
#
#
# Elastic Compliance Matrix: (Units=1/GPa)
#
#
# Indices 1 2 3 4 5 6 
#
# 1 0.021417 -0.002403 0.004660 0.000000 -0.040949 0.000000
# 2 -0.002403 0.008630 -0.003044 0.000000 -0.002570 0.000000
# 3 0.004660 -0.003044 0.014245 0.000000 -0.026474 0.000000
# 4 0.000000 0.000000 0.000000 0.036682 0.000000 0.006002
# 5 -0.040949 -0.002570 -0.026474 0.000000 0.175869 0.000000
# 6 0.000000 0.000000 0.000000 0.006002 0.000000 0.040908
#
#
# Mechanical properties :
#
#
# Convention : Reuss Voigt Hill
#
# Bulk Modulus (GPa) = 23.40973 72.35416 47.88194
# Shear Modulus (GPa) = 15.94574 30.01303 22.97939
#
# Velocity S-wave (km/s) = 2.88529 3.95842 3.46367
# Velocity P-wave (km/s) = 4.82924 7.65941 6.40266
#
# Compressibility (1/GPa) = 0.04271729
#
# Stress axis : x y z
#
# Youngs Moduli (GPa) = 46.69276 115.87572 70.20038
#
# Poissons Ratio (x) = 0.27846 -0.32711
# Poissons Ratio (y) = 0.11221 0.21367
# Poissons Ratio (z) = -0.21757 0.35268
#
# Static dielectric constant tensor:
#      x y z
#    x 1.711670 0.000000 0.027930 
#    y 0.000000 1.652480 0.000000 
#    z 0.027930 0.000000 1.681370 
# 
# From -- ./inp_files/338726.got.cif
#   From: 2010.05.17/outbox.cif.g08.bks.cpg/sg12_170_cif.got.tgz:338726.got - 2010.06.03 13:09:07.
