data_PCOD9210728
_publ_section_title
;
Structure prediction by ZEFSAII (Michael W. Deem and Ramdas Pophale) SiO2 
 PCOD9210728
Probable space group: C 2/M
;
_chemical_formula_sum "Si O2"
_cell_formula_units_Z 36
_cell_length_a 19.409523
_cell_length_b 15.309445
_cell_length_c 16.349172
_cell_angle_alpha 90.000000
_cell_angle_beta 20.509744
_cell_angle_gamma 90.000000
_cell_volume 1702.130521
_symmetry_space_group_name_H-M "C 2/M"
_symmetry_group_IT_number 12
_symmetry_cell_setting 'monoclinic'
loop_
_space_group_symop_operation_xyz
x,y,z
-x,y,-z
-x,-y,-z
x,-y,z
1/2+x,1/2+y,z
1/2-x,1/2+y,-z
1/2-x,1/2-y,-z
1/2+x,1/2-y,z
loop_
_atom_site_type_symbol
_atom_site_label
_atom_site_fract_x
_atom_site_fract_y
_atom_site_fract_z
Si Si1 0.721653 0.896356 0.077721
Si Si2 0.500000 0.234125 0.000000
Si Si3 0.579015 0.770280 0.499698
Si Si4 0.045235 0.597670 0.097274
Si Si5 0.142176 0.164503 0.583872
O O1 0.559368 0.845636 0.310743
O O2 0.668691 0.879012 0.041059
O O3 0.710848 0.000000 0.102003
O O4 0.942715 0.863285 0.850062
O O5 0.689987 0.291043 0.766595
O O6 0.446534 0.169779 0.983368
O O7 0.500000 0.743723 0.500000
O O8 0.577322 0.691155 0.565069
O O9 0.100809 0.500000 0.007251
O O10 0.818512 0.596600 0.380104
O O11 0.250000 0.250000 0.500000
#
# Coordination Sequence:
#
# PCOD9210728 Si02
#       5
#     8   4   8   8   8
#     4  11  24  41  63  91 124 163 206 256 310 364
#     4  10  23  38  61  96 124 166 206 254 299 368
#     4  11  24  38  64  90 126 163 209 252 304 363
#     4  10  21  39  63  93 126 160 200 256 314 365
#     4  11  22  39  66  92 118 161 210 256 303 365
#
# _framework density 21.149964000000001
#
# number of rings (size 3 to 8) (size 9 to 14) (size 15 to 20)
#    0.000    1.333    2.222    3.000    6.222    0.444 
#    0.000    0.556    0.000   10.667    0.000    0.000 
#    0.000    0.000    0.000    0.000    0.000    0.000 
#
# Total GULP energy -100558.425126 kJ/mol
# GULP energy per Si atom -5586.579174 kJ/mol
# Density = 2.110183 g / cm^3
# Si number density = 21.149964 Si / 1000 Ang^3
#
#
#
# Elastic Constant Matrix: (Units=GPa)
#
#
# Indices 1 2 3 4 5 6 
#
# 1 95.1816 24.2072 12.4832 -0.0026 -11.0235 0.0004
# 2 24.2072 44.9385 32.8743 -0.0029 -12.9838 0.0010
# 3 12.4832 32.8743 183.0098 -0.0061 -19.4481 0.0036
# 4 -0.0026 -0.0029 -0.0061 12.4317 0.0006 7.1746
# 5 -11.0235 -12.9838 -19.4481 0.0006 25.7675 -0.0006
# 6 0.0004 0.0010 0.0036 7.1746 -0.0006 -1.9215
#
#
#
# Elastic Compliance Matrix: (Units=1/GPa)
#
#
# Indices 1 2 3 4 5 6 
#
# 1 0.012333 -0.006329 0.000563 0.000001 0.002511 0.000001
# 2 -0.006329 0.031631 -0.004179 0.000000 0.010076 0.000006
# 3 0.000563 -0.004179 0.006500 -0.000001 0.003040 0.000006
# 4 0.000001 0.000000 -0.000001 0.025497 0.000001 0.095201
# 5 0.002511 0.010076 0.003040 0.000001 0.047255 0.000001
# 6 0.000001 0.000006 0.000006 0.095201 0.000001 -0.164959
#
#
# Mechanical properties :
#
#
# Convention : Reuss Voigt Hill
#
# Bulk Modulus (GPa) = 32.71071 51.36214 42.03642
# Shear Modulus (GPa) = -428.80566 24.15988 -202.32289
#
# Velocity S-wave (km/s) = -14.25431 3.38348 -9.79126
# Velocity P-wave (km/s) = 15.98169 6.29296 10.38780
#
# Compressibility (1/GPa) = 0.03057103
#
# Stress axis : x y z
#
# Youngs Moduli (GPa) = 81.08288 31.61484 153.85437
#
# Poissons Ratio (x) = 0.20010 -0.08656
# Poissons Ratio (y) = 0.51321 0.64301
# Poissons Ratio (z) = -0.04562 0.13213
#
# Static dielectric constant tensor:
#      x y z
#    x 1.783240 0.000000 -0.002760 
#    y 0.000000 1.743110 0.000000 
#    z -0.002760 0.000000 1.812190 
# 
# From -- ./inp_files/284196.got.cif
#   From: 2010.05.17/outbox.cif.g08.bks.cpg/sg12_143_cif.got.tgz:284196.got - 2010.06.03 13:09:07.
