data_PCOD9210942
_publ_section_title
;
Structure prediction by ZEFSAII (Michael W. Deem and Ramdas Pophale) SiO2 
 PCOD9210942
Probable space group: C 2/M
;
_chemical_formula_sum "Si O2"
_cell_formula_units_Z 32
_cell_length_a 10.967912
_cell_length_b 19.825050
_cell_length_c 10.316660
_cell_angle_alpha 90.000000
_cell_angle_beta 40.067194
_cell_angle_gamma 90.000000
_cell_volume 1443.946582
_symmetry_space_group_name_H-M "C 2/M"
_symmetry_group_IT_number 12
_symmetry_cell_setting 'monoclinic'
loop_
_space_group_symop_operation_xyz
x,y,z
-x,y,-z
-x,-y,-z
x,-y,z
1/2+x,1/2+y,z
1/2-x,1/2+y,-z
1/2-x,1/2-y,-z
1/2+x,1/2-y,z
loop_
_atom_site_type_symbol
_atom_site_label
_atom_site_fract_x
_atom_site_fract_y
_atom_site_fract_z
Si Si1 0.204011 0.644079 0.288836
Si Si2 0.221352 0.347685 0.966712
Si Si3 0.270492 0.500000 0.193150
Si Si4 0.331050 0.000000 0.030050
Si Si5 0.060870 0.759731 0.736700
O O1 0.229657 0.643256 0.115008
O O2 0.216087 0.566068 0.317151
O O3 0.367905 0.686311 0.218673
O O4 0.000000 0.670382 0.500000
O O5 0.021501 0.306944 0.125707
O O6 0.245370 0.422376 0.887087
O O7 0.388814 0.295033 0.797023
O O8 0.500000 0.500000 0.000000
O O9 0.171243 0.500000 0.129334
O O10 0.500000 0.000000 0.000000
O O11 0.250000 0.750000 0.500000
#
# Coordination Sequence:
#
# PCOD9210942 Si02
#       5
#     8   8   4   4   8
#     4  11  20  37  62  94 125 167 217 274 331 391
#     4  10  23  41  64  91 130 172 219 271 327 392
#     4  10  21  39  64  97 129 169 223 277 328 392
#     4  10  22  43  66  95 131 180 219 266 338 395
#     4  11  22  39  62  95 130 167 218 273 331 390
#
# _framework density 22.161484000000002
#
# number of rings (size 3 to 8) (size 9 to 14) (size 15 to 20)
#    0.000    1.500    2.500    4.125    0.000    4.000 
#    0.000    1.250    0.000    1.500    0.000    0.000 
#    0.000    0.000    0.000    0.000    0.000    0.000 
#
# Total GULP energy -89079.797946 kJ/mol
# GULP energy per Si atom -5567.487372 kJ/mol
# Density = 2.211104 g / cm^3
# Si number density = 22.161484 Si / 1000 Ang^3
#
#
#
# Elastic Constant Matrix: (Units=GPa)
#
#
# Indices 1 2 3 4 5 6 
#
# 1 74.5658 20.9310 12.4686 -0.0001 -6.5310 0.0001
# 2 20.9310 175.6215 31.7420 0.0000 -11.4562 0.0000
# 3 12.4686 31.7420 139.5073 -0.0001 -26.6119 0.0001
# 4 -0.0001 0.0000 -0.0001 30.6724 0.0000 -5.6665
# 5 -6.5310 -11.4562 -26.6119 0.0000 26.0653 -0.0001
# 6 0.0001 0.0000 0.0001 -5.6665 -0.0001 31.2641
#
#
#
# Elastic Compliance Matrix: (Units=1/GPa)
#
#
# Indices 1 2 3 4 5 6 
#
# 1 0.014106 -0.001438 -0.000472 0.000000 0.002421 0.000000
# 2 -0.001438 0.006134 -0.001020 0.000000 0.001294 0.000000
# 3 -0.000472 -0.001020 0.009108 0.000000 0.008733 0.000000
# 4 0.000000 0.000000 0.000000 0.033732 0.000000 0.006114
# 5 0.002421 0.001294 0.008733 0.000000 0.048456 0.000000
# 6 0.000000 0.000000 0.000000 0.006114 0.000000 0.033094
#
#
# Mechanical properties :
#
#
# Convention : Reuss Voigt Hill
#
# Bulk Modulus (GPa) = 42.57521 57.77529 50.17525
# Shear Modulus (GPa) = 31.58175 39.23724 35.40949
#
# Velocity S-wave (km/s) = 3.77911 4.21231 4.00158
# Velocity P-wave (km/s) = 6.18832 7.05584 6.63627
#
# Compressibility (1/GPa) = 0.02348785
#
# Stress axis : x y z
#
# Youngs Moduli (GPa) = 70.89421 163.01838 109.79121
#
# Poissons Ratio (x) = 0.23441 0.05179
# Poissons Ratio (y) = 0.10194 0.11203
# Poissons Ratio (z) = 0.03344 0.16634
#
# Static dielectric constant tensor:
#      x y z
#    x 1.926650 0.000000 -0.022710 
#    y 0.000000 1.930470 0.000000 
#    z -0.022710 0.000000 1.924740 
# 
# From -- ./inp_files/135098.got.cif
#   From: 2010.05.17/outbox.cif.g08.bks.cpg/sg12_68_cif.got.tgz:135098.got - 2010.06.03 13:09:07.
