data_PCOD9210450
_publ_section_title
;
Structure prediction by ZEFSAII (Michael W. Deem and Ramdas Pophale) SiO2 
 PCOD9210450
Probable space group: C 2/M
;
_chemical_formula_sum "Si O2"
_cell_formula_units_Z 56
_cell_length_a 9.623903
_cell_length_b 23.428882
_cell_length_c 14.087443
_cell_angle_alpha 90.000000
_cell_angle_beta 59.839076
_cell_angle_gamma 90.000000
_cell_volume 2746.370195
_symmetry_space_group_name_H-M "C 2/M"
_symmetry_group_IT_number 12
_symmetry_cell_setting 'monoclinic'
loop_
_space_group_symop_operation_xyz
x,y,z
-x,y,-z
-x,-y,-z
x,-y,z
1/2+x,1/2+y,z
1/2-x,1/2+y,-z
1/2-x,1/2-y,-z
1/2+x,1/2-y,z
loop_
_atom_site_type_symbol
_atom_site_label
_atom_site_fract_x
_atom_site_fract_y
_atom_site_fract_z
Si Si1 0.985986 0.933643 0.707647
Si Si2 0.628389 0.249157 0.184333
Si Si3 0.825607 0.383300 0.526448
Si Si4 0.146242 0.334658 0.010092
Si Si5 0.826300 0.857655 0.609921
Si Si6 0.771245 0.226314 0.329195
Si Si7 0.370356 0.563355 0.961628
O O1 0.169435 0.915258 0.622446
O O2 0.860148 0.894404 0.692384
O O3 0.952042 0.928368 0.830884
O O4 0.965319 0.000000 0.686876
O O5 0.745660 0.295317 0.096376
O O6 0.714254 0.215877 0.240712
O O7 0.463036 0.277807 0.274718
O O8 0.584733 0.205736 0.115287
O O9 0.800199 0.383488 0.421749
O O10 0.808194 0.318126 0.571427
O O11 0.000000 0.404585 0.500000
O O12 0.247911 0.385665 0.017230
O O13 0.000000 0.358040 0.000000
O O14 0.777463 0.792121 0.640332
O O15 0.000000 0.858076 0.500000
O O16 0.295893 0.500000 0.987514
O O17 0.500000 0.565509 0.000000
#
# Coordination Sequence:
#
# PCOD9210450 Si02
#       7
#     8   8   8   8   8   8   8
#     4  10  23  44  67  90 122 168 216 254 309 380
#     4  11  24  35  57  90 122 171 201 253 315 366
#     4  11  23  37  61  95 128 166 204 260 317 364
#     4  11  23  40  57  88 129 157 214 257 305 383
#     4  10  21  39  62  89 123 165 212 254 309 371
#     4  12  21  38  59  88 130 163 208 252 316 382
#     4  10  23  43  69  94 121 162 207 262 321 374
#
# _framework density 20.390550999999999
#
# number of rings (size 3 to 8) (size 9 to 14) (size 15 to 20)
#    0.000    1.286    1.429    5.143    4.000    3.143 
#    0.000    0.000    0.000    0.000    0.000    0.000 
#    0.000    0.000    0.000    0.000    0.000    0.000 
#
# Total GULP energy -156535.856286 kJ/mol
# GULP energy per Si atom -5590.566296 kJ/mol
# Density = 2.034414 g / cm^3
# Si number density = 20.390551 Si / 1000 Ang^3
#
#
#
# Elastic Constant Matrix: (Units=GPa)
#
#
# Indices 1 2 3 4 5 6 
#
# 1 93.0676 8.2637 15.7006 0.0000 19.5545 0.0000
# 2 8.2637 66.3339 10.8397 0.0000 12.1492 0.0000
# 3 15.7006 10.8397 45.6146 0.0000 21.4901 0.0000
# 4 0.0000 0.0000 0.0000 20.7283 0.0000 5.4972
# 5 19.5545 12.1492 21.4901 0.0000 29.2080 0.0000
# 6 0.0000 0.0000 0.0000 5.4972 0.0000 29.1376
#
#
#
# Elastic Compliance Matrix: (Units=1/GPa)
#
#
# Indices 1 2 3 4 5 6 
#
# 1 0.012513 -0.000009 -0.000551 0.000000 -0.007968 0.000000
# 2 -0.000009 0.016351 -0.001042 0.000000 -0.006028 0.000000
# 3 -0.000551 -0.001042 0.033644 0.000000 -0.023952 0.000000
# 4 0.000000 0.000000 0.000000 0.050784 0.000000 -0.009581
# 5 -0.007968 -0.006028 -0.023952 0.000000 0.059702 0.000000
# 6 0.000000 0.000000 0.000000 -0.009581 0.000000 0.036128
#
#
# Mechanical properties :
#
#
# Convention : Reuss Voigt Hill
#
# Bulk Modulus (GPa) = 16.86263 30.51380 23.68821
# Shear Modulus (GPa) = 21.54294 27.16222 24.35258
#
# Velocity S-wave (km/s) = 3.25393 3.65375 3.45962
# Velocity P-wave (km/s) = 4.73342 5.72687 5.25368
#
# Compressibility (1/GPa) = 0.05930274
#
# Stress axis : x y z
#
# Youngs Moduli (GPa) = 79.91803 61.15910 29.72269
#
# Poissons Ratio (x) = 0.00058 0.01637
# Poissons Ratio (y) = 0.00075 0.03098
# Poissons Ratio (z) = 0.04401 0.06375
#
# Static dielectric constant tensor:
#      x y z
#    x 1.706010 0.000000 0.022350 
#    y 0.000000 1.719360 0.000000 
#    z 0.022350 0.000000 1.731960 
# 
# From -- ./inp_files/198358.got.cif
#   From: 2010.05.17/outbox.cif.g08.bks.cpg/sg12_100_cif.got.tgz:198358.got - 2010.06.03 13:09:07.
