data_PCOD9210823
_publ_section_title
;
Structure prediction by ZEFSAII (Michael W. Deem and Ramdas Pophale) SiO2 
 PCOD9210823
Probable space group: C 2/M
;
_chemical_formula_sum "Si O2"
_cell_formula_units_Z 56
_cell_length_a 9.786254
_cell_length_b 23.083100
_cell_length_c 14.677814
_cell_angle_alpha 90.000000
_cell_angle_beta 120.348627
_cell_angle_gamma 90.000000
_cell_volume 2861.318537
_symmetry_space_group_name_H-M "C 2/M"
_symmetry_group_IT_number 12
_symmetry_cell_setting 'monoclinic'
loop_
_space_group_symop_operation_xyz
x,y,z
-x,y,-z
-x,-y,-z
x,-y,z
1/2+x,1/2+y,z
1/2-x,1/2+y,-z
1/2-x,1/2-y,-z
1/2+x,1/2-y,z
loop_
_atom_site_type_symbol
_atom_site_label
_atom_site_fract_x
_atom_site_fract_y
_atom_site_fract_z
Si Si1 0.630702 0.500000 0.922026
Si Si2 0.356510 0.432118 0.392528
Si Si3 0.365744 0.390572 0.197274
Si Si4 0.244724 0.000000 0.169580
Si Si5 0.487206 0.895097 0.272637
Si Si6 0.567579 0.216237 0.623814
Si Si7 0.060087 0.784481 0.248863
Si Si8 0.046378 0.323415 0.120259
O O1 0.682467 0.441182 0.888181
O O2 0.436353 0.500000 0.853392
O O3 0.706306 0.500000 0.048069
O O4 0.500000 0.405045 0.500000
O O5 0.350933 0.500000 0.411255
O O6 0.405933 0.421831 0.305028
O O7 0.173718 0.412320 0.341988
O O8 0.504688 0.349288 0.208556
O O9 0.226866 0.345503 0.175889
O O10 0.356046 0.054498 0.234910
O O11 0.467563 0.845843 0.342082
O O12 0.465203 0.867096 0.164515
O O13 0.500000 0.222687 0.500000
O O14 0.754094 0.220828 0.680069
O O15 0.507239 0.263090 0.676785
O O16 0.015816 0.739209 0.154472
O O17 0.000000 0.324805 0.000000
#
# Coordination Sequence:
#
# PCOD9210823 Si02
#       8
#     4   8   8   4   8   8   8   8
#     4  11  24  39  65  93 122 178 211 265 326 384
#     4  10  21  39  64  90 123 165 204 255 320 378
#     4  11  22  41  63  93 127 160 218 265 312 391
#     4  11  22  43  60  90 131 167 214 260 334 377
#     4  10  22  41  63  94 131 161 212 274 314 392
#     4  11  24  42  64  93 126 171 215 264 329 382
#     4  11  23  43  62  93 130 166 215 269 317 382
#     4  10  22  41  64  94 123 168 215 262 328 380
#
# _framework density 19.571396
#
# number of rings (size 3 to 8) (size 9 to 14) (size 15 to 20)
#    0.000    1.429    2.857    2.143    2.000    1.143 
#    5.143    2.500    0.000    0.000    0.000    0.000 
#    0.000    0.000    0.000    0.000    0.000    0.000 
#
# Total GULP energy -156142.129394 kJ/mol
# GULP energy per Si atom -5576.504621 kJ/mol
# Density = 1.952685 g / cm^3
# Si number density = 19.571396 Si / 1000 Ang^3
#
#
#
# Elastic Constant Matrix: (Units=GPa)
#
#
# Indices 1 2 3 4 5 6 
#
# 1 64.5689 21.7214 2.9172 0.0000 3.6519 0.0000
# 2 21.7214 75.0840 15.9671 0.0000 0.2877 0.0000
# 3 2.9172 15.9671 79.2080 0.0000 -12.3338 0.0000
# 4 0.0000 0.0000 0.0000 8.3584 0.0000 6.8749
# 5 3.6519 0.2877 -12.3338 0.0000 27.8013 0.0000
# 6 0.0000 0.0000 0.0000 6.8749 0.0000 23.2848
#
#
#
# Elastic Compliance Matrix: (Units=1/GPa)
#
#
# Indices 1 2 3 4 5 6 
#
# 1 0.017293 -0.005000 0.000027 0.000000 -0.002208 0.000000
# 2 -0.005000 0.015418 -0.003058 0.000000 -0.000859 0.000000
# 3 0.000027 -0.003058 0.014228 0.000000 0.006340 0.000000
# 4 0.000000 0.000000 0.000000 0.158014 0.000000 -0.046654
# 5 -0.002208 -0.000859 0.006340 0.000000 0.039081 0.000000
# 6 0.000000 0.000000 0.000000 -0.046654 0.000000 0.056721
#
#
# Mechanical properties :
#
#
# Convention : Reuss Voigt Hill
#
# Bulk Modulus (GPa) = 32.38564 33.34137 32.86350
# Shear Modulus (GPa) = 15.28540 23.77257 19.52899
#
# Velocity S-wave (km/s) = 2.79768 3.48898 3.16228
# Velocity P-wave (km/s) = 5.19802 5.77091 5.49194
#
# Compressibility (1/GPa) = 0.03087788
#
# Stress axis : x y z
#
# Youngs Moduli (GPa) = 57.82669 64.85717 70.28582
#
# Poissons Ratio (x) = 0.32430 -0.00192
# Poissons Ratio (y) = 0.28914 0.21492
# Poissons Ratio (z) = -0.00158 0.19832
#
# Static dielectric constant tensor:
#      x y z
#    x 1.633910 0.000000 0.058700 
#    y 0.000000 1.696810 0.000000 
#    z 0.058700 0.000000 1.683110 
# 
# From -- ./inp_files/199013.got.cif
#   From: 2010.05.17/outbox.cif.g08.bks.cpg/sg12_100_cif.got.tgz:199013.got - 2010.06.03 13:09:07.
