data_PCOD9210870
_publ_section_title
;
Structure prediction by ZEFSAII (Michael W. Deem and Ramdas Pophale) SiO2 
 PCOD9210870
Probable space group: C 2/M
;
_chemical_formula_sum "Si O2"
_cell_formula_units_Z 64
_cell_length_a 26.689145
_cell_length_b 8.409149
_cell_length_c 15.050676
_cell_angle_alpha 90.000000
_cell_angle_beta 62.237354
_cell_angle_gamma 90.000000
_cell_volume 2989.024496
_symmetry_space_group_name_H-M "C 2/M"
_symmetry_group_IT_number 12
_symmetry_cell_setting 'monoclinic'
loop_
_space_group_symop_operation_xyz
x,y,z
-x,y,-z
-x,-y,-z
x,-y,z
1/2+x,1/2+y,z
1/2-x,1/2+y,-z
1/2-x,1/2-y,-z
1/2+x,1/2-y,z
loop_
_atom_site_type_symbol
_atom_site_label
_atom_site_fract_x
_atom_site_fract_y
_atom_site_fract_z
Si Si1 0.807736 0.689979 0.992400
Si Si2 0.302342 0.187353 0.660858
Si Si3 0.022553 0.815375 0.071229
Si Si4 0.002797 0.807722 0.286260
Si Si5 0.875030 0.811736 0.441386
Si Si6 0.641998 0.321028 0.884304
Si Si7 0.877841 0.691728 0.764190
Si Si8 0.683298 0.816722 0.684021
O O1 0.810847 0.500000 0.998043
O O2 0.854624 0.739889 0.880592
O O3 0.750000 0.750000 0.000000
O O4 0.810443 0.764307 0.087716
O O5 0.346657 0.217518 0.544992
O O6 0.333974 0.247783 0.724183
O O7 0.243536 0.264863 0.676220
O O8 0.291514 0.000000 0.681416
O O9 0.009346 0.748375 0.178636
O O10 0.000629 0.000000 0.090865
O O11 0.088349 0.819467 0.993404
O O12 0.000000 0.735268 0.000000
O O13 0.057396 0.749748 0.295996
O O14 0.940456 0.763365 0.371839
O O15 0.005411 0.000000 0.282054
O O16 0.838210 0.780547 0.383001
O O17 0.873753 0.000000 0.462022
O O18 0.639027 0.211756 0.800841
O O19 0.849375 0.000000 0.155300
O O20 0.878039 0.500000 0.760127
O O21 0.686374 0.000000 0.655702
#
# Coordination Sequence:
#
# PCOD9210870 Si02
#       8
#     8   8   8   8   8   8   8   8
#     4  11  22  37  58  87 123 163 209 257 309 370
#     4  11  24  44  67  92 124 167 215 265 326 383
#     4   9  17  32  56  86 119 158 202 246 296 359
#     4  10  21  39  64  92 125 168 214 260 311 376
#     4  11  24  43  67  95 126 164 211 266 324 381
#     4  11  21  36  60  89 124 162 202 247 304 369
#     4  10  23  41  62  89 127 168 209 262 319 375
#     4  12  25  42  65  95 129 165 210 264 321 384
#
# _framework density 21.411669
#
# number of rings (size 3 to 8) (size 9 to 14) (size 15 to 20)
#    0.000    1.375    1.250    4.500    0.000    6.000 
#    0.000    2.500    0.000    1.875    0.000    0.000 
#    0.000    0.000    0.000    0.000    0.000    0.000 
#
# Total GULP energy -178702.895733 kJ/mol
# GULP energy per Si atom -5584.465492 kJ/mol
# Density = 2.136294 g / cm^3
# Si number density = 21.411669 Si / 1000 Ang^3
#
#
#
# Elastic Constant Matrix: (Units=GPa)
#
#
# Indices 1 2 3 4 5 6 
#
# 1 94.4455 7.5439 11.7939 0.0000 0.9609 0.0000
# 2 7.5439 13.5475 -7.4329 0.0000 -10.0019 0.0000
# 3 11.7939 -7.4329 64.6858 0.0000 -5.1330 0.0000
# 4 0.0000 0.0000 0.0000 23.7725 0.0000 0.8865
# 5 0.9609 -10.0019 -5.1330 0.0000 35.7433 0.0000
# 6 0.0000 0.0000 0.0000 0.8865 0.0000 27.9644
#
#
#
# Elastic Compliance Matrix: (Units=1/GPa)
#
#
# Indices 1 2 3 4 5 6 
#
# 1 0.012081 -0.012016 -0.003921 0.000000 -0.004250 0.000000
# 2 -0.012016 0.117009 0.018470 0.000000 0.035718 0.000000
# 3 -0.003921 0.018470 0.018931 0.000000 0.007992 0.000000
# 4 0.000000 0.000000 0.000000 0.042115 0.000000 -0.001335
# 5 -0.004250 0.035718 0.007992 0.000000 0.039234 0.000000
# 6 0.000000 0.000000 0.000000 -0.001335 0.000000 0.035802
#
#
# Mechanical properties :
#
#
# Convention : Reuss Voigt Hill
#
# Bulk Modulus (GPa) = 6.53220 21.83205 14.18212
# Shear Modulus (GPa) = 16.07028 28.21429 22.14228
#
# Velocity S-wave (km/s) = 2.74257 3.63396 3.21927
# Velocity P-wave (km/s) = 3.61750 5.27504 4.52285
#
# Compressibility (1/GPa) = 0.15308776
#
# Stress axis : x y z
#
# Youngs Moduli (GPa) = 82.77651 8.54637 52.82404
#
# Poissons Ratio (x) = 0.10269 0.20710
# Poissons Ratio (y) = 0.99464 -0.97568
# Poissons Ratio (z) = 0.32453 -0.15785
#
# Static dielectric constant tensor:
#      x y z
#    x 1.830080 0.000000 -0.016950 
#    y 0.000000 1.760520 0.000000 
#    z -0.016950 0.000000 1.800130 
# 
# From -- ./inp_files/243899.got.cif
#   From: 2010.05.17/outbox.cif.g08.bks.cpg/sg12_122_cif.got.tgz:243899.got - 2010.06.03 13:09:07.
