data_PCOD9210644
_publ_section_title
;
Structure prediction by ZEFSAII (Michael W. Deem and Ramdas Pophale) SiO2 
 PCOD9210644
Probable space group: C 2/M
;
_chemical_formula_sum "Si O2"
_cell_formula_units_Z 64
_cell_length_a 30.604528
_cell_length_b 9.160150
_cell_length_c 16.403261
_cell_angle_alpha 90.000000
_cell_angle_beta 46.296212
_cell_angle_gamma 90.000000
_cell_volume 3324.371791
_symmetry_space_group_name_H-M "C 2/M"
_symmetry_group_IT_number 12
_symmetry_cell_setting 'monoclinic'
loop_
_space_group_symop_operation_xyz
x,y,z
-x,y,-z
-x,-y,-z
x,-y,z
1/2+x,1/2+y,z
1/2-x,1/2+y,-z
1/2-x,1/2-y,-z
1/2+x,1/2-y,z
loop_
_atom_site_type_symbol
_atom_site_label
_atom_site_fract_x
_atom_site_fract_y
_atom_site_fract_z
Si Si1 0.224653 0.669119 0.453868
Si Si2 0.998268 0.173606 0.767792
Si Si3 0.617289 0.826331 0.160305
Si Si4 0.347327 0.324746 0.719963
Si Si5 0.451530 0.170931 0.135661
Si Si6 0.614770 0.672874 0.509463
Si Si7 0.794727 0.326785 0.095823
Si Si8 0.841697 0.830253 0.190727
O O1 0.213876 0.500000 0.486771
O O2 0.250000 0.750000 0.500000
O O3 0.164209 0.742344 0.498392
O O4 0.276753 0.678649 0.318395
O O5 0.023348 0.244097 0.818440
O O6 0.049141 0.195418 0.632587
O O7 0.937552 0.252006 0.817251
O O8 0.989136 0.000000 0.790194
O O9 0.624332 0.756524 0.239869
O O10 0.608010 0.000000 0.177407
O O11 0.677572 0.799934 0.028905
O O12 0.352442 0.500000 0.724755
O O13 0.378241 0.285621 0.594212
O O14 0.275905 0.288549 0.807544
O O15 0.390249 0.243359 0.181643
O O16 0.442382 0.000000 0.166852
O O17 0.500000 0.180708 0.000000
O O18 0.628739 0.500000 0.496823
O O19 0.800390 0.500000 0.105887
O O20 0.833127 0.240059 0.113223
O O21 0.859479 0.000000 0.162354
#
# Coordination Sequence:
#
# PCOD9210644 Si02
#       8
#     8   8   8   8   8   8   8   8
#     4  11  23  37  57  87 120 155 196 242 295 355
#     4  11  24  42  63  89 121 160 206 253 301 358
#     4  11  24  40  61  91 123 158 203 252 303 364
#     4  10  21  40  65  90 119 158 201 251 308 359
#     4  11  24  41  61  87 121 162 206 250 299 357
#     4  10  22  41  64  88 119 158 203 250 298 358
#     4  10  21  39  63  90 122 160 201 247 305 364
#     4  11  23  37  58  90 122 155 197 244 298 359
#
# _framework density 19.251757000000001
#
# number of rings (size 3 to 8) (size 9 to 14) (size 15 to 20)
#    0.000    1.375    1.250    3.750    0.000   12.000 
#    0.000    2.500    0.000    0.000    0.000    0.000 
#    0.000    0.000    0.000    0.000    0.000    0.000 
#
# Total GULP energy -178964.947921 kJ/mol
# GULP energy per Si atom -5592.654623 kJ/mol
# Density = 1.920794 g / cm^3
# Si number density = 19.251757 Si / 1000 Ang^3
#
#
#
# Elastic Constant Matrix: (Units=GPa)
#
#
# Indices 1 2 3 4 5 6 
#
# 1 79.3376 31.1203 17.3920 0.0001 14.7726 -0.0001
# 2 31.1203 57.4019 38.3116 0.0003 5.8174 -0.0001
# 3 17.3920 38.3116 74.3766 0.0001 14.1077 0.0000
# 4 0.0001 0.0003 0.0001 31.1821 0.0000 3.8026
# 5 14.7726 5.8174 14.1077 0.0000 34.6212 0.0000
# 6 -0.0001 -0.0001 0.0000 3.8026 0.0000 41.6453
#
#
#
# Elastic Compliance Matrix: (Units=1/GPa)
#
#
# Indices 1 2 3 4 5 6 
#
# 1 0.017401 -0.010497 0.002614 0.000000 -0.006726 0.000000
# 2 -0.010497 0.032926 -0.015504 0.000000 0.005264 0.000000
# 3 0.002614 -0.015504 0.022258 0.000000 -0.007580 0.000000
# 4 0.000000 0.000000 0.000000 0.032431 0.000000 -0.002961
# 5 -0.006726 0.005264 -0.007580 0.000000 0.033958 0.000000
# 6 0.000000 0.000000 0.000000 -0.002961 0.000000 0.024283
#
#
# Mechanical properties :
#
#
# Convention : Reuss Voigt Hill
#
# Bulk Modulus (GPa) = 38.74379 42.75155 40.74767
# Shear Modulus (GPa) = 22.86906 29.77589 26.32247
#
# Velocity S-wave (km/s) = 3.45032 3.93702 3.70168
# Velocity P-wave (km/s) = 6.00345 6.55146 6.28344
#
# Compressibility (1/GPa) = 0.02581059
#
# Stress axis : x y z
#
# Youngs Moduli (GPa) = 57.46733 30.37073 44.92750
#
# Poissons Ratio (x) = 0.31880 -0.11743
# Poissons Ratio (y) = 0.60322 0.69658
# Poissons Ratio (z) = -0.15020 0.47088
#
# Static dielectric constant tensor:
#      x y z
#    x 1.618000 0.000000 -0.007170 
#    y 0.000000 1.645530 0.000000 
#    z -0.007170 0.000000 1.686800 
# 
# From -- ./inp_files/249830.got.cif
#   From: 2010.05.17/outbox.cif.g08.bks.cpg/sg12_125_cif.got.tgz:249830.got - 2010.06.03 13:09:07.
