data_PCOD9210760
_publ_section_title
;
Structure prediction by ZEFSAII (Michael W. Deem and Ramdas Pophale) SiO2 
 PCOD9210760
Probable space group: C 2/M
;
_chemical_formula_sum "Si O2"
_cell_formula_units_Z 56
_cell_length_a 21.890185
_cell_length_b 22.938691
_cell_length_c 19.038367
_cell_angle_alpha 90.000000
_cell_angle_beta 162.899869
_cell_angle_gamma 90.000000
_cell_volume 2810.980803
_symmetry_space_group_name_H-M "C 2/M"
_symmetry_group_IT_number 12
_symmetry_cell_setting 'monoclinic'
loop_
_space_group_symop_operation_xyz
x,y,z
-x,y,-z
-x,-y,-z
x,-y,z
1/2+x,1/2+y,z
1/2-x,1/2+y,-z
1/2-x,1/2-y,-z
1/2+x,1/2-y,z
loop_
_atom_site_type_symbol
_atom_site_label
_atom_site_fract_x
_atom_site_fract_y
_atom_site_fract_z
Si Si1 0.154944 0.865547 0.730003
Si Si2 0.919734 0.156492 0.089395
Si Si3 0.068083 0.434037 0.741342
Si Si4 0.625002 0.432651 0.208961
Si Si5 0.536537 0.066394 0.209763
Si Si6 0.454432 0.240387 0.028528
Si Si7 0.657625 0.330216 0.491339
O O1 0.000000 0.888177 0.500000
O O2 0.015303 0.839585 0.639233
O O3 0.315689 0.912774 0.936314
O O4 0.297493 0.814151 0.854304
O O5 0.860212 0.209897 0.974082
O O6 0.055481 0.112857 0.191117
O O7 0.045371 0.180683 0.294081
O O8 0.731021 0.116871 0.908587
O O9 0.155129 0.500000 0.828882
O O10 0.981822 0.430052 0.725985
O O11 0.873244 0.427770 0.474948
O O12 0.584178 0.500000 0.185679
O O13 0.500000 0.422167 0.000000
O O14 0.711867 0.110084 0.374945
O O15 0.582160 0.000000 0.240499
O O16 0.672394 0.217977 0.300777
O O17 0.500000 0.261383 0.000000
#
# Coordination Sequence:
#
# PCOD9210760 Si02
#       7
#     8   8   8   8   8   8   8
#     4  11  23  44  67  91 129 169 207 264 329 375
#     4  12  23  39  65  99 122 164 222 263 308 378
#     4  10  21  39  63  95 132 165 206 259 317 377
#     4  10  22  41  62  89 131 172 207 260 321 374
#     4  10  22  40  66  99 128 163 211 256 312 389
#     4  11  25  44  64  90 126 171 213 265 319 378
#     4  11  23  42  66  92 127 168 210 264 322 372
#
# _framework density 19.921872
#
# number of rings (size 3 to 8) (size 9 to 14) (size 15 to 20)
#    0.000    1.286    4.286    1.286    0.000    3.714 
#    2.571    2.857    0.000    0.000    0.000    0.000 
#    0.000    0.000    0.000    0.000    0.000    0.000 
#
# Total GULP energy -156483.263645 kJ/mol
# GULP energy per Si atom -5588.687987 kJ/mol
# Density = 1.987653 g / cm^3
# Si number density = 19.921872 Si / 1000 Ang^3
#
#
#
# Elastic Constant Matrix: (Units=GPa)
#
#
# Indices 1 2 3 4 5 6 
#
# 1 56.9362 -5.4327 13.2555 -0.0027 -15.4703 -0.0014
# 2 -5.4327 33.2002 -0.0984 0.0001 -14.4613 -0.0022
# 3 13.2555 -0.0984 88.9565 -0.0104 -27.7317 -0.0069
# 4 -0.0027 0.0001 -0.0104 32.4395 -0.0028 -0.0765
# 5 -15.4703 -14.4613 -27.7317 -0.0028 34.3510 -0.0033
# 6 -0.0014 -0.0022 -0.0069 -0.0765 -0.0033 25.6607
#
#
#
# Elastic Compliance Matrix: (Units=1/GPa)
#
#
# Indices 1 2 3 4 5 6 
#
# 1 0.022529 0.010630 0.001621 0.000004 0.015929 0.000005
# 2 0.010630 0.044968 0.007830 0.000006 0.030040 0.000010
# 3 0.001621 0.007830 0.016388 0.000007 0.017257 0.000007
# 4 0.000004 0.000006 0.000007 0.030827 0.000012 0.000092
# 5 0.015929 0.030040 0.017257 0.000012 0.062863 0.000016
# 6 0.000005 0.000010 0.000007 0.000092 0.000016 0.038970
#
#
# Mechanical properties :
#
#
# Convention : Reuss Voigt Hill
#
# Bulk Modulus (GPa) = 8.06148 21.61574 14.83861
# Shear Modulus (GPa) = 22.96403 29.91482 26.43942
#
# Velocity S-wave (km/s) = 3.39883 3.87926 3.64697
# Velocity P-wave (km/s) = 4.41113 5.56226 5.01980
#
# Compressibility (1/GPa) = 0.12404675
#
# Stress axis : x y z
#
# Youngs Moduli (GPa) = 44.38777 22.23819 61.01895
#
# Poissons Ratio (x) = -0.23639 -0.09889
# Poissons Ratio (y) = -0.47184 -0.47781
# Poissons Ratio (z) = -0.07194 -0.17414
#
# Static dielectric constant tensor:
#      x y z
#    x 1.680450 0.000000 -0.011720 
#    y 0.000000 1.682500 0.000000 
#    z -0.011720 0.000000 1.700680 
# 
# From -- ./inp_files/21687.got.cif
#   From: 2010.05.17/outbox.cif.g08.bks.cpg/sg12_11_cif.got.tgz:21687.got - 2010.06.03 13:09:07.
