data_PCOD9210019
_publ_section_title
;
Structure prediction by ZEFSAII (Michael W. Deem and Ramdas Pophale) SiO2 
 PCOD9210019
Probable space group: C 2/M
;
_chemical_formula_sum "Si O2"
_cell_formula_units_Z 40
_cell_length_a 13.315958
_cell_length_b 11.588486
_cell_length_c 11.815349
_cell_angle_alpha 90.000000
_cell_angle_beta 94.795132
_cell_angle_gamma 90.000000
_cell_volume 1816.866257
_symmetry_space_group_name_H-M "C 2/M"
_symmetry_group_IT_number 12
_symmetry_cell_setting 'monoclinic'
loop_
_space_group_symop_operation_xyz
x,y,z
-x,y,-z
-x,-y,-z
x,-y,z
1/2+x,1/2+y,z
1/2-x,1/2+y,-z
1/2-x,1/2-y,-z
1/2+x,1/2-y,z
loop_
_atom_site_type_symbol
_atom_site_label
_atom_site_fract_x
_atom_site_fract_y
_atom_site_fract_z
Si Si1 0.613754 0.636436 0.001595
Si Si2 0.617293 0.631269 0.258330
Si Si3 0.698870 0.870918 0.369930
Si Si4 0.882671 0.814111 0.240311
Si Si5 0.093662 0.631999 0.580826
O O1 0.606867 0.500000 0.976607
O O2 0.659827 0.686574 0.891137
O O3 0.500000 0.685202 0.000000
O O4 0.654993 0.644364 0.132006
O O5 0.647510 0.500000 0.299989
O O6 0.649679 0.751822 0.319540
O O7 0.494762 0.632695 0.247144
O O8 0.808111 0.873521 0.322742
O O9 0.688228 0.861487 0.504632
O O10 0.653513 0.000000 0.339587
O O11 0.892917 0.689974 0.298232
O O12 0.070304 0.500000 0.597508
O O13 0.000000 0.683844 0.500000
#
# Coordination Sequence:
#
# PCOD9210019 Si02
#       5
#     8   8   8   8   8
#     4   8  16  33  57  83 115 150 185 237 295 338
#     4  10  21  39  61  88 120 154 194 239 289 346
#     4  11  23  39  61  88 120 156 194 240 294 346
#     4  11  20  37  63  86 111 153 202 239 282 346
#     4  10  21  39  59  82 119 159 190 238 305 348
#
# _framework density 22.015930999999998
#
# number of rings (size 3 to 8) (size 9 to 14) (size 15 to 20)
#    0.000    2.000    2.000    3.600    0.000    1.600 
#    0.000    5.000    0.000    3.600    0.000    0.000 
#    0.000    0.000    0.000    0.000    0.000    0.000 
#
# Total GULP energy -111374.606933 kJ/mol
# GULP energy per Si atom -5568.730347 kJ/mol
# Density = 2.196582 g / cm^3
# Si number density = 22.015931 Si / 1000 Ang^3
#
#
#
# Elastic Constant Matrix: (Units=GPa)
#
#
# Indices 1 2 3 4 5 6 
#
# 1 73.4528 26.1616 19.8423 0.0000 -25.0983 0.0000
# 2 26.1616 157.4821 56.0758 0.0000 10.0073 0.0000
# 3 19.8423 56.0758 132.2114 0.0000 -21.9757 0.0000
# 4 0.0000 0.0000 0.0000 32.1469 0.0000 13.1350
# 5 -25.0983 10.0073 -21.9757 0.0000 29.4099 0.0000
# 6 0.0000 0.0000 0.0000 13.1350 0.0000 -5.1911
#
#
#
# Elastic Compliance Matrix: (Units=1/GPa)
#
#
# Indices 1 2 3 4 5 6 
#
# 1 0.023660 -0.006770 0.003493 0.000000 0.025105 0.000000
# 2 -0.006770 0.010327 -0.005604 0.000000 -0.013479 0.000000
# 3 0.003493 -0.005604 0.011679 0.000000 0.013615 0.000000
# 4 0.000000 0.000000 0.000000 0.015295 0.000000 0.038700
# 5 0.025105 -0.013479 0.013615 0.000000 0.070187 0.000000
# 6 0.000000 0.000000 0.000000 0.038700 0.000000 -0.094715
#
#
# Mechanical properties :
#
#
# Convention : Reuss Voigt Hill
#
# Bulk Modulus (GPa) = 35.83639 63.03398 49.43519
# Shear Modulus (GPa) = 78.74582 28.67756 53.71169
#
# Velocity S-wave (km/s) = 5.98709 3.61305 4.94466
# Velocity P-wave (km/s) = 8.00666 6.78960 7.42311
#
# Compressibility (1/GPa) = 0.02790459
#
# Stress axis : x y z
#
# Youngs Moduli (GPa) = 42.26552 96.83707 85.62045
#
# Poissons Ratio (x) = 0.65556 -0.29910
# Poissons Ratio (y) = 0.28612 0.47984
# Poissons Ratio (z) = -0.14765 0.54270
#
# Static dielectric constant tensor:
#      x y z
#    x 1.946320 0.000000 0.025950 
#    y 0.000000 1.830410 0.000000 
#    z 0.025950 0.000000 1.806570 
# 
# From -- ./inp_files/140292.got.cif
#   From: 2010.05.17/outbox.cif.g08.bks.cpg/sg12_71_cif.got.tgz:140292.got - 2010.06.03 13:09:07.
