data_PCOD9210013
_publ_section_title
;
Structure prediction by ZEFSAII (Michael W. Deem and Ramdas Pophale) SiO2 
 PCOD9210013
Probable space group: C 2/M
;
_chemical_formula_sum "Si O2"
_cell_formula_units_Z 64
_cell_length_a 25.047431
_cell_length_b 8.118086
_cell_length_c 22.453956
_cell_angle_alpha 90.000000
_cell_angle_beta 44.016677
_cell_angle_gamma 90.000000
_cell_volume 3172.574578
_symmetry_space_group_name_H-M "C 2/M"
_symmetry_group_IT_number 12
_symmetry_cell_setting 'monoclinic'
loop_
_space_group_symop_operation_xyz
x,y,z
-x,y,-z
-x,-y,-z
x,-y,z
1/2+x,1/2+y,z
1/2-x,1/2+y,-z
1/2-x,1/2-y,-z
1/2+x,1/2-y,z
loop_
_atom_site_type_symbol
_atom_site_label
_atom_site_fract_x
_atom_site_fract_y
_atom_site_fract_z
Si Si1 0.828130 0.198270 0.363383
Si Si2 0.993741 0.798312 0.436578
Si Si3 0.583058 0.805901 0.043165
Si Si4 0.843766 0.199246 0.485846
Si Si5 0.412698 0.696196 0.178381
Si Si6 0.832991 0.194413 0.909730
Si Si7 0.189734 0.699724 0.849056
Si Si8 0.643011 0.298368 0.243477
O O1 0.850574 0.256697 0.411628
O O2 0.739468 0.245621 0.424538
O O3 0.881481 0.258734 0.267083
O O4 0.833068 0.000000 0.359782
O O5 0.067274 0.744609 0.339196
O O6 0.000000 0.745640 0.500000
O O7 0.914742 0.744367 0.468865
O O8 0.993464 0.000000 0.436622
O O9 0.495184 0.772068 0.097378
O O10 0.604798 0.733041 0.089691
O O11 0.596234 0.000000 0.036972
O O12 0.640196 0.742902 0.945935
O O13 0.844342 0.000000 0.484831
O O14 0.422891 0.500000 0.173712
O O15 0.350593 0.736207 0.177811
O O16 0.852858 0.261218 0.828228
O O17 0.828169 0.000000 0.906604
O O18 0.750000 0.250000 0.000000
O O19 0.187066 0.500000 0.849812
O O20 0.277977 0.749602 0.787304
O O21 0.641393 0.500000 0.244101
#
# Coordination Sequence:
#
# PCOD9210013 Si02
#       8
#     8   8   8   8   8   8   8   8
#     4   9  20  37  55  79 112 147 183 231 289 344
#     4   9  18  31  54  88 115 140 184 235 277 334
#     4  11  23  40  59  85 116 151 195 241 289 341
#     4   9  18  34  58  82 108 144 188 232 278 333
#     4  11  24  38  57  85 113 150 194 238 293 349
#     4  11  21  37  61  87 119 159 195 237 288 345
#     4  10  21  39  59  81 114 153 191 236 287 342
#     4   9  19  35  56  83 117 154 188 229 289 343
#
# _framework density 20.172889999999999
#
# number of rings (size 3 to 8) (size 9 to 14) (size 15 to 20)
#    0.000    2.125    1.250    1.500    3.500    3.500 
#    0.000    0.000    0.000    1.125    0.000    0.000 
#    0.000    0.000    0.000    0.000    0.000    0.000 
#
# Total GULP energy -178731.953844 kJ/mol
# GULP energy per Si atom -5585.373558 kJ/mol
# Density = 2.012698 g / cm^3
# Si number density = 20.172890 Si / 1000 Ang^3
#
#
#
# Elastic Constant Matrix: (Units=GPa)
#
#
# Indices 1 2 3 4 5 6 
#
# 1 109.2077 -2.4379 36.9530 -0.0010 -3.9651 0.0012
# 2 -2.4379 9.9788 5.0546 0.0002 1.6128 0.0043
# 3 36.9530 5.0546 98.6216 -0.0029 0.9236 0.0036
# 4 -0.0010 0.0002 -0.0029 17.4660 0.0009 -1.0060
# 5 -3.9651 1.6128 0.9236 0.0009 22.3526 0.0004
# 6 0.0012 0.0043 0.0036 -1.0060 0.0004 28.4536
#
#
#
# Elastic Compliance Matrix: (Units=1/GPa)
#
#
# Indices 1 2 3 4 5 6 
#
# 1 0.010771 0.004517 -0.004284 0.000000 0.001762 -0.000001
# 2 0.004517 0.105952 -0.007061 -0.000003 -0.006552 -0.000015
# 3 -0.004284 -0.007061 0.012114 0.000002 -0.000751 0.000000
# 4 0.000000 -0.000003 0.000002 0.057371 -0.000002 0.002028
# 5 0.001762 -0.006552 -0.000751 -0.000002 0.045554 0.000000
# 6 -0.000001 -0.000015 0.000000 0.002028 0.000000 0.035217
#
#
# Mechanical properties :
#
#
# Convention : Reuss Voigt Hill
#
# Bulk Modulus (GPa) = 8.68206 32.99416 20.83811
# Shear Modulus (GPa) = 15.67256 25.53700 20.60478
#
# Velocity S-wave (km/s) = 2.79034 3.56182 3.19942
# Velocity P-wave (km/s) = 3.83334 5.77119 4.89904
#
# Compressibility (1/GPa) = 0.11518003
#
# Stress axis : x y z
#
# Youngs Moduli (GPa) = 92.84001 9.43824 82.55002
#
# Poissons Ratio (x) = -0.04263 0.35364
# Poissons Ratio (y) = -0.41933 0.58291
# Poissons Ratio (z) = 0.39772 0.06665
#
# Static dielectric constant tensor:
#      x y z
#    x 1.687160 0.000000 0.014830 
#    y 0.000000 1.718470 0.000000 
#    z 0.014830 0.000000 1.702260 
# 
# From -- ./inp_files/324172.got.cif
#   From: 2010.05.17/outbox.cif.g08.bks.cpg/sg12_163_cif.got.tgz:324172.got - 2010.06.03 13:09:07.
