data_PCOD9210887
_publ_section_title
;
Structure prediction by ZEFSAII (Michael W. Deem and Ramdas Pophale) SiO2 
 PCOD9210887
Probable space group: C 2/M
;
_chemical_formula_sum "Si O2"
_cell_formula_units_Z 40
_cell_length_a 26.455370
_cell_length_b 15.462422
_cell_length_c 9.094489
_cell_angle_alpha 90.000000
_cell_angle_beta 150.597074
_cell_angle_gamma 90.000000
_cell_volume 1826.439854
_symmetry_space_group_name_H-M "C 2/M"
_symmetry_group_IT_number 12
_symmetry_cell_setting 'monoclinic'
loop_
_space_group_symop_operation_xyz
x,y,z
-x,y,-z
-x,-y,-z
x,-y,z
1/2+x,1/2+y,z
1/2-x,1/2+y,-z
1/2-x,1/2-y,-z
1/2+x,1/2-y,z
loop_
_atom_site_type_symbol
_atom_site_label
_atom_site_fract_x
_atom_site_fract_y
_atom_site_fract_z
Si Si1 0.605100 0.398330 0.334176
Si Si2 0.688689 0.894739 0.300902
Si Si3 0.218469 0.400926 0.715342
Si Si4 0.909281 0.842212 0.372083
Si Si5 0.480128 0.853022 0.612607
O O1 0.605375 0.500000 0.296334
O O2 0.710054 0.363502 0.529518
O O3 0.604540 0.388997 0.507680
O O4 0.500000 0.359959 0.000000
O O5 0.700609 0.873346 0.502565
O O6 0.680790 0.000000 0.269539
O O7 0.585608 0.857177 0.969723
O O8 0.257157 0.500000 0.811703
O O9 0.111413 0.398059 0.531148
O O10 0.303839 0.344825 0.014179
O O11 0.943123 0.745138 0.495987
O O12 0.000000 0.880235 0.500000
O O13 0.500000 0.890149 0.500000
#
# Coordination Sequence:
#
# PCOD9210887 Si02
#       5
#     8   8   8   8   8
#     4  10  21  39  64  93 124 161 207 256 306 363
#     4  10  22  41  66  95 124 158 204 257 310 363
#     4  11  23  41  66  92 122 161 207 258 307 362
#     4  11  24  41  60  88 125 166 206 250 305 366
#     4  11  24  41  60  91 129 163 203 250 308 370
#
# _framework density 21.90053
#
# number of rings (size 3 to 8) (size 9 to 14) (size 15 to 20)
#    0.000    1.400    0.000    4.800    0.000   11.200 
#    0.000    6.000    0.000    0.000    0.000    0.000 
#    0.000    0.000    0.000    0.000    0.000    0.000 
#
# Total GULP energy -111930.532800 kJ/mol
# GULP energy per Si atom -5596.526640 kJ/mol
# Density = 2.185068 g / cm^3
# Si number density = 21.900530 Si / 1000 Ang^3
#
#
#
# Elastic Constant Matrix: (Units=GPa)
#
#
# Indices 1 2 3 4 5 6 
#
# 1 173.8497 0.7621 101.3718 0.0000 13.2076 0.0000
# 2 0.7621 45.9975 44.1686 0.0000 3.3089 0.0000
# 3 101.3718 44.1686 241.7345 0.0000 -5.3227 0.0000
# 4 0.0000 0.0000 0.0000 -105.6965 0.0000 -0.2936
# 5 13.2076 3.3089 -5.3227 0.0000 38.3515 0.0000
# 6 0.0000 0.0000 0.0000 -0.2936 0.0000 15.7946
#
#
#
# Elastic Compliance Matrix: (Units=1/GPa)
#
#
# Indices 1 2 3 4 5 6 
#
# 1 0.008699 0.004527 -0.004563 0.000000 -0.004020 0.000000
# 2 0.004527 0.029060 -0.007320 0.000000 -0.005082 0.000000
# 3 -0.004563 -0.007320 0.007459 0.000000 0.003238 0.000000
# 4 0.000000 0.000000 0.000000 -0.009461 0.000000 -0.000176
# 5 -0.004020 -0.005082 0.003238 0.000000 0.028347 0.000000
# 6 0.000000 0.000000 0.000000 -0.000176 0.000000 0.063309
#
#
# Mechanical properties :
#
#
# Convention : Reuss Voigt Hill
#
# Bulk Modulus (GPa) = 32.78171 83.79852 58.29012
# Shear Modulus (GPa) = 32.83120 10.70856 21.76988
#
# Velocity S-wave (km/s) = 3.87603 2.21365 3.15625
# Velocity P-wave (km/s) = 5.91882 6.69925 6.32109
#
# Compressibility (1/GPa) = 0.03050481
#
# Stress axis : x y z
#
# Youngs Moduli (GPa) = 114.96173 34.41176 134.06222
#
# Poissons Ratio (x) = -0.15578 0.61178
# Poissons Ratio (y) = -0.52043 0.98133
# Poissons Ratio (z) = 0.52462 0.25189
#
# Static dielectric constant tensor:
#      x y z
#    x 1.781970 0.000000 0.019540 
#    y 0.000000 1.844520 0.000000 
#    z 0.019540 0.000000 1.748460 
# 
# From -- ./inp_files/98324.got.cif
#   From: 2010.05.17/outbox.cif.g08.bks.cpg/sg12_50_cif.got.tgz:98324.got - 2010.06.03 13:09:07.
