data_PCOD9210501
_publ_section_title
;
Structure prediction by ZEFSAII (Michael W. Deem and Ramdas Pophale) SiO2 
 PCOD9210501
Probable space group: C 2/M
;
_chemical_formula_sum "Si O2"
_cell_formula_units_Z 64
_cell_length_a 18.508449
_cell_length_b 13.712168
_cell_length_c 25.289665
_cell_angle_alpha 90.000000
_cell_angle_beta 151.897920
_cell_angle_gamma 90.000000
_cell_volume 3023.295634
_symmetry_space_group_name_H-M "C 2/M"
_symmetry_group_IT_number 12
_symmetry_cell_setting 'monoclinic'
loop_
_space_group_symop_operation_xyz
x,y,z
-x,y,-z
-x,-y,-z
x,-y,z
1/2+x,1/2+y,z
1/2-x,1/2+y,-z
1/2-x,1/2-y,-z
1/2+x,1/2-y,z
loop_
_atom_site_type_symbol
_atom_site_label
_atom_site_fract_x
_atom_site_fract_y
_atom_site_fract_z
Si Si1 0.077310 0.312348 0.331368
Si Si2 0.239174 0.218415 0.121904
Si Si3 0.111975 0.385691 0.238021
Si Si4 0.525128 0.385667 0.905549
Si Si5 0.487733 0.892628 0.554790
Si Si6 0.731527 0.886273 0.030619
Si Si7 0.195879 0.108156 0.434832
Si Si8 0.751909 0.252833 0.250864
O O1 0.122922 0.328056 0.300118
O O2 0.086421 0.199836 0.356129
O O3 0.194687 0.371379 0.444106
O O4 0.899822 0.340345 0.223486
O O5 0.250505 0.311140 0.090369
O O6 0.209394 0.254011 0.161969
O O7 0.109481 0.150465 0.012973
O O8 0.135749 0.500000 0.263624
O O9 0.228566 0.344582 0.269413
O O10 0.938971 0.373830 0.103663
O O11 0.495683 0.500000 0.888008
O O12 0.642371 0.365474 0.933107
O O13 0.367997 0.327252 0.799410
O O14 0.500000 0.888089 0.500000
O O15 0.313579 0.888207 0.461697
O O16 0.582859 0.803017 0.639222
O O17 0.547187 0.000000 0.610723
O O18 0.747767 0.000000 0.056658
O O19 0.126765 0.000000 0.393231
#
# Coordination Sequence:
#
# PCOD9210501 Si02
#       8
#     8   8   8   8   8   8   8   8
#     4  11  22  40  69  92 122 167 212 266 315 376
#     4  12  23  39  61  93 127 166 203 258 314 374
#     4  11  23  41  64  88 122 172 217 253 306 376
#     4  11  23  39  61  92 128 165 208 257 310 374
#     4  10  21  39  62  91 126 162 202 256 323 384
#     4  10  22  40  62  86 121 166 215 261 301 360
#     4  10  22  41  65  96 124 158 212 270 324 373
#     4  12  24  39  61  93 131 165 206 252 316 379
#
# _framework density 21.168952000000001
#
# number of rings (size 3 to 8) (size 9 to 14) (size 15 to 20)
#    0.000    1.125    3.750    3.000    0.000    3.000 
#    0.000    4.375    0.000    1.125    0.000    0.000 
#    0.000    0.000    0.000    0.000    0.000    0.000 
#
# Total GULP energy -178993.830156 kJ/mol
# GULP energy per Si atom -5593.557192 kJ/mol
# Density = 2.112077 g / cm^3
# Si number density = 21.168952 Si / 1000 Ang^3
#
#
#
# Elastic Constant Matrix: (Units=GPa)
#
#
# Indices 1 2 3 4 5 6 
#
# 1 75.3863 5.6641 -9.4999 0.0008 -26.1169 -0.0001
# 2 5.6641 87.3577 7.8705 0.0013 -12.4640 0.0004
# 3 -9.4999 7.8705 25.4661 0.0035 -5.9763 0.0013
# 4 0.0008 0.0013 0.0035 18.2308 0.0008 7.4869
# 5 -26.1169 -12.4640 -5.9763 0.0008 31.1909 0.0002
# 6 -0.0001 0.0004 0.0013 7.4869 0.0002 17.1180
#
#
#
# Elastic Compliance Matrix: (Units=1/GPa)
#
#
# Indices 1 2 3 4 5 6 
#
# 1 0.022301 0.000413 0.013206 -0.000005 0.021369 0.000001
# 2 0.000413 0.012332 -0.002533 -0.000001 0.004788 0.000000
# 3 0.013206 -0.002533 0.049564 -0.000011 0.019542 0.000001
# 4 -0.000005 -0.000001 -0.000011 0.066862 -0.000008 -0.029243
# 5 0.021369 0.004788 0.019542 -0.000008 0.055611 0.000001
# 6 0.000001 0.000000 0.000001 -0.029243 0.000001 0.071208
#
#
# Mechanical properties :
#
#
# Convention : Reuss Voigt Hill
#
# Bulk Modulus (GPa) = 9.40127 21.80880 15.60503
# Shear Modulus (GPa) = 17.17258 25.58630 21.37944
#
# Velocity S-wave (km/s) = 2.85127 3.48037 3.18141
# Velocity P-wave (km/s) = 3.91029 5.14541 4.56977
#
# Compressibility (1/GPa) = 0.10636865
#
# Stress axis : x y z
#
# Youngs Moduli (GPa) = 44.84058 81.09088 20.17612
#
# Poissons Ratio (x) = -0.03350 -0.26645
# Poissons Ratio (y) = -0.01852 0.05112
# Poissons Ratio (z) = -0.59218 0.20544
#
# Static dielectric constant tensor:
#      x y z
#    x 1.750490 0.000000 0.005280 
#    y 0.000000 1.775790 0.000000 
#    z 0.005280 0.000000 1.762000 
# 
# From -- ./inp_files/278144.got.cif
#   From: 2010.05.17/outbox.cif.g08.bks.cpg/sg12_140_cif.got.tgz:278144.got - 2010.06.03 13:09:07.
