data_PCOD9210718
_publ_section_title
;
Structure prediction by ZEFSAII (Michael W. Deem and Ramdas Pophale) SiO2 
 PCOD9210718
Probable space group: C 2/M
;
_chemical_formula_sum "Si O2"
_cell_formula_units_Z 48
_cell_length_a 19.512493
_cell_length_b 8.742774
_cell_length_c 20.075682
_cell_angle_alpha 90.000000
_cell_angle_beta 136.340351
_cell_angle_gamma 90.000000
_cell_volume 2364.373981
_symmetry_space_group_name_H-M "C 2/M"
_symmetry_group_IT_number 12
_symmetry_cell_setting 'monoclinic'
loop_
_space_group_symop_operation_xyz
x,y,z
-x,y,-z
-x,-y,-z
x,-y,z
1/2+x,1/2+y,z
1/2-x,1/2+y,-z
1/2-x,1/2-y,-z
1/2+x,1/2-y,z
loop_
_atom_site_type_symbol
_atom_site_label
_atom_site_fract_x
_atom_site_fract_y
_atom_site_fract_z
Si Si1 0.560282 0.181014 0.216876
Si Si2 0.815142 0.678517 0.201333
Si Si3 0.359490 0.682598 0.588260
Si Si4 0.601516 0.316992 0.108056
Si Si5 0.494724 0.181192 0.420581
Si Si6 0.145914 0.821589 0.905700
O O1 0.600646 0.258418 0.312421
O O2 0.614038 0.236202 0.187819
O O3 0.446708 0.234978 0.127880
O O4 0.565755 0.000000 0.228411
O O5 0.824963 0.500000 0.185943
O O6 0.699920 0.709930 0.133801
O O7 0.882887 0.694821 0.314063
O O8 0.858472 0.789660 0.176139
O O9 0.356161 0.500000 0.586589
O O10 0.250000 0.750000 0.500000
O O11 0.431651 0.738858 0.579711
O O12 0.594454 0.500000 0.114160
O O13 0.500000 0.267885 0.000000
O O14 0.500000 0.238068 0.500000
O O15 0.519989 0.000000 0.438418
O O16 0.141065 0.000000 0.918498
O O17 0.250000 0.750000 0.000000
#
# Coordination Sequence:
#
# PCOD9210718 Si02
#       6
#     8   8   8   8   8   8
#     4  12  25  43  66  96 133 172 217 269 322 385
#     4  10  21  39  63  92 130 170 212 264 322 384
#     4  12  26  45  69  98 131 170 217 270 327 389
#     4  10  22  40  63  94 132 175 219 264 322 385
#     4  10  22  41  66  97 131 169 212 262 324 389
#     4  12  24  40  65  95 128 169 215 267 323 384
#
# _framework density 20.301356999999999
#
# number of rings (size 3 to 8) (size 9 to 14) (size 15 to 20)
#    0.000    1.000    1.667    5.500    2.333    2.667 
#    0.000    0.000    0.000    0.000    0.000    0.000 
#    0.000    0.000    0.000    0.000    0.000    0.000 
#
# Total GULP energy -134268.077617 kJ/mol
# GULP energy per Si atom -5594.503234 kJ/mol
# Density = 2.025515 g / cm^3
# Si number density = 20.301357 Si / 1000 Ang^3
#
#
#
# Elastic Constant Matrix: (Units=GPa)
#
#
# Indices 1 2 3 4 5 6 
#
# 1 68.3717 31.2041 14.2541 0.0000 -0.6333 0.0000
# 2 31.2041 89.4448 15.4155 0.0000 -2.7205 0.0000
# 3 14.2541 15.4155 78.7924 0.0000 -0.1262 0.0000
# 4 0.0000 0.0000 0.0000 28.4936 0.0000 -2.9963
# 5 -0.6333 -2.7205 -0.1262 0.0000 41.8059 0.0000
# 6 0.0000 0.0000 0.0000 -2.9963 0.0000 36.4905
#
#
#
# Elastic Compliance Matrix: (Units=1/GPa)
#
#
# Indices 1 2 3 4 5 6 
#
# 1 0.017715 -0.005828 -0.002065 0.000000 -0.000117 0.000000
# 2 -0.005828 0.013511 -0.001588 0.000000 0.000786 0.000000
# 3 -0.002065 -0.001588 0.013376 0.000000 -0.000094 0.000000
# 4 0.000000 0.000000 0.000000 0.035401 0.000000 0.002907
# 5 -0.000117 0.000786 -0.000094 0.000000 0.023969 0.000000
# 6 0.000000 0.000000 0.000000 0.002907 0.000000 0.027643
#
#
# Mechanical properties :
#
#
# Convention : Reuss Voigt Hill
#
# Bulk Modulus (GPa) = 39.00060 39.81736 39.40898
# Shear Modulus (GPa) = 31.42226 33.07366 32.24796
#
# Velocity S-wave (km/s) = 3.93847 4.04063 3.98988
# Velocity P-wave (km/s) = 6.31938 6.43620 6.37806
#
# Compressibility (1/GPa) = 0.02564063
#
# Stress axis : x y z
#
# Youngs Moduli (GPa) = 56.44901 74.01492 74.76301
#
# Poissons Ratio (x) = 0.43135 0.15437
# Poissons Ratio (y) = 0.32898 0.11871
# Poissons Ratio (z) = 0.11655 0.11752
#
# Static dielectric constant tensor:
#      x y z
#    x 1.730460 0.000000 0.019510 
#    y 0.000000 1.686660 0.000000 
#    z 0.019510 0.000000 1.782510 
# 
# From -- ./inp_files/320328.got.cif
#   From: 2010.05.17/outbox.cif.g08.bks.cpg/sg12_161_cif.got.tgz:320328.got - 2010.06.03 13:09:07.
