data_PCOD9210726
_publ_section_title
;
Structure prediction by ZEFSAII (Michael W. Deem and Ramdas Pophale) SiO2 
 PCOD9210726
Probable space group: C 2/M
;
_chemical_formula_sum "Si O2"
_cell_formula_units_Z 48
_cell_length_a 7.176947
_cell_length_b 25.425710
_cell_length_c 16.177779
_cell_angle_alpha 90.000000
_cell_angle_beta 42.137147
_cell_angle_gamma 90.000000
_cell_volume 1980.589134
_symmetry_space_group_name_H-M "C 2/M"
_symmetry_group_IT_number 12
_symmetry_cell_setting 'monoclinic'
loop_
_space_group_symop_operation_xyz
x,y,z
-x,y,-z
-x,-y,-z
x,-y,z
1/2+x,1/2+y,z
1/2-x,1/2+y,-z
1/2-x,1/2-y,-z
1/2+x,1/2-y,z
loop_
_atom_site_type_symbol
_atom_site_label
_atom_site_fract_x
_atom_site_fract_y
_atom_site_fract_z
Si Si1 0.763771 0.825553 0.161167
Si Si2 0.907819 0.373382 0.397459
Si Si3 0.050214 0.861241 0.666997
Si Si4 0.601005 0.059935 0.878625
Si Si5 0.231270 0.559061 0.179742
Si Si6 0.434670 0.788929 0.117866
O O1 0.468937 0.830516 0.306720
O O2 0.887884 0.884221 0.135218
O O3 0.667864 0.815808 0.098770
O O4 0.918384 0.773550 0.139425
O O5 0.168718 0.363604 0.372907
O O6 0.975504 0.428239 0.327334
O O7 0.638969 0.367393 0.542209
O O8 0.860961 0.909526 0.757369
O O9 0.859580 0.812424 0.756143
O O10 0.375491 0.059692 0.879413
O O11 0.681026 0.000000 0.867232
O O12 0.500000 0.081405 0.000000
O O13 0.343742 0.500000 0.158312
O O14 0.500000 0.797228 0.000000
#
# Coordination Sequence:
#
# PCOD9210726 Si02
#       6
#     8   8   8   8   8   8
#     4  10  23  42  63  94 127 168 208 266 313 380
#     4   9  23  40  61  97 125 168 211 261 319 377
#     4  11  21  40  65  92 130 168 212 261 322 373
#     4  10  21  39  63  93 125 167 217 261 314 377
#     4   9  20  42  65  91 128 168 211 261 316 377
#     4  12  24  41  67  97 127 170 211 263 319 381
#
# _framework density 24.235212000000001
#
# number of rings (size 3 to 8) (size 9 to 14) (size 15 to 20)
#    1.000    0.833    1.667    2.000    0.000    4.667 
#    0.000    4.167    0.000    3.500    0.000    0.000 
#    0.000    0.000    0.000    0.000    0.000    0.000 
#
# Total GULP energy -134002.035195 kJ/mol
# GULP energy per Si atom -5583.418133 kJ/mol
# Density = 2.418005 g / cm^3
# Si number density = 24.235212 Si / 1000 Ang^3
#
#
#
# Elastic Constant Matrix: (Units=GPa)
#
#
# Indices 1 2 3 4 5 6 
#
# 1 61.2518 23.8776 16.5557 0.0000 17.7278 0.0000
# 2 23.8776 204.0070 69.0722 0.0000 -5.1185 0.0000
# 3 16.5557 69.0722 217.3919 0.0001 14.3739 0.0000
# 4 0.0000 0.0000 0.0001 44.1502 0.0000 3.0510
# 5 17.7278 -5.1185 14.3739 0.0000 38.1199 0.0000
# 6 0.0000 0.0000 0.0000 3.0510 0.0000 24.8846
#
#
#
# Elastic Compliance Matrix: (Units=1/GPa)
#
#
# Indices 1 2 3 4 5 6 
#
# 1 0.020156 -0.002577 -0.000076 0.000000 -0.009691 0.000000
# 2 -0.002577 0.005899 -0.001856 0.000000 0.002690 0.000000
# 3 -0.000076 -0.001856 0.005343 0.000000 -0.002229 0.000000
# 4 0.000000 0.000000 0.000000 0.022843 0.000000 -0.002801
# 5 -0.009691 0.002690 -0.002229 0.000000 0.031941 0.000000
# 6 0.000000 0.000000 0.000000 -0.002801 0.000000 0.040529
#
#
# Mechanical properties :
#
#
# Convention : Reuss Voigt Hill
#
# Bulk Modulus (GPa) = 44.68002 77.96242 61.32122
# Shear Modulus (GPa) = 34.91900 46.30730 40.61315
#
# Velocity S-wave (km/s) = 3.79995 4.37595 4.09808
# Velocity P-wave (km/s) = 6.14238 7.60071 6.91013
#
# Compressibility (1/GPa) = 0.02238137
#
# Stress axis : x y z
#
# Youngs Moduli (GPa) = 49.61372 169.51216 187.16697
#
# Poissons Ratio (x) = 0.43677 0.01414
# Poissons Ratio (y) = 0.12784 0.34739
# Poissons Ratio (z) = 0.00375 0.31462
#
# Static dielectric constant tensor:
#      x y z
#    x 2.039780 0.000000 0.030320 
#    y 0.000000 1.911990 0.000000 
#    z 0.030320 0.000000 2.008450 
# 
# From -- ./inp_files/200139.got.cif
#   From: 2010.05.17/outbox.cif.g08.bks.cpg/sg12_101_cif.got.tgz:200139.got - 2010.06.03 13:09:07.
