data_PCOD9210386
_publ_section_title
;
Structure prediction by ZEFSAII (Michael W. Deem and Ramdas Pophale) SiO2 
 PCOD9210386
Probable space group: C 2/M
;
_chemical_formula_sum "Si O2"
_cell_formula_units_Z 56
_cell_length_a 5.623548
_cell_length_b 27.445126
_cell_length_c 19.581682
_cell_angle_alpha 90.000000
_cell_angle_beta 62.706492
_cell_angle_gamma 90.000000
_cell_volume 2685.751054
_symmetry_space_group_name_H-M "C 2/M"
_symmetry_group_IT_number 12
_symmetry_cell_setting 'monoclinic'
loop_
_space_group_symop_operation_xyz
x,y,z
-x,y,-z
-x,-y,-z
x,-y,z
1/2+x,1/2+y,z
1/2-x,1/2+y,-z
1/2-x,1/2-y,-z
1/2+x,1/2-y,z
loop_
_atom_site_type_symbol
_atom_site_label
_atom_site_fract_x
_atom_site_fract_y
_atom_site_fract_z
Si Si1 0.571276 0.270700 0.376448
Si Si2 0.279173 0.054797 0.083314
Si Si3 0.185443 0.867095 0.543457
Si Si4 0.656507 0.619949 0.791692
Si Si5 0.461780 0.948449 0.213947
Si Si6 0.394492 0.734182 0.201388
Si Si7 0.375449 0.554410 0.339350
O O1 0.289662 0.240655 0.407414
O O2 0.473584 0.325980 0.393098
O O3 0.739321 0.258733 0.286074
O O4 0.406565 0.049318 0.141138
O O5 0.046725 0.093153 0.129515
O O6 0.188281 0.000000 0.073864
O O7 0.500000 0.070972 0.000000
O O8 0.500000 0.851322 0.500000
O O9 0.197108 0.917517 0.582877
O O10 0.000000 0.872006 0.500000
O O11 0.936029 0.606105 0.788225
O O12 0.602926 0.676096 0.788652
O O13 0.679160 0.588987 0.718654
O O14 0.193680 0.950862 0.292667
O O15 0.614190 0.000000 0.210360
O O16 0.698497 0.753361 0.164024
O O17 0.258069 0.500000 0.349421
#
# Coordination Sequence:
#
# PCOD9210386 Si02
#       7
#     8   8   8   8   8   8   8
#     4  10  21  39  62  87 117 152 201 264 327 384
#     4   9  19  36  59  97 142 174 209 259 316 380
#     4  12  28  44  64  90 123 168 213 266 336 402
#     4  11  21  36  67  92 128 167 219 264 325 384
#     4   9  19  34  61  95 124 164 214 262 314 379
#     4  10  23  38  63  94 124 160 210 273 323 377
#     4  10  23  41  62  90 126 166 214 268 319 387
#
# _framework density 20.85078
#
# number of rings (size 3 to 8) (size 9 to 14) (size 15 to 20)
#    0.000    1.857    0.000    4.714   10.000    2.857 
#    0.000    2.143    0.000    0.857    0.000    0.000 
#    0.000    0.000    0.000    0.000    0.000    0.000 
#
# Total GULP energy -155895.008653 kJ/mol
# GULP energy per Si atom -5567.678880 kJ/mol
# Density = 2.080332 g / cm^3
# Si number density = 20.850780 Si / 1000 Ang^3
#
#
#
# Elastic Constant Matrix: (Units=GPa)
#
#
# Indices 1 2 3 4 5 6 
#
# 1 77.8986 -14.7686 -8.0022 0.0000 -15.0707 0.0000
# 2 -14.7686 40.7812 -14.1334 0.0000 7.6365 0.0000
# 3 -8.0022 -14.1334 43.3045 0.0000 -14.9665 0.0000
# 4 0.0000 0.0000 0.0000 24.4890 0.0000 -3.2996
# 5 -15.0707 7.6365 -14.9665 0.0000 -26.1698 0.0000
# 6 0.0000 0.0000 0.0000 -3.2996 0.0000 32.5100
#
#
#
# Elastic Compliance Matrix: (Units=1/GPa)
#
#
# Indices 1 2 3 4 5 6 
#
# 1 0.013036 0.006783 0.002265 0.000000 -0.006823 0.000000
# 2 0.006783 0.030995 0.010976 0.000000 -0.001139 0.000000
# 3 0.002265 0.010976 0.023170 0.000000 -0.011352 0.000000
# 4 0.000000 0.000000 0.000000 0.041401 0.000000 0.004202
# 5 -0.006823 -0.001139 -0.011352 0.000000 -0.028123 0.000000
# 6 0.000000 0.000000 0.000000 0.004202 0.000000 0.031186
#
#
# Mechanical properties :
#
#
# Convention : Reuss Voigt Hill
#
# Bulk Modulus (GPa) = 9.32421 9.79732 9.56076
# Shear Modulus (GPa) = 46.56966 19.42508 32.99737
#
# Velocity S-wave (km/s) = 4.73109 3.05556 3.98244
# Velocity P-wave (km/s) = 5.85883 4.14217 5.07363
#
# Compressibility (1/GPa) = 0.10724770
#
# Stress axis : x y z
#
# Youngs Moduli (GPa) = 76.71133 32.26354 43.16011
#
# Poissons Ratio (x) = -0.21885 -0.09775
# Poissons Ratio (y) = -0.52036 -0.47371
# Poissons Ratio (z) = -0.17373 -0.35411
#
# Static dielectric constant tensor:
#      x y z
#    x 1.884280 0.000000 0.003720 
#    y 0.000000 1.722540 0.000000 
#    z 0.003720 0.000000 1.698170 
# 
# From -- ./inp_files/298264.got.cif
#   From: 2010.05.17/outbox.cif.g08.bks.cpg/sg12_150_cif.got.tgz:298264.got - 2010.06.03 13:09:07.
