data_PCOD9210393
_publ_section_title
;
Structure prediction by ZEFSAII (Michael W. Deem and Ramdas Pophale) SiO2 
 PCOD9210393
Probable space group: C 2/M
;
_chemical_formula_sum "Si O2"
_cell_formula_units_Z 56
_cell_length_a 18.365782
_cell_length_b 8.497207
_cell_length_c 19.096929
_cell_angle_alpha 90.000000
_cell_angle_beta 103.949204
_cell_angle_gamma 90.000000
_cell_volume 2892.338323
_symmetry_space_group_name_H-M "C 2/M"
_symmetry_group_IT_number 12
_symmetry_cell_setting 'monoclinic'
loop_
_space_group_symop_operation_xyz
x,y,z
-x,y,-z
-x,-y,-z
x,-y,z
1/2+x,1/2+y,z
1/2-x,1/2+y,-z
1/2-x,1/2-y,-z
1/2+x,1/2-y,z
loop_
_atom_site_type_symbol
_atom_site_label
_atom_site_fract_x
_atom_site_fract_y
_atom_site_fract_z
Si Si1 0.976480 0.192190 0.572338
Si Si2 0.879360 0.188821 0.856089
Si Si3 0.949803 0.190723 0.137573
Si Si4 0.831448 0.312599 0.996788
Si Si5 0.096157 0.808093 0.716664
Si Si6 0.692170 0.688892 0.428756
Si Si7 0.236353 0.688861 0.286266
O O1 0.892354 0.241700 0.572164
O O2 0.000000 0.243131 0.500000
O O3 0.036255 0.243916 0.644557
O O4 0.977139 0.000000 0.572489
O O5 0.854266 0.246326 0.926426
O O6 0.823678 0.254497 0.784475
O O7 0.964997 0.237509 0.860139
O O8 0.876671 0.000000 0.853416
O O9 0.927336 0.240728 0.210810
O O10 0.945781 0.000000 0.133628
O O11 0.892281 0.258345 0.067901
O O12 0.829109 0.500000 0.992752
O O13 0.750000 0.250000 0.000000
O O14 0.180150 0.757773 0.716585
O O15 0.095545 0.000000 0.716130
O O16 0.692788 0.500000 0.429415
O O17 0.750000 0.750000 0.500000
O O18 0.715393 0.747853 0.357705
O O19 0.236629 0.500000 0.288344
#
# Coordination Sequence:
#
# PCOD9210393 Si02
#       7
#     8   8   8   8   8   8   8
#     4   9  17  32  56  83 109 144 193 241 286 344
#     4  11  23  40  63  90 121 157 197 243 298 359
#     4  10  21  39  62  87 118 157 201 247 297 356
#     4  12  25  41  62  88 120 157 200 249 300 356
#     4   9  18  34  57  84 112 148 195 241 285 341
#     4  11  22  37  59  85 115 151 192 243 300 358
#     4  11  22  37  60  88 119 155 196 243 293 350
#
# _framework density 19.361495999999999
#
# number of rings (size 3 to 8) (size 9 to 14) (size 15 to 20)
#    0.000    1.571    0.000    5.571    0.000    8.571 
#    0.000    0.714    0.000   11.143    0.000    0.000 
#    0.000    0.000    0.000    0.000    0.000    0.000 
#
# Total GULP energy -156580.384143 kJ/mol
# GULP energy per Si atom -5592.156577 kJ/mol
# Density = 1.931743 g / cm^3
# Si number density = 19.361496 Si / 1000 Ang^3
#
#
#
# Elastic Constant Matrix: (Units=GPa)
#
#
# Indices 1 2 3 4 5 6 
#
# 1 232.4263 44.6149 132.7696 0.0000 -1.4956 0.0000
# 2 44.6149 42.0039 34.8951 0.0000 0.9652 0.0000
# 3 132.7696 34.8951 219.4945 0.0000 -1.6613 0.0000
# 4 0.0000 0.0000 0.0000 32.0238 0.0000 3.2019
# 5 -1.4956 0.9652 -1.6613 0.0000 46.5474 0.0000
# 6 0.0000 0.0000 0.0000 3.2019 0.0000 29.2055
#
#
#
# Elastic Compliance Matrix: (Units=1/GPa)
#
#
# Indices 1 2 3 4 5 6 
#
# 1 0.007303 -0.004716 -0.003666 0.000000 0.000202 0.000000
# 2 -0.004716 0.030500 -0.002003 0.000000 -0.000855 0.000000
# 3 -0.003666 -0.002003 0.007093 0.000000 0.000177 0.000000
# 4 0.000000 0.000000 0.000000 0.031573 0.000000 -0.003461
# 5 0.000202 -0.000855 0.000177 0.000000 0.021514 0.000000
# 6 0.000000 0.000000 0.000000 -0.003461 0.000000 0.034620
#
#
# Mechanical properties :
#
#
# Convention : Reuss Voigt Hill
#
# Bulk Modulus (GPa) = 41.44834 102.05377 71.75105
# Shear Modulus (GPa) = 30.97592 40.33169 35.65381
#
# Velocity S-wave (km/s) = 4.00418 4.56904 4.29590
# Velocity P-wave (km/s) = 6.54462 8.98103 7.85783
#
# Compressibility (1/GPa) = 0.02412642
#
# Stress axis : x y z
#
# Youngs Moduli (GPa) = 136.92242 32.78697 140.97548
#
# Poissons Ratio (x) = 0.15463 0.51688
# Poissons Ratio (y) = 0.64574 0.28232
# Poissons Ratio (z) = 0.50202 0.06566
#
# Static dielectric constant tensor:
#      x y z
#    x 1.653400 0.000000 -0.001750 
#    y 0.000000 1.674350 0.000000 
#    z -0.001750 0.000000 1.626170 
# 
# From -- ./inp_files/275577.got.cif
#   From: 2010.05.17/outbox.cif.g08.bks.cpg/sg12_138_cif.got.tgz:275577.got - 2010.06.03 13:09:07.
