data_PCOD9210197
_publ_section_title
;
Structure prediction by ZEFSAII (Michael W. Deem and Ramdas Pophale) SiO2 
 PCOD9210197
Probable space group: C 2/M
;
_chemical_formula_sum "Si O2"
_cell_formula_units_Z 56
_cell_length_a 17.068495
_cell_length_b 9.324153
_cell_length_c 17.066591
_cell_angle_alpha 90.000000
_cell_angle_beta 105.161711
_cell_angle_gamma 90.000000
_cell_volume 2621.590691
_symmetry_space_group_name_H-M "C 2/M"
_symmetry_group_IT_number 12
_symmetry_cell_setting 'monoclinic'
loop_
_space_group_symop_operation_xyz
x,y,z
-x,y,-z
-x,-y,-z
x,-y,z
1/2+x,1/2+y,z
1/2-x,1/2+y,-z
1/2-x,1/2-y,-z
1/2+x,1/2-y,z
loop_
_atom_site_type_symbol
_atom_site_label
_atom_site_fract_x
_atom_site_fract_y
_atom_site_fract_z
Si Si1 0.639073 0.836601 0.457417
Si Si2 0.253961 0.174420 0.084747
Si Si3 0.310327 0.335050 0.683438
Si Si4 0.334784 0.666808 0.375053
Si Si5 0.464486 0.844280 0.341138
Si Si6 0.410401 0.334826 0.864945
Si Si7 0.058645 0.335728 0.846172
O O1 0.668717 0.749723 0.389698
O O2 0.658341 0.747916 0.539977
O O3 0.543791 0.847648 0.415189
O O4 0.671077 0.000000 0.469521
O O5 0.170343 0.216972 0.108734
O O6 0.346517 0.211084 0.137392
O O7 0.251297 0.000000 0.081559
O O8 0.250000 0.250000 0.000000
O O9 0.290749 0.500000 0.661858
O O10 0.232718 0.248497 0.693344
O O11 0.378858 0.333032 0.766860
O O12 0.318856 0.500000 0.379601
O O13 0.417532 0.703073 0.353497
O O14 0.477407 0.838124 0.251612
O O15 0.421461 0.000000 0.344550
O O16 0.425128 0.500000 0.892014
O O17 0.496232 0.251618 0.884945
O O18 0.060187 0.500000 0.875032
#
# Coordination Sequence:
#
# PCOD9210197 Si02
#       7
#     8   8   8   8   8   8   8
#     4  11  22  38  59  83 115 155 202 254 312 371
#     4  10  23  43  66  96 133 169 204 249 304 372
#     4  11  22  39  61  84 116 155 202 255 310 369
#     4  12  25  37  54  82 118 159 206 258 311 366
#     4  10  21  39  61  84 115 155 201 253 310 370
#     4  10  22  41  67  95 127 165 208 258 313 370
#     4  10  21  41  68  95 127 166 210 256 312 374
#
# _framework density 21.361076000000001
#
# number of rings (size 3 to 8) (size 9 to 14) (size 15 to 20)
#    0.000    1.429    1.429    3.857    0.000    8.000 
#    0.000    4.286    0.000    0.000    0.000    0.000 
#    0.000    0.000    0.000    0.000    0.000    0.000 
#
# Total GULP energy -156156.283589 kJ/mol
# GULP energy per Si atom -5577.010128 kJ/mol
# Density = 2.131246 g / cm^3
# Si number density = 21.361076 Si / 1000 Ang^3
#
#
#
# Elastic Constant Matrix: (Units=GPa)
#
#
# Indices 1 2 3 4 5 6 
#
# 1 114.6754 41.6896 2.8706 0.0000 -13.8790 0.0000
# 2 41.6896 111.2362 7.3528 0.0000 -8.5064 0.0000
# 3 2.8706 7.3528 27.0345 0.0000 -10.9362 0.0000
# 4 0.0000 0.0000 0.0000 21.8465 0.0000 -0.9873
# 5 -13.8790 -8.5064 -10.9362 0.0000 26.4012 0.0000
# 6 0.0000 0.0000 0.0000 -0.9873 0.0000 39.5908
#
#
#
# Elastic Compliance Matrix: (Units=1/GPa)
#
#
# Indices 1 2 3 4 5 6 
#
# 1 0.010658 -0.003727 0.001997 0.000000 0.005230 0.000000
# 2 -0.003727 0.010576 -0.002276 0.000000 0.000506 0.000000
# 3 0.001997 -0.002276 0.045079 0.000000 0.018990 0.000000
# 4 0.000000 0.000000 0.000000 0.045825 0.000000 0.001143
# 5 0.005230 0.000506 0.018990 0.000000 0.048655 0.000000
# 6 0.000000 0.000000 0.000000 0.001143 0.000000 0.025287
#
#
# Mechanical properties :
#
#
# Convention : Reuss Voigt Hill
#
# Bulk Modulus (GPa) = 17.15217 39.64134 28.39675
# Shear Modulus (GPa) = 23.41651 30.96991 27.19321
#
# Velocity S-wave (km/s) = 3.31452 3.81179 3.57182
# Velocity P-wave (km/s) = 4.76394 6.16207 5.50755
#
# Compressibility (1/GPa) = 0.05830166
#
# Stress axis : x y z
#
# Youngs Moduli (GPa) = 93.82655 94.55687 22.18342
#
# Poissons Ratio (x) = 0.35237 -0.04431
# Poissons Ratio (y) = 0.34965 0.05049
# Poissons Ratio (z) = -0.18740 0.21522
#
# Static dielectric constant tensor:
#      x y z
#    x 1.904730 0.000000 0.004460 
#    y 0.000000 1.772220 0.000000 
#    z 0.004460 0.000000 1.747910 
# 
# From -- ./inp_files/275555.got.cif
#   From: 2010.05.17/outbox.cif.g08.bks.cpg/sg12_138_cif.got.tgz:275555.got - 2010.06.03 13:09:07.
