data_PCOD9210857
_publ_section_title
;
Structure prediction by ZEFSAII (Michael W. Deem and Ramdas Pophale) SiO2 
 PCOD9210857
Probable space group: C 2/M
;
_chemical_formula_sum "Si O2"
_cell_formula_units_Z 56
_cell_length_a 10.964154
_cell_length_b 17.831087
_cell_length_c 14.854552
_cell_angle_alpha 90.000000
_cell_angle_beta 113.815978
_cell_angle_gamma 90.000000
_cell_volume 2656.813187
_symmetry_space_group_name_H-M "C 2/M"
_symmetry_group_IT_number 12
_symmetry_cell_setting 'monoclinic'
loop_
_space_group_symop_operation_xyz
x,y,z
-x,y,-z
-x,-y,-z
x,-y,z
1/2+x,1/2+y,z
1/2-x,1/2+y,-z
1/2-x,1/2-y,-z
1/2+x,1/2-y,z
loop_
_atom_site_type_symbol
_atom_site_label
_atom_site_fract_x
_atom_site_fract_y
_atom_site_fract_z
Si Si1 0.305382 0.000000 0.004446
Si Si2 0.301810 0.842199 0.768284
Si Si3 0.347379 0.411696 0.426993
Si Si4 0.144917 0.170838 0.255172
Si Si5 0.160110 0.590294 0.543958
Si Si6 0.395967 0.000000 0.840289
Si Si7 0.133080 0.795482 0.873291
Si Si8 0.728844 0.350248 0.080887
O O1 0.459961 0.000000 0.074150
O O2 0.250533 0.927343 0.036994
O O3 0.290721 0.000000 0.892093
O O4 0.179046 0.862095 0.667528
O O5 0.346366 0.761419 0.745577
O O6 0.383006 0.920135 0.786344
O O7 0.264371 0.825947 0.861074
O O8 0.500000 0.399503 0.500000
O O9 0.334059 0.500000 0.401289
O O10 0.236347 0.395426 0.471342
O O11 0.247450 0.134027 0.355843
O O12 0.177839 0.139849 0.165869
O O13 0.985925 0.162507 0.213043
O O14 0.168059 0.500000 0.562436
O O15 0.000000 0.609701 0.500000
O O16 0.144032 0.705250 0.869182
O O17 0.134411 0.808946 0.980191
#
# Coordination Sequence:
#
# PCOD9210857 Si02
#       8
#     4   8   8   8   8   4   8   8
#     4  11  22  38  60  86 121 164 210 252 302 374
#     4  11  22  39  63  92 123 157 210 261 313 374
#     4  10  21  39  64  92 122 160 205 262 323 374
#     4  11  24  40  64  92 123 172 210 253 322 388
#     4  10  24  45  64  91 130 169 214 270 326 383
#     4  11  22  38  60  91 120 161 204 260 310 362
#     4  10  21  41  60  90 133 164 202 263 317 379
#     4  10  22  39  61  91 127 166 208 254 314 381
#
# _framework density 21.077884000000001
#
# number of rings (size 3 to 8) (size 9 to 14) (size 15 to 20)
#    0.000    1.571    2.143    2.143    1.000    4.571 
#    2.571    0.714    0.000    0.000    0.000    0.000 
#    0.000    0.000    0.000    0.000    0.000    0.000 
#
# Total GULP energy -155920.252741 kJ/mol
# GULP energy per Si atom -5568.580455 kJ/mol
# Density = 2.102991 g / cm^3
# Si number density = 21.077884 Si / 1000 Ang^3
#
#
#
# Elastic Constant Matrix: (Units=GPa)
#
#
# Indices 1 2 3 4 5 6 
#
# 1 75.4739 19.2688 29.1479 0.0000 -0.3020 0.0000
# 2 19.2688 69.7371 5.2015 0.0000 -7.9460 0.0000
# 3 29.1479 5.2015 69.8910 0.0000 -7.6432 0.0000
# 4 0.0000 0.0000 0.0000 45.6534 0.0000 1.3916
# 5 -0.3020 -7.9460 -7.6432 0.0000 32.1515 0.0000
# 6 0.0000 0.0000 0.0000 1.3916 0.0000 10.1277
#
#
#
# Elastic Compliance Matrix: (Units=1/GPa)
#
#
# Indices 1 2 3 4 5 6 
#
# 1 0.017130 -0.004505 -0.007098 0.000000 -0.002640 0.000000
# 2 -0.004505 0.015975 0.001147 0.000000 0.004178 0.000000
# 3 -0.007098 0.001147 0.017666 0.000000 0.004416 0.000000
# 4 0.000000 0.000000 0.000000 0.021996 0.000000 -0.003022
# 5 -0.002640 0.004178 0.004416 0.000000 0.033160 0.000000
# 6 0.000000 0.000000 0.000000 -0.003022 0.000000 0.099154
#
#
# Mechanical properties :
#
#
# Convention : Reuss Voigt Hill
#
# Bulk Modulus (GPa) = 33.48992 35.81537 34.65264
# Shear Modulus (GPa) = 21.19133 28.35211 24.77172
#
# Velocity S-wave (km/s) = 3.17422 3.67156 3.43191
# Velocity P-wave (km/s) = 5.41824 5.91630 5.67274
#
# Compressibility (1/GPa) = 0.02985973
#
# Stress axis : x y z
#
# Youngs Moduli (GPa) = 58.37668 62.59872 56.60712
#
# Poissons Ratio (x) = 0.28198 0.40177
# Poissons Ratio (y) = 0.26296 -0.06491
# Poissons Ratio (z) = 0.41433 -0.07178
#
# Static dielectric constant tensor:
#      x y z
#    x 1.827370 0.000000 0.022950 
#    y 0.000000 1.774540 0.000000 
#    z 0.022950 0.000000 1.790060 
# 
# From -- ./inp_files/206620.got.cif
#   From: 2010.05.17/outbox.cif.g08.bks.cpg/sg12_104_cif.got.tgz:206620.got - 2010.06.03 13:09:07.
