data_PCOD9210077
_publ_section_title
;
Structure prediction by ZEFSAII (Michael W. Deem and Ramdas Pophale) SiO2 
 PCOD9210077
Probable space group: C 2/M
;
_chemical_formula_sum "Si O2"
_cell_formula_units_Z 64
_cell_length_a 14.901316
_cell_length_b 31.125559
_cell_length_c 11.969827
_cell_angle_alpha 90.000000
_cell_angle_beta 143.769357
_cell_angle_gamma 90.000000
_cell_volume 3281.288730
_symmetry_space_group_name_H-M "C 2/M"
_symmetry_group_IT_number 12
_symmetry_cell_setting 'monoclinic'
loop_
_space_group_symop_operation_xyz
x,y,z
-x,y,-z
-x,-y,-z
x,-y,z
1/2+x,1/2+y,z
1/2-x,1/2+y,-z
1/2-x,1/2-y,-z
1/2+x,1/2-y,z
loop_
_atom_site_type_symbol
_atom_site_label
_atom_site_fract_x
_atom_site_fract_y
_atom_site_fract_z
Si Si1 0.284534 0.760679 0.842364
Si Si2 0.373465 0.951912 0.220703
Si Si3 0.916103 0.710485 0.189559
Si Si4 0.240410 0.124301 0.955816
Si Si5 0.769162 0.451239 0.362930
Si Si6 0.885676 0.876874 0.648718
Si Si7 0.750007 0.789518 0.588388
Si Si8 0.679810 0.351486 0.656647
O O1 0.150231 0.746286 0.792666
O O2 0.291412 0.724862 0.754790
O O3 0.247292 0.803746 0.736045
O O4 0.419773 0.769804 0.066913
O O5 0.277077 0.944663 0.237461
O O6 0.552714 0.950532 0.425979
O O7 0.337474 0.000000 0.144163
O O8 0.335255 0.914275 0.099600
O O9 0.075227 0.695331 0.399360
O O10 0.803160 0.669988 0.063719
O O11 0.250755 0.124314 0.832560
O O12 0.065075 0.118229 0.812114
O O13 0.712063 0.500000 0.328035
O O14 0.681075 0.414104 0.340009
O O15 0.856090 0.828982 0.663765
O O16 0.804917 0.874813 0.445900
O O17 0.750000 0.750000 0.500000
O O18 0.500000 0.347046 0.500000
#
# Coordination Sequence:
#
# PCOD9210077 Si02
#       8
#     8   8   8   8   8   8   8   8
#     4  10  21  39  60  76 110 158 208 239 288 347
#     4   9  19  40  65  87 114 152 188 229 296 366
#     4  10  23  39  59  80 112 162 201 245 292 353
#     4  10  22  39  60  84 114 156 200 239 288 354
#     4   9  20  40  65  88 117 150 186 236 298 358
#     4  11  23  38  58  89 119 150 195 249 292 341
#     4  12  24  37  57  86 119 156 199 252 297 340
#     4   9  18  37  57  76 113 157 194 233 287 344
#
# _framework density 19.504532000000001
#
# number of rings (size 3 to 8) (size 9 to 14) (size 15 to 20)
#    0.000    2.000    1.250    2.625    7.000    1.500 
#    0.000    3.750    0.000    3.750    0.000    0.000 
#    0.000    0.000    0.000    0.000    0.000    0.000 
#
# Total GULP energy -178638.471457 kJ/mol
# GULP energy per Si atom -5582.452233 kJ/mol
# Density = 1.946014 g / cm^3
# Si number density = 19.504532 Si / 1000 Ang^3
#
#
#
# Elastic Constant Matrix: (Units=GPa)
#
#
# Indices 1 2 3 4 5 6 
#
# 1 44.7715 22.0830 5.8943 0.0000 -14.2174 0.0000
# 2 22.0830 80.1676 19.2924 0.0000 -19.2645 0.0000
# 3 5.8943 19.2924 49.7951 0.0000 -17.1687 0.0000
# 4 0.0000 0.0000 0.0000 28.6418 0.0000 -0.7170
# 5 -14.2174 -19.2645 -17.1687 0.0000 17.9784 0.0000
# 6 0.0000 0.0000 0.0000 -0.7170 0.0000 35.8486
#
#
#
# Elastic Compliance Matrix: (Units=1/GPa)
#
#
# Indices 1 2 3 4 5 6 
#
# 1 0.032337 -0.003834 0.007541 0.000000 0.028665 0.000000
# 2 -0.003834 0.017261 -0.001345 0.000000 0.014180 0.000000
# 3 0.007541 -0.001345 0.031711 0.000000 0.034806 0.000000
# 4 0.000000 0.000000 0.000000 0.034932 0.000000 0.000699
# 5 0.028665 0.014180 0.034806 0.000000 0.126723 0.000000
# 6 0.000000 0.000000 0.000000 0.000699 0.000000 0.027909
#
#
# Mechanical properties :
#
#
# Convention : Reuss Voigt Hill
#
# Bulk Modulus (GPa) = 11.62335 29.91930 20.77132
# Shear Modulus (GPa) = 16.95917 24.99137 20.97527
#
# Velocity S-wave (km/s) = 2.95193 3.58342 3.28289
# Velocity P-wave (km/s) = 4.19413 5.70037 5.00424
#
# Compressibility (1/GPa) = 0.08603374
#
# Stress axis : x y z
#
# Youngs Moduli (GPa) = 30.92457 57.93407 31.53469
#
# Poissons Ratio (x) = 0.22211 -0.23781
# Poissons Ratio (y) = 0.11856 0.04241
# Poissons Ratio (z) = -0.23321 0.07791
#
# Static dielectric constant tensor:
#      x y z
#    x 1.706870 0.000000 0.008300 
#    y 0.000000 1.658880 0.000000 
#    z 0.008300 0.000000 1.709990 
# 
# From -- ./inp_files/150300.got.cif
#   From: 2010.05.17/outbox.cif.g08.bks.cpg/sg12_76_cif.got.tgz:150300.got - 2010.06.03 13:09:07.
