data_PCOD9210520
_publ_section_title
;
Structure prediction by ZEFSAII (Michael W. Deem and Ramdas Pophale) SiO2 
 PCOD9210520
Probable space group: C 2/M
;
_chemical_formula_sum "Si O2"
_cell_formula_units_Z 48
_cell_length_a 30.917928
_cell_length_b 19.516266
_cell_length_c 13.022486
_cell_angle_alpha 90.000000
_cell_angle_beta 18.541556
_cell_angle_gamma 90.000000
_cell_volume 2498.720759
_symmetry_space_group_name_H-M "C 2/M"
_symmetry_group_IT_number 12
_symmetry_cell_setting 'monoclinic'
loop_
_space_group_symop_operation_xyz
x,y,z
-x,y,-z
-x,-y,-z
x,-y,z
1/2+x,1/2+y,z
1/2-x,1/2+y,-z
1/2-x,1/2-y,-z
1/2+x,1/2-y,z
loop_
_atom_site_type_symbol
_atom_site_label
_atom_site_fract_x
_atom_site_fract_y
_atom_site_fract_z
Si Si1 0.161083 0.917978 0.631565
Si Si2 0.946405 0.693707 0.234128
Si Si3 0.132373 0.924275 0.128792
Si Si4 0.342545 0.270614 0.885390
Si Si5 0.249986 0.578433 0.340677
Si Si6 0.705932 0.199045 0.791373
O O1 0.215492 0.897635 0.622350
O O2 0.239366 0.875235 0.368030
O O3 0.177659 0.000000 0.580896
O O4 0.000000 0.903448 0.000000
O O5 0.869323 0.624008 0.437760
O O6 0.830670 0.750895 0.484562
O O7 0.068423 0.712545 0.036073
O O8 0.000000 0.682114 0.000000
O O9 0.195650 0.850247 0.008611
O O10 0.000000 0.925824 0.500000
O O11 0.198956 0.000000 0.996286
O O12 0.122680 0.920195 0.025619
O O13 0.500000 0.268944 0.500000
O O14 0.250000 0.250000 0.000000
O O15 0.322046 0.219754 0.027814
O O16 0.206305 0.500000 0.447753
#
# Coordination Sequence:
#
# PCOD9210520 Si02
#       6
#     8   8   8   8   8   8
#     4  10  23  41  64  96 133 173 216 269 328 390
#     4  12  24  38  61  96 127 168 214 262 324 394
#     4   9  19  38  65  92 121 166 222 267 314 379
#     4  11  24  42  65  92 129 167 216 274 329 387
#     4  10  21  39  62  92 131 170 217 267 319 392
#     4  12  25  41  65  91 131 168 216 267 332 391
#
# _framework density 19.209828999999999
#
# number of rings (size 3 to 8) (size 9 to 14) (size 15 to 20)
#    0.000    1.333    3.333    2.000    2.333    3.667 
#    0.000    2.500    0.000    1.000    0.000    0.000 
#    0.000    0.000    0.000    0.000    0.000    0.000 
#
# Total GULP energy -133658.574999 kJ/mol
# GULP energy per Si atom -5569.107292 kJ/mol
# Density = 1.916611 g / cm^3
# Si number density = 19.209829 Si / 1000 Ang^3
#
#
#
# Elastic Constant Matrix: (Units=GPa)
#
#
# Indices 1 2 3 4 5 6 
#
# 1 130.0961 69.4497 64.2005 0.0001 3.7029 -0.0001
# 2 69.4497 112.4124 44.1420 0.0002 -0.8755 -0.0001
# 3 64.2005 44.1420 104.8102 0.0002 0.9042 -0.0002
# 4 0.0001 0.0002 0.0002 23.7864 -0.0002 3.4410
# 5 3.7029 -0.8755 0.9042 -0.0002 47.7865 0.0001
# 6 -0.0001 -0.0001 -0.0002 3.4410 0.0001 24.0974
#
#
#
# Elastic Compliance Matrix: (Units=1/GPa)
#
#
# Indices 1 2 3 4 5 6 
#
# 1 0.014023 -0.006354 -0.005904 0.000000 -0.001091 0.000000
# 2 -0.006354 0.013541 -0.001818 0.000000 0.000775 0.000000
# 3 -0.005904 -0.001818 0.013922 0.000000 0.000161 0.000000
# 4 0.000000 0.000000 0.000000 0.042928 0.000000 -0.006130
# 5 -0.001091 0.000775 0.000161 0.000000 0.021022 0.000000
# 6 0.000000 0.000000 0.000000 -0.006130 0.000000 0.042374
#
#
# Mechanical properties :
#
#
# Convention : Reuss Voigt Hill
#
# Bulk Modulus (GPa) = 74.99381 78.10035 76.54708
# Shear Modulus (GPa) = 27.71523 30.43583 29.07553
#
# Velocity S-wave (km/s) = 3.80249 3.98476 3.89469
# Velocity P-wave (km/s) = 7.64216 7.86866 7.75624
#
# Compressibility (1/GPa) = 0.01333443
#
# Stress axis : x y z
#
# Youngs Moduli (GPa) = 71.31002 73.84969 71.82891
#
# Poissons Ratio (x) = 0.46922 0.42411
# Poissons Ratio (y) = 0.45308 0.13057
# Poissons Ratio (z) = 0.42105 0.13424
#
# Static dielectric constant tensor:
#      x y z
#    x 1.669400 0.000000 0.031050 
#    y 0.000000 1.706780 0.000000 
#    z 0.031050 0.000000 1.716280 
# 
# From -- ./inp_files/184788.got.cif
#   From: 2010.05.17/outbox.cif.g08.bks.cpg/sg12_93_cif.got.tgz:184788.got - 2010.06.03 13:09:07.
