data_PCOD9210566
_publ_section_title
;
Structure prediction by ZEFSAII (Michael W. Deem and Ramdas Pophale) SiO2 
 PCOD9210566
Probable space group: C 2/M
;
_chemical_formula_sum "Si O2"
_cell_formula_units_Z 64
_cell_length_a 9.175801
_cell_length_b 13.045076
_cell_length_c 27.819532
_cell_angle_alpha 90.000000
_cell_angle_beta 120.598615
_cell_angle_gamma 90.000000
_cell_volume 2866.286753
_symmetry_space_group_name_H-M "C 2/M"
_symmetry_group_IT_number 12
_symmetry_cell_setting 'monoclinic'
loop_
_space_group_symop_operation_xyz
x,y,z
-x,y,-z
-x,-y,-z
x,-y,z
1/2+x,1/2+y,z
1/2-x,1/2+y,-z
1/2-x,1/2-y,-z
1/2+x,1/2-y,z
loop_
_atom_site_type_symbol
_atom_site_label
_atom_site_fract_x
_atom_site_fract_y
_atom_site_fract_z
Si Si1 0.859729 0.875709 0.013982
Si Si2 0.162756 0.879358 0.562583
Si Si3 0.006164 0.380272 0.913165
Si Si4 0.539308 0.191861 0.197868
Si Si5 0.095878 0.747408 0.727812
Si Si6 0.128015 0.878934 0.872400
Si Si7 0.777771 0.300815 0.353025
Si Si8 0.457571 0.114353 0.543428
O O1 0.908331 0.861365 0.077532
O O2 0.852384 0.000000 0.006648
O O3 0.669115 0.840471 0.969096
O O4 0.000000 0.837950 0.000000
O O5 0.164960 0.805177 0.609676
O O6 0.318775 0.839885 0.555623
O O7 0.000000 0.879507 0.500000
O O8 0.191298 0.000000 0.580932
O O9 0.993601 0.500000 0.923328
O O10 0.032268 0.366834 0.860387
O O11 0.819675 0.339540 0.894635
O O12 0.741941 0.181380 0.233502
O O13 0.451088 0.175885 0.234416
O O14 0.499494 0.311184 0.179734
O O15 0.148692 0.691591 0.688011
O O16 0.922612 0.804609 0.685851
O O17 0.117795 0.000000 0.860337
O O18 0.865618 0.386165 0.399526
O O19 0.500000 0.165363 0.500000
O O20 0.392657 0.000000 0.521983
#
# Coordination Sequence:
#
# PCOD9210566 Si02
#       8
#     8   8   8   8   8   8   8   8
#     4   9  19  34  57  92 122 146 188 242 295 363
#     4  10  22  39  62  94 126 155 193 239 293 357
#     4  10  21  39  63  87 117 155 193 238 301 362
#     4  11  22  43  59  85 119 154 195 258 292 344
#     4  10  24  40  61  85 118 154 206 252 290 330
#     4  10  21  39  63  87 117 155 193 238 301 362
#     4  11  21  42  63  85 118 165 195 244 294 348
#     4  10  22  39  62  94 126 155 193 239 293 357
#
# _framework density 22.328538999999999
#
# number of rings (size 3 to 8) (size 9 to 14) (size 15 to 20)
#    0.000    1.875    2.500    0.750    3.500    3.000 
#    0.000    7.500    0.000    0.000    0.000    0.000 
#    0.000    0.000    0.000    0.000    0.000    0.000 
#
# Total GULP energy -178648.835268 kJ/mol
# GULP energy per Si atom -5582.776102 kJ/mol
# Density = 2.227772 g / cm^3
# Si number density = 22.328539 Si / 1000 Ang^3
#
#
#
# Elastic Constant Matrix: (Units=GPa)
#
#
# Indices 1 2 3 4 5 6 
#
# 1 126.2188 9.3967 44.1845 0.0000 -7.8871 0.0000
# 2 9.3967 59.7615 2.1632 0.0000 11.5199 0.0000
# 3 44.1845 2.1632 113.9040 0.0000 4.4517 0.0000
# 4 0.0000 0.0000 0.0000 3.2955 0.0000 0.9904
# 5 -7.8871 11.5199 4.4517 0.0000 34.0578 0.0000
# 6 0.0000 0.0000 0.0000 0.9904 0.0000 15.2737
#
#
#
# Elastic Compliance Matrix: (Units=1/GPa)
#
#
# Indices 1 2 3 4 5 6 
#
# 1 0.009629 -0.002034 -0.003830 0.000000 0.003418 0.000000
# 2 -0.002034 0.018331 0.000705 0.000000 -0.006764 0.000000
# 3 -0.003830 0.000705 0.010348 0.000000 -0.002478 0.000000
# 4 0.000000 0.000000 0.000000 0.309477 0.000000 -0.020067
# 5 0.003418 -0.006764 -0.002478 0.000000 0.032765 0.000000
# 6 0.000000 0.000000 0.000000 -0.020067 0.000000 0.066773
#
#
# Mechanical properties :
#
#
# Convention : Reuss Voigt Hill
#
# Bulk Modulus (GPa) = 35.72641 45.70811 40.71726
# Shear Modulus (GPa) = 10.70728 26.80140 18.75434
#
# Velocity S-wave (km/s) = 2.19220 3.46832 2.90129
# Velocity P-wave (km/s) = 4.73738 6.04600 5.43125
#
# Compressibility (1/GPa) = 0.02799050
#
# Stress axis : x y z
#
# Youngs Moduli (GPa) = 103.85782 54.55137 96.63261
#
# Poissons Ratio (x) = 0.11097 0.37010
# Poissons Ratio (y) = 0.21128 -0.06816
# Poissons Ratio (z) = 0.39777 -0.03848
#
# Static dielectric constant tensor:
#      x y z
#    x 1.839220 0.000000 0.007500 
#    y 0.000000 1.852060 0.000000 
#    z 0.007500 0.000000 1.822720 
# 
# From -- ./inp_files/372391.got.cif
#   From: 2010.05.17/outbox.cif.g08.bks.cpg/sg12_187_cif.got.tgz:372391.got - 2010.06.03 13:09:07.
