data_PCOD9210975
_publ_section_title
;
Structure prediction by ZEFSAII (Michael W. Deem and Ramdas Pophale) SiO2 
 PCOD9210975
Probable space group: C 2/M
;
_chemical_formula_sum "Si O2"
_cell_formula_units_Z 64
_cell_length_a 25.348889
_cell_length_b 14.043704
_cell_length_c 12.541647
_cell_angle_alpha 90.000000
_cell_angle_beta 43.178152
_cell_angle_gamma 90.000000
_cell_volume 3055.076501
_symmetry_space_group_name_H-M "C 2/M"
_symmetry_group_IT_number 12
_symmetry_cell_setting 'monoclinic'
loop_
_space_group_symop_operation_xyz
x,y,z
-x,y,-z
-x,-y,-z
x,-y,z
1/2+x,1/2+y,z
1/2-x,1/2+y,-z
1/2-x,1/2-y,-z
1/2+x,1/2-y,z
loop_
_atom_site_type_symbol
_atom_site_label
_atom_site_fract_x
_atom_site_fract_y
_atom_site_fract_z
Si Si1 0.130782 0.115460 0.546358
Si Si2 0.099005 0.299268 0.014930
Si Si3 0.303652 0.115471 0.319107
Si Si4 0.579115 0.885667 0.442915
Si Si5 0.591960 0.607007 0.362980
Si Si6 0.980680 0.110745 0.902889
Si Si7 0.935251 0.385209 0.290467
Si Si8 0.162395 0.722367 0.146356
O O1 0.214813 0.145989 0.462946
O O2 0.120397 0.140089 0.437446
O O3 0.056610 0.143249 0.725118
O O4 0.129989 0.000000 0.551521
O O5 0.086481 0.185881 0.021774
O O6 0.127806 0.323614 0.090941
O O7 0.014160 0.344444 0.125703
O O8 0.158553 0.339160 0.841479
O O9 0.360421 0.140731 0.332222
O O10 0.304493 0.000000 0.307241
O O11 0.500000 0.856350 0.500000
O O12 0.575109 0.854551 0.571481
O O13 0.647134 0.842785 0.271719
O O14 0.583339 0.000000 0.435211
O O15 0.500000 0.603905 0.500000
O O16 0.621213 0.500000 0.301143
O O17 0.618032 0.679963 0.236026
O O18 0.963422 0.000000 0.900881
O O19 0.000000 0.114359 0.000000
O O20 0.941909 0.500000 0.279927
O O21 0.250000 0.750000 0.000000
#
# Coordination Sequence:
#
# PCOD9210975 Si02
#       8
#     8   8   8   8   8   8   8   8
#     4   9  19  38  63  90 121 157 202 259 312 359
#     4  12  23  39  61  92 124 162 207 253 304 364
#     4  10  21  39  65  97 127 156 198 255 319 370
#     4  10  21  41  66  90 119 163 209 250 308 373
#     4  10  21  39  65  91 117 160 215 259 299 353
#     4  10  22  41  62  86 120 163 208 249 295 358
#     4  10  21  39  66  95 124 159 204 254 306 377
#     4  12  26  40  59  90 129 162 201 253 313 365
#
# _framework density 20.948739
#
# number of rings (size 3 to 8) (size 9 to 14) (size 15 to 20)
#    0.000    1.625    1.250    3.375    1.750    3.500 
#    2.250    1.250    0.000    0.000    0.000    0.000 
#    0.000    0.000    0.000    0.000    0.000    0.000 
#
# Total GULP energy -178967.299326 kJ/mol
# GULP energy per Si atom -5592.728104 kJ/mol
# Density = 2.090106 g / cm^3
# Si number density = 20.948739 Si / 1000 Ang^3
#
#
#
# Elastic Constant Matrix: (Units=GPa)
#
#
# Indices 1 2 3 4 5 6 
#
# 1 66.0272 -1.6846 8.1753 0.0000 2.9625 0.0000
# 2 -1.6846 57.6479 16.5219 0.0000 1.5506 0.0000
# 3 8.1753 16.5219 82.6154 0.0000 4.3887 0.0000
# 4 0.0000 0.0000 0.0000 32.3243 0.0000 5.0728
# 5 2.9625 1.5506 4.3887 0.0000 35.6788 0.0000
# 6 0.0000 0.0000 0.0000 5.0728 0.0000 18.3815
#
#
#
# Elastic Compliance Matrix: (Units=1/GPa)
#
#
# Indices 1 2 3 4 5 6 
#
# 1 0.015425 0.000956 -0.001658 0.000000 -0.001118 0.000000
# 2 0.000956 0.018465 -0.003765 0.000000 -0.000419 0.000000
# 3 -0.001658 -0.003765 0.013091 0.000000 -0.001309 0.000000
# 4 0.000000 0.000000 0.000000 0.032337 0.000000 -0.008924
# 5 -0.001118 -0.000419 -0.001309 0.000000 0.028300 0.000000
# 6 0.000000 0.000000 0.000000 -0.008924 0.000000 0.056865
#
#
# Mechanical properties :
#
#
# Convention : Reuss Voigt Hill
#
# Bulk Modulus (GPa) = 26.28359 28.03508 27.15933
# Shear Modulus (GPa) = 26.86728 29.49544 28.18136
#
# Velocity S-wave (km/s) = 3.58512 3.75638 3.67175
# Velocity P-wave (km/s) = 5.45081 5.67676 5.56493
#
# Compressibility (1/GPa) = 0.03804656
#
# Stress axis : x y z
#
# Youngs Moduli (GPa) = 64.82914 54.15661 76.38912
#
# Poissons Ratio (x) = -0.05178 0.12667
# Poissons Ratio (y) = -0.06198 0.28761
# Poissons Ratio (z) = 0.10750 0.20391
#
# Static dielectric constant tensor:
#      x y z
#    x 1.737900 0.000000 0.011430 
#    y 0.000000 1.784670 0.000000 
#    z 0.011430 0.000000 1.707510 
# 
# From -- ./inp_files/183772.got.cif
#   From: 2010.05.17/outbox.cif.g08.bks.cpg/sg12_92_cif.got.tgz:183772.got - 2010.06.03 13:09:07.
