data_PCOD9210991
_publ_section_title
;
Structure prediction by ZEFSAII (Michael W. Deem and Ramdas Pophale) SiO2 
 PCOD9210991
Probable space group: C 2/M
;
_chemical_formula_sum "Si O2"
_cell_formula_units_Z 48
_cell_length_a 16.132471
_cell_length_b 15.354171
_cell_length_c 18.131807
_cell_angle_alpha 90.000000
_cell_angle_beta 29.136903
_cell_angle_gamma 90.000000
_cell_volume 2186.786559
_symmetry_space_group_name_H-M "C 2/M"
_symmetry_group_IT_number 12
_symmetry_cell_setting 'monoclinic'
loop_
_space_group_symop_operation_xyz
x,y,z
-x,y,-z
-x,-y,-z
x,-y,z
1/2+x,1/2+y,z
1/2-x,1/2+y,-z
1/2-x,1/2-y,-z
1/2+x,1/2-y,z
loop_
_atom_site_type_symbol
_atom_site_label
_atom_site_fract_x
_atom_site_fract_y
_atom_site_fract_z
Si Si1 0.669859 0.860240 0.651896
Si Si2 0.423320 0.702656 0.841177
Si Si3 0.418544 0.401483 0.990306
Si Si4 0.153851 0.597945 0.824750
Si Si5 0.543805 0.703617 0.353730
Si Si6 0.023606 0.404241 0.341711
O O1 0.584619 0.765793 0.714395
O O2 0.598706 0.901494 0.782207
O O3 0.607070 0.903526 0.625241
O O4 0.871201 0.849583 0.500307
O O5 0.457419 0.636016 0.880175
O O6 0.401104 0.679740 0.773003
O O7 0.250000 0.750000 0.000000
O O8 0.484000 0.500000 0.938783
O O9 0.500000 0.357160 0.000000
O O10 0.215588 0.401390 0.159986
O O11 0.216606 0.500000 0.793755
O O12 0.301636 0.669019 0.717707
O O13 0.000000 0.617409 0.000000
O O14 0.509578 0.807891 0.389482
O O15 0.006534 0.500000 0.393116
#
# Coordination Sequence:
#
# PCOD9210991 Si02
#       6
#     8   8   8   8   8   8
#     4  11  23  41  65  95 131 174 214 267 336 396
#     4  11  20  37  64  92 124 168 220 269 318 378
#     4  10  22  38  60  92 125 165 221 274 321 370
#     4  11  26  44  68  99 130 170 218 271 331 398
#     4  11  24  41  63 101 132 173 219 265 335 399
#     4  10  21  39  65  92 128 172 218 268 322 383
#
# _framework density 21.950016000000002
#
# number of rings (size 3 to 8) (size 9 to 14) (size 15 to 20)
#    0.000    1.333    3.333    4.000    2.333    2.667 
#    0.000    2.500    0.000    2.000    0.000    0.000 
#    0.000    0.000    0.000    0.000    0.000    0.000 
#
# Total GULP energy -133926.949561 kJ/mol
# GULP energy per Si atom -5580.289565 kJ/mol
# Density = 2.190006 g / cm^3
# Si number density = 21.950016 Si / 1000 Ang^3
#
#
#
# Elastic Constant Matrix: (Units=GPa)
#
#
# Indices 1 2 3 4 5 6 
#
# 1 79.7336 26.3136 -1.1660 -0.0010 6.6718 0.0007
# 2 26.3136 89.1341 -10.6640 -0.0031 -10.0703 0.0001
# 3 -1.1660 -10.6640 48.1479 -0.0034 -2.1923 0.0007
# 4 -0.0010 -0.0031 -0.0034 33.7680 0.0020 11.0746
# 5 6.6718 -10.0703 -2.1923 0.0020 33.8811 -0.0006
# 6 0.0007 0.0001 0.0007 11.0746 -0.0006 21.2621
#
#
#
# Elastic Compliance Matrix: (Units=1/GPa)
#
#
# Indices 1 2 3 4 5 6 
#
# 1 0.014507 -0.004888 -0.000930 0.000000 -0.004370 -0.000001
# 2 -0.004888 0.013627 0.003137 0.000001 0.005216 -0.000001
# 3 -0.000930 0.003137 0.021556 0.000003 0.002510 -0.000002
# 4 0.000000 0.000001 0.000003 0.035715 -0.000002 -0.018602
# 5 -0.004370 0.005216 0.002510 -0.000002 0.032088 0.000002
# 6 -0.000001 -0.000001 -0.000002 -0.018602 0.000002 0.056721
#
#
# Mechanical properties :
#
#
# Convention : Reuss Voigt Hill
#
# Bulk Modulus (GPa) = 22.55904 27.33144 24.94524
# Shear Modulus (GPa) = 25.72672 31.28436 28.50554
#
# Velocity S-wave (km/s) = 3.42725 3.77935 3.60760
# Velocity P-wave (km/s) = 5.09521 5.61457 5.36118
#
# Compressibility (1/GPa) = 0.04432814
#
# Stress axis : x y z
#
# Youngs Moduli (GPa) = 68.93331 73.38639 46.39089
#
# Poissons Ratio (x) = 0.35868 0.04315
# Poissons Ratio (y) = 0.33692 -0.14554
# Poissons Ratio (z) = 0.06412 -0.23023
#
# Static dielectric constant tensor:
#      x y z
#    x 1.875990 0.000000 0.023440 
#    y 0.000000 1.903650 0.000000 
#    z 0.023440 0.000000 1.763670 
# 
# From -- ./inp_files/271604.got.cif
#   From: 2010.05.17/outbox.cif.g08.bks.cpg/sg12_136_cif.got.tgz:271604.got - 2010.06.03 13:09:07.
