data_PCOD9210159
_publ_section_title
;
Structure prediction by ZEFSAII (Michael W. Deem and Ramdas Pophale) SiO2 
 PCOD9210159
Probable space group: C 2/M
;
_chemical_formula_sum "Si O2"
_cell_formula_units_Z 56
_cell_length_a 20.403844
_cell_length_b 11.777096
_cell_length_c 12.898657
_cell_angle_alpha 90.000000
_cell_angle_beta 63.824031
_cell_angle_gamma 90.000000
_cell_volume 2781.645646
_symmetry_space_group_name_H-M "C 2/M"
_symmetry_group_IT_number 12
_symmetry_cell_setting 'monoclinic'
loop_
_space_group_symop_operation_xyz
x,y,z
-x,y,-z
-x,-y,-z
x,-y,z
1/2+x,1/2+y,z
1/2-x,1/2+y,-z
1/2-x,1/2-y,-z
1/2+x,1/2-y,z
loop_
_atom_site_type_symbol
_atom_site_label
_atom_site_fract_x
_atom_site_fract_y
_atom_site_fract_z
Si Si1 0.576800 0.876960 0.438913
Si Si2 0.583735 0.792463 0.216709
Si Si3 0.129645 0.629184 0.961359
Si Si4 0.205785 0.126653 0.218204
Si Si5 0.583478 0.625687 0.903026
Si Si6 0.311061 0.715839 0.541270
Si Si7 0.054734 0.125701 0.682462
O O1 0.500000 0.809963 0.500000
O O2 0.588284 0.878656 0.308707
O O3 0.645292 0.824521 0.447373
O O4 0.565387 0.000000 0.494539
O O5 0.649121 0.706346 0.198822
O O6 0.508202 0.721288 0.274337
O O7 0.596714 0.851827 0.098363
O O8 0.106944 0.500000 0.939844
O O9 0.217239 0.627822 0.894112
O O10 0.111115 0.749709 0.918350
O O11 0.217215 0.159827 0.331839
O O12 0.175482 0.000000 0.239011
O O13 0.615333 0.500000 0.915133
O O14 0.585367 0.625763 0.777809
O O15 0.500000 0.622725 0.000000
O O16 0.250000 0.750000 0.500000
O O17 0.376603 0.646174 0.440981
O O18 0.023289 0.000000 0.683419
#
# Coordination Sequence:
#
# PCOD9210159 Si02
#       7
#     8   8   8   8   8   8   8
#     4  10  21  39  60  89 125 164 209 259 319 389
#     4  11  21  39  62  91 121 164 210 263 319 382
#     4  11  23  41  63  93 129 167 212 264 320 384
#     4  10  23  40  61  90 128 165 209 263 320 386
#     4  10  21  39  61  90 126 164 209 262 317 383
#     4  11  23  41  64  91 126 166 212 267 325 388
#     4  11  22  38  63  92 123 161 213 264 319 383
#
# _framework density 20.131968000000001
#
# number of rings (size 3 to 8) (size 9 to 14) (size 15 to 20)
#    0.000    1.429    2.857    2.571    0.000    2.000 
#    0.000    7.857    0.000    0.000    0.000    0.000 
#    0.000    0.000    0.000    0.000    0.000    0.000 
#
# Total GULP energy -155882.601860 kJ/mol
# GULP energy per Si atom -5567.235781 kJ/mol
# Density = 2.008615 g / cm^3
# Si number density = 20.131968 Si / 1000 Ang^3
#
#
#
# Elastic Constant Matrix: (Units=GPa)
#
#
# Indices 1 2 3 4 5 6 
#
# 1 72.4590 42.4580 9.8726 0.0000 -3.0854 0.0000
# 2 42.4580 138.7555 7.4850 0.0000 5.6659 0.0000
# 3 9.8726 7.4850 66.2841 0.0000 -7.1406 0.0000
# 4 0.0000 0.0000 0.0000 -14.9120 0.0000 -28.1968
# 5 -3.0854 5.6659 -7.1406 0.0000 27.9737 0.0000
# 6 0.0000 0.0000 0.0000 -28.1968 0.0000 -1.4653
#
#
#
# Elastic Compliance Matrix: (Units=1/GPa)
#
#
# Indices 1 2 3 4 5 6 
#
# 1 0.017238 -0.005287 -0.001697 0.000000 0.002539 0.000000
# 2 -0.005287 0.008954 -0.000496 0.000000 -0.002523 0.000000
# 3 -0.001697 -0.000496 0.015821 0.000000 0.003952 0.000000
# 4 0.000000 0.000000 0.000000 0.001895 0.000000 -0.036467
# 5 0.002539 -0.002523 0.003952 0.000000 0.037548 0.000000
# 6 0.000000 0.000000 0.000000 -0.036467 0.000000 0.019286
#
#
# Mechanical properties :
#
#
# Convention : Reuss Voigt Hill
#
# Bulk Modulus (GPa) = 36.96205 44.12553 40.54379
# Shear Modulus (GPa) = 40.09009 16.83149 28.46079
#
# Velocity S-wave (km/s) = 4.46731 2.89460 3.76401
# Velocity P-wave (km/s) = 6.70887 5.75651 6.25085
#
# Compressibility (1/GPa) = 0.02705477
#
# Stress axis : x y z
#
# Youngs Moduli (GPa) = 58.01101 111.67676 63.20716
#
# Poissons Ratio (x) = 0.59042 0.10726
# Poissons Ratio (y) = 0.30670 0.03132
# Poissons Ratio (z) = 0.09844 0.05534
#
# Static dielectric constant tensor:
#      x y z
#    x 1.692810 0.000000 -0.016750 
#    y 0.000000 1.811960 0.000000 
#    z -0.016750 0.000000 1.757820 
# 
# From -- ./inp_files/165613.got.cif
#   From: 2010.05.17/outbox.cif.g08.bks.cpg/sg12_83_cif.got.tgz:165613.got - 2010.06.03 13:09:07.
