data_PCOD9210024
_publ_section_title
;
Structure prediction by ZEFSAII (Michael W. Deem and Ramdas Pophale) SiO2 
 PCOD9210024
Probable space group: C 2/M
;
_chemical_formula_sum "Si O2"
_cell_formula_units_Z 64
_cell_length_a 29.125056
_cell_length_b 7.490565
_cell_length_c 13.278838
_cell_angle_alpha 90.000000
_cell_angle_beta 65.133253
_cell_angle_gamma 90.000000
_cell_volume 2628.371145
_symmetry_space_group_name_H-M "C 2/M"
_symmetry_group_IT_number 12
_symmetry_cell_setting 'monoclinic'
loop_
_space_group_symop_operation_xyz
x,y,z
-x,y,-z
-x,-y,-z
x,-y,z
1/2+x,1/2+y,z
1/2-x,1/2+y,-z
1/2-x,1/2-y,-z
1/2+x,1/2-y,z
loop_
_atom_site_type_symbol
_atom_site_label
_atom_site_fract_x
_atom_site_fract_y
_atom_site_fract_z
Si Si1 0.192301 0.713470 0.525798
Si Si2 0.037772 0.782371 0.664396
Si Si3 0.377094 0.795651 0.574287
Si Si4 0.573900 0.702286 0.265842
Si Si5 0.675085 0.719000 0.094953
Si Si6 0.954869 0.212130 0.111877
Si Si7 0.843068 0.715340 0.230546
Si Si8 0.740523 0.794587 0.839281
O O1 0.185752 0.500000 0.526396
O O2 0.250000 0.750000 0.500000
O O3 0.172304 0.781303 0.436821
O O4 0.159930 0.780135 0.651318
O O5 0.080817 0.708924 0.552379
O O6 0.042455 0.722047 0.775669
O O7 0.982137 0.722436 0.679121
O O8 0.041697 0.000000 0.655118
O O9 0.400568 0.698782 0.648128
O O10 0.368609 0.000000 0.612930
O O11 0.566684 0.500000 0.235286
O O12 0.617500 0.781895 0.155508
O O13 0.676368 0.500000 0.092165
O O14 0.707220 0.778978 0.163687
O O15 0.703594 0.786505 0.970545
O O16 0.896906 0.240582 0.131240
O O17 0.962582 0.000000 0.110734
O O18 0.000000 0.283618 0.000000
O O19 0.839541 0.500000 0.234775
O O20 0.793586 0.785878 0.217650
O O21 0.750402 0.000000 0.803785
#
# Coordination Sequence:
#
# PCOD9210024 Si02
#       8
#     8   8   8   8   8   8   8   8
#     4  10  23  40  60  86 117 151 192 238 287 346
#     4  10  21  39  59  83 114 149 190 234 282 339
#     4  11  23  40  59  84 115 147 187 236 286 337
#     4  10  22  37  59  85 111 148 192 233 281 337
#     4   9  19  36  57  82 111 146 185 230 277 326
#     4  10  22  38  60  88 117 150 193 241 285 335
#     4  10  21  39  60  85 118 153 189 232 287 351
#     4   9  19  35  56  81 112 148 184 224 277 334
#
# _framework density 24.349682000000001
#
# number of rings (size 3 to 8) (size 9 to 14) (size 15 to 20)
#    0.000    2.125    1.250    0.750    3.500    4.750 
#    0.000    0.000    0.000    0.000    0.000    0.000 
#    0.000    0.000    0.000    0.000    0.000    0.000 
#
# Total GULP energy -178851.767782 kJ/mol
# GULP energy per Si atom -5589.117743 kJ/mol
# Density = 2.429426 g / cm^3
# Si number density = 24.349682 Si / 1000 Ang^3
#
#
#
# Elastic Constant Matrix: (Units=GPa)
#
#
# Indices 1 2 3 4 5 6 
#
# 1 110.9865 -4.7647 -0.8714 0.0000 -10.6036 0.0000
# 2 -4.7647 80.6643 1.4425 0.0000 -0.5414 0.0000
# 3 -0.8714 1.4425 61.0060 0.0000 -16.9921 0.0000
# 4 0.0000 0.0000 0.0000 18.4806 0.0000 -3.8695
# 5 -10.6036 -0.5414 -16.9921 0.0000 41.9455 0.0000
# 6 0.0000 0.0000 0.0000 -3.8695 0.0000 12.5165
#
#
#
# Elastic Compliance Matrix: (Units=1/GPa)
#
#
# Indices 1 2 3 4 5 6 
#
# 1 0.009300 0.000552 0.000875 0.000000 0.002713 0.000000
# 2 0.000552 0.012435 -0.000228 0.000000 0.000208 0.000000
# 3 0.000875 -0.000228 0.018565 0.000000 0.007739 0.000000
# 4 0.000000 0.000000 0.000000 0.057856 0.000000 0.017886
# 5 0.002713 0.000208 0.007739 0.000000 0.027664 0.000000
# 6 0.000000 0.000000 0.000000 0.017886 0.000000 0.085424
#
#
# Mechanical properties :
#
#
# Convention : Reuss Voigt Hill
#
# Bulk Modulus (GPa) = 23.42025 27.14106 25.28066
# Shear Modulus (GPa) = 22.41355 31.71187 27.06271
#
# Velocity S-wave (km/s) = 3.03724 3.61273 3.33741
# Velocity P-wave (km/s) = 4.68391 5.34537 5.02553
#
# Compressibility (1/GPa) = 0.04269808
#
# Stress axis : x y z
#
# Youngs Moduli (GPa) = 107.52876 80.41727 53.86382
#
# Poissons Ratio (x) = -0.04438 -0.04715
# Poissons Ratio (y) = -0.05934 0.01230
# Poissons Ratio (z) = -0.09413 0.01836
#
# Static dielectric constant tensor:
#      x y z
#    x 1.960890 0.000000 0.005620 
#    y 0.000000 1.924780 0.000000 
#    z 0.005620 0.000000 1.924270 
# 
# From -- ./inp_files/249105.got.cif
#   From: 2010.05.17/outbox.cif.g08.bks.cpg/sg12_125_cif.got.tgz:249105.got - 2010.06.03 13:09:07.
