data_PCOD9210548
_publ_section_title
;
Structure prediction by ZEFSAII (Michael W. Deem and Ramdas Pophale) SiO2 
 PCOD9210548
Probable space group: C 2/M
;
_chemical_formula_sum "Si O2"
_cell_formula_units_Z 48
_cell_length_a 9.820785
_cell_length_b 16.122086
_cell_length_c 29.675843
_cell_angle_alpha 90.000000
_cell_angle_beta 144.846211
_cell_angle_gamma 90.000000
_cell_volume 2705.339992
_symmetry_space_group_name_H-M "C 2/M"
_symmetry_group_IT_number 12
_symmetry_cell_setting 'monoclinic'
loop_
_space_group_symop_operation_xyz
x,y,z
-x,y,-z
-x,-y,-z
x,-y,z
1/2+x,1/2+y,z
1/2-x,1/2+y,-z
1/2-x,1/2-y,-z
1/2+x,1/2-y,z
loop_
_atom_site_type_symbol
_atom_site_label
_atom_site_fract_x
_atom_site_fract_y
_atom_site_fract_z
Si Si1 0.967041 0.674336 0.295419
Si Si2 0.261513 0.750679 0.056515
Si Si3 0.265082 0.154513 0.798349
Si Si4 0.165080 0.906211 0.674104
Si Si5 0.549216 0.402687 0.834449
Si Si6 0.734180 0.270576 0.443495
O O1 0.885075 0.761310 0.250948
O O2 0.728057 0.623757 0.241956
O O3 0.131677 0.628524 0.303840
O O4 0.115147 0.699172 0.380087
O O5 0.465631 0.814842 0.125170
O O6 0.329212 0.662105 0.097717
O O7 0.250000 0.750000 0.000000
O O8 0.000000 0.775566 0.000000
O O9 0.240319 0.100677 0.746693
O O10 0.169129 0.113504 0.818107
O O11 0.936218 0.848965 0.607598
O O12 0.113416 0.000000 0.647821
O O13 0.572049 0.500000 0.852523
O O14 0.750000 0.250000 0.500000
O O15 0.000000 0.286665 0.500000
#
# Coordination Sequence:
#
# PCOD9210548 Si02
#       6
#     8   8   8   8   8   8
#     4  10  21  39  63  84 117 160 200 235 287 359
#     4  11  22  40  63  88 116 158 200 240 289 358
#     4  10  21  39  63  85 116 159 202 236 285 357
#     4  11  23  39  60  90 121 152 195 250 294 339
#     4  11  23  39  61  90 119 153 196 248 294 341
#     4  11  22  40  64  87 116 159 202 238 289 358
#
# _framework density 17.742687
#
# number of rings (size 3 to 8) (size 9 to 14) (size 15 to 20)
#    0.000    1.333    3.333    4.000    4.667    0.667 
#    0.000    2.500    0.000    2.500    0.000    0.000 
#    0.000    0.000    0.000    0.000    0.000    0.000 
#
# Total GULP energy -133974.832092 kJ/mol
# GULP energy per Si atom -5582.284671 kJ/mol
# Density = 1.770230 g / cm^3
# Si number density = 17.742687 Si / 1000 Ang^3
#
#
#
# Elastic Constant Matrix: (Units=GPa)
#
#
# Indices 1 2 3 4 5 6 
#
# 1 161.1288 46.7768 65.6804 0.0000 7.2791 0.0000
# 2 46.7768 82.5190 29.7767 0.0001 3.1833 0.0000
# 3 65.6804 29.7767 118.3376 0.0002 3.3111 0.0001
# 4 0.0000 0.0001 0.0002 7.4019 0.0000 -6.7656
# 5 7.2791 3.1833 3.3111 0.0000 40.8380 0.0000
# 6 0.0000 0.0000 0.0001 -6.7656 0.0000 14.4532
#
#
#
# Elastic Compliance Matrix: (Units=1/GPa)
#
#
# Indices 1 2 3 4 5 6 
#
# 1 0.008930 -0.003570 -0.004031 0.000000 -0.000987 0.000000
# 2 -0.003570 0.014780 -0.001727 0.000000 -0.000376 0.000000
# 3 -0.004031 -0.001727 0.011123 -0.000001 -0.000049 0.000000
# 4 0.000000 0.000000 -0.000001 0.236131 0.000000 0.110533
# 5 -0.000987 -0.000376 -0.000049 0.000000 0.024696 0.000000
# 6 0.000000 0.000000 0.000000 0.110533 0.000000 0.120929
#
#
# Mechanical properties :
#
#
# Convention : Reuss Voigt Hill
#
# Bulk Modulus (GPa) = 61.81095 71.82814 66.81954
# Shear Modulus (GPa) = 11.34719 27.18873 19.26796
#
# Velocity S-wave (km/s) = 2.53166 3.91882 3.29898
# Velocity P-wave (km/s) = 6.59233 7.81328 7.22863
#
# Compressibility (1/GPa) = 0.01617836
#
# Stress axis : x y z
#
# Youngs Moduli (GPa) = 111.98138 67.66061 89.90012
#
# Poissons Ratio (x) = 0.24152 0.36235
# Poissons Ratio (y) = 0.39973 0.15527
# Poissons Ratio (z) = 0.45135 0.11686
#
# Static dielectric constant tensor:
#      x y z
#    x 1.625410 0.000000 -0.080880 
#    y 0.000000 1.582580 0.000000 
#    z -0.080880 0.000000 1.675640 
# 
# From -- ./inp_files/251494.got.cif
#   From: 2010.05.17/outbox.cif.g08.bks.cpg/sg12_126_cif.got.tgz:251494.got - 2010.06.03 13:09:07.
