data_PCOD9210893
_publ_section_title
;
Structure prediction by ZEFSAII (Michael W. Deem and Ramdas Pophale) SiO2 
 PCOD9210893
Probable space group: C 2/M
;
_chemical_formula_sum "Si O2"
_cell_formula_units_Z 40
_cell_length_a 18.075414
_cell_length_b 8.774482
_cell_length_c 13.899598
_cell_angle_alpha 90.000000
_cell_angle_beta 109.104536
_cell_angle_gamma 90.000000
_cell_volume 2083.091767
_symmetry_space_group_name_H-M "C 2/M"
_symmetry_group_IT_number 12
_symmetry_cell_setting 'monoclinic'
loop_
_space_group_symop_operation_xyz
x,y,z
-x,y,-z
-x,-y,-z
x,-y,z
1/2+x,1/2+y,z
1/2-x,1/2+y,-z
1/2-x,1/2-y,-z
1/2+x,1/2-y,z
loop_
_atom_site_type_symbol
_atom_site_label
_atom_site_fract_x
_atom_site_fract_y
_atom_site_fract_z
Si Si1 0.135985 0.818450 0.201442
Si Si2 0.426888 0.817516 0.399614
Si Si3 0.764215 0.818432 0.400576
Si Si4 0.830616 0.317409 0.994099
Si Si5 0.472679 0.182401 0.199874
O O1 0.200021 0.748612 0.300559
O O2 0.150335 0.752719 0.101304
O O3 0.050319 0.769088 0.200830
O O4 0.143425 0.000000 0.203297
O O5 0.500000 0.783113 0.500000
O O6 0.349756 0.730768 0.400470
O O7 0.448988 0.780990 0.299147
O O8 0.411962 0.000000 0.398911
O O9 0.750000 0.750000 0.500000
O O10 0.757324 0.000000 0.401156
O O11 0.824221 0.500000 0.983275
O O12 0.750000 0.250000 0.000000
O O13 0.900969 0.283184 0.098049
O O14 0.487896 0.000000 0.201487
#
# Coordination Sequence:
#
# PCOD9210893 Si02
#       5
#     8   8   8   8   8
#     4  12  25  41  63  91 124 162 208 257 306 365
#     4  10  21  39  64  93 126 162 202 251 307 366
#     4  12  25  42  65  92 125 162 204 253 306 366
#     4  11  23  40  63  91 126 165 207 256 311 369
#     4  10  22  40  62  90 125 164 205 254 311 366
#
# _framework density 19.202227000000001
#
# number of rings (size 3 to 8) (size 9 to 14) (size 15 to 20)
#    0.000    1.000    0.000    7.200    0.000    8.400 
#    0.000    0.000    0.000    0.000    0.000    0.000 
#    0.000    0.000    0.000    0.000    0.000    0.000 
#
# Total GULP energy -111969.882670 kJ/mol
# GULP energy per Si atom -5598.494133 kJ/mol
# Density = 1.915852 g / cm^3
# Si number density = 19.202227 Si / 1000 Ang^3
#
#
#
# Elastic Constant Matrix: (Units=GPa)
#
#
# Indices 1 2 3 4 5 6 
#
# 1 180.3302 112.0513 116.8407 0.0000 -0.0350 0.0000
# 2 112.0513 134.9470 111.6565 0.0000 5.8380 0.0000
# 3 116.8407 111.6565 224.8076 0.0000 -6.4013 0.0000
# 4 0.0000 0.0000 0.0000 29.7075 0.0000 -2.0217
# 5 -0.0350 5.8380 -6.4013 0.0000 37.1245 0.0000
# 6 0.0000 0.0000 0.0000 -2.0217 0.0000 44.3765
#
#
#
# Elastic Compliance Matrix: (Units=1/GPa)
#
#
# Indices 1 2 3 4 5 6 
#
# 1 0.012096 -0.008329 -0.002123 0.000000 0.000955 0.000000
# 2 -0.008329 0.018673 -0.005054 0.000000 -0.003816 0.000000
# 3 -0.002123 -0.005054 0.008125 0.000000 0.002194 0.000000
# 4 0.000000 0.000000 0.000000 0.033766 0.000000 0.001538
# 5 0.000955 -0.003816 0.002194 0.000000 0.027916 0.000000
# 6 0.000000 0.000000 0.000000 0.001538 0.000000 0.022605
#
#
# Mechanical properties :
#
#
# Convention : Reuss Voigt Hill
#
# Bulk Modulus (GPa) = 126.87682 135.68686 131.28184
# Shear Modulus (GPa) = 31.88375 35.54412 33.71393
#
# Velocity S-wave (km/s) = 4.07924 4.30704 4.19469
# Velocity P-wave (km/s) = 9.40236 9.77495 9.59046
#
# Compressibility (1/GPa) = 0.00788166
#
# Stress axis : x y z
#
# Youngs Moduli (GPa) = 82.66973 53.55313 123.08407
#
# Poissons Ratio (x) = 0.44603 0.26131
# Poissons Ratio (y) = 0.68853 0.62211
# Poissons Ratio (z) = 0.17551 0.27068
#
# Static dielectric constant tensor:
#      x y z
#    x 1.621150 0.000000 0.000890 
#    y 0.000000 1.646610 0.000000 
#    z 0.000890 0.000000 1.637130 
# 
# From -- ./inp_files/211239.got.cif
#   From: 2010.05.17/outbox.cif.g08.bks.cpg/sg12_106_cif.got.tgz:211239.got - 2010.06.03 13:09:07.
