data_PCOD9210958
_publ_section_title
;
Structure prediction by ZEFSAII (Michael W. Deem and Ramdas Pophale) SiO2 
 PCOD9210958
Probable space group: C 2/M
;
_chemical_formula_sum "Si O2"
_cell_formula_units_Z 44
_cell_length_a 26.326758
_cell_length_b 7.518441
_cell_length_c 11.806022
_cell_angle_alpha 90.000000
_cell_angle_beta 123.621953
_cell_angle_gamma 90.000000
_cell_volume 1945.907090
_symmetry_space_group_name_H-M "C 2/M"
_symmetry_group_IT_number 12
_symmetry_cell_setting 'monoclinic'
loop_
_space_group_symop_operation_xyz
x,y,z
-x,y,-z
-x,-y,-z
x,-y,z
1/2+x,1/2+y,z
1/2-x,1/2+y,-z
1/2-x,1/2-y,-z
1/2+x,1/2-y,z
loop_
_atom_site_type_symbol
_atom_site_label
_atom_site_fract_x
_atom_site_fract_y
_atom_site_fract_z
Si Si1 0.810033 0.213885 0.717370
Si Si2 0.189030 0.702245 0.706121
Si Si3 0.368968 0.202738 0.013812
Si Si4 0.625177 0.707427 0.418879
Si Si5 0.184126 0.000000 0.897455
Si Si6 0.497629 0.785561 0.866762
O O1 0.745155 0.253509 0.692697
O O2 0.825881 0.280806 0.612080
O O3 0.816907 0.000000 0.723348
O O4 0.858221 0.291441 0.865957
O O5 0.197665 0.500000 0.758520
O O6 0.131672 0.705741 0.549470
O O7 0.185420 0.843536 0.800841
O O8 0.324783 0.343143 0.016621
O O9 0.438953 0.260432 0.117472
O O10 0.358720 0.000000 0.040227
O O11 0.637393 0.500000 0.452709
O O12 0.560556 0.724804 0.276040
O O13 0.495947 0.000000 0.869539
O O14 0.500000 0.719670 0.000000
#
# Coordination Sequence:
#
# PCOD9210958 Si02
#       6
#     8   8   8   8   4   8
#     4  10  22  41  66 102 135 170 216 273 342 397
#     4  11  25  46  66  94 134 180 222 273 329 392
#     4  11  24  42  68 100 135 174 220 277 331 387
#     4  11  22  39  70 102 135 170 213 274 340 404
#     4  12  26  48  64  94 135 179 239 271 312 395
#     4  10  21  39  65 101 135 168 213 272 340 398
#
# _framework density 22.611561999999999
#
# number of rings (size 3 to 8) (size 9 to 14) (size 15 to 20)
#    0.000    1.273    3.636    1.636    2.545    1.818 
#    0.000    1.818    0.000    3.273    0.000    0.000 
#    0.000    0.000    0.000    0.000    0.000    0.000 
#
# Total GULP energy -122572.976715 kJ/mol
# GULP energy per Si atom -5571.498942 kJ/mol
# Density = 2.256010 g / cm^3
# Si number density = 22.611562 Si / 1000 Ang^3
#
#
#
# Elastic Constant Matrix: (Units=GPa)
#
#
# Indices 1 2 3 4 5 6 
#
# 1 8.6619 24.0032 54.3052 0.0000 -11.4373 0.0000
# 2 24.0032 125.5620 20.6009 0.0000 -13.2175 0.0000
# 3 54.3052 20.6009 32.0883 0.0000 1.5809 0.0000
# 4 0.0000 0.0000 0.0000 32.6893 0.0000 -1.1816
# 5 -11.4373 -13.2175 1.5809 0.0000 34.8924 0.0000
# 6 0.0000 0.0000 0.0000 -1.1816 0.0000 15.7091
#
#
#
# Elastic Compliance Matrix: (Units=1/GPa)
#
#
# Indices 1 2 3 4 5 6 
#
# 1 -0.010922 -0.001705 0.019831 0.000000 -0.005124 0.000000
# 2 -0.001705 0.009122 -0.003120 0.000000 0.003038 0.000000
# 3 0.019831 -0.003120 -0.000658 0.000000 0.005348 0.000000
# 4 0.000000 0.000000 0.000000 0.030674 0.000000 0.002307
# 5 -0.005124 0.003038 0.005348 0.000000 0.027888 0.000000
# 6 0.000000 0.000000 0.000000 0.002307 0.000000 0.063831
#
#
# Mechanical properties :
#
#
# Convention : Reuss Voigt Hill
#
# Bulk Modulus (GPa) = 36.29279 40.45897 38.37588
# Shear Modulus (GPa) = 50.44938 21.15170 35.80054
#
# Velocity S-wave (km/s) = 4.72861 3.06181 3.98337
# Velocity P-wave (km/s) = 6.77484 5.51647 6.17778
#
# Compressibility (1/GPa) = 0.02755368
#
# Stress axis : x y z
#
# Youngs Moduli (GPa) = -91.55964 109.62659 -1520.63278
#
# Poissons Ratio (x) = 0.18694 30.15562
# Poissons Ratio (y) = -0.15613 -4.74456
# Poissons Ratio (z) = 1.81572 0.34205
#
# Static dielectric constant tensor:
#      x y z
#    x 1.862830 0.000000 0.078570 
#    y 0.000000 1.818760 0.000000 
#    z 0.078570 0.000000 1.885440 
# 
# From -- ./inp_files/173166.got.cif
#   From: 2010.05.17/outbox.cif.g08.bks.cpg/sg12_87_cif.got.tgz:173166.got - 2010.06.03 13:09:07.
