data_PCOD9210531
_publ_section_title
;
Structure prediction by ZEFSAII (Michael W. Deem and Ramdas Pophale) SiO2 
 PCOD9210531
Probable space group: C 2/M
;
_chemical_formula_sum "Si O2"
_cell_formula_units_Z 48
_cell_length_a 28.380529
_cell_length_b 14.091933
_cell_length_c 12.005750
_cell_angle_alpha 90.000000
_cell_angle_beta 25.601401
_cell_angle_gamma 90.000000
_cell_volume 2074.781934
_symmetry_space_group_name_H-M "C 2/M"
_symmetry_group_IT_number 12
_symmetry_cell_setting 'monoclinic'
loop_
_space_group_symop_operation_xyz
x,y,z
-x,y,-z
-x,-y,-z
x,-y,z
1/2+x,1/2+y,z
1/2-x,1/2+y,-z
1/2-x,1/2-y,-z
1/2+x,1/2-y,z
loop_
_atom_site_type_symbol
_atom_site_label
_atom_site_fract_x
_atom_site_fract_y
_atom_site_fract_z
Si Si1 0.360804 0.718570 0.325169
Si Si2 0.391766 0.612152 0.041107
Si Si3 0.551997 0.615132 0.504062
Si Si4 0.756781 0.885546 0.757438
Si Si5 0.517713 0.114885 0.335021
Si Si6 0.864027 0.611091 0.461557
O O1 0.250000 0.750000 0.500000
O O2 0.416341 0.664458 0.104035
O O3 0.319674 0.653871 0.515628
O O4 0.408545 0.814276 0.277181
O O5 0.408100 0.500000 0.024777
O O6 0.267036 0.622862 0.264620
O O7 0.472781 0.644581 0.772539
O O8 0.500000 0.647489 0.500000
O O9 0.551419 0.500000 0.501856
O O10 0.673568 0.642108 0.281518
O O11 0.756838 0.000000 0.748616
O O12 0.632383 0.852582 0.036998
O O13 0.500000 0.145644 0.500000
O O14 0.417448 0.135341 0.466347
O O15 0.525386 0.000000 0.322632
O O16 0.887856 0.500000 0.386190
#
# Coordination Sequence:
#
# PCOD9210531 Si02
#       6
#     8   8   8   8   8   8
#     4  10  21  40  60  89 126 163 209 255 309 368
#     4   9  18  35  62  93 126 164 205 252 314 374
#     4   9  19  35  60  95 129 164 202 251 311 374
#     4  10  21  39  62  94 129 161 205 254 309 372
#     4   9  19  37  64  92 123 167 210 256 312 370
#     4   9  19  38  63  91 121 161 210 262 312 365
#
# _framework density 23.134961000000001
#
# number of rings (size 3 to 8) (size 9 to 14) (size 15 to 20)
#    0.000    2.667    0.000    0.500    2.333    1.333 
#    9.000    6.667    0.000   13.000    0.000    0.000 
#    0.000    0.667    0.000    0.000    0.000    0.000 
#
# Total GULP energy -134146.915489 kJ/mol
# GULP energy per Si atom -5589.454812 kJ/mol
# Density = 2.308230 g / cm^3
# Si number density = 23.134961 Si / 1000 Ang^3
#
#
#
# Elastic Constant Matrix: (Units=GPa)
#
#
# Indices 1 2 3 4 5 6 
#
# 1 209.5359 45.8515 56.4305 0.0000 -0.2976 0.0000
# 2 45.8515 97.3134 26.9257 0.0000 -5.2487 0.0000
# 3 56.4305 26.9257 84.8117 0.0000 5.3969 0.0000
# 4 0.0000 0.0000 0.0000 -8.7328 0.0000 -60.6957
# 5 -0.2976 -5.2487 5.3969 0.0000 34.0576 0.0000
# 6 0.0000 0.0000 0.0000 -60.6957 0.0000 -119.1435
#
#
#
# Elastic Compliance Matrix: (Units=1/GPa)
#
#
# Indices 1 2 3 4 5 6 
#
# 1 0.006131 -0.001905 -0.003494 0.000000 0.000314 0.000000
# 2 -0.001905 0.012043 -0.002700 0.000000 0.002267 0.000000
# 3 -0.003494 -0.002700 0.015154 0.000000 -0.002848 0.000000
# 4 0.000000 0.000000 0.000000 0.045070 0.000000 -0.022960
# 5 0.000314 0.002267 -0.002848 0.000000 0.030166 0.000000
# 6 0.000000 0.000000 0.000000 -0.022960 0.000000 0.003303
#
#
# Mechanical properties :
#
#
# Convention : Reuss Voigt Hill
#
# Bulk Modulus (GPa) = 58.37994 72.23072 65.30533
# Shear Modulus (GPa) = 37.37588 -1.26685 18.05451
#
# Velocity S-wave (km/s) = 4.02376 -0.74080 2.79659
# Velocity P-wave (km/s) = 6.84667 5.52789 6.22231
#
# Compressibility (1/GPa) = 0.01712917
#
# Stress axis : x y z
#
# Youngs Moduli (GPa) = 163.11021 83.03574 65.98754
#
# Poissons Ratio (x) = 0.15817 0.23059
# Poissons Ratio (y) = 0.31071 0.17818
# Poissons Ratio (z) = 0.56998 0.22421
#
# Static dielectric constant tensor:
#      x y z
#    x 1.827340 0.000000 -0.022940 
#    y 0.000000 1.888180 0.000000 
#    z -0.022940 0.000000 1.877460 
# 
# From -- ./inp_files/183691.got.cif
#   From: 2010.05.17/outbox.cif.g08.bks.cpg/sg12_92_cif.got.tgz:183691.got - 2010.06.03 13:09:07.
