data_PCOD9210067
_publ_section_title
;
Structure prediction by ZEFSAII (Michael W. Deem and Ramdas Pophale) SiO2 
 PCOD9210067
Probable space group: C 2/M
;
_chemical_formula_sum "Si O2"
_cell_formula_units_Z 52
_cell_length_a 21.414322
_cell_length_b 17.377281
_cell_length_c 9.104745
_cell_angle_alpha 90.000000
_cell_angle_beta 55.004852
_cell_angle_gamma 90.000000
_cell_volume 2775.519025
_symmetry_space_group_name_H-M "C 2/M"
_symmetry_group_IT_number 12
_symmetry_cell_setting 'monoclinic'
loop_
_space_group_symop_operation_xyz
x,y,z
-x,y,-z
-x,-y,-z
x,-y,z
1/2+x,1/2+y,z
1/2-x,1/2+y,-z
1/2-x,1/2-y,-z
1/2+x,1/2-y,z
loop_
_atom_site_type_symbol
_atom_site_label
_atom_site_fract_x
_atom_site_fract_y
_atom_site_fract_z
Si Si1 0.538314 0.195108 0.217257
Si Si2 0.830494 0.409882 0.063698
Si Si3 0.271637 0.677361 0.572732
Si Si4 0.638839 0.411236 0.779997
Si Si5 0.000000 0.197676 0.000000
Si Si6 0.617341 0.215718 0.411546
Si Si7 0.262924 0.910972 0.839221
O O1 0.587057 0.120726 0.101942
O O2 0.584429 0.230102 0.293106
O O3 0.452537 0.185947 0.394095
O O4 0.532019 0.250208 0.087035
O O5 0.833342 0.500000 0.101011
O O6 0.774242 0.402247 0.998334
O O7 0.796750 0.355076 0.235575
O O8 0.250000 0.750000 0.500000
O O9 0.300862 0.610127 0.427270
O O10 0.340316 0.710240 0.580135
O O11 0.616764 0.500000 0.802700
O O12 0.567915 0.355996 0.853613
O O13 0.680373 0.396453 0.880265
O O14 0.679204 0.148271 0.312841
O O15 0.282099 0.000000 0.778301
#
# Coordination Sequence:
#
# PCOD9210067 Si02
#       7
#     8   8   8   8   4   8   8
#     4  10  23  38  61  88 122 158 202 243 297 355
#     4  10  23  41  62  90 124 157 198 250 305 359
#     4  12  22  38  62  89 121 155 202 248 301 353
#     4  11  23  39  60  86 120 158 201 251 305 359
#     4  12  23  40  61  86 118 158 208 252 295 354
#     4  10  21  39  59  89 121 161 197 244 296 359
#     4   9  20  38  62  90 117 155 200 246 302 360
#
# _framework density 18.735234999999999
#
# number of rings (size 3 to 8) (size 9 to 14) (size 15 to 20)
#    0.000    1.538    3.077    1.615    2.154    1.846 
#    0.000    3.462    0.000    0.923    0.000    0.000 
#    0.000    0.000    0.000    0.000    0.000    0.000 
#
# Total GULP energy -145097.268347 kJ/mol
# GULP energy per Si atom -5580.664167 kJ/mol
# Density = 1.869259 g / cm^3
# Si number density = 18.735235 Si / 1000 Ang^3
#
#
#
# Elastic Constant Matrix: (Units=GPa)
#
#
# Indices 1 2 3 4 5 6 
#
# 1 58.0701 40.6214 14.7515 0.0000 2.6913 0.0000
# 2 40.6214 78.3411 32.3966 0.0000 10.5424 0.0000
# 3 14.7515 32.3966 77.6662 0.0000 6.2971 0.0000
# 4 0.0000 0.0000 0.0000 57.3932 0.0000 -19.5885
# 5 2.6913 10.5424 6.2971 0.0000 16.7978 0.0000
# 6 0.0000 0.0000 0.0000 -19.5885 0.0000 44.3578
#
#
#
# Elastic Compliance Matrix: (Units=1/GPa)
#
#
# Indices 1 2 3 4 5 6 
#
# 1 0.027426 -0.015175 0.000727 0.000000 0.004857 0.000000
# 2 -0.015175 0.024795 -0.006596 0.000000 -0.010658 0.000000
# 3 0.000727 -0.006596 0.015638 0.000000 -0.001839 0.000000
# 4 0.000000 0.000000 0.000000 0.020516 0.000000 0.009060
# 5 0.004857 -0.010658 -0.001839 0.000000 0.066131 0.000000
# 6 0.000000 0.000000 0.000000 0.009060 0.000000 0.026545
#
#
# Mechanical properties :
#
#
# Convention : Reuss Voigt Hill
#
# Bulk Modulus (GPa) = 38.80426 43.29073 41.04749
# Shear Modulus (GPa) = 21.57670 32.13029 26.85349
#
# Velocity S-wave (km/s) = 3.39730 4.14571 3.79002
# Velocity P-wave (km/s) = 6.01213 6.78768 6.41164
#
# Compressibility (1/GPa) = 0.02577037
#
# Stress axis : x y z
#
# Youngs Moduli (GPa) = 36.46133 40.32999 63.94617
#
# Poissons Ratio (x) = 0.61202 -0.04649
# Poissons Ratio (y) = 0.55332 0.42181
# Poissons Ratio (z) = -0.02651 0.26603
#
# Static dielectric constant tensor:
#      x y z
#    x 1.670600 0.000000 0.009470 
#    y 0.000000 1.616270 0.000000 
#    z 0.009470 0.000000 1.652500 
# 
# From -- ./inp_files/88386.got.cif
#   From: 2010.05.17/outbox.cif.g08.bks.cpg/sg12_45_cif.got.tgz:88386.got - 2010.06.03 13:09:07.
