data_PCOD9210596
_publ_section_title
;
Structure prediction by ZEFSAII (Michael W. Deem and Ramdas Pophale) SiO2 
 PCOD9210596
Probable space group: C 2/M
;
_chemical_formula_sum "Si O2"
_cell_formula_units_Z 44
_cell_length_a 24.294155
_cell_length_b 9.760452
_cell_length_c 9.699995
_cell_angle_alpha 90.000000
_cell_angle_beta 61.447778
_cell_angle_gamma 90.000000
_cell_volume 2020.349891
_symmetry_space_group_name_H-M "C 2/M"
_symmetry_group_IT_number 12
_symmetry_cell_setting 'monoclinic'
loop_
_space_group_symop_operation_xyz
x,y,z
-x,y,-z
-x,-y,-z
x,-y,z
1/2+x,1/2+y,z
1/2-x,1/2+y,-z
1/2-x,1/2-y,-z
1/2+x,1/2-y,z
loop_
_atom_site_type_symbol
_atom_site_label
_atom_site_fract_x
_atom_site_fract_y
_atom_site_fract_z
Si Si1 0.344010 0.750720 0.851879
Si Si2 0.517839 0.835008 0.324384
Si Si3 0.705454 0.342115 0.363685
Si Si4 0.823960 0.157539 0.276714
Si Si5 0.437144 0.155553 0.164280
Si Si6 0.245762 0.000000 0.992649
O O1 0.416417 0.771241 0.802027
O O2 0.341322 0.723866 0.689217
O O3 0.301148 0.881101 0.934305
O O4 0.308562 0.620372 0.954736
O O5 0.500000 0.792379 0.500000
O O6 0.461184 0.806569 0.287797
O O7 0.526624 0.000000 0.313023
O O8 0.719339 0.500000 0.300516
O O9 0.767248 0.249435 0.289415
O O10 0.682404 0.343564 0.548219
O O11 0.887749 0.235672 0.168874
O O12 0.818819 0.000000 0.238758
O O13 0.410195 0.000000 0.198187
O O14 0.500000 0.152365 0.000000
#
# Coordination Sequence:
#
# PCOD9210596 Si02
#       6
#     8   8   8   8   8   4
#     4  11  21  42  59  94 124 165 205 261 312 380
#     4  10  21  39  65  92 124 167 214 259 305 374
#     4  10  21  39  63  88 123 161 202 257 313 367
#     4  10  22  39  61  93 121 156 208 258 309 366
#     4  10  22  41  61  88 121 168 209 249 309 374
#     4  10  24  36  60  86 128 160 200 248 318 368
#
# _framework density 21.778406
#
# number of rings (size 3 to 8) (size 9 to 14) (size 15 to 20)
#    0.000    1.818    1.818    1.636    1.273    4.000 
#    4.909    0.455    0.000    0.000    0.000    0.000 
#    0.000    0.000    0.000    0.000    0.000    0.000 
#
# Total GULP energy -122564.419381 kJ/mol
# GULP energy per Si atom -5571.109972 kJ/mol
# Density = 2.172884 g / cm^3
# Si number density = 21.778406 Si / 1000 Ang^3
#
#
#
# Elastic Constant Matrix: (Units=GPa)
#
#
# Indices 1 2 3 4 5 6 
#
# 1 46.3798 32.6908 18.1923 0.0000 -11.3856 0.0000
# 2 32.6908 162.8054 27.8366 0.0000 -24.2963 0.0000
# 3 18.1923 27.8366 60.0815 0.0000 -7.9877 0.0000
# 4 0.0000 0.0000 0.0000 32.2950 0.0000 -3.4100
# 5 -11.3856 -24.2963 -7.9877 0.0000 43.6082 0.0000
# 6 0.0000 0.0000 0.0000 -3.4100 0.0000 32.2563
#
#
#
# Elastic Compliance Matrix: (Units=1/GPa)
#
#
# Indices 1 2 3 4 5 6 
#
# 1 0.027666 -0.003938 -0.006031 0.000000 0.003924 0.000000
# 2 -0.003938 0.007707 -0.001992 0.000000 0.002901 0.000000
# 3 -0.006031 -0.001992 0.019511 0.000000 0.000889 0.000000
# 4 0.000000 0.000000 0.000000 0.031314 0.000000 0.003310
# 5 0.003924 0.002901 0.000889 0.000000 0.025735 0.000000
# 6 0.000000 0.000000 0.000000 0.003310 0.000000 0.031352
#
#
# Mechanical properties :
#
#
# Convention : Reuss Voigt Hill
#
# Bulk Modulus (GPa) = 32.29862 47.41176 39.85519
# Shear Modulus (GPa) = 28.16454 34.33503 31.24978
#
# Velocity S-wave (km/s) = 3.60006 3.97490 3.79211
# Velocity P-wave (km/s) = 5.66951 6.54857 6.12483
#
# Compressibility (1/GPa) = 0.03096107
#
# Stress axis : x y z
#
# Youngs Moduli (GPa) = 36.14547 129.75783 51.25203
#
# Poissons Ratio (x) = 0.51105 0.30908
# Poissons Ratio (y) = 0.14236 0.10212
# Poissons Ratio (z) = 0.21798 0.25853
#
# Static dielectric constant tensor:
#      x y z
#    x 1.821730 0.000000 0.141440 
#    y 0.000000 1.739860 0.000000 
#    z 0.141440 0.000000 1.936890 
# 
# From -- ./inp_files/162979.got.cif
#   From: 2010.05.17/outbox.cif.g08.bks.cpg/sg12_82_cif.got.tgz:162979.got - 2010.06.03 13:09:07.
