data_PCOD9210223
_publ_section_title
;
Structure prediction by ZEFSAII (Michael W. Deem and Ramdas Pophale) SiO2 
 PCOD9210223
Probable space group: C 2/M
;
_chemical_formula_sum "Si O2"
_cell_formula_units_Z 40
_cell_length_a 9.228199
_cell_length_b 21.856917
_cell_length_c 12.536706
_cell_angle_alpha 90.000000
_cell_angle_beta 138.972682
_cell_angle_gamma 90.000000
_cell_volume 1659.855573
_symmetry_space_group_name_H-M "C 2/M"
_symmetry_group_IT_number 12
_symmetry_cell_setting 'monoclinic'
loop_
_space_group_symop_operation_xyz
x,y,z
-x,y,-z
-x,-y,-z
x,-y,z
1/2+x,1/2+y,z
1/2-x,1/2+y,-z
1/2-x,1/2-y,-z
1/2+x,1/2-y,z
loop_
_atom_site_type_symbol
_atom_site_label
_atom_site_fract_x
_atom_site_fract_y
_atom_site_fract_z
Si Si1 0.221749 0.687270 0.052426
Si Si2 0.500243 0.264125 0.617719
Si Si3 0.669566 0.568806 0.497284
Si Si4 0.096942 0.628240 0.672297
Si Si5 0.039194 0.929857 0.857880
O O1 0.413948 0.691956 0.245781
O O2 0.274511 0.622982 0.023797
O O3 0.250000 0.750000 0.000000
O O4 0.000000 0.686798 0.000000
O O5 0.500000 0.289687 0.500000
O O6 0.638758 0.201052 0.700276
O O7 0.250000 0.250000 0.500000
O O8 0.500000 0.576445 0.500000
O O9 0.762799 0.500000 0.555639
O O10 0.544316 0.570789 0.313048
O O11 0.883826 0.612092 0.624421
O O12 0.321911 0.590474 0.804030
O O13 0.000000 0.616452 0.500000
O O14 0.105366 0.000000 0.918080
#
# Coordination Sequence:
#
# PCOD9210223 Si02
#       5
#     8   8   8   8   8
#     4  12  26  44  66  96 135 173 214 273 338 396
#     4  11  22  39  65  96 128 167 218 268 320 390
#     4   9  17  29  51  89 130 162 202 262 323 375
#     4   9  17  32  56  86 121 163 212 265 322 378
#     4  10  21  39  61  85 120 172 222 261 319 400
#
# _framework density 24.098483000000002
#
# number of rings (size 3 to 8) (size 9 to 14) (size 15 to 20)
#    0.000    1.800    0.000    6.600    0.000    7.600 
#    0.000    0.000    0.000    6.600    0.000    2.800 
#    0.000    0.000    0.000    0.000    0.000    0.000 
#
# Total GULP energy -111840.396337 kJ/mol
# GULP energy per Si atom -5592.019817 kJ/mol
# Density = 2.404363 g / cm^3
# Si number density = 24.098483 Si / 1000 Ang^3
#
#
#
# Elastic Constant Matrix: (Units=GPa)
#
#
# Indices 1 2 3 4 5 6 
#
# 1 117.7119 28.3661 24.0037 0.0000 13.0240 0.0000
# 2 28.3661 212.8579 28.2652 0.0000 16.4217 0.0000
# 3 24.0037 28.2652 48.4485 0.0000 5.0177 0.0000
# 4 0.0000 0.0000 0.0000 29.2987 0.0000 8.6533
# 5 13.0240 16.4217 5.0177 0.0000 40.1997 0.0000
# 6 0.0000 0.0000 0.0000 8.6533 0.0000 33.6706
#
#
#
# Elastic Compliance Matrix: (Units=1/GPa)
#
#
# Indices 1 2 3 4 5 6 
#
# 1 0.009764 -0.000549 -0.004268 0.000000 -0.002406 0.000000
# 2 -0.000549 0.005245 -0.002619 0.000000 -0.001638 0.000000
# 3 -0.004268 -0.002619 0.024344 0.000000 -0.000586 0.000000
# 4 0.000000 0.000000 0.000000 0.036935 0.000000 -0.009492
# 5 -0.002406 -0.001638 -0.000586 0.000000 0.026398 0.000000
# 6 0.000000 0.000000 0.000000 -0.009492 0.000000 0.032139
#
#
# Mechanical properties :
#
#
# Convention : Reuss Voigt Hill
#
# Bulk Modulus (GPa) = 40.84666 60.03202 50.43934
# Shear Modulus (GPa) = 31.67442 40.52602 36.10022
#
# Velocity S-wave (km/s) = 3.62936 4.10528 3.87464
# Velocity P-wave (km/s) = 5.87790 6.88740 6.40258
#
# Compressibility (1/GPa) = 0.02448181
#
# Stress axis : x y z
#
# Youngs Moduli (GPa) = 102.41488 190.65101 41.07861
#
# Poissons Ratio (x) = 0.10462 0.17533
# Poissons Ratio (y) = 0.05620 0.10757
# Poissons Ratio (z) = 0.43713 0.49923
#
# Static dielectric constant tensor:
#      x y z
#    x 1.847530 0.000000 -0.037020 
#    y 0.000000 2.006730 0.000000 
#    z -0.037020 0.000000 1.889280 
# 
# From -- ./inp_files/198673.got.cif
#   From: 2010.05.17/outbox.cif.g08.bks.cpg/sg12_100_cif.got.tgz:198673.got - 2010.06.03 13:09:07.
